data_PCOD8110833
_publ_section_title
;
Structure prediction by ZEFSAII (Michael W. Deem and Ramdas Pophale) SiO2 
 PCOD8110833
Probable space group: C 2/M
;
_chemical_formula_sum "Si O2"
_cell_formula_units_Z 36
_cell_length_a 11.934541
_cell_length_b 9.666113
_cell_length_c 13.498592
_cell_angle_alpha 90.000000
_cell_angle_beta 57.878310
_cell_angle_gamma 90.000000
_cell_volume 1318.829958
_symmetry_space_group_name_H-M "C 2/M"
_symmetry_group_IT_number 12
_symmetry_cell_setting 'monoclinic'
loop_
_space_group_symop_operation_xyz
x,y,z
-x,y,-z
-x,-y,-z
x,-y,z
1/2+x,1/2+y,z
1/2-x,1/2+y,-z
1/2-x,1/2-y,-z
1/2+x,1/2-y,z
loop_
_atom_site_type_symbol
_atom_site_label
_atom_site_fract_x
_atom_site_fract_y
_atom_site_fract_z
Si Si1 0.690866 0.154329 0.757159
Si Si2 0.000000 0.767007 0.000000
Si Si3 0.171822 0.340132 0.456688
Si Si4 0.542051 0.847793 0.293470
Si Si5 0.343380 0.350220 0.901157
O O1 0.627328 0.178422 0.898354
O O2 0.799155 0.273165 0.666826
O O3 0.572521 0.159291 0.734370
O O4 0.754222 0.000000 0.723753
O O5 0.967618 0.859886 0.918327
O O6 0.221078 0.500000 0.434109
O O7 0.250000 0.250000 0.500000
O O8 0.017868 0.335296 0.567158
O O9 0.632608 0.714882 0.220219
O O10 0.612251 0.000000 0.251145
O O11 0.283349 0.500000 0.910860
O O12 0.250000 0.250000 0.000000
#
# Coordination Sequence:
#
# PCOD8110833 Si02
#       5
#     8   4   8   8   8
#     4   9  17  29  49  76 107 145 186 229 279 333
#     4  10  22  38  58  84 116 152 190 232 278 336
#     4   9  16  26  44  72 106 142 183 230 278 330
#     4   8  16  31  49  73 107 145 184 227 276 330
#     4  11  23  38  59  86 115 149 189 233 281 334
#
# _framework density 27.296921999999999
#
# number of rings (size 3 to 8) (size 9 to 14) (size 15 to 20)
#    0.000    2.667    0.000    3.333    0.000   12.444 
#    0.000    0.000    0.000    1.333    0.000    7.778 
#    0.000    0.000    0.000    0.000    0.000    0.000 
#
# Total GULP energy -223040.831266 kJ/mol
# GULP energy per Si atom -12391.157293 kJ/mol
# Density = 2.723479 g / cm^3
# Si number density = 27.296922 Si / 1000 Ang^3
#
#
#
# Elastic Constant Matrix: (Units=GPa)
#
#
# Indices 1 2 3 4 5 6 
#
# 1 55.3618 48.9335 62.9604 0.0000 17.0081 0.0000
# 2 48.9335 294.6706 127.9452 0.0000 -19.7435 0.0000
# 3 62.9604 127.9452 229.4792 0.0000 22.5270 0.0000
# 4 0.0000 0.0000 0.0000 41.2391 0.0000 -16.3164
# 5 17.0081 -19.7435 22.5270 0.0000 75.5253 0.0000
# 6 0.0000 0.0000 0.0000 -16.3164 0.0000 21.1166
#
#
#
# Elastic Compliance Matrix: (Units=1/GPa)
#
#
# Indices 1 2 3 4 5 6 
#
# 1 0.028708 -0.002554 -0.005926 0.000000 -0.005365 0.000000
# 2 -0.002554 0.005010 -0.002346 0.000000 0.002584 0.000000
# 3 -0.005926 -0.002346 0.007439 0.000000 -0.001498 0.000000
# 4 0.000000 0.000000 0.000000 0.034926 0.000000 0.026987
# 5 -0.005365 0.002584 -0.001498 0.000000 0.015571 0.000000
# 6 0.000000 0.000000 0.000000 0.026987 0.000000 0.068208
#
#
# Mechanical properties :
#
#
# Convention : Reuss Voigt Hill
#
# Bulk Modulus (GPa) = 51.27044 117.68774 84.47909
# Shear Modulus (GPa) = 26.59376 50.22102 38.40739
#
# Velocity S-wave (km/s) = 3.12467 4.29395 3.75510
# Velocity P-wave (km/s) = 5.64281 8.23356 7.05808
#
# Compressibility (1/GPa) = 0.01950442
#
# Stress axis : x y z
#
# Youngs Moduli (GPa) = 34.83405 199.61970 134.43439
#
# Poissons Ratio (x) = 0.50977 0.79663
# Poissons Ratio (y) = 0.08896 0.31540
# Poissons Ratio (z) = 0.20642 0.46833
#
# Static dielectric constant tensor:
#      x y z
#    x 6.210220 0.000000 1.105110 
#    y 0.000000 4.927740 0.000000 
#    z 1.105110 0.000000 6.341430 
# 
# 
# High freq. dielectric constant tensor:
#      x y z
#    x 2.168360 0.000000 0.049330 
#    y 0.000000 2.088890 0.000000 
#    z 0.049330 0.000000 2.125970 
# 
# From -- ./inp_files/220478.got.cif
#   From: 2010.06.25/outbox.cif.g09.slc.cpg/sg12_111_cif.got.tgz:220478.got - 2010.06.28 00:19:55.
