data_PCOD8110331
_publ_section_title
;
Structure prediction by ZEFSAII (Michael W. Deem and Ramdas Pophale) SiO2 
 PCOD8110331
Probable space group: C 2/M
;
_chemical_formula_sum "Si O2"
_cell_formula_units_Z 64
_cell_length_a 20.157877
_cell_length_b 24.009326
_cell_length_c 17.011035
_cell_angle_alpha 90.000000
_cell_angle_beta 159.264013
_cell_angle_gamma 90.000000
_cell_volume 2914.977498
_symmetry_space_group_name_H-M "C 2/M"
_symmetry_group_IT_number 12
_symmetry_cell_setting 'monoclinic'
loop_
_space_group_symop_operation_xyz
x,y,z
-x,y,-z
-x,-y,-z
x,-y,z
1/2+x,1/2+y,z
1/2-x,1/2+y,-z
1/2-x,1/2-y,-z
1/2+x,1/2-y,z
loop_
_atom_site_type_symbol
_atom_site_label
_atom_site_fract_x
_atom_site_fract_y
_atom_site_fract_z
Si Si1 0.275610 0.061810 0.052179
Si Si2 0.431050 0.175402 0.008656
Si Si3 0.515099 0.136386 0.607604
Si Si4 0.640455 0.741965 0.796152
Si Si5 0.166124 0.938248 0.242349
Si Si6 0.982659 0.562893 0.126527
Si Si7 0.197544 0.197484 0.492119
Si Si8 0.375803 0.417935 0.630985
O O1 0.310850 0.101642 0.165632
O O2 0.398190 0.083097 0.115615
O O3 0.340753 0.000000 0.147425
O O4 0.060247 0.064564 0.787149
O O5 0.263899 0.212272 0.863584
O O6 0.500000 0.198350 0.000000
O O7 0.396796 0.107899 0.968493
O O8 0.608700 0.177209 0.260013
O O9 0.500000 0.127091 0.500000
O O10 0.553947 0.200321 0.670513
O O11 0.322293 0.109788 0.425490
O O12 0.456087 0.705763 0.609528
O O13 0.750000 0.750000 0.000000
O O14 0.099299 0.947385 0.257492
O O15 0.236660 0.000000 0.291628
O O16 0.000000 0.917787 0.000000
O O17 0.918490 0.500000 0.031180
O O18 0.206242 0.562075 0.387631
O O19 0.250000 0.250000 0.500000
O O20 0.123296 0.148696 0.353616
#
# Coordination Sequence:
#
# PCOD8110331 Si02
#       8
#     8   8   8   8   8   8   8   8
#     4  11  22  38  64  95 131 173 218 271 326 389
#     4  11  26  44  68 100 135 173 216 279 350 396
#     4  12  26  41  60  95 129 174 222 276 330 397
#     4  12  25  47  68  94 132 175 228 278 330 399
#     4  11  23  40  62  92 139 181 216 274 336 394
#     4  10  21  41  68  97 129 170 222 272 326 405
#     4  11  23  41  69  95 125 177 223 274 332 402
#     4  11  21  38  62  95 125 167 224 269 325 394
#
# _framework density 21.955572
#
# number of rings (size 3 to 8) (size 9 to 14) (size 15 to 20)
#    0.000    0.875    2.500    5.250    1.750    2.250 
#    2.250    0.000    0.000    0.000    0.000    7.000 
#    0.000    0.000    0.000    0.000    0.000    0.000 
#
# Total GULP energy -396477.551515 kJ/mol
# GULP energy per Si atom -12389.923485 kJ/mol
# Density = 2.190560 g / cm^3
# Si number density = 21.955572 Si / 1000 Ang^3
#
#
#
# Elastic Constant Matrix: (Units=GPa)
#
#
# Indices 1 2 3 4 5 6 
#
# 1 96.1914 46.3103 25.3965 -0.0001 16.8346 0.0000
# 2 46.3103 136.7389 28.1499 0.0000 12.3187 0.0000
# 3 25.3965 28.1499 84.5231 -0.0001 29.4463 0.0001
# 4 -0.0001 0.0000 -0.0001 27.5302 -0.0002 -1.2462
# 5 16.8346 12.3187 29.4463 -0.0002 30.1952 -0.0001
# 6 0.0000 0.0000 0.0001 -1.2462 -0.0001 26.6810
#
#
#
# Elastic Compliance Matrix: (Units=1/GPa)
#
#
# Indices 1 2 3 4 5 6 
#
# 1 0.013391 -0.003884 -0.001032 0.000000 -0.004876 0.000000
# 2 -0.003884 0.008997 -0.001977 0.000000 0.000422 0.000000
# 3 -0.001032 -0.001977 0.018656 0.000000 -0.016812 0.000000
# 4 0.000000 0.000000 0.000000 0.036401 0.000000 0.001700
# 5 -0.004876 0.000422 -0.016812 0.000000 0.052059 0.000000
# 6 0.000000 0.000000 0.000000 0.001700 0.000000 0.037559
#
#
# Mechanical properties :
#
#
# Convention : Reuss Voigt Hill
#
# Bulk Modulus (GPa) = 36.68256 57.46295 47.07276
# Shear Modulus (GPa) = 26.32478 31.38775 28.85626
#
# Velocity S-wave (km/s) = 3.46642 3.78511 3.62926
# Velocity P-wave (km/s) = 5.72410 6.73290 6.24889
#
# Compressibility (1/GPa) = 0.02726091
#
# Stress axis : x y z
#
# Youngs Moduli (GPa) = 74.67492 111.14283 53.60095
#
# Poissons Ratio (x) = 0.43165 0.05530
# Poissons Ratio (y) = 0.29002 0.10595
# Poissons Ratio (z) = 0.07704 0.21970
#
# Static dielectric constant tensor:
#      x y z
#    x 4.179740 0.000000 0.554870 
#    y 0.000000 4.008940 0.000000 
#    z 0.554870 0.000000 4.464630 
# 
# 
# High freq. dielectric constant tensor:
#      x y z
#    x 1.848180 0.000000 0.017660 
#    y 0.000000 1.883640 0.000000 
#    z 0.017660 0.000000 1.859050 
# 
# From -- ./inp_files/286446.got.cif
#   From: 2010.06.25/outbox.cif.g09.slc.cpg/sg12_144_cif.got.tgz:286446.got - 2010.06.28 00:19:55.
