data_PCOD8110618
_publ_section_title
;
Structure prediction by ZEFSAII (Michael W. Deem and Ramdas Pophale) SiO2 
 PCOD8110618
Probable space group: C 2/M
;
_chemical_formula_sum "Si O2"
_cell_formula_units_Z 64
_cell_length_a 30.278769
_cell_length_b 16.943331
_cell_length_c 10.305890
_cell_angle_alpha 90.000000
_cell_angle_beta 144.104962
_cell_angle_gamma 90.000000
_cell_volume 3099.873976
_symmetry_space_group_name_H-M "C 2/M"
_symmetry_group_IT_number 12
_symmetry_cell_setting 'monoclinic'
loop_
_space_group_symop_operation_xyz
x,y,z
-x,y,-z
-x,-y,-z
x,-y,z
1/2+x,1/2+y,z
1/2-x,1/2+y,-z
1/2-x,1/2-y,-z
1/2+x,1/2-y,z
loop_
_atom_site_type_symbol
_atom_site_label
_atom_site_fract_x
_atom_site_fract_y
_atom_site_fract_z
Si Si1 0.015054 0.587854 0.269983
Si Si2 0.672142 0.310834 0.192132
Si Si3 0.732251 0.338604 0.603764
Si Si4 0.638164 0.911671 0.955330
Si Si5 0.335425 0.857258 0.251825
Si Si6 0.174196 0.909153 0.941568
Si Si7 0.127410 0.814465 0.585283
Si Si8 0.512424 0.252073 0.886622
O O1 0.007953 0.500000 0.188954
O O2 0.948170 0.601573 0.212976
O O3 0.010196 0.659170 0.155914
O O4 0.093237 0.592790 0.531622
O O5 0.693715 0.358634 0.374071
O O6 0.741571 0.252802 0.325589
O O7 0.655364 0.370275 0.035240
O O8 0.597592 0.259418 0.041346
O O9 0.672001 0.356482 0.574000
O O10 0.805205 0.394836 0.790489
O O11 0.661698 0.851893 0.897368
O O12 0.650711 0.000000 0.934817
O O13 0.262757 0.903669 0.126944
O O14 0.331354 0.768175 0.290873
O O15 0.149115 0.000000 0.887595
O O16 0.127842 0.867691 0.715126
O O17 0.040825 0.798938 0.340330
O O18 0.500000 0.288109 0.000000
#
# Coordination Sequence:
#
# PCOD8110618 Si02
#       8
#     8   8   8   8   8   8   8   8
#     4  10  22  36  56  94 138 170 202 249 308 377
#     4  11  24  42  64  91 127 163 212 264 309 368
#     4  11  21  39  65  91 124 168 211 258 299 370
#     4  11  21  35  58  91 131 169 206 251 305 373
#     4  11  21  37  62  93 130 169 206 250 308 376
#     4  12  25  42  66  96 127 162 210 270 326 368
#     4  11  23  40  68  96 124 163 213 258 309 376
#     4  11  23  42  67  91 121 168 216 254 315 381
#
# _framework density 20.646000000000001
#
# number of rings (size 3 to 8) (size 9 to 14) (size 15 to 20)
#    0.000    1.000    5.000    2.625    0.000    2.250 
#    0.000    1.250    0.000    0.750    0.000    0.000 
#    0.000    0.000    0.000    0.000    0.000    0.000 
#
# Total GULP energy -396852.220194 kJ/mol
# GULP energy per Si atom -12401.631881 kJ/mol
# Density = 2.059901 g / cm^3
# Si number density = 20.646000 Si / 1000 Ang^3
#
#
#
# Elastic Constant Matrix: (Units=GPa)
#
#
# Indices 1 2 3 4 5 6 
#
# 1 77.3368 26.2274 49.4902 0.0000 -12.2589 0.0000
# 2 26.2274 83.0512 38.7457 0.0000 -9.9911 0.0000
# 3 49.4902 38.7457 132.6706 0.0000 -10.6513 0.0000
# 4 0.0000 0.0000 0.0000 20.1885 0.0000 2.2873
# 5 -12.2589 -9.9911 -10.6513 0.0000 39.8690 0.0000
# 6 0.0000 0.0000 0.0000 2.2873 0.0000 20.2854
#
#
#
# Elastic Compliance Matrix: (Units=1/GPa)
#
#
# Indices 1 2 3 4 5 6 
#
# 1 0.017983 -0.002630 -0.005671 0.000000 0.003355 0.000000
# 2 -0.002630 0.014564 -0.003111 0.000000 0.002010 0.000000
# 3 -0.005671 -0.003111 0.010586 0.000000 0.000305 0.000000
# 4 0.000000 0.000000 0.000000 0.050174 0.000000 -0.005658
# 5 0.003355 0.002010 0.000305 0.000000 0.026699 0.000000
# 6 0.000000 0.000000 0.000000 -0.005658 0.000000 0.049934
#
#
# Mechanical properties :
#
#
# Convention : Reuss Voigt Hill
#
# Bulk Modulus (GPa) = 49.23670 57.99835 53.61753
# Shear Modulus (GPa) = 25.05831 27.97494 26.51663
#
# Velocity S-wave (km/s) = 3.48762 3.68500 3.58767
# Velocity P-wave (km/s) = 6.33386 6.80136 6.57177
#
# Compressibility (1/GPa) = 0.02031005
#
# Stress axis : x y z
#
# Youngs Moduli (GPa) = 55.60765 68.66020 94.46505
#
# Poissons Ratio (x) = 0.18056 0.53570
# Poissons Ratio (y) = 0.14624 0.29389
# Poissons Ratio (z) = 0.31534 0.21361
#
# Static dielectric constant tensor:
#      x y z
#    x 3.571330 0.000000 -0.033250 
#    y 0.000000 3.548770 0.000000 
#    z -0.033250 0.000000 3.876060 
# 
# 
# High freq. dielectric constant tensor:
#      x y z
#    x 1.803380 0.000000 0.001670 
#    y 0.000000 1.786970 0.000000 
#    z 0.001670 0.000000 1.817360 
# 
# From -- ./inp_files/112903.got.cif
#   From: 2010.06.25/outbox.cif.g09.slc.cpg/sg12_57_cif.got.tgz:112903.got - 2010.06.28 00:19:55.
