data_PCOD8110033
_publ_section_title
;
Structure prediction by ZEFSAII (Michael W. Deem and Ramdas Pophale) SiO2 
 PCOD8110033
Probable space group: C 2/M
;
_chemical_formula_sum "Si O2"
_cell_formula_units_Z 60
_cell_length_a 18.529045
_cell_length_b 20.103590
_cell_length_c 9.739196
_cell_angle_alpha 90.000000
_cell_angle_beta 51.806905
_cell_angle_gamma 90.000000
_cell_volume 2851.244163
_symmetry_space_group_name_H-M "C 2/M"
_symmetry_group_IT_number 12
_symmetry_cell_setting 'monoclinic'
loop_
_space_group_symop_operation_xyz
x,y,z
-x,y,-z
-x,-y,-z
x,-y,z
1/2+x,1/2+y,z
1/2-x,1/2+y,-z
1/2-x,1/2-y,-z
1/2+x,1/2-y,z
loop_
_atom_site_type_symbol
_atom_site_label
_atom_site_fract_x
_atom_site_fract_y
_atom_site_fract_z
Si Si1 0.007474 0.165399 0.152353
Si Si2 0.432893 0.424591 0.466269
Si Si3 0.279211 0.798177 0.310720
Si Si4 0.226024 0.428918 0.808142
Si Si5 0.174464 0.575041 0.183890
Si Si6 0.892223 0.733307 0.425908
Si Si7 0.000000 0.363265 0.500000
Si Si8 0.293446 0.699075 0.063251
O O1 0.944931 0.112293 0.306534
O O2 0.968569 0.238527 0.233344
O O3 0.110651 0.165347 0.093687
O O4 0.000000 0.149287 0.000000
O O5 0.500000 0.391280 0.500000
O O6 0.463742 0.500000 0.400993
O O7 0.332335 0.422398 0.648140
O O8 0.322449 0.867034 0.205939
O O9 0.166679 0.791862 0.427199
O O10 0.311399 0.799726 0.430537
O O11 0.320011 0.739037 0.169920
O O12 0.188108 0.500000 0.797621
O O13 0.206111 0.423499 0.990975
O O14 0.196012 0.500000 0.218076
O O15 0.066045 0.589581 0.331483
O O16 0.227914 0.637840 0.187334
O O17 0.937697 0.682372 0.476453
O O18 0.250000 0.750000 0.000000
#
# Coordination Sequence:
#
# PCOD8110033 Si02
#       8
#     8   8   8   8   8   8   4   8
#     4  12  25  40  63  99 138 170 219 284 341 395
#     4  10  22  40  63  92 127 172 220 268 326 404
#     4  11  22  43  63  94 135 169 220 279 329 402
#     4  10  21  40  66  93 128 174 221 271 334 405
#     4  11  24  43  67  99 136 175 226 287 339 399
#     4  11  25  40  67  96 132 174 224 280 339 392
#     4  12  25  44  70  98 127 180 234 282 337 408
#     4  12  23  40  66  98 127 177 222 267 338 405
#
# _framework density 21.043445999999999
#
# number of rings (size 3 to 8) (size 9 to 14) (size 15 to 20)
#    0.000    0.933    5.333    1.800    0.933    1.867 
#    0.000    1.333    0.000    1.600    0.000    0.000 
#    0.000    0.000    0.000    0.000    0.000    0.000 
#
# Total GULP energy -371668.854797 kJ/mol
# GULP energy per Si atom -12388.961827 kJ/mol
# Density = 2.099555 g / cm^3
# Si number density = 21.043446 Si / 1000 Ang^3
#
#
#
# Elastic Constant Matrix: (Units=GPa)
#
#
# Indices 1 2 3 4 5 6 
#
# 1 82.3492 39.4000 31.9339 0.0000 1.0312 0.0000
# 2 39.4000 146.0930 42.9667 0.0000 5.4811 0.0000
# 3 31.9339 42.9667 130.5711 0.0000 -4.6589 0.0000
# 4 0.0000 0.0000 0.0000 14.4552 0.0000 0.3921
# 5 1.0312 5.4811 -4.6589 0.0000 37.6689 0.0000
# 6 0.0000 0.0000 0.0000 0.3921 0.0000 11.3391
#
#
#
# Elastic Compliance Matrix: (Units=1/GPa)
#
#
# Indices 1 2 3 4 5 6 
#
# 1 0.014662 -0.003197 -0.002543 0.000000 -0.000251 0.000000
# 2 -0.003197 0.008352 -0.002015 0.000000 -0.001377 0.000000
# 3 -0.002543 -0.002015 0.008996 0.000000 0.001476 0.000000
# 4 0.000000 0.000000 0.000000 0.069244 0.000000 -0.002395
# 5 -0.000251 -0.001377 0.001476 0.000000 0.026937 0.000000
# 6 0.000000 0.000000 0.000000 -0.002395 0.000000 0.088273
#
#
# Mechanical properties :
#
#
# Convention : Reuss Voigt Hill
#
# Bulk Modulus (GPa) = 60.60763 65.29052 62.94908
# Shear Modulus (GPa) = 21.05485 29.00682 25.03083
#
# Velocity S-wave (km/s) = 3.16657 3.71674 3.45263
# Velocity P-wave (km/s) = 6.49871 7.03653 6.77296
#
# Compressibility (1/GPa) = 0.01649957
#
# Stress axis : x y z
#
# Youngs Moduli (GPa) = 68.20237 119.73773 111.15488
#
# Poissons Ratio (x) = 0.38280 0.28265
# Poissons Ratio (y) = 0.21804 0.22403
# Poissons Ratio (z) = 0.17343 0.24133
#
# Static dielectric constant tensor:
#      x y z
#    x 3.603660 0.000000 -0.209210 
#    y 0.000000 4.363700 0.000000 
#    z -0.209210 0.000000 4.016380 
# 
# 
# High freq. dielectric constant tensor:
#      x y z
#    x 1.796060 0.000000 -0.013450 
#    y 0.000000 1.832240 0.000000 
#    z -0.013450 0.000000 1.843910 
# 
# From -- ./inp_files/89818.got.cif
#   From: 2010.06.25/outbox.cif.g09.slc.cpg/sg12_45_cif.got.tgz:89818.got - 2010.06.28 00:19:55.
