data_PCOD8110178
_publ_section_title
;
Structure prediction by ZEFSAII (Michael W. Deem and Ramdas Pophale) SiO2 
 PCOD8110178
Probable space group: C 2/M
;
_chemical_formula_sum "Si O2"
_cell_formula_units_Z 40
_cell_length_a 12.357535
_cell_length_b 9.662895
_cell_length_c 21.538322
_cell_angle_alpha 90.000000
_cell_angle_beta 139.160359
_cell_angle_gamma 90.000000
_cell_volume 1681.867035
_symmetry_space_group_name_H-M "C 2/M"
_symmetry_group_IT_number 12
_symmetry_cell_setting 'monoclinic'
loop_
_space_group_symop_operation_xyz
x,y,z
-x,y,-z
-x,-y,-z
x,-y,z
1/2+x,1/2+y,z
1/2-x,1/2+y,-z
1/2-x,1/2-y,-z
1/2+x,1/2-y,z
loop_
_atom_site_type_symbol
_atom_site_label
_atom_site_fract_x
_atom_site_fract_y
_atom_site_fract_z
Si Si1 0.639214 0.704993 0.321955
Si Si2 0.838681 0.500000 0.609290
Si Si3 0.714094 0.296472 0.864996
Si Si4 0.791950 0.500000 0.795848
Si Si5 0.688050 0.500000 0.070616
Si Si6 0.097844 0.500000 0.606284
Si Si7 0.440805 0.500000 0.606816
Si Si8 0.847684 0.500000 0.018855
O O1 0.480193 0.672392 0.209392
O O2 0.791421 0.640702 0.348508
O O3 0.615956 0.633775 0.378808
O O4 0.653836 0.868297 0.341634
O O5 0.656174 0.500000 0.499786
O O6 0.981189 0.500000 0.617003
O O7 0.770517 0.360942 0.825269
O O8 0.829455 0.362043 0.969031
O O9 0.730179 0.133623 0.863825
O O10 0.641896 0.500000 0.680015
O O11 0.988003 0.500000 0.864909
O O12 0.500000 0.500000 0.000000
O O13 0.697984 0.500000 0.000879
O O14 0.000000 0.500000 0.500000
#
# Coordination Sequence:
#
# PCOD8110178 Si02
#       8
#     8   4   8   4   4   4   4   4
#     4  10  22  43  63 101 137 174 234 283 331 417
#     4  12  22  42  73  97 140 187 225 288 351 389
#     4  10  21  41  63  90 130 165 214 277 328 394
#     4   9  19  39  66  87 120 176 216 262 332 398
#     4  12  24  39  59  96 132 164 220 278 323 392
#     4  11  23  42  70  97 137 185 233 277 351 413
#     4   9  19  37  67  93 131 176 222 275 342 402
#     4  11  21  40  65  88 124 181 211 258 341 401
#
# _framework density 23.783093000000001
#
# number of rings (size 3 to 8) (size 9 to 14) (size 15 to 20)
#    0.000    1.600    2.000    6.000    0.000    0.000 
#   14.400    2.500    0.000    0.000    0.000    0.000 
#    0.000    0.000    0.000    0.000    0.000    0.000 
#
# Total GULP energy -247789.766795 kJ/mol
# GULP energy per Si atom -12389.488340 kJ/mol
# Density = 2.372896 g / cm^3
# Si number density = 23.783093 Si / 1000 Ang^3
#
#
#
# Elastic Constant Matrix: (Units=GPa)
#
#
# Indices 1 2 3 4 5 6 
#
# 1 71.9603 28.1038 27.3068 0.0000 24.7909 0.0000
# 2 28.1038 184.9121 15.8276 0.0000 7.9170 0.0000
# 3 27.3068 15.8276 141.7134 0.0000 32.7356 0.0000
# 4 0.0000 0.0000 0.0000 35.2590 0.0000 3.4792
# 5 24.7909 7.9170 32.7356 0.0000 25.1457 0.0000
# 6 0.0000 0.0000 0.0000 3.4792 0.0000 12.3844
#
#
#
# Elastic Compliance Matrix: (Units=1/GPa)
#
#
# Indices 1 2 3 4 5 6 
#
# 1 0.022249 -0.002514 0.001255 0.000000 -0.022778 0.000000
# 2 -0.002514 0.005775 -0.000448 0.000000 0.001243 0.000000
# 3 0.001255 -0.000448 0.010179 0.000000 -0.014348 0.000000
# 4 0.000000 0.000000 0.000000 0.029170 0.000000 -0.008195
# 5 -0.022778 0.001243 -0.014348 0.000000 0.080512 0.000000
# 6 0.000000 0.000000 0.000000 -0.008195 0.000000 0.083049
#
#
# Mechanical properties :
#
#
# Convention : Reuss Voigt Hill
#
# Bulk Modulus (GPa) = 28.74338 60.11802 44.43070
# Shear Modulus (GPa) = 20.32989 36.38101 28.35545
#
# Velocity S-wave (km/s) = 2.92688 3.91538 3.45665
# Velocity P-wave (km/s) = 4.85119 6.76556 5.88671
#
# Compressibility (1/GPa) = 0.03479062
#
# Stress axis : x y z
#
# Youngs Moduli (GPa) = 44.94570 173.15616 98.24167
#
# Poissons Ratio (x) = 0.43527 -0.12331
# Poissons Ratio (y) = 0.11298 0.04399
# Poissons Ratio (z) = -0.05642 0.07753
#
# Static dielectric constant tensor:
#      x y z
#    x 6.166470 0.000000 -9.843140 
#    y 0.000000 4.437760 0.000000 
#    z -9.843140 0.000000 51.714590 
# 
# 
# High freq. dielectric constant tensor:
#      x y z
#    x 1.910160 0.000000 0.018450 
#    y 0.000000 1.953880 0.000000 
#    z 0.018450 0.000000 1.959230 
# 
# From -- ./inp_files/375791.got.cif
#   From: 2010.06.25/outbox.cif.g09.slc.cpg/sg12_188_cif.got.tgz:375791.got - 2010.06.28 00:19:55.
