data_PCOD8110359
_publ_section_title
;
Structure prediction by ZEFSAII (Michael W. Deem and Ramdas Pophale) SiO2 
 PCOD8110359
Probable space group: C 2/M
;
_chemical_formula_sum "Si O2"
_cell_formula_units_Z 64
_cell_length_a 23.068902
_cell_length_b 13.486978
_cell_length_c 16.375232
_cell_angle_alpha 90.000000
_cell_angle_beta 34.592932
_cell_angle_gamma 90.000000
_cell_volume 2892.545574
_symmetry_space_group_name_H-M "C 2/M"
_symmetry_group_IT_number 12
_symmetry_cell_setting 'monoclinic'
loop_
_space_group_symop_operation_xyz
x,y,z
-x,y,-z
-x,-y,-z
x,-y,z
1/2+x,1/2+y,z
1/2-x,1/2+y,-z
1/2-x,1/2-y,-z
1/2+x,1/2-y,z
loop_
_atom_site_type_symbol
_atom_site_label
_atom_site_fract_x
_atom_site_fract_y
_atom_site_fract_z
Si Si1 0.540088 0.883366 0.679638
Si Si2 0.398824 0.740743 0.922192
Si Si3 0.423640 0.386026 0.745604
Si Si4 0.917846 0.392707 0.663372
Si Si5 0.467041 0.617212 0.124785
Si Si6 0.231903 0.117207 0.555419
Si Si7 0.202022 0.206858 0.242112
Si Si8 0.336194 0.616415 0.542054
O O1 0.486785 0.824216 0.814397
O O2 0.478253 0.849490 0.671013
O O3 0.658478 0.850758 0.535524
O O4 0.531760 0.000000 0.705766
O O5 0.365776 0.690200 0.874277
O O6 0.443368 0.647130 0.918295
O O7 0.309985 0.799403 0.071651
O O8 0.402999 0.500000 0.793822
O O9 0.379184 0.366399 0.706787
O O10 0.543782 0.362397 0.606932
O O11 0.867229 0.500000 0.742862
O O12 0.831418 0.320703 0.729918
O O13 0.000000 0.410136 0.500000
O O14 0.462971 0.500000 0.124998
O O15 0.356966 0.658987 0.282185
O O16 0.500000 0.663731 0.000000
O O17 0.218266 0.156532 0.477876
O O18 0.220734 0.000000 0.564066
O O19 0.209841 0.176566 0.327795
O O20 0.315198 0.500000 0.580346
#
# Coordination Sequence:
#
# PCOD8110359 Si02
#       8
#     8   8   8   8   8   8   8   8
#     4  10  23  42  65  90 124 170 218 265 319 384
#     4  12  25  41  60  95 131 167 217 261 323 391
#     4  11  22  41  67  94 126 168 215 270 326 383
#     4  10  22  40  62  90 127 169 215 265 316 380
#     4  10  22  42  65  94 132 166 208 268 324 383
#     4   9  19  41  70  96 123 165 216 265 325 384
#     4  12  25  39  61  96 133 167 214 265 325 388
#     4  10  21  41  70  99 125 162 217 274 325 380
#
# _framework density 22.12584
#
# number of rings (size 3 to 8) (size 9 to 14) (size 15 to 20)
#    0.000    1.500    2.500    2.250    0.000    5.500 
#    0.000    2.500    0.000    2.625    0.000    0.000 
#    0.000    0.000    0.000    0.000    0.000    0.000 
#
# Total GULP energy -396777.097871 kJ/mol
# GULP energy per Si atom -12399.284308 kJ/mol
# Density = 2.207548 g / cm^3
# Si number density = 22.125840 Si / 1000 Ang^3
#
#
#
# Elastic Constant Matrix: (Units=GPa)
#
#
# Indices 1 2 3 4 5 6 
#
# 1 90.6596 20.3061 50.8101 0.0000 19.3370 0.0000
# 2 20.3061 63.5214 36.0553 0.0000 6.8299 0.0000
# 3 50.8101 36.0553 119.4133 0.0000 14.6571 0.0000
# 4 0.0000 0.0000 0.0000 32.6163 0.0000 2.7158
# 5 19.3370 6.8299 14.6571 0.0000 33.2283 0.0000
# 6 0.0000 0.0000 0.0000 2.7158 0.0000 23.7028
#
#
#
# Elastic Compliance Matrix: (Units=1/GPa)
#
#
# Indices 1 2 3 4 5 6 
#
# 1 0.015803 -0.001194 -0.005566 0.000000 -0.006496 0.000000
# 2 -0.001194 0.019156 -0.005157 0.000000 -0.000968 0.000000
# 3 -0.005566 -0.005157 0.012446 0.000000 -0.001191 0.000000
# 4 0.000000 0.000000 0.000000 0.030955 0.000000 -0.003547
# 5 -0.006496 -0.000968 -0.001191 0.000000 0.034599 0.000000
# 6 0.000000 0.000000 0.000000 -0.003547 0.000000 0.042595
#
#
# Mechanical properties :
#
#
# Convention : Reuss Voigt Hill
#
# Bulk Modulus (GPa) = 42.42677 54.21525 48.32101
# Shear Modulus (GPa) = 26.70305 29.00434 27.85369
#
# Velocity S-wave (km/s) = 3.47777 3.62454 3.55191
# Velocity P-wave (km/s) = 5.94503 6.48635 6.22158
#
# Compressibility (1/GPa) = 0.02357003
#
# Stress axis : x y z
#
# Youngs Moduli (GPa) = 63.28014 52.20410 80.34733
#
# Poissons Ratio (x) = 0.06232 0.44724
# Poissons Ratio (y) = 0.07555 0.41435
# Poissons Ratio (z) = 0.35223 0.26922
#
# Static dielectric constant tensor:
#      x y z
#    x 3.224190 0.000000 0.128680 
#    y 0.000000 4.098930 0.000000 
#    z 0.128680 0.000000 3.996410 
# 
# 
# High freq. dielectric constant tensor:
#      x y z
#    x 1.867580 0.000000 0.005990 
#    y 0.000000 1.881980 0.000000 
#    z 0.005990 0.000000 1.860230 
# 
# From -- ./inp_files/290104.got.cif
#   From: 2010.06.25/outbox.cif.g09.slc.cpg/sg12_146_cif.got.tgz:290104.got - 2010.06.28 00:19:55.
