data_PCOD8110786
_publ_section_title
;
Structure prediction by ZEFSAII (Michael W. Deem and Ramdas Pophale) SiO2 
 PCOD8110786
Probable space group: C 2/M
;
_chemical_formula_sum "Si O2"
_cell_formula_units_Z 64
_cell_length_a 14.615448
_cell_length_b 8.930618
_cell_length_c 26.808902
_cell_angle_alpha 90.000000
_cell_angle_beta 105.370918
_cell_angle_gamma 90.000000
_cell_volume 3374.064213
_symmetry_space_group_name_H-M "C 2/M"
_symmetry_group_IT_number 12
_symmetry_cell_setting 'monoclinic'
loop_
_space_group_symop_operation_xyz
x,y,z
-x,y,-z
-x,-y,-z
x,-y,z
1/2+x,1/2+y,z
1/2-x,1/2+y,-z
1/2-x,1/2-y,-z
1/2+x,1/2-y,z
loop_
_atom_site_type_symbol
_atom_site_label
_atom_site_fract_x
_atom_site_fract_y
_atom_site_fract_z
Si Si1 0.651186 0.675151 0.500423
Si Si2 0.039464 0.823878 0.581613
Si Si3 0.798181 0.822795 0.863264
Si Si4 0.380923 0.824405 0.310602
Si Si5 0.706895 0.827269 0.243847
Si Si6 0.015876 0.174298 0.056757
Si Si7 0.381344 0.326460 0.125465
Si Si8 0.508761 0.171785 0.773069
O O1 0.668529 0.500000 0.500785
O O2 0.750000 0.750000 0.500000
O O3 0.567060 0.720481 0.450342
O O4 0.616607 0.721964 0.550736
O O5 0.060282 0.731069 0.633858
O O6 0.046035 0.000000 0.593342
O O7 0.781158 0.754177 0.806895
O O8 0.893016 0.755394 0.902135
O O9 0.711427 0.775603 0.885774
O O10 0.802482 0.000000 0.857758
O O11 0.279110 0.743565 0.294059
O O12 0.439567 0.780262 0.269939
O O13 0.364371 0.000000 0.312448
O O14 0.602756 0.804804 0.251359
O O15 0.731835 0.000000 0.239328
O O16 0.923286 0.201691 0.076630
O O17 0.037773 0.000000 0.052714
O O18 0.000000 0.248994 0.000000
O O19 0.356208 0.500000 0.130191
O O20 0.458321 0.278783 0.177686
O O21 0.532496 0.000000 0.790669
#
# Coordination Sequence:
#
# PCOD8110786 Si02
#       8
#     8   8   8   8   8   8   8   8
#     4   9  19  37  62  87 115 154 197 238 288 338
#     4   9  20  39  58  82 119 158 192 236 287 341
#     4  11  21  36  58  83 112 147 186 233 284 337
#     4  11  23  38  57  85 119 154 191 239 289 339
#     4  11  22  37  58  83 112 151 191 233 287 345
#     4   9  20  38  58  82 114 149 186 233 287 342
#     4  11  21  35  59  85 109 146 191 229 279 344
#     4  10  22  38  56  80 114 149 186 235 288 338
#
# _framework density 18.968222000000001
#
# number of rings (size 3 to 8) (size 9 to 14) (size 15 to 20)
#    0.000    1.875    2.500    2.250    0.000    3.500 
#    0.000    5.000    0.000    5.250    0.000    0.000 
#    0.000    0.000    0.000    0.000    0.000    0.000 
#
# Total GULP energy -396869.039599 kJ/mol
# GULP energy per Si atom -12402.157487 kJ/mol
# Density = 1.892505 g / cm^3
# Si number density = 18.968222 Si / 1000 Ang^3
#
#
#
# Elastic Constant Matrix: (Units=GPa)
#
#
# Indices 1 2 3 4 5 6 
#
# 1 102.0202 29.0557 23.9020 0.0000 7.9081 0.0000
# 2 29.0557 66.6907 31.4111 0.0000 1.6097 0.0000
# 3 23.9020 31.4111 92.7204 0.0000 2.9128 0.0000
# 4 0.0000 0.0000 0.0000 21.8550 0.0000 -0.2889
# 5 7.9081 1.6097 2.9128 0.0000 25.5090 0.0000
# 6 0.0000 0.0000 0.0000 -0.2889 0.0000 32.5109
#
#
#
# Elastic Compliance Matrix: (Units=1/GPa)
#
#
# Indices 1 2 3 4 5 6 
#
# 1 0.011610 -0.004306 -0.001435 0.000000 -0.003164 0.000000
# 2 -0.004306 0.019443 -0.005500 0.000000 0.000736 0.000000
# 3 -0.001435 -0.005500 0.013040 0.000000 -0.000697 0.000000
# 4 0.000000 0.000000 0.000000 0.045761 0.000000 0.000407
# 5 -0.003164 0.000736 -0.000697 0.000000 0.040216 0.000000
# 6 0.000000 0.000000 0.000000 0.000407 0.000000 0.030763
#
#
# Mechanical properties :
#
#
# Convention : Reuss Voigt Hill
#
# Bulk Modulus (GPa) = 46.27094 47.79655 47.03375
# Shear Modulus (GPa) = 26.24423 27.77916 27.01169
#
# Velocity S-wave (km/s) = 3.72370 3.83104 3.77775
# Velocity P-wave (km/s) = 6.55246 6.69493 6.62408
#
# Compressibility (1/GPa) = 0.02161184
#
# Stress axis : x y z
#
# Youngs Moduli (GPa) = 86.13490 51.43148 76.68656
#
# Poissons Ratio (x) = 0.22146 0.11002
# Poissons Ratio (y) = 0.37090 0.42177
# Poissons Ratio (z) = 0.12358 0.28287
#
# Static dielectric constant tensor:
#      x y z
#    x 3.705560 0.000000 0.075070 
#    y 0.000000 3.368430 0.000000 
#    z 0.075070 0.000000 3.509590 
# 
# 
# High freq. dielectric constant tensor:
#      x y z
#    x 1.749740 0.000000 0.002870 
#    y 0.000000 1.729010 0.000000 
#    z 0.002870 0.000000 1.734460 
# 
# From -- ./inp_files/359981.got.cif
#   From: 2010.06.25/outbox.cif.g09.slc.cpg/sg12_180_cif.got.tgz:359981.got - 2010.06.28 00:19:55.
