data_PCOD8110995
_publ_section_title
;
Structure prediction by ZEFSAII (Michael W. Deem and Ramdas Pophale) SiO2 
 PCOD8110995
Probable space group: C 2/M
;
_chemical_formula_sum "Si O2"
_cell_formula_units_Z 64
_cell_length_a 14.649851
_cell_length_b 31.171341
_cell_length_c 8.023664
_cell_angle_alpha 90.000000
_cell_angle_beta 59.463727
_cell_angle_gamma 90.000000
_cell_volume 3155.874644
_symmetry_space_group_name_H-M "C 2/M"
_symmetry_group_IT_number 12
_symmetry_cell_setting 'monoclinic'
loop_
_space_group_symop_operation_xyz
x,y,z
-x,y,-z
-x,-y,-z
x,-y,z
1/2+x,1/2+y,z
1/2-x,1/2+y,-z
1/2-x,1/2-y,-z
1/2+x,1/2-y,z
loop_
_atom_site_type_symbol
_atom_site_label
_atom_site_fract_x
_atom_site_fract_y
_atom_site_fract_z
Si Si1 0.843214 0.449073 0.342976
Si Si2 0.896606 0.949332 0.887386
Si Si3 0.093922 0.302620 0.634308
Si Si4 0.771569 0.698079 0.171180
Si Si5 0.210832 0.397805 0.909981
Si Si6 0.876456 0.727824 0.735035
Si Si7 0.991276 0.388133 0.694756
Si Si8 0.369802 0.449556 0.287689
O O1 0.847102 0.500000 0.326808
O O2 0.857086 0.427090 0.151877
O O3 0.944442 0.432867 0.353448
O O4 0.732690 0.431008 0.522664
O O5 0.818547 0.923330 0.843138
O O6 0.018663 0.937897 0.726064
O O7 0.875913 0.000000 0.884375
O O8 0.872757 0.933135 0.096016
O O9 0.161633 0.285688 0.728841
O O10 0.154537 0.302464 0.397717
O O11 0.048920 0.348989 0.738544
O O12 0.999670 0.269617 0.672924
O O13 0.753082 0.647222 0.202744
O O14 0.661482 0.723951 0.271919
O O15 0.824032 0.707102 0.945553
O O16 0.131493 0.392908 0.139976
O O17 0.000000 0.371585 0.500000
O O18 0.357691 0.500000 0.293294
#
# Coordination Sequence:
#
# PCOD8110995 Si02
#       8
#     8   8   8   8   8   8   8   8
#     4  11  24  38  57  90 127 166 211 259 311 371
#     4   9  18  36  63  85 116 167 213 254 305 366
#     4  11  20  41  65  89 121 162 203 257 314 384
#     4  11  22  39  63  92 121 160 202 256 314 378
#     4  12  23  36  59  90 130 161 201 258 315 372
#     4  10  22  38  66  91 115 153 213 249 307 391
#     4  12  23  39  63  88 120 170 216 256 310 379
#     4   8  17  37  60  82 110 159 216 257 304 363
#
# _framework density 20.279639
#
# number of rings (size 3 to 8) (size 9 to 14) (size 15 to 20)
#    0.000    1.500    3.750    3.000    0.000    2.250 
#    0.000    4.375   11.000    0.000    0.000    0.000 
#    0.000    0.000    0.000    0.000    0.000    0.000 
#
# Total GULP energy -396530.824376 kJ/mol
# GULP energy per Si atom -12391.588262 kJ/mol
# Density = 2.023348 g / cm^3
# Si number density = 20.279639 Si / 1000 Ang^3
#
#
#
# Elastic Constant Matrix: (Units=GPa)
#
#
# Indices 1 2 3 4 5 6 
#
# 1 105.2948 56.9056 21.9751 0.0000 0.3461 0.0000
# 2 56.9056 106.6582 24.5092 0.0000 -2.2304 0.0000
# 3 21.9751 24.5092 65.9865 0.0000 -1.2024 0.0000
# 4 0.0000 0.0000 0.0000 23.6312 0.0000 -0.4919
# 5 0.3461 -2.2304 -1.2024 0.0000 21.8822 0.0000
# 6 0.0000 0.0000 0.0000 -0.4919 0.0000 33.0983
#
#
#
# Elastic Compliance Matrix: (Units=1/GPa)
#
#
# Indices 1 2 3 4 5 6 
#
# 1 0.013606 -0.006817 -0.002018 0.000000 -0.001021 0.000000
# 2 -0.006817 0.013681 -0.002787 0.000000 0.001349 0.000000
# 3 -0.002018 -0.002787 0.016874 0.000000 0.000675 0.000000
# 4 0.000000 0.000000 0.000000 0.042330 0.000000 0.000629
# 5 -0.001021 0.001349 0.000675 0.000000 0.045890 0.000000
# 6 0.000000 0.000000 0.000000 0.000629 0.000000 0.030222
#
#
# Mechanical properties :
#
#
# Convention : Reuss Voigt Hill
#
# Bulk Modulus (GPa) = 47.80502 53.85767 50.83135
# Shear Modulus (GPa) = 25.93108 27.35897 26.64502
#
# Velocity S-wave (km/s) = 3.57974 3.67697 3.62868
# Velocity P-wave (km/s) = 6.38045 6.68147 6.53269
#
# Compressibility (1/GPa) = 0.02091830
#
# Stress axis : x y z
#
# Youngs Moduli (GPa) = 73.49893 73.09239 59.26286
#
# Poissons Ratio (x) = 0.49825 0.11957
# Poissons Ratio (y) = 0.50102 0.16516
# Poissons Ratio (z) = 0.14830 0.20370
#
# Static dielectric constant tensor:
#      x y z
#    x 3.714210 0.000000 -0.043460 
#    y 0.000000 3.514800 0.000000 
#    z -0.043460 0.000000 4.039830 
# 
# 
# High freq. dielectric constant tensor:
#      x y z
#    x 1.791680 0.000000 0.005300 
#    y 0.000000 1.771060 0.000000 
#    z 0.005300 0.000000 1.799220 
# 
# From -- ./inp_files/68231.got.cif
#   From: 2010.06.25/outbox.cif.g09.slc.cpg/sg12_35_cif.got.tgz:68231.got - 2010.06.28 00:19:55.
