data_PCOD8110304
_publ_section_title
;
Structure prediction by ZEFSAII (Michael W. Deem and Ramdas Pophale) SiO2 
 PCOD8110304
Probable space group: C 2/M
;
_chemical_formula_sum "Si O2"
_cell_formula_units_Z 56
_cell_length_a 16.916870
_cell_length_b 19.387489
_cell_length_c 8.990864
_cell_angle_alpha 90.000000
_cell_angle_beta 64.111767
_cell_angle_gamma 90.000000
_cell_volume 2652.866321
_symmetry_space_group_name_H-M "C 2/M"
_symmetry_group_IT_number 12
_symmetry_cell_setting 'monoclinic'
loop_
_space_group_symop_operation_xyz
x,y,z
-x,y,-z
-x,-y,-z
x,-y,z
1/2+x,1/2+y,z
1/2-x,1/2+y,-z
1/2-x,1/2-y,-z
1/2+x,1/2-y,z
loop_
_atom_site_type_symbol
_atom_site_label
_atom_site_fract_x
_atom_site_fract_y
_atom_site_fract_z
Si Si1 0.196334 0.809468 0.624847
Si Si2 0.739189 0.182684 0.109169
Si Si3 0.947843 0.420426 0.188182
Si Si4 0.646657 0.581855 0.163725
Si Si5 0.458965 0.186844 0.691158
Si Si6 0.251705 0.578327 0.626925
Si Si7 0.001884 0.818966 0.175696
O O1 0.250000 0.750000 0.500000
O O2 0.203873 0.800296 0.793421
O O3 0.234362 0.881466 0.537042
O O4 0.093398 0.809984 0.671840
O O5 0.641422 0.162447 0.242029
O O6 0.750000 0.250000 0.000000
O O7 0.779375 0.114464 0.002393
O O8 0.965776 0.500000 0.214254
O O9 0.846230 0.406640 0.232815
O O10 0.979777 0.374653 0.299738
O O11 0.000000 0.396932 0.000000
O O12 0.641591 0.500000 0.139466
O O13 0.676807 0.598939 0.307220
O O14 0.551790 0.615631 0.208134
O O15 0.500000 0.210546 0.500000
O O16 0.449319 0.249221 0.816625
O O17 0.263039 0.500000 0.571338
O O18 0.000000 0.827989 0.000000
#
# Coordination Sequence:
#
# PCOD8110304 Si02
#       7
#     8   8   8   8   8   8   8
#     4  12  25  42  68  98 132 176 223 275 341 397
#     4  12  23  44  67  95 135 176 226 283 332 398
#     4  10  21  41  67  96 133 178 223 273 335 406
#     4  11  25  45  71 100 133 180 230 279 337 406
#     4  12  25  40  67 101 136 175 223 282 341 401
#     4  10  23  43  65  96 135 174 220 276 341 401
#     4  12  25  46  67  96 134 175 227 280 333 406
#
# _framework density 21.109242999999999
#
# number of rings (size 3 to 8) (size 9 to 14) (size 15 to 20)
#    0.000    0.714    2.857    4.714    2.000    3.429 
#    0.000    1.429    0.000    0.000    0.000    0.000 
#    0.000    0.000    0.000    0.000    0.000    0.000 
#
# Total GULP energy -347266.759474 kJ/mol
# GULP energy per Si atom -12402.384267 kJ/mol
# Density = 2.106120 g / cm^3
# Si number density = 21.109243 Si / 1000 Ang^3
#
#
#
# Elastic Constant Matrix: (Units=GPa)
#
#
# Indices 1 2 3 4 5 6 
#
# 1 130.8598 60.5609 45.2931 0.0000 -8.2055 0.0000
# 2 60.5609 119.6740 49.9166 0.0000 5.9762 0.0000
# 3 45.2931 49.9166 100.8922 0.0000 -1.2585 0.0000
# 4 0.0000 0.0000 0.0000 37.8498 0.0000 -0.0316
# 5 -8.2055 5.9762 -1.2585 0.0000 44.2047 0.0000
# 6 0.0000 0.0000 0.0000 -0.0316 0.0000 41.2504
#
#
#
# Elastic Compliance Matrix: (Units=1/GPa)
#
#
# Indices 1 2 3 4 5 6 
#
# 1 0.010778 -0.004506 -0.002578 0.000000 0.002536 0.000000
# 2 -0.004506 0.012523 -0.004206 0.000000 -0.002649 0.000000
# 3 -0.002578 -0.004206 0.013155 0.000000 0.000465 0.000000
# 4 0.000000 0.000000 0.000000 0.026420 0.000000 0.000020
# 5 0.002536 -0.002649 0.000465 0.000000 0.023464 0.000000
# 6 0.000000 0.000000 0.000000 0.000020 0.000000 0.024242
#
#
# Mechanical properties :
#
#
# Convention : Reuss Voigt Hill
#
# Bulk Modulus (GPa) = 72.05882 73.66301 72.86092
# Shear Modulus (GPa) = 36.28760 37.70467 36.99613
#
# Velocity S-wave (km/s) = 4.15063 4.23089 4.19095
# Velocity P-wave (km/s) = 7.56178 7.67067 7.61642
#
# Compressibility (1/GPa) = 0.01387755
#
# Stress axis : x y z
#
# Youngs Moduli (GPa) = 92.77921 79.85426 76.01395
#
# Poissons Ratio (x) = 0.35981 0.19594
# Poissons Ratio (y) = 0.41805 0.31971
# Poissons Ratio (z) = 0.23916 0.33586
#
# Static dielectric constant tensor:
#      x y z
#    x 4.134150 0.000000 -0.126240 
#    y 0.000000 3.841350 0.000000 
#    z -0.126240 0.000000 3.593170 
# 
# 
# High freq. dielectric constant tensor:
#      x y z
#    x 1.846420 0.000000 -0.006560 
#    y 0.000000 1.827680 0.000000 
#    z -0.006560 0.000000 1.829460 
# 
# From -- ./inp_files/77363.got.cif
#   From: 2010.06.25/outbox.cif.g09.slc.cpg/sg12_39_cif.got.tgz:77363.got - 2010.06.28 00:19:55.
