data_PCOD8110650
_publ_section_title
;
Structure prediction by ZEFSAII (Michael W. Deem and Ramdas Pophale) SiO2 
 PCOD8110650
Probable space group: C 2/M
;
_chemical_formula_sum "Si O2"
_cell_formula_units_Z 60
_cell_length_a 8.108518
_cell_length_b 18.778042
_cell_length_c 20.737824
_cell_angle_alpha 90.000000
_cell_angle_beta 109.450963
_cell_angle_gamma 90.000000
_cell_volume 2977.371124
_symmetry_space_group_name_H-M "C 2/M"
_symmetry_group_IT_number 12
_symmetry_cell_setting 'monoclinic'
loop_
_space_group_symop_operation_xyz
x,y,z
-x,y,-z
-x,-y,-z
x,-y,z
1/2+x,1/2+y,z
1/2-x,1/2+y,-z
1/2-x,1/2-y,-z
1/2+x,1/2-y,z
loop_
_atom_site_type_symbol
_atom_site_label
_atom_site_fract_x
_atom_site_fract_y
_atom_site_fract_z
Si Si1 0.000000 0.220536 0.500000
Si Si2 0.949786 0.922238 0.802391
Si Si3 0.530501 0.203714 0.291587
Si Si4 0.352473 0.079108 0.335712
Si Si5 0.478382 0.802154 0.069831
Si Si6 0.300734 0.315498 0.593101
Si Si7 0.722476 0.311755 0.789877
Si Si8 0.102250 0.148933 0.070971
O O1 0.870608 0.270160 0.443451
O O2 0.904635 0.170772 0.540095
O O3 0.072071 0.868924 0.779715
O O4 0.769388 0.927183 0.741625
O O5 0.897200 0.900303 0.867182
O O6 0.040218 0.000000 0.816404
O O7 0.495379 0.138788 0.335882
O O8 0.588074 0.272708 0.339435
O O9 0.364365 0.232000 0.226568
O O10 0.679988 0.174207 0.264461
O O11 0.249787 0.107141 0.385537
O O12 0.431356 0.000000 0.360967
O O13 0.646461 0.822871 0.133827
O O14 0.299875 0.829895 0.078092
O O15 0.475735 0.716616 0.068282
O O16 0.500000 0.833179 0.000000
O O17 0.000000 0.107841 0.000000
#
# Coordination Sequence:
#
# PCOD8110650 Si02
#       8
#     4   8   8   8   8   8   8   8
#     4  10  22  36  70  92 126 154 218 246 292 354
#     4  11  24  40  57  83 121 164 204 256 319 372
#     4  12  21  37  66  93 119 159 212 250 301 373
#     4  11  23  40  61  93 133 163 200 260 318 362
#     4  11  21  34  57  89 119 148 197 266 317 362
#     4  11  20  40  63  98 119 164 203 256 291 366
#     4  12  21  35  61  89 118 155 213 258 307 369
#     4  11  21  37  58  83 117 158 203 256 315 375
#
# _framework density 20.152004999999999
#
# number of rings (size 3 to 8) (size 9 to 14) (size 15 to 20)
#    0.000    0.800    4.000    6.400    0.000    0.800 
#    0.000    1.333    0.000    1.600    0.000    0.000 
#    0.000    0.000    0.000    0.000    0.000    0.000 
#
# Total GULP energy -371911.738224 kJ/mol
# GULP energy per Si atom -12397.057941 kJ/mol
# Density = 2.010614 g / cm^3
# Si number density = 20.152005 Si / 1000 Ang^3
#
#
#
# Elastic Constant Matrix: (Units=GPa)
#
#
# Indices 1 2 3 4 5 6 
#
# 1 95.6471 35.1904 23.0146 0.0000 -20.4910 0.0000
# 2 35.1904 102.5121 24.1018 0.0000 -25.2290 0.0000
# 3 23.0146 24.1018 81.4079 0.0000 -14.5724 0.0000
# 4 0.0000 0.0000 0.0000 18.8184 0.0000 -5.3229
# 5 -20.4910 -25.2290 -14.5724 0.0000 41.3323 0.0000
# 6 0.0000 0.0000 0.0000 -5.3229 0.0000 22.7823
#
#
#
# Elastic Compliance Matrix: (Units=1/GPa)
#
#
# Indices 1 2 3 4 5 6 
#
# 1 0.012873 -0.002991 -0.002069 0.000000 0.003827 0.000000
# 2 -0.002991 0.012588 -0.001891 0.000000 0.005534 0.000000
# 3 -0.002069 -0.001891 0.013917 0.000000 0.002727 0.000000
# 4 0.000000 0.000000 0.000000 0.056900 0.000000 0.013294
# 5 0.003827 0.005534 0.002727 0.000000 0.030431 0.000000
# 6 0.000000 0.000000 0.000000 0.013294 0.000000 0.047000
#
#
# Mechanical properties :
#
#
# Convention : Reuss Voigt Hill
#
# Bulk Modulus (GPa) = 39.25057 49.35340 44.30199
# Shear Modulus (GPa) = 25.49697 29.73728 27.61713
#
# Velocity S-wave (km/s) = 3.56087 3.84559 3.70596
# Velocity P-wave (km/s) = 6.03539 6.65295 6.35168
#
# Compressibility (1/GPa) = 0.02547734
#
# Stress axis : x y z
#
# Youngs Moduli (GPa) = 77.68094 79.43925 71.85683
#
# Poissons Ratio (x) = 0.23759 0.14866
# Poissons Ratio (y) = 0.23233 0.13586
# Poissons Ratio (z) = 0.16071 0.15019
#
# Static dielectric constant tensor:
#      x y z
#    x 3.740930 0.000000 -0.032860 
#    y 0.000000 3.601120 0.000000 
#    z -0.032860 0.000000 4.052750 
# 
# 
# High freq. dielectric constant tensor:
#      x y z
#    x 1.793790 0.000000 -0.007170 
#    y 0.000000 1.745620 0.000000 
#    z -0.007170 0.000000 1.807640 
# 
# From -- ./inp_files/300861.got.cif
#   From: 2010.06.25/outbox.cif.g09.slc.cpg/sg12_151_cif.got.tgz:300861.got - 2010.06.28 00:19:55.
