data_PCOD8110119
_publ_section_title
;
Structure prediction by ZEFSAII (Michael W. Deem and Ramdas Pophale) SiO2 
 PCOD8110119
Probable space group: C 2/M
;
_chemical_formula_sum "Si O2"
_cell_formula_units_Z 64
_cell_length_a 17.931240
_cell_length_b 13.568817
_cell_length_c 15.306843
_cell_angle_alpha 90.000000
_cell_angle_beta 131.309910
_cell_angle_gamma 90.000000
_cell_volume 2797.464531
_symmetry_space_group_name_H-M "C 2/M"
_symmetry_group_IT_number 12
_symmetry_cell_setting 'monoclinic'
loop_
_space_group_symop_operation_xyz
x,y,z
-x,y,-z
-x,-y,-z
x,-y,z
1/2+x,1/2+y,z
1/2-x,1/2+y,-z
1/2-x,1/2-y,-z
1/2+x,1/2-y,z
loop_
_atom_site_type_symbol
_atom_site_label
_atom_site_fract_x
_atom_site_fract_y
_atom_site_fract_z
Si Si1 0.106588 0.115125 0.810272
Si Si2 0.231630 0.884766 0.743118
Si Si3 0.094142 0.384156 0.394707
Si Si4 0.081550 0.652006 0.004606
Si Si5 0.383731 0.114999 0.298379
Si Si6 0.791343 0.609469 0.054906
Si Si7 0.949955 0.236372 0.781358
Si Si8 0.729927 0.789780 0.631418
O O1 0.135710 0.129016 0.731129
O O2 0.003721 0.168149 0.751072
O O3 0.096017 0.000000 0.822643
O O4 0.193781 0.162781 0.939661
O O5 0.212333 0.827446 0.637098
O O6 0.254700 0.000000 0.744848
O O7 0.325345 0.827954 0.859440
O O8 0.118273 0.500000 0.406131
O O9 0.073787 0.342205 0.282090
O O10 0.187472 0.322862 0.504974
O O11 0.001249 0.363633 0.387695
O O12 0.122587 0.595954 0.951632
O O13 0.020447 0.748407 0.921121
O O14 0.000000 0.592203 0.000000
O O15 0.334190 0.166112 0.173280
O O16 0.330671 0.150487 0.343404
O O17 0.366822 0.000000 0.277039
O O18 0.759163 0.500000 0.057080
O O19 0.846670 0.183702 0.727009
#
# Coordination Sequence:
#
# PCOD8110119 Si02
#       8
#     8   8   8   8   8   8   8   8
#     4   9  21  40  63  92 133 179 216 252 313 398
#     4  10  23  41  64  95 131 171 218 267 321 387
#     4  11  25  47  71  95 124 171 227 278 324 376
#     4  11  21  37  61  98 133 168 205 265 328 385
#     4  10  21  40  69  98 125 167 221 276 325 376
#     4   9  19  36  62  95 128 170 219 260 319 388
#     4  12  25  41  66  97 137 173 215 263 329 393
#     4  12  25  42  63  96 136 168 216 273 325 384
#
# _framework density 22.877858
#
# number of rings (size 3 to 8) (size 9 to 14) (size 15 to 20)
#    0.000    1.500    2.500    3.000    1.750    5.000 
#    0.000    0.625    0.000    5.625    0.000    0.000 
#    0.000    0.000    0.000    0.000    0.000    0.000 
#
# Total GULP energy -396557.932807 kJ/mol
# GULP energy per Si atom -12392.435400 kJ/mol
# Density = 2.282579 g / cm^3
# Si number density = 22.877858 Si / 1000 Ang^3
#
#
#
# Elastic Constant Matrix: (Units=GPa)
#
#
# Indices 1 2 3 4 5 6 
#
# 1 95.9337 22.9207 14.9216 0.0000 18.9049 0.0000
# 2 22.9207 56.7480 50.1717 0.0000 13.6726 0.0000
# 3 14.9216 50.1717 84.2787 0.0000 3.9422 0.0000
# 4 0.0000 0.0000 0.0000 28.9311 0.0000 0.7420
# 5 18.9049 13.6726 3.9422 0.0000 27.5718 0.0000
# 6 0.0000 0.0000 0.0000 0.7420 0.0000 19.1983
#
#
#
# Elastic Compliance Matrix: (Units=1/GPa)
#
#
# Indices 1 2 3 4 5 6 
#
# 1 0.012614 -0.003699 0.000289 0.000000 -0.006856 0.000000
# 2 -0.003699 0.046136 -0.026033 0.000000 -0.016620 0.000000
# 3 0.000289 -0.026033 0.026897 0.000000 0.008865 0.000000
# 4 0.000000 0.000000 0.000000 0.034599 0.000000 -0.001337
# 5 -0.006856 -0.016620 0.008865 0.000000 0.047944 0.000000
# 6 0.000000 0.000000 0.000000 -0.001337 0.000000 0.052140
#
#
# Mechanical properties :
#
#
# Convention : Reuss Voigt Hill
#
# Bulk Modulus (GPa) = 37.36600 45.88761 41.62680
# Shear Modulus (GPa) = 17.35301 25.06999 21.21150
#
# Velocity S-wave (km/s) = 2.75709 3.31391 3.04824
# Velocity P-wave (km/s) = 5.14817 5.89439 5.53387
#
# Compressibility (1/GPa) = 0.02676230
#
# Stress axis : x y z
#
# Youngs Moduli (GPa) = 79.27964 21.67505 37.17885
#
# Poissons Ratio (x) = 0.08017 -0.01075
# Poissons Ratio (y) = 0.29322 0.96787
# Poissons Ratio (z) = -0.02293 0.56426
#
# Static dielectric constant tensor:
#      x y z
#    x 4.270260 0.000000 0.073880 
#    y 0.000000 3.876500 0.000000 
#    z 0.073880 0.000000 4.194980 
# 
# 
# High freq. dielectric constant tensor:
#      x y z
#    x 1.912450 0.000000 0.000370 
#    y 0.000000 1.885000 0.000000 
#    z 0.000370 0.000000 1.891000 
# 
# From -- ./inp_files/225752.got.cif
#   From: 2010.06.25/outbox.cif.g09.slc.cpg/sg12_113_cif.got.tgz:225752.got - 2010.06.28 00:19:55.
