data_PCOD8110678
_publ_section_title
;
Structure prediction by ZEFSAII (Michael W. Deem and Ramdas Pophale) SiO2 
 PCOD8110678
Probable space group: C 2/M
;
_chemical_formula_sum "Si O2"
_cell_formula_units_Z 56
_cell_length_a 20.567301
_cell_length_b 9.134329
_cell_length_c 28.728200
_cell_angle_alpha 90.000000
_cell_angle_beta 32.378784
_cell_angle_gamma 90.000000
_cell_volume 2890.235893
_symmetry_space_group_name_H-M "C 2/M"
_symmetry_group_IT_number 12
_symmetry_cell_setting 'monoclinic'
loop_
_space_group_symop_operation_xyz
x,y,z
-x,y,-z
-x,-y,-z
x,-y,z
1/2+x,1/2+y,z
1/2-x,1/2+y,-z
1/2-x,1/2-y,-z
1/2+x,1/2-y,z
loop_
_atom_site_type_symbol
_atom_site_label
_atom_site_fract_x
_atom_site_fract_y
_atom_site_fract_z
Si Si1 0.377316 0.829706 0.917264
Si Si2 0.948087 0.671407 0.271043
Si Si3 0.302523 0.332910 0.125955
Si Si4 0.440693 0.673420 0.712705
Si Si5 0.023747 0.173944 0.412735
Si Si6 0.012961 0.833467 0.067780
Si Si7 0.690129 0.326230 0.393293
O O1 0.435111 0.797407 0.831922
O O2 0.473515 0.775195 0.897270
O O3 0.354436 0.000000 0.938371
O O4 0.250000 0.750000 0.000000
O O5 0.935188 0.500000 0.289521
O O6 0.826279 0.732186 0.319587
O O7 0.962310 0.755923 0.310946
O O8 0.254020 0.500000 0.154831
O O9 0.193547 0.219556 0.191090
O O10 0.383127 0.304313 0.122928
O O11 0.380574 0.302046 0.033071
O O12 0.452589 0.500000 0.708126
O O13 0.466545 0.736162 0.645367
O O14 0.136784 0.231323 0.376095
O O15 0.897614 0.228114 0.511881
O O16 0.027435 0.000000 0.408726
O O17 0.022381 0.000000 0.079847
O O18 0.689892 0.500000 0.392255
#
# Coordination Sequence:
#
# PCOD8110678 Si02
#       7
#     8   8   8   8   8   8   8
#     4  11  23  36  53  77 107 144 186 228 269 317
#     4  10  22  37  55  78 108 147 187 221 264 328
#     4   9  19  36  55  76 106 142 180 217 268 332
#     4  11  22  33  52  83 114 140 175 228 273 313
#     4   8  16  31  55  83 108 136 175 224 273 318
#     4   9  19  36  56  76 101 139 183 227 269 320
#     4   8  15  33  57  79 105 140 180 220 266 325
#
# _framework density 19.375582000000001
#
# number of rings (size 3 to 8) (size 9 to 14) (size 15 to 20)
#    0.000    2.571    0.000    3.429    2.000    6.286 
#    0.000    1.429    0.000    0.857    0.000    5.000 
#    0.000    0.000    0.000    0.000    0.000    0.000 
#
# Total GULP energy -347165.723163 kJ/mol
# GULP energy per Si atom -12398.775827 kJ/mol
# Density = 1.933148 g / cm^3
# Si number density = 19.375582 Si / 1000 Ang^3
#
#
#
# Elastic Constant Matrix: (Units=GPa)
#
#
# Indices 1 2 3 4 5 6 
#
# 1 138.8917 47.2788 52.9419 -0.0182 5.5219 0.0282
# 2 47.2788 53.2662 32.1854 -0.0236 4.0954 0.0172
# 3 52.9419 32.1854 81.5856 0.0017 -9.5306 -0.0009
# 4 -0.0182 -0.0236 0.0017 15.5614 0.0009 -0.4732
# 5 5.5219 4.0954 -9.5306 0.0009 31.7651 -0.0069
# 6 0.0282 0.0172 -0.0009 -0.4732 -0.0069 34.8911
#
#
#
# Elastic Compliance Matrix: (Units=1/GPa)
#
#
# Indices 1 2 3 4 5 6 
#
# 1 0.011645 -0.007065 -0.005077 0.000003 -0.002637 -0.000007
# 2 -0.007065 0.030223 -0.007928 0.000038 -0.005047 -0.000010
# 3 -0.005077 -0.007928 0.019588 -0.000020 0.007782 0.000010
# 4 0.000003 0.000038 -0.000020 0.064288 -0.000013 0.000872
# 5 -0.002637 -0.005047 0.007782 -0.000013 0.034925 0.000012
# 6 -0.000007 -0.000010 0.000010 0.000872 0.000012 0.028672
#
#
# Mechanical properties :
#
#
# Convention : Reuss Voigt Hill
#
# Bulk Modulus (GPa) = 46.91404 59.83951 53.37678
# Shear Modulus (GPa) = 21.13374 25.86602 23.49988
#
# Velocity S-wave (km/s) = 3.30622 3.65770 3.48639
# Velocity P-wave (km/s) = 6.23220 6.98494 6.61928
#
# Compressibility (1/GPa) = 0.02131558
#
# Stress axis : x y z
#
# Youngs Moduli (GPa) = 85.87266 33.08721 51.05081
#
# Poissons Ratio (x) = 0.23378 0.25920
# Poissons Ratio (y) = 0.60673 0.40471
# Poissons Ratio (z) = 0.43601 0.26230
#
# Static dielectric constant tensor:
#      x y z
#    x 3.870290 -0.000020 0.005770 
#    y -0.000020 3.188810 -0.000010 
#    z 0.005770 -0.000010 3.539470 
# 
# 
# High freq. dielectric constant tensor:
#      x y z
#    x 1.770020 0.000000 -0.002090 
#    y 0.000000 1.719040 0.000000 
#    z -0.002090 0.000000 1.750370 
# 
# From -- ./inp_files/380596.got.cif
#   From: 2010.06.25/outbox.cif.g09.slc.cpg/sg12_191_cif.got.tgz:380596.got - 2010.06.28 00:19:55.
