data_PCOD8110790
_publ_section_title
;
Structure prediction by ZEFSAII (Michael W. Deem and Ramdas Pophale) SiO2 
 PCOD8110790
Probable space group: C 2/M
;
_chemical_formula_sum "Si O2"
_cell_formula_units_Z 48
_cell_length_a 29.951123
_cell_length_b 8.442110
_cell_length_c 10.284102
_cell_angle_alpha 90.000000
_cell_angle_beta 70.145629
_cell_angle_gamma 90.000000
_cell_volume 2445.774933
_symmetry_space_group_name_H-M "C 2/M"
_symmetry_group_IT_number 12
_symmetry_cell_setting 'monoclinic'
loop_
_space_group_symop_operation_xyz
x,y,z
-x,y,-z
-x,-y,-z
x,-y,z
1/2+x,1/2+y,z
1/2-x,1/2+y,-z
1/2-x,1/2-y,-z
1/2+x,1/2-y,z
loop_
_atom_site_type_symbol
_atom_site_label
_atom_site_fract_x
_atom_site_fract_y
_atom_site_fract_z
Si Si1 0.946262 0.687330 0.906992
Si Si2 0.301426 0.314768 0.227976
Si Si3 0.851279 0.813777 0.917464
Si Si4 0.949185 0.687420 0.196052
Si Si5 0.699225 0.685115 0.291169
Si Si6 0.145524 0.314613 0.581338
O O1 0.941067 0.500000 0.906910
O O2 0.906136 0.761732 0.855073
O O3 0.998674 0.740925 0.805009
O O4 0.939542 0.753387 0.060423
O O5 0.311734 0.500000 0.239765
O O6 0.245488 0.288057 0.273471
O O7 0.320594 0.214875 0.329613
O O8 0.326508 0.248376 0.072721
O O9 0.823487 0.748246 0.819619
O O10 0.848349 0.000000 0.918021
O O11 0.948157 0.500000 0.185700
O O12 0.907863 0.745963 0.333146
O O13 0.712154 0.500000 0.269563
O O14 0.661767 0.712109 0.443141
O O15 0.146683 0.500000 0.545767
#
# Coordination Sequence:
#
# PCOD8110790 Si02
#       6
#     8   8   8   8   8   8
#     4   9  16  32  58  84 109 140 180 226 271 319
#     4  11  22  38  59  83 108 141 187 232 273 324
#     4  10  22  38  56  82 114 144 181 227 276 325
#     4   8  16  31  55  85 111 138 178 226 270 317
#     4  11  24  40  55  77 113 151 184 225 273 325
#     4  11  21  37  59  84 112 145 183 225 273 325
#
# _framework density 19.625682999999999
#
# number of rings (size 3 to 8) (size 9 to 14) (size 15 to 20)
#    0.000    2.000    1.667    3.500    0.000    2.000 
#    0.000    4.167    0.000    5.000    0.000    0.000 
#    0.000    0.000    0.000    0.000    0.000    0.000 
#
# Total GULP energy -297610.270571 kJ/mol
# GULP energy per Si atom -12400.427940 kJ/mol
# Density = 1.958101 g / cm^3
# Si number density = 19.625683 Si / 1000 Ang^3
#
#
#
# Elastic Constant Matrix: (Units=GPa)
#
#
# Indices 1 2 3 4 5 6 
#
# 1 83.8630 8.0741 39.3977 0.0000 -26.1953 0.0000
# 2 8.0741 23.7954 9.8071 0.0000 1.6441 0.0000
# 3 39.3977 9.8071 93.3641 0.0000 -3.6431 0.0000
# 4 0.0000 0.0000 0.0000 17.9118 0.0000 -1.1999
# 5 -26.1953 1.6441 -3.6431 0.0000 28.6789 0.0000
# 6 0.0000 0.0000 0.0000 -1.1999 0.0000 30.0660
#
#
#
# Elastic Compliance Matrix: (Units=1/GPa)
#
#
# Indices 1 2 3 4 5 6 
#
# 1 0.022471 -0.005649 -0.008116 0.000000 0.019818 0.000000
# 2 -0.005649 0.045626 -0.002726 0.000000 -0.008122 0.000000
# 3 -0.008116 -0.002726 0.014209 0.000000 -0.005452 0.000000
# 4 0.000000 0.000000 0.000000 0.055979 0.000000 0.002234
# 5 0.019818 -0.008122 -0.005452 0.000000 0.052744 0.000000
# 6 0.000000 0.000000 0.000000 0.002234 0.000000 0.033349
#
#
# Mechanical properties :
#
#
# Convention : Reuss Voigt Hill
#
# Bulk Modulus (GPa) = 20.27362 35.06449 27.66905
# Shear Modulus (GPa) = 18.26147 24.91423 21.58785
#
# Velocity S-wave (km/s) = 3.05370 3.56683 3.32019
# Velocity P-wave (km/s) = 4.77347 5.90495 5.36910
#
# Compressibility (1/GPa) = 0.04932519
#
# Stress axis : x y z
#
# Youngs Moduli (GPa) = 44.50195 21.91722 70.37819
#
# Poissons Ratio (x) = 0.12381 0.57116
# Poissons Ratio (y) = 0.25140 0.19183
# Poissons Ratio (z) = 0.36116 0.05974
#
# Static dielectric constant tensor:
#      x y z
#    x 3.844410 0.000000 -0.178480 
#    y 0.000000 3.251530 0.000000 
#    z -0.178480 0.000000 3.751430 
# 
# 
# High freq. dielectric constant tensor:
#      x y z
#    x 1.775020 0.000000 -0.013100 
#    y 0.000000 1.745320 0.000000 
#    z -0.013100 0.000000 1.754070 
# 
# From -- ./inp_files/185738.got.cif
#   From: 2010.06.25/outbox.cif.g09.slc.cpg/sg12_93_cif.got.tgz:185738.got - 2010.06.28 00:19:55.
