data_PCOD8110027
_publ_section_title
;
Structure prediction by ZEFSAII (Michael W. Deem and Ramdas Pophale) SiO2 
 PCOD8110027
Probable space group: C 2/M
;
_chemical_formula_sum "Si O2"
_cell_formula_units_Z 64
_cell_length_a 26.349706
_cell_length_b 14.273899
_cell_length_c 12.694381
_cell_angle_alpha 90.000000
_cell_angle_beta 38.137931
_cell_angle_gamma 90.000000
_cell_volume 2948.538243
_symmetry_space_group_name_H-M "C 2/M"
_symmetry_group_IT_number 12
_symmetry_cell_setting 'monoclinic'
loop_
_space_group_symop_operation_xyz
x,y,z
-x,y,-z
-x,-y,-z
x,-y,z
1/2+x,1/2+y,z
1/2-x,1/2+y,-z
1/2-x,1/2-y,-z
1/2+x,1/2-y,z
loop_
_atom_site_type_symbol
_atom_site_label
_atom_site_fract_x
_atom_site_fract_y
_atom_site_fract_z
Si Si1 0.218924 0.105036 0.074348
Si Si2 0.358629 0.890467 0.427816
Si Si3 0.536818 0.393944 0.824216
Si Si4 0.277195 0.390022 0.509561
Si Si5 0.973695 0.714110 0.832926
Si Si6 0.187583 0.609902 0.867589
Si Si7 0.929852 0.758604 0.677038
Si Si8 0.152447 0.604210 0.315269
O O1 0.274605 0.140129 0.081188
O O2 0.144392 0.173800 0.178249
O O3 0.187665 0.000000 0.149273
O O4 0.265806 0.110182 0.887901
O O5 0.289192 0.846247 0.463772
O O6 0.444944 0.840316 0.263833
O O7 0.326012 0.871599 0.599126
O O8 0.372335 0.000000 0.382981
O O9 0.531548 0.500000 0.786445
O O10 0.630538 0.355119 0.666047
O O11 0.480332 0.324453 0.848622
O O12 0.500000 0.392442 0.000000
O O13 0.275494 0.500000 0.493237
O O14 0.252765 0.364868 0.669608
O O15 0.961545 0.706346 0.728638
O O16 0.895741 0.667328 0.018203
O O17 0.165774 0.500000 0.903159
O O18 0.912375 0.676717 0.622502
O O19 0.000000 0.817483 0.500000
O O20 0.114293 0.500000 0.370544
#
# Coordination Sequence:
#
# PCOD8110027 Si02
#       8
#     8   8   8   8   8   8   8   8
#     4  10  23  43  67  91 124 173 219 263 321 385
#     4  10  22  40  66  99 132 167 214 270 326 390
#     4  10  25  49  68  91 129 174 223 266 312 379
#     4   9  21  43  68  92 125 168 211 265 322 379
#     4  12  25  39  64 100 131 169 212 267 331 380
#     4  10  22  41  68  98 130 166 207 265 332 394
#     4  12  25  41  59  94 134 168 214 270 320 380
#     4  10  21  40  66  93 126 171 216 261 320 381
#
# _framework density 21.705670000000001
#
# number of rings (size 3 to 8) (size 9 to 14) (size 15 to 20)
#    0.000    1.625    2.500    0.750    3.500    3.000 
#    0.000    4.375    0.000    0.000    0.000    0.000 
#    0.000    0.000    0.000    0.000    0.000    0.000 
#
# Total GULP energy -396803.858189 kJ/mol
# GULP energy per Si atom -12400.120568 kJ/mol
# Density = 2.165627 g / cm^3
# Si number density = 21.705670 Si / 1000 Ang^3
#
#
#
# Elastic Constant Matrix: (Units=GPa)
#
#
# Indices 1 2 3 4 5 6 
#
# 1 60.4219 25.8945 22.1962 0.0000 -6.8488 0.0000
# 2 25.8945 69.7227 22.7055 0.0000 -9.7110 0.0000
# 3 22.1962 22.7055 123.9978 0.0000 -9.8359 0.0000
# 4 0.0000 0.0000 0.0000 3.5581 0.0000 -1.3931
# 5 -6.8488 -9.7110 -9.8359 0.0000 34.8840 0.0000
# 6 0.0000 0.0000 0.0000 -1.3931 0.0000 26.4987
#
#
#
# Elastic Compliance Matrix: (Units=1/GPa)
#
#
# Indices 1 2 3 4 5 6 
#
# 1 0.020409 -0.006613 -0.002323 0.000000 0.001511 0.000000
# 2 -0.006613 0.017834 -0.001832 0.000000 0.003150 0.000000
# 3 -0.002323 -0.001832 0.008939 0.000000 0.001555 0.000000
# 4 0.000000 0.000000 0.000000 0.286957 0.000000 0.015086
# 5 0.001511 0.003150 0.001555 0.000000 0.030278 0.000000
# 6 0.000000 0.000000 0.000000 0.015086 0.000000 0.038531
#
#
# Mechanical properties :
#
#
# Convention : Reuss Voigt Hill
#
# Bulk Modulus (GPa) = 38.99091 43.97052 41.48072
# Shear Modulus (GPa) = 11.54650 25.21125 18.37888
#
# Velocity S-wave (km/s) = 2.30892 3.41178 2.91302
# Velocity P-wave (km/s) = 5.01105 5.98514 5.51963
#
# Compressibility (1/GPa) = 0.02564700
#
# Stress axis : x y z
#
# Youngs Moduli (GPa) = 48.99848 56.07334 111.86723
#
# Poissons Ratio (x) = 0.37081 0.25981
# Poissons Ratio (y) = 0.32402 0.20494
# Poissons Ratio (z) = 0.11380 0.10273
#
# Static dielectric constant tensor:
#      x y z
#    x 3.934580 0.000000 0.004050 
#    y 0.000000 3.999980 0.000000 
#    z 0.004050 0.000000 3.957790 
# 
# 
# High freq. dielectric constant tensor:
#      x y z
#    x 1.845410 0.000000 0.003120 
#    y 0.000000 1.854960 0.000000 
#    z 0.003120 0.000000 1.863860 
# 
# From -- ./inp_files/183751.got.cif
#   From: 2010.06.25/outbox.cif.g09.slc.cpg/sg12_92_cif.got.tgz:183751.got - 2010.06.28 00:19:55.
