data_PCOD8110534
_publ_section_title
;
Structure prediction by ZEFSAII (Michael W. Deem and Ramdas Pophale) SiO2 
 PCOD8110534
Probable space group: C 2/M
;
_chemical_formula_sum "Si O2"
_cell_formula_units_Z 52
_cell_length_a 9.944046
_cell_length_b 26.318918
_cell_length_c 18.974837
_cell_angle_alpha 90.000000
_cell_angle_beta 34.423917
_cell_angle_gamma 90.000000
_cell_volume 2807.352444
_symmetry_space_group_name_H-M "C 2/M"
_symmetry_group_IT_number 12
_symmetry_cell_setting 'monoclinic'
loop_
_space_group_symop_operation_xyz
x,y,z
-x,y,-z
-x,-y,-z
x,-y,z
1/2+x,1/2+y,z
1/2-x,1/2+y,-z
1/2-x,1/2-y,-z
1/2+x,1/2-y,z
loop_
_atom_site_type_symbol
_atom_site_label
_atom_site_fract_x
_atom_site_fract_y
_atom_site_fract_z
Si Si1 0.206934 0.557079 0.812035
Si Si2 0.910776 0.845710 0.145539
Si Si3 0.155270 0.690752 0.127199
Si Si4 0.672648 0.557457 0.078246
Si Si5 0.500000 0.284867 0.500000
Si Si6 0.359426 0.343339 0.691003
Si Si7 0.571492 0.285453 0.726502
O O1 0.263116 0.500000 0.762455
O O2 0.298988 0.565805 0.851090
O O3 0.344404 0.595288 0.699977
O O4 0.924386 0.567759 0.931288
O O5 0.706990 0.844420 0.173807
O O6 0.819326 0.816753 0.254900
O O7 0.975610 0.904263 0.132996
O O8 0.140893 0.815264 0.018643
O O9 0.905396 0.677783 0.200545
O O10 0.146621 0.749509 0.155289
O O11 0.586969 0.500000 0.099554
O O12 0.522107 0.322511 0.557359
O O13 0.729389 0.249341 0.396174
O O14 0.471919 0.325929 0.715308
#
# Coordination Sequence:
#
# PCOD8110534 Si02
#       7
#     8   8   8   8   4   8   8
#     4   9  17  32  56  85 108 137 182 226 265 322
#     4  11  20  35  52  82 115 147 177 217 273 319
#     4  10  22  33  49  83 121 142 176 220 268 328
#     4   9  17  32  55  83 112 141 180 220 263 327
#     4  10  24  38  53  82 107 136 190 236 274 316
#     4  11  20  37  58  78 108 147 182 229 272 316
#     4  11  22  38  58  75 105 151 189 221 265 327
#
# _framework density 18.522789
#
# number of rings (size 3 to 8) (size 9 to 14) (size 15 to 20)
#    0.000    1.846    3.077    3.692    0.000    3.077 
#    0.000    2.692    0.000    0.000    0.000    6.462 
#    0.000    0.000    0.000    0.000    0.000    0.000 
#
# Total GULP energy -322355.350821 kJ/mol
# GULP energy per Si atom -12398.282724 kJ/mol
# Density = 1.848063 g / cm^3
# Si number density = 18.522789 Si / 1000 Ang^3
#
#
#
# Elastic Constant Matrix: (Units=GPa)
#
#
# Indices 1 2 3 4 5 6 
#
# 1 71.4717 21.0922 17.6998 0.0022 9.5128 0.0002
# 2 21.0922 130.4476 38.6672 0.0000 10.1889 0.0011
# 3 17.6998 38.6672 69.6490 0.0122 10.6117 -0.0015
# 4 0.0022 0.0000 0.0122 30.3705 -0.0018 -0.1182
# 5 9.5128 10.1889 10.6117 -0.0018 20.0406 -0.0010
# 6 0.0002 0.0011 -0.0015 -0.1182 -0.0010 18.9718
#
#
#
# Elastic Compliance Matrix: (Units=1/GPa)
#
#
# Indices 1 2 3 4 5 6 
#
# 1 0.015727 -0.001409 -0.002378 0.000000 -0.005490 -0.000001
# 2 -0.001409 0.009387 -0.004599 0.000002 -0.001668 -0.000001
# 3 -0.002378 -0.004599 0.018478 -0.000008 -0.006317 0.000001
# 4 0.000000 0.000002 -0.000008 0.032927 0.000006 0.000205
# 5 -0.005490 -0.001668 -0.006317 0.000006 0.056698 0.000003
# 6 -0.000001 -0.000001 0.000001 0.000205 0.000003 0.052711
#
#
# Mechanical properties :
#
#
# Convention : Reuss Voigt Hill
#
# Bulk Modulus (GPa) = 37.28655 47.38741 42.33698
# Shear Modulus (GPa) = 23.62489 26.81720 25.22104
#
# Velocity S-wave (km/s) = 3.57522 3.80912 3.69402
# Velocity P-wave (km/s) = 6.10055 6.70706 6.41098
#
# Compressibility (1/GPa) = 0.02681932
#
# Stress axis : x y z
#
# Youngs Moduli (GPa) = 63.58499 106.52559 54.11877
#
# Poissons Ratio (x) = 0.15012 0.12869
# Poissons Ratio (y) = 0.08961 0.24891
# Poissons Ratio (z) = 0.15120 0.48994
#
# Static dielectric constant tensor:
#      x y z
#    x 3.341640 0.000000 0.147630 
#    y 0.000000 3.555710 0.000000 
#    z 0.147630 0.000000 3.248080 
# 
# 
# High freq. dielectric constant tensor:
#      x y z
#    x 1.717770 0.000000 0.010920 
#    y 0.000000 1.723340 0.000000 
#    z 0.010920 0.000000 1.687300 
# 
# From -- ./inp_files/259679.got.cif
#   From: 2010.06.25/outbox.cif.g09.slc.cpg/sg12_130_cif.got.tgz:259679.got - 2010.06.28 00:19:55.
