data_PCOD8110128
_publ_section_title
;
Structure prediction by ZEFSAII (Michael W. Deem and Ramdas Pophale) SiO2 
 PCOD8110128
Probable space group: C 2/M
;
_chemical_formula_sum "Si O2"
_cell_formula_units_Z 40
_cell_length_a 16.267847
_cell_length_b 24.418670
_cell_length_c 9.221294
_cell_angle_alpha 90.000000
_cell_angle_beta 147.318220
_cell_angle_gamma 90.000000
_cell_volume 1977.952017
_symmetry_space_group_name_H-M "C 2/M"
_symmetry_group_IT_number 12
_symmetry_cell_setting 'monoclinic'
loop_
_space_group_symop_operation_xyz
x,y,z
-x,y,-z
-x,-y,-z
x,-y,z
1/2+x,1/2+y,z
1/2-x,1/2+y,-z
1/2-x,1/2-y,-z
1/2+x,1/2-y,z
loop_
_atom_site_type_symbol
_atom_site_label
_atom_site_fract_x
_atom_site_fract_y
_atom_site_fract_z
Si Si1 0.217833 0.721431 0.602195
Si Si2 0.669035 0.500000 0.306691
Si Si3 0.651227 0.097588 0.910873
Si Si4 0.698840 0.100331 0.662105
Si Si5 0.632653 0.779441 0.929052
Si Si6 0.837598 0.500000 0.846306
O O1 0.250000 0.750000 0.500000
O O2 0.255469 0.657141 0.674512
O O3 0.040372 0.728891 0.384322
O O4 0.343528 0.752442 0.881730
O O5 0.740059 0.554253 0.350127
O O6 0.699141 0.500000 0.524923
O O7 0.500000 0.500000 0.000000
O O8 0.750181 0.092134 0.907713
O O9 0.479697 0.093666 0.607135
O O10 0.680373 0.157429 0.019246
O O11 0.686067 0.052690 0.085618
O O12 0.750000 0.750000 0.000000
O O13 0.000000 0.500000 0.000000
#
# Coordination Sequence:
#
# PCOD8110128 Si02
#       6
#     8   4   8   8   8   4
#     4  11  24  39  66  96 132 174 222 272 332 388
#     4  12  27  43  61  95 140 161 205 278 351 386
#     4  10  21  40  72  91 125 171 231 266 310 398
#     4  10  21  43  64  92 127 180 215 262 332 397
#     4  11  22  42  63  97 132 174 222 270 325 398
#     4  12  23  41  69 103 120 166 233 280 318 389
#
# _framework density 20.222939
#
# number of rings (size 3 to 8) (size 9 to 14) (size 15 to 20)
#    0.000    1.200    4.000    1.800    2.800    3.200 
#    0.000    2.000    0.000    0.000    0.000    0.000 
#    0.000    0.000    0.000    0.000    0.000    0.000 
#
# Total GULP energy -247783.601908 kJ/mol
# GULP energy per Si atom -12389.180095 kJ/mol
# Density = 2.017691 g / cm^3
# Si number density = 20.222939 Si / 1000 Ang^3
#
#
#
# Elastic Constant Matrix: (Units=GPa)
#
#
# Indices 1 2 3 4 5 6 
#
# 1 90.3272 65.0663 17.9035 0.0000 -26.9639 0.0000
# 2 65.0663 185.0860 53.7633 0.0000 -18.5490 0.0000
# 3 17.9035 53.7633 81.1831 0.0000 -23.8638 0.0000
# 4 0.0000 0.0000 0.0000 22.7385 0.0000 -34.4902
# 5 -26.9639 -18.5490 -23.8638 0.0000 33.6151 0.0000
# 6 0.0000 0.0000 0.0000 -34.4902 0.0000 44.8824
#
#
#
# Elastic Compliance Matrix: (Units=1/GPa)
#
#
# Indices 1 2 3 4 5 6 
#
# 1 0.019508 -0.006664 0.004587 0.000000 0.015227 0.000000
# 2 -0.006664 0.008979 -0.005803 0.000000 -0.004510 0.000000
# 3 0.004587 -0.005803 0.019321 0.000000 0.014194 0.000000
# 4 0.000000 0.000000 0.000000 -0.265552 0.000000 -0.204066
# 5 0.015227 -0.004510 0.014194 0.000000 0.049551 0.000000
# 6 0.000000 0.000000 0.000000 -0.204066 0.000000 -0.134536
#
#
# Mechanical properties :
#
#
# Convention : Reuss Voigt Hill
#
# Bulk Modulus (GPa) = 31.20205 70.00695 50.60450
# Shear Modulus (GPa) = -18.09713 34.90475 8.40381
#
# Velocity S-wave (km/s) = -2.99470 4.15902 2.04074
# Velocity P-wave (km/s) = 1.87213 7.59974 5.53448
#
# Compressibility (1/GPa) = 0.03204917
#
# Stress axis : x y z
#
# Youngs Moduli (GPa) = 51.26181 111.36805 51.75627
#
# Poissons Ratio (x) = 0.74220 -0.23743
# Poissons Ratio (y) = 0.34163 0.30032
# Poissons Ratio (z) = -0.23516 0.64622
#
# Static dielectric constant tensor:
#      x y z
#    x 3.350930 0.000000 -0.052380 
#    y 0.000000 4.008380 0.000000 
#    z -0.052380 0.000000 4.015280 
# 
# 
# High freq. dielectric constant tensor:
#      x y z
#    x 1.789530 0.000000 -0.020370 
#    y 0.000000 1.807480 0.000000 
#    z -0.020370 0.000000 1.781620 
# 
# From -- ./inp_files/79956.got.cif
#   From: 2010.06.25/outbox.cif.g09.slc.cpg/sg12_40_cif.got.tgz:79956.got - 2010.06.28 00:19:55.
