data_PCOD8110884
_publ_section_title
;
Structure prediction by ZEFSAII (Michael W. Deem and Ramdas Pophale) SiO2 
 PCOD8110884
Probable space group: C 2/M
;
_chemical_formula_sum "Si O2"
_cell_formula_units_Z 48
_cell_length_a 10.652004
_cell_length_b 29.261087
_cell_length_c 8.800923
_cell_angle_alpha 90.000000
_cell_angle_beta 64.160278
_cell_angle_gamma 90.000000
_cell_volume 2468.883644
_symmetry_space_group_name_H-M "C 2/M"
_symmetry_group_IT_number 12
_symmetry_cell_setting 'monoclinic'
loop_
_space_group_symop_operation_xyz
x,y,z
-x,y,-z
-x,-y,-z
x,-y,z
1/2+x,1/2+y,z
1/2-x,1/2+y,-z
1/2-x,1/2-y,-z
1/2+x,1/2-y,z
loop_
_atom_site_type_symbol
_atom_site_label
_atom_site_fract_x
_atom_site_fract_y
_atom_site_fract_z
Si Si1 0.672120 0.875646 0.757986
Si Si2 0.146353 0.052926 0.851118
Si Si3 0.695684 0.775330 0.674976
Si Si4 0.412362 0.216349 0.703487
Si Si5 0.143063 0.052505 0.497212
Si Si6 0.650219 0.124545 0.112938
O O1 0.722909 0.829476 0.647513
O O2 0.738312 0.919172 0.645977
O O3 0.511054 0.886473 0.820041
O O4 0.714630 0.868974 0.911337
O O5 0.138060 0.061737 0.677536
O O6 0.273070 0.082381 0.848624
O O7 0.175921 0.000000 0.874948
O O8 0.000000 0.068871 0.000000
O O9 0.750000 0.750000 0.500000
O O10 0.526217 0.768720 0.773595
O O11 0.787393 0.753780 0.763406
O O12 0.500000 0.210102 0.500000
O O13 0.334244 0.169793 0.792139
O O14 0.000000 0.069233 0.500000
O O15 0.173133 0.000000 0.442990
#
# Coordination Sequence:
#
# PCOD8110884 Si02
#       6
#     8   8   8   8   8   8
#     4  10  22  39  59  87 122 158 200 240 299 361
#     4  10  22  40  61  88 119 152 196 246 299 357
#     4   9  19  35  56  83 114 158 196 247 291 347
#     4   9  19  36  58  83 117 154 199 244 298 350
#     4  10  22  39  62  87 118 155 194 246 298 358
#     4  10  22  38  60  86 121 159 191 250 298 346
#
# _framework density 19.441984000000001
#
# number of rings (size 3 to 8) (size 9 to 14) (size 15 to 20)
#    0.000    2.333    0.000    1.000    7.000    5.333 
#    3.000    3.333    0.000    0.000    0.000    0.000 
#    0.000    0.000    0.000    0.000    0.000    0.000 
#
# Total GULP energy -297480.251761 kJ/mol
# GULP energy per Si atom -12395.010490 kJ/mol
# Density = 1.939773 g / cm^3
# Si number density = 19.441984 Si / 1000 Ang^3
#
#
#
# Elastic Constant Matrix: (Units=GPa)
#
#
# Indices 1 2 3 4 5 6 
#
# 1 114.3352 67.8529 22.3745 0.0000 8.5854 0.0000
# 2 67.8529 101.3486 44.6456 0.0000 -6.9788 0.0000
# 3 22.3745 44.6456 78.2596 0.0000 -3.7894 0.0000
# 4 0.0000 0.0000 0.0000 29.7333 0.0000 -1.4719
# 5 8.5854 -6.9788 -3.7894 0.0000 18.3098 0.0000
# 6 0.0000 0.0000 0.0000 -1.4719 0.0000 48.6745
#
#
#
# Elastic Compliance Matrix: (Units=1/GPa)
#
#
# Indices 1 2 3 4 5 6 
#
# 1 0.017177 -0.013276 0.002048 0.000000 -0.012691 0.000000
# 2 -0.013276 0.023666 -0.009058 0.000000 0.013371 0.000000
# 3 0.002048 -0.009058 0.017320 0.000000 -0.000828 0.000000
# 4 0.000000 0.000000 0.000000 0.033683 0.000000 0.001019
# 5 -0.012691 0.013371 -0.000828 0.000000 0.065491 0.000000
# 6 0.000000 0.000000 0.000000 0.001019 0.000000 0.020575
#
#
# Mechanical properties :
#
#
# Convention : Reuss Voigt Hill
#
# Bulk Modulus (GPa) = 56.84633 62.63216 59.73925
# Shear Modulus (GPa) = 22.28677 29.94822 26.11750
#
# Velocity S-wave (km/s) = 3.38941 3.92904 3.66916
# Velocity P-wave (km/s) = 6.67981 7.27103 6.98169
#
# Compressibility (1/GPa) = 0.01759128
#
# Stress axis : x y z
#
# Youngs Moduli (GPa) = 58.21642 42.25396 57.73793
#
# Poissons Ratio (x) = 0.56098 -0.11827
# Poissons Ratio (y) = 0.77291 0.52299
# Poissons Ratio (z) = -0.11925 0.38274
#
# Static dielectric constant tensor:
#      x y z
#    x 4.090290 0.000000 0.168960 
#    y 0.000000 3.595690 0.000000 
#    z 0.168960 0.000000 3.519890 
# 
# 
# High freq. dielectric constant tensor:
#      x y z
#    x 1.769110 0.000000 0.008430 
#    y 0.000000 1.756510 0.000000 
#    z 0.008430 0.000000 1.750030 
# 
# From -- ./inp_files/52407.got.cif
#   From: 2010.06.25/outbox.cif.g09.slc.cpg/sg12_27_cif.got.tgz:52407.got - 2010.06.28 00:19:55.
