data_PCOD8110961
_publ_section_title
;
Structure prediction by ZEFSAII (Michael W. Deem and Ramdas Pophale) SiO2 
 PCOD8110961
Probable space group: C 2/M
;
_chemical_formula_sum "Si O2"
_cell_formula_units_Z 56
_cell_length_a 8.716441
_cell_length_b 26.707244
_cell_length_c 17.577786
_cell_angle_alpha 90.000000
_cell_angle_beta 135.805106
_cell_angle_gamma 90.000000
_cell_volume 2852.517250
_symmetry_space_group_name_H-M "C 2/M"
_symmetry_group_IT_number 12
_symmetry_cell_setting 'monoclinic'
loop_
_space_group_symop_operation_xyz
x,y,z
-x,y,-z
-x,-y,-z
x,-y,z
1/2+x,1/2+y,z
1/2-x,1/2+y,-z
1/2-x,1/2-y,-z
1/2+x,1/2-y,z
loop_
_atom_site_type_symbol
_atom_site_label
_atom_site_fract_x
_atom_site_fract_y
_atom_site_fract_z
Si Si1 0.652233 0.799233 0.856926
Si Si2 0.433033 0.698487 0.103189
Si Si3 0.255154 0.396699 0.105316
Si Si4 0.984424 0.393536 0.715275
Si Si5 0.654042 0.058074 0.482228
Si Si6 0.437566 0.443129 0.896040
Si Si7 0.847357 0.056862 0.294429
O O1 0.556808 0.743411 0.831440
O O2 0.851088 0.798370 0.869547
O O3 0.479455 0.839611 0.758611
O O4 0.726313 0.808206 0.971231
O O5 0.414749 0.650187 0.148818
O O6 0.351746 0.440147 0.084870
O O7 0.282782 0.408634 0.202234
O O8 0.000000 0.386357 0.000000
O O9 0.902395 0.398206 0.599011
O O10 0.827331 0.432335 0.702018
O O11 0.235022 0.410525 0.796920
O O12 0.500000 0.067111 0.500000
O O13 0.906429 0.067989 0.591957
O O14 0.622013 0.000000 0.441966
O O15 0.360575 0.500000 0.876105
O O16 0.500000 0.420413 0.000000
O O17 0.822278 0.000000 0.259326
#
# Coordination Sequence:
#
# PCOD8110961 Si02
#       7
#     8   8   8   8   8   8   8
#     4  10  22  38  63  89 120 157 202 255 314 366
#     4  10  22  39  59  90 122 157 202 255 308 371
#     4  12  24  37  59  87 125 164 207 253 305 369
#     4  12  22  39  63  91 118 160 205 256 307 368
#     4  10  22  41  64  90 122 162 210 258 304 361
#     4  11  22  36  54  82 123 163 198 244 304 370
#     4  11  24  39  60  92 126 164 207 250 302 363
#
# _framework density 19.631782999999999
#
# number of rings (size 3 to 8) (size 9 to 14) (size 15 to 20)
#    0.000    1.143    1.429    5.571    6.000    4.571 
#    0.000    0.000    0.000    0.857    0.000    0.000 
#    0.000    0.000    0.000    0.000    0.000    0.000 
#
# Total GULP energy -346943.037483 kJ/mol
# GULP energy per Si atom -12390.822767 kJ/mol
# Density = 1.958710 g / cm^3
# Si number density = 19.631783 Si / 1000 Ang^3
#
#
#
# Elastic Constant Matrix: (Units=GPa)
#
#
# Indices 1 2 3 4 5 6 
#
# 1 112.2288 26.3572 40.2059 0.0000 -0.0560 0.0000
# 2 26.3572 97.5066 50.4064 0.0000 -8.7846 0.0000
# 3 40.2059 50.4064 80.9107 0.0000 -9.1988 0.0000
# 4 0.0000 0.0000 0.0000 38.8759 0.0000 -6.9144
# 5 -0.0560 -8.7846 -9.1988 0.0000 33.0904 0.0000
# 6 0.0000 0.0000 0.0000 -6.9144 0.0000 40.5234
#
#
#
# Elastic Compliance Matrix: (Units=1/GPa)
#
#
# Indices 1 2 3 4 5 6 
#
# 1 0.010921 -0.000289 -0.005425 0.000000 -0.001566 0.000000
# 2 -0.000289 0.015202 -0.009158 0.000000 0.001489 0.000000
# 3 -0.005425 -0.009158 0.021151 0.000000 0.003440 0.000000
# 4 0.000000 0.000000 0.000000 0.026528 0.000000 0.004526
# 5 -0.001566 0.001489 0.003440 0.000000 0.031569 0.000000
# 6 0.000000 0.000000 0.000000 0.004526 0.000000 0.025449
#
#
# Mechanical properties :
#
#
# Convention : Reuss Voigt Hill
#
# Bulk Modulus (GPa) = 57.04125 58.28722 57.66424
# Shear Modulus (GPa) = 30.04660 34.07639 32.06149
#
# Velocity S-wave (km/s) = 3.91641 4.17078 4.04560
# Velocity P-wave (km/s) = 7.04058 7.27658 7.15955
#
# Compressibility (1/GPa) = 0.01753117
#
# Stress axis : x y z
#
# Youngs Moduli (GPa) = 91.56761 65.77992 47.27803
#
# Poissons Ratio (x) = 0.01899 0.25648
# Poissons Ratio (y) = 0.02643 0.43297
# Poissons Ratio (z) = 0.49676 0.60241
#
# Static dielectric constant tensor:
#      x y z
#    x 3.689910 0.000000 -0.021680 
#    y 0.000000 3.730000 0.000000 
#    z -0.021680 0.000000 3.479560 
# 
# 
# High freq. dielectric constant tensor:
#      x y z
#    x 1.789240 0.000000 -0.001270 
#    y 0.000000 1.756650 0.000000 
#    z -0.001270 0.000000 1.740390 
# 
# From -- ./inp_files/259809.got.cif
#   From: 2010.06.25/outbox.cif.g09.slc.cpg/sg12_130_cif.got.tgz:259809.got - 2010.06.28 00:19:55.
