data_PCOD8110999
_publ_section_title
;
Structure prediction by ZEFSAII (Michael W. Deem and Ramdas Pophale) SiO2 
 PCOD8110999
Probable space group: C 2/M
;
_chemical_formula_sum "Si O2"
_cell_formula_units_Z 48
_cell_length_a 13.531558
_cell_length_b 18.334537
_cell_length_c 11.985127
_cell_angle_alpha 90.000000
_cell_angle_beta 130.225478
_cell_angle_gamma 90.000000
_cell_volume 2270.254339
_symmetry_space_group_name_H-M "C 2/M"
_symmetry_group_IT_number 12
_symmetry_cell_setting 'monoclinic'
loop_
_space_group_symop_operation_xyz
x,y,z
-x,y,-z
-x,-y,-z
x,-y,z
1/2+x,1/2+y,z
1/2-x,1/2+y,-z
1/2-x,1/2-y,-z
1/2+x,1/2-y,z
loop_
_atom_site_type_symbol
_atom_site_label
_atom_site_fract_x
_atom_site_fract_y
_atom_site_fract_z
Si Si1 0.805205 0.678492 0.600488
Si Si2 0.143831 0.082188 0.104458
Si Si3 0.642645 0.086885 0.571509
Si Si4 0.855139 0.919230 0.355583
Si Si5 0.298124 0.639524 0.078989
Si Si6 0.049494 0.272649 0.914176
O O1 0.750000 0.750000 0.500000
O O2 0.825003 0.613939 0.527472
O O3 0.712361 0.646380 0.627586
O O4 0.938743 0.697115 0.755337
O O5 0.246411 0.120019 0.264517
O O6 0.126427 0.000000 0.133426
O O7 0.207159 0.083749 0.028299
O O8 0.000000 0.119421 0.000000
O O9 0.500000 0.116489 0.500000
O O10 0.644073 0.000000 0.575424
O O11 0.860142 0.900860 0.228619
O O12 0.000000 0.923449 0.500000
O O13 0.790532 0.000000 0.325474
O O14 0.387279 0.705976 0.104967
O O15 0.154311 0.663727 0.007282
O O16 0.000000 0.248743 0.000000
#
# Coordination Sequence:
#
# PCOD8110999 Si02
#       6
#     8   8   8   8   8   8
#     4  12  26  42  68  98 132 173 218 268 327 397
#     4  10  22  38  66  99 124 164 219 271 328 388
#     4  10  23  44  67  94 130 170 217 272 325 386
#     4  11  25  44  66  97 134 175 222 272 334 396
#     4  11  23  42  69  90 134 172 213 276 327 399
#     4  11  24  43  63  97 131 170 222 268 331 390
#
# _framework density 21.143004999999999
#
# number of rings (size 3 to 8) (size 9 to 14) (size 15 to 20)
#    0.000    1.167    1.667    3.500    7.000    2.000 
#    0.000    3.333    0.000    0.000    0.000    0.000 
#    0.000    0.000    0.000    0.000    0.000    0.000 
#
# Total GULP energy -297582.176173 kJ/mol
# GULP energy per Si atom -12399.257341 kJ/mol
# Density = 2.109488 g / cm^3
# Si number density = 21.143005 Si / 1000 Ang^3
#
#
#
# Elastic Constant Matrix: (Units=GPa)
#
#
# Indices 1 2 3 4 5 6 
#
# 1 107.7432 27.7686 58.5232 0.0000 -2.1738 0.0000
# 2 27.7686 57.9666 42.6298 0.0000 5.2835 0.0000
# 3 58.5232 42.6298 184.1610 0.0000 -0.3302 0.0000
# 4 0.0000 0.0000 0.0000 -53.8806 0.0000 -1.6367
# 5 -2.1738 5.2835 -0.3302 0.0000 43.5512 0.0000
# 6 0.0000 0.0000 0.0000 -1.6367 0.0000 25.0919
#
#
#
# Elastic Compliance Matrix: (Units=1/GPa)
#
#
# Indices 1 2 3 4 5 6 
#
# 1 0.011816 -0.003606 -0.002919 0.000000 0.001005 0.000000
# 2 -0.003606 0.022180 -0.003994 0.000000 -0.002901 0.000000
# 3 -0.002919 -0.003994 0.007283 0.000000 0.000394 0.000000
# 4 0.000000 0.000000 0.000000 -0.018523 0.000000 -0.001208
# 5 0.001005 -0.002901 0.000394 0.000000 0.023367 0.000000
# 6 0.000000 0.000000 0.000000 -0.001208 0.000000 0.039775
#
#
# Mechanical properties :
#
#
# Convention : Reuss Voigt Hill
#
# Bulk Modulus (GPa) = 49.39959 67.52378 58.46169
# Shear Modulus (GPa) = 43.98287 17.68246 30.83267
#
# Velocity S-wave (km/s) = 4.56593 2.89507 3.82290
# Velocity P-wave (km/s) = 7.15627 6.57125 6.86999
#
# Compressibility (1/GPa) = 0.02024308
#
# Stress axis : x y z
#
# Youngs Moduli (GPa) = 84.62980 45.08560 137.31295
#
# Poissons Ratio (x) = 0.16257 0.40075
# Poissons Ratio (y) = 0.30515 0.54837
# Poissons Ratio (z) = 0.24699 0.18005
#
# Static dielectric constant tensor:
#      x y z
#    x 3.927190 0.000000 0.082430 
#    y 0.000000 3.998480 0.000000 
#    z 0.082430 0.000000 4.113950 
# 
# 
# High freq. dielectric constant tensor:
#      x y z
#    x 1.832200 0.000000 -0.001560 
#    y 0.000000 1.828430 0.000000 
#    z -0.001560 0.000000 1.848520 
# 
# From -- ./inp_files/134095.got.cif
#   From: 2010.06.25/outbox.cif.g09.slc.cpg/sg12_68_cif.got.tgz:134095.got - 2010.06.28 00:19:55.
