data_PCOD8110759
_publ_section_title
;
Structure prediction by ZEFSAII (Michael W. Deem and Ramdas Pophale) SiO2 
 PCOD8110759
Probable space group: C 2/M
;
_chemical_formula_sum "Si O2"
_cell_formula_units_Z 44
_cell_length_a 19.481279
_cell_length_b 10.508851
_cell_length_c 12.334063
_cell_angle_alpha 90.000000
_cell_angle_beta 57.331627
_cell_angle_gamma 90.000000
_cell_volume 2125.652938
_symmetry_space_group_name_H-M "C 2/M"
_symmetry_group_IT_number 12
_symmetry_cell_setting 'monoclinic'
loop_
_space_group_symop_operation_xyz
x,y,z
-x,y,-z
-x,-y,-z
x,-y,z
1/2+x,1/2+y,z
1/2-x,1/2+y,-z
1/2-x,1/2-y,-z
1/2+x,1/2-y,z
loop_
_atom_site_type_symbol
_atom_site_label
_atom_site_fract_x
_atom_site_fract_y
_atom_site_fract_z
Si Si1 0.047159 0.352322 0.849924
Si Si2 0.672748 0.500000 0.969526
Si Si3 0.631448 0.145888 0.395738
Si Si4 0.069489 0.000000 0.255088
Si Si5 0.250523 0.000000 0.118913
Si Si6 0.993649 0.728839 0.669001
Si Si7 0.201140 0.750411 0.807433
O O1 0.067872 0.500000 0.823977
O O2 0.991696 0.311301 0.795893
O O3 0.131969 0.273866 0.775922
O O4 0.000000 0.318360 0.000000
O O5 0.677133 0.374084 0.895201
O O6 0.587778 0.500000 0.109676
O O7 0.749032 0.500000 0.988703
O O8 0.579049 0.189870 0.543131
O O9 0.580897 0.159148 0.327444
O O10 0.712472 0.230982 0.324737
O O11 0.657384 0.000000 0.387846
O O12 0.016496 0.120454 0.335091
O O13 0.156875 0.000000 0.243158
O O14 0.297507 0.873765 0.116729
#
# Coordination Sequence:
#
# PCOD8110759 Si02
#       7
#     8   4   8   4   4   8   8
#     4  11  25  43  64  93 134 173 215 269 336 397
#     4  10  22  37  66  95 134 167 219 278 316 388
#     4  11  23  42  70  96 128 173 227 272 324 387
#     4  10  22  39  65  96 126 173 219 278 331 367
#     4  10  22  39  63 100 130 172 224 267 330 382
#     4  11  23  43  65  95 132 172 222 271 322 394
#     4  12  22  42  65  98 133 173 219 273 331 394
#
# _framework density 20.699521000000001
#
# number of rings (size 3 to 8) (size 9 to 14) (size 15 to 20)
#    0.545    0.545    3.636    3.818    0.000    5.091 
#    0.000    1.818    0.000    0.000    0.000    0.000 
#    0.000    0.000    0.000    0.000    0.000    0.000 
#
# Total GULP energy -272845.484271 kJ/mol
# GULP energy per Si atom -12402.067467 kJ/mol
# Density = 2.065241 g / cm^3
# Si number density = 20.699521 Si / 1000 Ang^3
#
#
#
# Elastic Constant Matrix: (Units=GPa)
#
#
# Indices 1 2 3 4 5 6 
#
# 1 83.9584 20.7234 32.6464 0.0000 -1.3869 0.0000
# 2 20.7234 139.0222 24.2407 0.0000 1.5496 0.0000
# 3 32.6464 24.2407 63.3010 0.0000 13.3787 0.0000
# 4 0.0000 0.0000 0.0000 21.1310 0.0000 0.7845
# 5 -1.3869 1.5496 13.3787 0.0000 31.1276 0.0000
# 6 0.0000 0.0000 0.0000 0.7845 0.0000 18.7833
#
#
#
# Elastic Compliance Matrix: (Units=1/GPa)
#
#
# Indices 1 2 3 4 5 6 
#
# 1 0.015553 -0.000863 -0.008630 0.000000 0.004445 0.000000
# 2 -0.000863 0.007783 -0.002689 0.000000 0.000730 0.000000
# 3 -0.008630 -0.002689 0.023463 0.000000 -0.010335 0.000000
# 4 0.000000 0.000000 0.000000 0.047397 0.000000 -0.001980
# 5 0.004445 0.000730 -0.010335 0.000000 0.036729 0.000000
# 6 0.000000 0.000000 0.000000 -0.001980 0.000000 0.053322
#
#
# Mechanical properties :
#
#
# Convention : Reuss Voigt Hill
#
# Bulk Modulus (GPa) = 44.57782 49.05584 46.81683
# Shear Modulus (GPa) = 23.13859 28.11978 25.62918
#
# Velocity S-wave (km/s) = 3.34703 3.68975 3.52256
# Velocity P-wave (km/s) = 6.04311 6.47324 6.26187
#
# Compressibility (1/GPa) = 0.02243268
#
# Stress axis : x y z
#
# Youngs Moduli (GPa) = 64.29682 128.49236 42.62117
#
# Poissons Ratio (x) = 0.11091 0.36782
# Poissons Ratio (y) = 0.05550 0.11463
# Poissons Ratio (z) = 0.55489 0.34557
#
# Static dielectric constant tensor:
#      x y z
#    x 3.730740 0.000000 -0.018090 
#    y 0.000000 3.810060 0.000000 
#    z -0.018090 0.000000 3.600520 
# 
# 
# High freq. dielectric constant tensor:
#      x y z
#    x 1.802170 0.000000 -0.005970 
#    y 0.000000 1.825740 0.000000 
#    z -0.005970 0.000000 1.797170 
# 
# From -- ./inp_files/172825.got.cif
#   From: 2010.06.25/outbox.cif.g09.slc.cpg/sg12_87_cif.got.tgz:172825.got - 2010.06.28 00:19:55.
