data_PCOD8110142
_publ_section_title
;
Structure prediction by ZEFSAII (Michael W. Deem and Ramdas Pophale) SiO2 
 PCOD8110142
Probable space group: C 2/M
;
_chemical_formula_sum "Si O2"
_cell_formula_units_Z 60
_cell_length_a 23.769875
_cell_length_b 26.552290
_cell_length_c 14.870331
_cell_angle_alpha 90.000000
_cell_angle_beta 19.191817
_cell_angle_gamma 90.000000
_cell_volume 3085.255895
_symmetry_space_group_name_H-M "C 2/M"
_symmetry_group_IT_number 12
_symmetry_cell_setting 'monoclinic'
loop_
_space_group_symop_operation_xyz
x,y,z
-x,y,-z
-x,-y,-z
x,-y,z
1/2+x,1/2+y,z
1/2-x,1/2+y,-z
1/2-x,1/2-y,-z
1/2+x,1/2-y,z
loop_
_atom_site_type_symbol
_atom_site_label
_atom_site_fract_x
_atom_site_fract_y
_atom_site_fract_z
Si Si1 0.135398 0.378153 0.222948
Si Si2 0.000000 0.346345 0.000000
Si Si3 0.946161 0.058211 0.679204
Si Si4 0.154700 0.902329 0.521364
Si Si5 0.077228 0.726352 0.724691
Si Si6 0.623608 0.676568 0.019308
Si Si7 0.650921 0.143302 0.478494
Si Si8 0.326693 0.443299 0.314288
O O1 0.000000 0.401527 0.500000
O O2 0.033192 0.362993 0.288976
O O3 0.277041 0.418050 0.978907
O O4 0.229199 0.329066 0.125989
O O5 0.846401 0.384748 0.222254
O O6 0.002781 0.311330 0.082849
O O7 0.000000 0.081085 0.500000
O O8 0.102572 0.066186 0.511924
O O9 0.904259 0.000000 0.730018
O O10 0.134514 0.937338 0.638986
O O11 0.045305 0.851639 0.694127
O O12 0.250000 0.750000 0.500000
O O13 0.138762 0.696281 0.545582
O O14 0.929118 0.766045 0.921126
O O15 0.692527 0.648226 0.826878
O O16 0.685065 0.096656 0.494211
O O17 0.259012 0.500000 0.398245
O O18 0.500000 0.433026 0.000000
#
# Coordination Sequence:
#
# PCOD8110142 Si02
#       8
#     8   4   8   8   8   8   8   8
#     4   9  22  42  64  90 123 163 210 267 314 366
#     4  12  24  36  59  90 124 162 207 250 310 376
#     4  10  23  42  66  90 123 170 213 256 316 380
#     4  11  22  41  60  90 130 163 206 258 313 380
#     4  12  23  37  62  90 121 164 207 252 313 381
#     4  10  21  41  61  86 127 163 202 259 316 371
#     4  11  22  40  64  90 126 159 205 267 310 370
#     4  11  22  38  64  94 124 164 204 255 324 379
#
# _framework density 19.447333
#
# number of rings (size 3 to 8) (size 9 to 14) (size 15 to 20)
#    0.000    1.333    4.000    1.200    1.867    1.333 
#    0.000    2.667    0.000    0.000    0.000    0.000 
#    0.000    0.000    0.000    0.000    0.000    0.000 
#
# Total GULP energy -371988.279024 kJ/mol
# GULP energy per Si atom -12399.609301 kJ/mol
# Density = 1.940307 g / cm^3
# Si number density = 19.447333 Si / 1000 Ang^3
#
#
#
# Elastic Constant Matrix: (Units=GPa)
#
#
# Indices 1 2 3 4 5 6 
#
# 1 147.3940 48.7714 49.6815 0.0518 -7.3939 -0.0678
# 2 48.7714 93.3899 38.3102 0.0127 -11.1850 -0.0301
# 3 49.6815 38.3102 112.8922 -0.0324 -4.2222 -0.0775
# 4 0.0518 0.0127 -0.0324 27.6303 -0.0578 1.0327
# 5 -7.3939 -11.1850 -4.2222 -0.0578 29.6923 0.0838
# 6 -0.0678 -0.0301 -0.0775 1.0327 0.0838 25.2917
#
#
#
# Elastic Compliance Matrix: (Units=1/GPa)
#
#
# Indices 1 2 3 4 5 6 
#
# 1 0.008868 -0.003457 -0.002710 -0.000018 0.000521 0.000010
# 2 -0.003457 0.014306 -0.003181 0.000005 0.004076 -0.000016
# 3 -0.002710 -0.003181 0.011119 0.000018 -0.000292 0.000023
# 4 -0.000018 0.000005 0.000018 0.036248 0.000075 -0.001480
# 5 0.000521 0.004076 -0.000292 0.000075 0.035303 -0.000115
# 6 0.000010 -0.000016 0.000023 -0.001480 -0.000115 0.039600
#
#
# Mechanical properties :
#
#
# Convention : Reuss Voigt Hill
#
# Bulk Modulus (GPa) = 64.11390 69.68915 66.90153
# Shear Modulus (GPa) = 29.52660 30.98374 30.25517
#
# Velocity S-wave (km/s) = 3.90074 3.99584 3.94858
# Velocity P-wave (km/s) = 7.30255 7.56317 7.43400
#
# Compressibility (1/GPa) = 0.01559724
#
# Stress axis : x y z
#
# Youngs Moduli (GPa) = 112.76438 69.89923 89.93457
#
# Poissons Ratio (x) = 0.24165 0.24372
# Poissons Ratio (y) = 0.38984 0.28608
# Poissons Ratio (z) = 0.30559 0.22235
#
# Static dielectric constant tensor:
#      x y z
#    x 3.798820 -0.000270 0.029980 
#    y -0.000270 3.450170 0.000490 
#    z 0.029980 0.000490 3.618340 
# 
# 
# High freq. dielectric constant tensor:
#      x y z
#    x 1.769770 -0.000020 0.003230 
#    y -0.000020 1.746850 0.000040 
#    z 0.003230 0.000040 1.763110 
# 
# From -- ./inp_files/242339.got.cif
#   From: 2010.06.25/outbox.cif.g09.slc.cpg/sg12_122_cif.got.tgz:242339.got - 2010.06.28 00:19:55.
