data_PCOD8110963
_publ_section_title
;
Structure prediction by ZEFSAII (Michael W. Deem and Ramdas Pophale) SiO2 
 PCOD8110963
Probable space group: C 2/M
;
_chemical_formula_sum "Si O2"
_cell_formula_units_Z 56
_cell_length_a 21.442322
_cell_length_b 17.252525
_cell_length_c 14.006749
_cell_angle_alpha 90.000000
_cell_angle_beta 32.496251
_cell_angle_gamma 90.000000
_cell_volume 2783.772500
_symmetry_space_group_name_H-M "C 2/M"
_symmetry_group_IT_number 12
_symmetry_cell_setting 'monoclinic'
loop_
_space_group_symop_operation_xyz
x,y,z
-x,y,-z
-x,-y,-z
x,-y,z
1/2+x,1/2+y,z
1/2-x,1/2+y,-z
1/2-x,1/2-y,-z
1/2+x,1/2-y,z
loop_
_atom_site_type_symbol
_atom_site_label
_atom_site_fract_x
_atom_site_fract_y
_atom_site_fract_z
Si Si1 0.406084 0.346345 0.504775
Si Si2 0.642285 0.412038 0.234732
Si Si3 0.061356 0.783182 0.015718
Si Si4 0.328608 0.673486 0.406354
Si Si5 0.551393 0.826385 0.532894
Si Si6 0.163266 0.304594 0.053722
Si Si7 0.277755 0.410250 0.286875
O O1 0.543683 0.360953 0.308321
O O2 0.367254 0.403401 0.638646
O O3 0.325182 0.362046 0.517262
O O4 0.387487 0.256998 0.559286
O O5 0.624073 0.500000 0.227721
O O6 0.770210 0.386216 0.038427
O O7 0.143421 0.725272 0.969996
O O8 0.962417 0.805688 0.217863
O O9 0.133395 0.858731 0.889746
O O10 0.000000 0.745406 0.000000
O O11 0.250000 0.750000 0.500000
O O12 0.290132 0.607475 0.383098
O O13 0.500000 0.854285 0.500000
O O14 0.457137 0.820815 0.738260
O O15 0.645335 0.891506 0.434593
O O16 0.250000 0.250000 0.000000
O O17 0.305177 0.500000 0.230939
#
# Coordination Sequence:
#
# PCOD8110963 Si02
#       7
#     8   8   8   8   8   8   8
#     4  11  19  39  64  90 121 161 212 259 311 377
#     4  11  24  38  61  96 129 158 203 268 324 370
#     4  10  22  38  63  92 122 164 217 258 308 373
#     4  11  21  38  65  94 119 166 218 261 304 374
#     4  12  22  40  69  92 119 166 217 264 306 375
#     4  12  21  41  66  93 121 167 217 260 313 381
#     4  11  25  41  59  92 135 167 206 261 320 375
#
# _framework density 20.116586999999999
#
# number of rings (size 3 to 8) (size 9 to 14) (size 15 to 20)
#    0.000    0.857    5.714    2.571    2.000    4.571 
#    0.000    5.000    0.000    0.429    0.000    0.000 
#    0.000    0.000    0.000    0.000    0.000    0.000 
#
# Total GULP energy -347159.775126 kJ/mol
# GULP energy per Si atom -12398.563397 kJ/mol
# Density = 2.007080 g / cm^3
# Si number density = 20.116587 Si / 1000 Ang^3
#
#
#
# Elastic Constant Matrix: (Units=GPa)
#
#
# Indices 1 2 3 4 5 6 
#
# 1 154.2514 32.8706 27.2140 0.0000 -3.1008 0.0000
# 2 32.8706 88.5656 28.9313 0.0000 -3.9526 0.0000
# 3 27.2140 28.9313 89.7136 0.0000 -6.2693 0.0000
# 4 0.0000 0.0000 0.0000 22.4440 0.0000 -4.1023
# 5 -3.1008 -3.9526 -6.2693 0.0000 22.1507 0.0000
# 6 0.0000 0.0000 0.0000 -4.1023 0.0000 22.1745
#
#
#
# Elastic Compliance Matrix: (Units=1/GPa)
#
#
# Indices 1 2 3 4 5 6 
#
# 1 0.007212 -0.002188 -0.001468 0.000000 0.000204 0.000000
# 2 -0.002188 0.013312 -0.003555 0.000000 0.001063 0.000000
# 3 -0.001468 -0.003555 0.012935 0.000000 0.002821 0.000000
# 4 0.000000 0.000000 0.000000 0.046115 0.000000 0.008531
# 5 0.000204 0.001063 0.002821 0.000000 0.046162 0.000000
# 6 0.000000 0.000000 0.000000 0.008531 0.000000 0.046675
#
#
# Mechanical properties :
#
#
# Convention : Reuss Voigt Hill
#
# Bulk Modulus (GPa) = 52.52729 56.72914 54.62822
# Shear Modulus (GPa) = 25.88272 29.58816 27.73544
#
# Velocity S-wave (km/s) = 3.59086 3.83931 3.71716
# Velocity P-wave (km/s) = 6.58487 6.92207 6.75558
#
# Compressibility (1/GPa) = 0.01903772
#
# Stress axis : x y z
#
# Youngs Moduli (GPa) = 138.65209 75.12086 77.30726
#
# Poissons Ratio (x) = 0.16438 0.11348
# Poissons Ratio (y) = 0.30340 0.27481
# Poissons Ratio (z) = 0.20353 0.26704
#
# Static dielectric constant tensor:
#      x y z
#    x 3.930990 0.000000 -0.048210 
#    y 0.000000 3.339100 0.000000 
#    z -0.048210 0.000000 3.790560 
# 
# 
# High freq. dielectric constant tensor:
#      x y z
#    x 1.803800 0.000000 -0.003680 
#    y 0.000000 1.750870 0.000000 
#    z -0.003680 0.000000 1.790570 
# 
# From -- ./inp_files/234654.got.cif
#   From: 2010.06.25/outbox.cif.g09.slc.cpg/sg12_118_cif.got.tgz:234654.got - 2010.06.28 00:19:55.
