data_PCOD8110926
_publ_section_title
;
Structure prediction by ZEFSAII (Michael W. Deem and Ramdas Pophale) SiO2 
 PCOD8110926
Probable space group: C 2/M
;
_chemical_formula_sum "Si O2"
_cell_formula_units_Z 40
_cell_length_a 18.428862
_cell_length_b 11.151533
_cell_length_c 9.272270
_cell_angle_alpha 90.000000
_cell_angle_beta 84.853598
_cell_angle_gamma 90.000000
_cell_volume 1897.863055
_symmetry_space_group_name_H-M "C 2/M"
_symmetry_group_IT_number 12
_symmetry_cell_setting 'monoclinic'
loop_
_space_group_symop_operation_xyz
x,y,z
-x,y,-z
-x,-y,-z
x,-y,z
1/2+x,1/2+y,z
1/2-x,1/2+y,-z
1/2-x,1/2-y,-z
1/2+x,1/2-y,z
loop_
_atom_site_type_symbol
_atom_site_label
_atom_site_fract_x
_atom_site_fract_y
_atom_site_fract_z
Si Si1 0.828808 0.737297 0.651822
Si Si2 0.750645 0.132148 0.896412
Si Si3 0.324721 0.634497 0.358723
Si Si4 0.900027 0.706329 0.138570
Si Si5 0.054668 0.636767 0.171325
O O1 0.810394 0.848989 0.760509
O O2 0.760072 0.647252 0.668777
O O3 0.845171 0.779892 0.487999
O O4 0.901056 0.669613 0.693269
O O5 0.671085 0.121646 0.835999
O O6 0.765960 0.000000 0.966971
O O7 0.750000 0.250000 0.000000
O O8 0.341513 0.500000 0.401373
O O9 0.376854 0.667038 0.214124
O O10 0.968417 0.652006 0.214043
O O11 0.920087 0.721767 0.965815
O O12 0.070978 0.500000 0.123333
#
# Coordination Sequence:
#
# PCOD8110926 Si02
#       5
#     8   8   8   8   8
#     4  10  22  39  63  91 118 158 207 248 304 367
#     4  11  21  36  61  91 120 157 201 250 305 362
#     4  10  22  42  61  86 125 161 201 255 305 364
#     4  10  22  38  61  90 120 158 202 248 307 362
#     4  11  21  40  63  89 122 157 202 259 305 359
#
# _framework density 21.076335
#
# number of rings (size 3 to 8) (size 9 to 14) (size 15 to 20)
#    0.000    1.600    2.000    3.600    0.000    4.000 
#    0.000   11.000    0.000    0.000    0.000    0.000 
#    0.000    0.000    0.000    0.000    0.000    0.000 
#
# Total GULP energy -247848.731951 kJ/mol
# GULP energy per Si atom -12392.436598 kJ/mol
# Density = 2.102836 g / cm^3
# Si number density = 21.076335 Si / 1000 Ang^3
#
#
#
# Elastic Constant Matrix: (Units=GPa)
#
#
# Indices 1 2 3 4 5 6 
#
# 1 133.1926 38.2590 39.1008 0.0000 22.8448 0.0000
# 2 38.2590 122.9542 47.6410 0.0000 -0.3988 0.0000
# 3 39.1008 47.6410 79.4212 0.0000 8.5972 0.0000
# 4 0.0000 0.0000 0.0000 22.7533 0.0000 4.3080
# 5 22.8448 -0.3988 8.5972 0.0000 34.8250 0.0000
# 6 0.0000 0.0000 0.0000 4.3080 0.0000 9.5277
#
#
#
# Elastic Compliance Matrix: (Units=1/GPa)
#
#
# Indices 1 2 3 4 5 6 
#
# 1 0.009969 -0.001904 -0.003139 0.000000 -0.005786 0.000000
# 2 -0.001904 0.011063 -0.006008 0.000000 0.002859 0.000000
# 3 -0.003139 -0.006008 0.018006 0.000000 -0.002455 0.000000
# 4 0.000000 0.000000 0.000000 0.048065 0.000000 -0.021733
# 5 -0.005786 0.002859 -0.002455 0.000000 0.033150 0.000000
# 6 0.000000 0.000000 0.000000 -0.021733 0.000000 0.114783
#
#
# Mechanical properties :
#
#
# Convention : Reuss Voigt Hill
#
# Bulk Modulus (GPa) = 59.04990 65.06328 62.05659
# Shear Modulus (GPa) = 19.02704 27.45901 23.24303
#
# Velocity S-wave (km/s) = 3.00787 3.61340 3.32445
# Velocity P-wave (km/s) = 6.33569 6.95314 6.65159
#
# Compressibility (1/GPa) = 0.01693483
#
# Stress axis : x y z
#
# Youngs Moduli (GPa) = 100.31112 90.39225 55.53625
#
# Poissons Ratio (x) = 0.17214 0.17434
# Poissons Ratio (y) = 0.19103 0.33366
# Poissons Ratio (z) = 0.31490 0.54308
#
# Static dielectric constant tensor:
#      x y z
#    x 4.079890 0.000000 0.057350 
#    y 0.000000 3.598580 0.000000 
#    z 0.057350 0.000000 3.666220 
# 
# 
# High freq. dielectric constant tensor:
#      x y z
#    x 1.827950 0.000000 0.006760 
#    y 0.000000 1.804480 0.000000 
#    z 0.006760 0.000000 1.815830 
# 
# From -- ./inp_files/71239.got.cif
#   From: 2010.06.25/outbox.cif.g09.slc.cpg/sg12_36_cif.got.tgz:71239.got - 2010.06.28 00:19:55.
