data_PCOD8110344
_publ_section_title
;
Structure prediction by ZEFSAII (Michael W. Deem and Ramdas Pophale) SiO2 
 PCOD8110344
Probable space group: C 2/M
;
_chemical_formula_sum "Si O2"
_cell_formula_units_Z 32
_cell_length_a 17.193948
_cell_length_b 14.342370
_cell_length_c 10.157537
_cell_angle_alpha 90.000000
_cell_angle_beta 145.769393
_cell_angle_gamma 90.000000
_cell_volume 1409.051490
_symmetry_space_group_name_H-M "C 2/M"
_symmetry_group_IT_number 12
_symmetry_cell_setting 'monoclinic'
loop_
_space_group_symop_operation_xyz
x,y,z
-x,y,-z
-x,-y,-z
x,-y,z
1/2+x,1/2+y,z
1/2-x,1/2+y,-z
1/2-x,1/2-y,-z
1/2+x,1/2-y,z
loop_
_atom_site_type_symbol
_atom_site_label
_atom_site_fract_x
_atom_site_fract_y
_atom_site_fract_z
Si Si1 0.888643 0.700539 0.948142
Si Si2 0.399377 0.604303 0.467452
Si Si3 0.126339 0.898483 0.991569
Si Si4 0.590933 0.106557 0.751674
O O1 0.872424 0.812325 0.906484
O O2 0.940084 0.672855 0.166887
O O3 0.740604 0.659502 0.707324
O O4 0.000000 0.662252 0.000000
O O5 0.500000 0.652079 0.500000
O O6 0.360732 0.500000 0.364358
O O7 0.477768 0.601429 0.715116
O O8 0.148248 0.000000 0.093267
O O9 0.246781 0.884481 0.052069
O O10 0.500000 0.140881 0.500000
O O11 0.550882 0.000000 0.731097
#
# Coordination Sequence:
#
# PCOD8110344 Si02
#       4
#     8   8   8   8
#     4  12  26  40  69 104 139 170 221 280 344 389
#     4  10  21  41  69  97 129 176 229 271 322 401
#     4  10  23  43  66  93 133 185 231 268 321 401
#     4  10  22  42  69 101 134 173 223 278 334 395
#
# _framework density 22.710312999999999
#
# number of rings (size 3 to 8) (size 9 to 14) (size 15 to 20)
#    0.000    1.500    2.500    1.500    3.500    3.500 
#    0.000    0.000    0.000    0.000    0.000    0.000 
#    0.000    0.000    0.000    0.000    0.000    0.000 
#
# Total GULP energy -198402.592642 kJ/mol
# GULP energy per Si atom -12400.162040 kJ/mol
# Density = 2.265862 g / cm^3
# Si number density = 22.710313 Si / 1000 Ang^3
#
#
#
# Elastic Constant Matrix: (Units=GPa)
#
#
# Indices 1 2 3 4 5 6 
#
# 1 109.7807 43.4089 61.6350 0.0000 24.7518 0.0000
# 2 43.4089 125.2588 57.4201 0.0000 13.1033 0.0000
# 3 61.6350 57.4201 143.7075 0.0000 18.0762 0.0000
# 4 0.0000 0.0000 0.0000 56.8809 0.0000 -28.8792
# 5 24.7518 13.1033 18.0762 0.0000 33.4699 0.0000
# 6 0.0000 0.0000 0.0000 -28.8792 0.0000 43.2636
#
#
#
# Elastic Compliance Matrix: (Units=1/GPa)
#
#
# Indices 1 2 3 4 5 6 
#
# 1 0.013950 -0.002147 -0.004220 0.000000 -0.007197 0.000000
# 2 -0.002147 0.010211 -0.003064 0.000000 -0.000755 0.000000
# 3 -0.004220 -0.003064 0.010138 0.000000 -0.001155 0.000000
# 4 0.000000 0.000000 0.000000 0.026593 0.000000 0.017751
# 5 -0.007197 -0.000755 -0.001155 0.000000 0.036119 0.000000
# 6 0.000000 0.000000 0.000000 0.017751 0.000000 0.034963
#
#
# Mechanical properties :
#
#
# Convention : Reuss Voigt Hill
#
# Bulk Modulus (GPa) = 64.78009 78.18608 71.48309
# Shear Modulus (GPa) = 32.05485 41.14176 36.59831
#
# Velocity S-wave (km/s) = 3.76102 4.26089 4.01874
# Velocity P-wave (km/s) = 6.88817 7.66220 7.28547
#
# Compressibility (1/GPa) = 0.01543684
#
# Stress axis : x y z
#
# Youngs Moduli (GPa) = 71.68533 97.93190 98.63835
#
# Poissons Ratio (x) = 0.21027 0.41624
# Poissons Ratio (y) = 0.15392 0.30224
# Poissons Ratio (z) = 0.30250 0.30008
#
# Static dielectric constant tensor:
#      x y z
#    x 3.625510 0.000000 0.138170 
#    y 0.000000 4.414690 0.000000 
#    z 0.138170 0.000000 4.001790 
# 
# 
# High freq. dielectric constant tensor:
#      x y z
#    x 1.856260 0.000000 0.011720 
#    y 0.000000 1.910120 0.000000 
#    z 0.011720 0.000000 1.900050 
# 
# From -- ./inp_files/45396.got.cif
#   From: 2010.06.25/outbox.cif.g09.slc.cpg/sg12_23_cif.got.tgz:45396.got - 2010.06.28 00:19:55.
