data_PCOD8110722
_publ_section_title
;
Structure prediction by ZEFSAII (Michael W. Deem and Ramdas Pophale) SiO2 
 PCOD8110722
Probable space group: C 2/M
;
_chemical_formula_sum "Si O2"
_cell_formula_units_Z 56
_cell_length_a 26.403492
_cell_length_b 16.413558
_cell_length_c 9.791517
_cell_angle_alpha 90.000000
_cell_angle_beta 137.467394
_cell_angle_gamma 90.000000
_cell_volume 2868.580176
_symmetry_space_group_name_H-M "C 2/M"
_symmetry_group_IT_number 12
_symmetry_cell_setting 'monoclinic'
loop_
_space_group_symop_operation_xyz
x,y,z
-x,y,-z
-x,-y,-z
x,-y,z
1/2+x,1/2+y,z
1/2-x,1/2+y,-z
1/2-x,1/2-y,-z
1/2+x,1/2-y,z
loop_
_atom_site_type_symbol
_atom_site_label
_atom_site_fract_x
_atom_site_fract_y
_atom_site_fract_z
Si Si1 0.762103 0.591884 0.046275
Si Si2 0.312905 0.325238 0.348355
Si Si3 0.604164 0.235594 0.097619
Si Si4 0.944169 0.733801 0.686751
Si Si5 0.928589 0.594086 0.448679
Si Si6 0.263735 0.341182 0.719586
Si Si7 0.790442 0.592032 0.665271
O O1 0.744985 0.500000 0.964288
O O2 0.851268 0.609180 0.212164
O O3 0.731293 0.601808 0.138373
O O4 0.716757 0.654601 0.861326
O O5 0.403146 0.310849 0.529792
O O6 0.283703 0.238299 0.341329
O O7 0.286495 0.394297 0.402476
O O8 0.582207 0.230131 0.210681
O O9 0.654714 0.314803 0.171343
O O10 0.647399 0.151905 0.145821
O O11 0.533232 0.246314 0.857665
O O12 0.924858 0.648028 0.577157
O O13 0.934935 0.500000 0.506662
O O14 0.000000 0.620220 0.500000
O O15 0.222565 0.391331 0.519579
O O16 0.818371 0.500000 0.741266
#
# Coordination Sequence:
#
# PCOD8110722 Si02
#       7
#     8   8   8   8   8   8   8
#     4  11  23  38  61  89 120 159 203 253 307 358
#     4  11  21  38  59  87 118 161 206 249 292 356
#     4  10  22  37  59  92 118 157 203 251 303 361
#     4  11  21  38  61  84 124 160 203 247 301 364
#     4  10  23  38  54  86 130 165 194 240 308 376
#     4  11  20  39  62  87 119 159 206 252 296 362
#     4  11  21  37  62  90 123 157 198 252 306 359
#
# _framework density 19.521853
#
# number of rings (size 3 to 8) (size 9 to 14) (size 15 to 20)
#    0.000    1.286    4.286    2.143    4.000    2.286 
#    0.000    1.429    0.000    5.143    0.000    0.000 
#    0.000    0.000    0.000    0.000    0.000    0.000 
#
# Total GULP energy -347180.272124 kJ/mol
# GULP energy per Si atom -12399.295433 kJ/mol
# Density = 1.947742 g / cm^3
# Si number density = 19.521853 Si / 1000 Ang^3
#
#
#
# Elastic Constant Matrix: (Units=GPa)
#
#
# Indices 1 2 3 4 5 6 
#
# 1 85.2659 35.8131 47.7804 0.0000 4.2219 0.0000
# 2 35.8131 65.3297 40.1357 0.0000 15.6366 0.0000
# 3 47.7804 40.1357 130.9786 0.0000 14.1486 0.0000
# 4 0.0000 0.0000 0.0000 25.4115 0.0000 -1.5775
# 5 4.2219 15.6366 14.1486 0.0000 37.0573 0.0000
# 6 0.0000 0.0000 0.0000 -1.5775 0.0000 25.7307
#
#
#
# Elastic Compliance Matrix: (Units=1/GPa)
#
#
# Indices 1 2 3 4 5 6 
#
# 1 0.017098 -0.007426 -0.004266 0.000000 0.002814 0.000000
# 2 -0.007426 0.023453 -0.003651 0.000000 -0.007656 0.000000
# 3 -0.004266 -0.003651 0.010525 0.000000 -0.001992 0.000000
# 4 0.000000 0.000000 0.000000 0.039503 0.000000 0.002422
# 5 0.002814 -0.007656 -0.001992 0.000000 0.030656 0.000000
# 6 0.000000 0.000000 0.000000 0.002422 0.000000 0.039013
#
#
# Mechanical properties :
#
#
# Convention : Reuss Voigt Hill
#
# Bulk Modulus (GPa) = 49.04056 58.78141 53.91099
# Shear Modulus (GPa) = 25.28712 28.16288 26.72500
#
# Velocity S-wave (km/s) = 3.60296 3.80232 3.70398
# Velocity P-wave (km/s) = 6.51796 7.03227 6.78000
#
# Compressibility (1/GPa) = 0.02039128
#
# Stress axis : x y z
#
# Youngs Moduli (GPa) = 58.48610 42.63814 95.01323
#
# Poissons Ratio (x) = 0.31662 0.40531
# Poissons Ratio (y) = 0.43431 0.34687
# Poissons Ratio (z) = 0.24949 0.15566
#
# Static dielectric constant tensor:
#      x y z
#    x 3.767420 0.000000 0.243160 
#    y 0.000000 3.513090 0.000000 
#    z 0.243160 0.000000 3.807760 
# 
# 
# High freq. dielectric constant tensor:
#      x y z
#    x 1.760130 0.000000 -0.003740 
#    y 0.000000 1.743790 0.000000 
#    z -0.003740 0.000000 1.760650 
# 
# From -- ./inp_files/98217.got.cif
#   From: 2010.06.25/outbox.cif.g09.slc.cpg/sg12_50_cif.got.tgz:98217.got - 2010.06.28 00:19:55.
