data_PCOD8110061
_publ_section_title
;
Structure prediction by ZEFSAII (Michael W. Deem and Ramdas Pophale) SiO2 
 PCOD8110061
Probable space group: C 2/M
;
_chemical_formula_sum "Si O2"
_cell_formula_units_Z 56
_cell_length_a 19.642612
_cell_length_b 13.898908
_cell_length_c 14.140472
_cell_angle_alpha 90.000000
_cell_angle_beta 42.657525
_cell_angle_gamma 90.000000
_cell_volume 2615.933048
_symmetry_space_group_name_H-M "C 2/M"
_symmetry_group_IT_number 12
_symmetry_cell_setting 'monoclinic'
loop_
_space_group_symop_operation_xyz
x,y,z
-x,y,-z
-x,-y,-z
x,-y,z
1/2+x,1/2+y,z
1/2-x,1/2+y,-z
1/2-x,1/2-y,-z
1/2+x,1/2-y,z
loop_
_atom_site_type_symbol
_atom_site_label
_atom_site_fract_x
_atom_site_fract_y
_atom_site_fract_z
Si Si1 0.913218 0.886646 0.842766
Si Si2 0.400141 0.264523 0.042170
Si Si3 0.241823 0.766718 0.650985
Si Si4 0.299815 0.890203 0.018202
Si Si5 0.464386 0.295573 0.441493
Si Si6 0.830808 0.607954 0.403894
Si Si7 0.964866 0.394950 0.698760
O O1 0.811878 0.852417 0.892948
O O2 0.006846 0.853512 0.682511
O O3 0.915444 0.000000 0.855499
O O4 0.923854 0.839719 0.934937
O O5 0.315122 0.308473 0.199118
O O6 0.352162 0.167721 0.048836
O O7 0.500000 0.241601 0.000000
O O8 0.346169 0.715996 0.568561
O O9 0.173603 0.681109 0.678708
O O10 0.257853 0.854808 0.562372
O O11 0.296020 0.000000 0.056728
O O12 0.360965 0.878939 0.858836
O O13 0.500000 0.351403 0.500000
O O14 0.520022 0.191344 0.389866
O O15 0.796404 0.500000 0.411295
O O16 0.946372 0.608995 0.315416
O O17 0.964938 0.500000 0.647587
#
# Coordination Sequence:
#
# PCOD8110061 Si02
#       7
#     8   8   8   8   8   8   8
#     4  11  26  45  66  94 134 181 223 266 319 388
#     4  12  25  41  67  99 133 171 215 274 331 391
#     4  10  23  37  60  93 120 163 217 253 318 383
#     4  10  21  40  67  93 126 168 214 270 329 384
#     4  11  23  40  64  91 125 172 216 271 316 380
#     4   9  19  38  60  85 123 162 205 262 316 377
#     4   9  18  35  62  93 120 154 203 264 331 380
#
# _framework density 21.407277000000001
#
# number of rings (size 3 to 8) (size 9 to 14) (size 15 to 20)
#    0.000    1.714    1.429    2.143    6.000    2.857 
#    0.000    0.000    0.000    0.000    0.000    0.000 
#    0.000    0.000    0.000    0.000    0.000    0.000 
#
# Total GULP energy -347182.221030 kJ/mol
# GULP energy per Si atom -12399.365037 kJ/mol
# Density = 2.135855 g / cm^3
# Si number density = 21.407277 Si / 1000 Ang^3
#
#
#
# Elastic Constant Matrix: (Units=GPa)
#
#
# Indices 1 2 3 4 5 6 
#
# 1 96.4614 25.5665 33.6874 0.0000 5.3304 0.0000
# 2 25.5665 77.0748 9.4535 0.0000 7.2060 0.0000
# 3 33.6874 9.4535 114.8636 0.0000 6.9099 0.0000
# 4 0.0000 0.0000 0.0000 17.5552 0.0000 -2.4443
# 5 5.3304 7.2060 6.9099 0.0000 37.0406 0.0000
# 6 0.0000 0.0000 0.0000 -2.4443 0.0000 21.0697
#
#
#
# Elastic Compliance Matrix: (Units=1/GPa)
#
#
# Indices 1 2 3 4 5 6 
#
# 1 0.012543 -0.003707 -0.003346 0.000000 -0.000460 0.000000
# 2 -0.003707 0.014412 0.000038 0.000000 -0.002277 0.000000
# 3 -0.003346 0.000038 0.009765 0.000000 -0.001348 0.000000
# 4 0.000000 0.000000 0.000000 0.057898 0.000000 0.006717
# 5 -0.000460 -0.002277 -0.001348 0.000000 0.027758 0.000000
# 6 0.000000 0.000000 0.000000 0.006717 0.000000 0.048241
#
#
# Mechanical properties :
#
#
# Convention : Reuss Voigt Hill
#
# Bulk Modulus (GPa) = 44.07114 47.31276 45.69195
# Shear Modulus (GPa) = 26.01291 29.77924 27.89608
#
# Velocity S-wave (km/s) = 3.48967 3.73377 3.61378
# Velocity P-wave (km/s) = 6.07197 6.38257 6.22921
#
# Compressibility (1/GPa) = 0.02269059
#
# Stress axis : x y z
#
# Youngs Moduli (GPa) = 79.72332 69.38451 102.40422
#
# Poissons Ratio (x) = 0.25724 0.34264
# Poissons Ratio (y) = 0.29557 -0.00391
# Poissons Ratio (z) = 0.26675 -0.00265
#
# Static dielectric constant tensor:
#      x y z
#    x 3.809400 0.000000 -0.088800 
#    y 0.000000 3.975780 0.000000 
#    z -0.088800 0.000000 3.905680 
# 
# 
# High freq. dielectric constant tensor:
#      x y z
#    x 1.834540 0.000000 -0.009010 
#    y 0.000000 1.834230 0.000000 
#    z -0.009010 0.000000 1.848010 
# 
# From -- ./inp_files/233673.got.cif
#   From: 2010.06.25/outbox.cif.g09.slc.cpg/sg12_117_cif.got.tgz:233673.got - 2010.06.28 00:19:55.
