data_PCOD8110688
_publ_section_title
;
Structure prediction by ZEFSAII (Michael W. Deem and Ramdas Pophale) SiO2 
 PCOD8110688
Probable space group: C 2/M
;
_chemical_formula_sum "Si O2"
_cell_formula_units_Z 64
_cell_length_a 14.377679
_cell_length_b 17.655975
_cell_length_c 13.801243
_cell_angle_alpha 90.000000
_cell_angle_beta 98.927863
_cell_angle_gamma 90.000000
_cell_volume 3461.026051
_symmetry_space_group_name_H-M "C 2/M"
_symmetry_group_IT_number 12
_symmetry_cell_setting 'monoclinic'
loop_
_space_group_symop_operation_xyz
x,y,z
-x,y,-z
-x,-y,-z
x,-y,z
1/2+x,1/2+y,z
1/2-x,1/2+y,-z
1/2-x,1/2-y,-z
1/2+x,1/2-y,z
loop_
_atom_site_type_symbol
_atom_site_label
_atom_site_fract_x
_atom_site_fract_y
_atom_site_fract_z
Si Si1 0.834450 0.852478 0.177422
Si Si2 0.669434 0.913939 0.047878
Si Si3 0.334719 0.660915 0.774242
Si Si4 0.161127 0.313872 0.859728
Si Si5 0.460351 0.793878 0.888431
Si Si6 0.007505 0.915001 0.108449
Si Si7 0.107889 0.087124 0.404126
Si Si8 0.614259 0.586651 0.622241
O O1 0.767874 0.916506 0.121014
O O2 0.801283 0.772523 0.127814
O O3 0.830372 0.858281 0.294112
O O4 0.942874 0.863956 0.166220
O O5 0.590437 0.874292 0.101736
O O6 0.638622 0.000000 0.018552
O O7 0.687424 0.864575 0.955344
O O8 0.223041 0.655397 0.779386
O O9 0.387563 0.736193 0.825242
O O10 0.386002 0.590538 0.835741
O O11 0.344529 0.647893 0.660698
O O12 0.047612 0.311650 0.828925
O O13 0.500000 0.763835 0.000000
O O14 0.970474 0.000000 0.106729
O O15 0.000000 0.882020 0.000000
O O16 0.144239 0.107896 0.517816
O O17 0.996510 0.096624 0.381339
O O18 0.134991 0.000000 0.383287
O O19 0.641861 0.500000 0.649667
#
# Coordination Sequence:
#
# PCOD8110688 Si02
#       8
#     8   8   8   8   8   8   8   8
#     4  12  20  35  58  82 111 147 186 229 275 325
#     4  11  24  39  56  79 110 150 197 233 260 316
#     4  12  20  34  55  79 114 145 181 221 281 338
#     4  11  24  36  57  81 110 150 182 226 278 329
#     4  10  22  37  56  76 108 154 190 226 270 321
#     4  11  22  31  49  83 117 144 174 218 277 339
#     4   9  18  32  52  81 115 147 176 221 280 335
#     4   9  17  32  55  82 112 144 182 224 273 330
#
# _framework density 18.491626
#
# number of rings (size 3 to 8) (size 9 to 14) (size 15 to 20)
#    0.000    1.375    3.750    3.750    3.500    4.250 
#    0.000    0.625    0.000    0.000    0.000    0.000 
#    0.000    3.000    0.000    0.125    0.000    0.000 
#
# Total GULP energy -396488.939310 kJ/mol
# GULP energy per Si atom -12390.279353 kJ/mol
# Density = 1.844954 g / cm^3
# Si number density = 18.491626 Si / 1000 Ang^3
#
#
#
# Elastic Constant Matrix: (Units=GPa)
#
#
# Indices 1 2 3 4 5 6 
#
# 1 99.7396 30.3768 37.2009 0.0000 -24.9146 0.0000
# 2 30.3768 106.2434 59.8731 0.0000 -6.1814 0.0000
# 3 37.2009 59.8731 113.6955 0.0000 -16.9930 0.0000
# 4 0.0000 0.0000 0.0000 22.2222 0.0000 -8.7583
# 5 -24.9146 -6.1814 -16.9930 0.0000 26.0115 0.0000
# 6 0.0000 0.0000 0.0000 -8.7583 0.0000 16.3619
#
#
#
# Elastic Compliance Matrix: (Units=1/GPa)
#
#
# Indices 1 2 3 4 5 6 
#
# 1 0.014427 -0.002535 -0.001563 0.000000 0.012196 0.000000
# 2 -0.002535 0.013888 -0.007042 0.000000 -0.003727 0.000000
# 3 -0.001563 -0.007042 0.013898 0.000000 0.005909 0.000000
# 4 0.000000 0.000000 0.000000 0.057032 0.000000 0.030528
# 5 0.012196 -0.003727 0.005909 0.000000 0.053100 0.000000
# 6 0.000000 0.000000 0.000000 0.030528 0.000000 0.077459
#
#
# Mechanical properties :
#
#
# Convention : Reuss Voigt Hill
#
# Bulk Modulus (GPa) = 50.16181 63.84223 57.00202
# Shear Modulus (GPa) = 19.32523 25.73430 22.52977
#
# Velocity S-wave (km/s) = 3.23628 3.73456 3.49431
# Velocity P-wave (km/s) = 6.41485 7.29355 6.86827
#
# Compressibility (1/GPa) = 0.01993548
#
# Stress axis : x y z
#
# Youngs Moduli (GPa) = 69.31216 72.00250 71.95195
#
# Poissons Ratio (x) = 0.18250 0.11247
# Poissons Ratio (y) = 0.17568 0.50665
# Poissons Ratio (z) = 0.10834 0.50701
#
# Static dielectric constant tensor:
#      x y z
#    x 3.428130 0.000000 -0.126960 
#    y 0.000000 3.355270 0.000000 
#    z -0.126960 0.000000 3.426900 
# 
# 
# High freq. dielectric constant tensor:
#      x y z
#    x 1.707070 0.000000 -0.010640 
#    y 0.000000 1.709990 0.000000 
#    z -0.010640 0.000000 1.695850 
# 
# From -- ./inp_files/215963.got.cif
#   From: 2010.06.25/outbox.cif.g09.slc.cpg/sg12_108_cif.got.tgz:215963.got - 2010.06.28 00:19:55.
