data_PCOD8110251
_publ_section_title
;
Structure prediction by ZEFSAII (Michael W. Deem and Ramdas Pophale) SiO2 
 PCOD8110251
Probable space group: C 2/M
;
_chemical_formula_sum "Si O2"
_cell_formula_units_Z 40
_cell_length_a 24.800918
_cell_length_b 8.754215
_cell_length_c 9.992331
_cell_angle_alpha 90.000000
_cell_angle_beta 64.874431
_cell_angle_gamma 90.000000
_cell_volume 1964.184988
_symmetry_space_group_name_H-M "C 2/M"
_symmetry_group_IT_number 12
_symmetry_cell_setting 'monoclinic'
loop_
_space_group_symop_operation_xyz
x,y,z
-x,y,-z
-x,-y,-z
x,-y,z
1/2+x,1/2+y,z
1/2-x,1/2+y,-z
1/2-x,1/2-y,-z
1/2+x,1/2-y,z
loop_
_atom_site_type_symbol
_atom_site_label
_atom_site_fract_x
_atom_site_fract_y
_atom_site_fract_z
Si Si1 0.244599 0.679957 0.151425
Si Si2 0.863368 0.177349 0.172848
Si Si3 0.427072 0.178125 0.343105
Si Si4 0.549594 0.323455 0.161753
Si Si5 0.877028 0.179009 0.654420
O O1 0.245147 0.500000 0.133352
O O2 0.300306 0.733335 0.181951
O O3 0.185419 0.733553 0.289037
O O4 0.250000 0.750000 0.000000
O O5 0.876398 0.275990 0.290606
O O6 0.861557 0.000000 0.214967
O O7 0.914301 0.208191 0.010627
O O8 0.491392 0.219458 0.216409
O O9 0.418581 0.270856 0.488788
O O10 0.422737 0.000000 0.378608
O O11 0.530231 0.500000 0.193671
O O12 0.590254 0.274830 0.243543
O O13 0.864361 0.000000 0.662233
#
# Coordination Sequence:
#
# PCOD8110251 Si02
#       5
#     8   8   8   8   8
#     4  11  22  40  66  95 124 158 204 254 304 364
#     4  10  22  42  65  90 122 165 207 246 302 371
#     4  12  26  40  58  93 129 162 204 257 313 359
#     4  10  21  41  66  90 120 164 210 249 301 372
#     4  11  23  42  66  92 122 165 208 251 307 366
#
# _framework density 20.36468
#
# number of rings (size 3 to 8) (size 9 to 14) (size 15 to 20)
#    0.000    1.200    2.000    4.200    0.000    9.600 
#    0.000    0.000    0.000    0.000    0.000    0.000 
#    0.000    0.000    0.000    0.000    0.000    0.000 
#
# Total GULP energy -248159.106469 kJ/mol
# GULP energy per Si atom -12407.955323 kJ/mol
# Density = 2.031833 g / cm^3
# Si number density = 20.364680 Si / 1000 Ang^3
#
#
#
# Elastic Constant Matrix: (Units=GPa)
#
#
# Indices 1 2 3 4 5 6 
#
# 1 86.2665 35.0266 -4.8054 0.0000 -7.0932 0.0000
# 2 35.0266 58.1631 12.8506 0.0000 12.8586 0.0000
# 3 -4.8054 12.8506 53.5176 0.0000 6.5592 0.0000
# 4 0.0000 0.0000 0.0000 33.5463 0.0000 -3.9129
# 5 -7.0932 12.8586 6.5592 0.0000 25.6227 0.0000
# 6 0.0000 0.0000 0.0000 -3.9129 0.0000 36.0076
#
#
#
# Elastic Compliance Matrix: (Units=1/GPa)
#
#
# Indices 1 2 3 4 5 6 
#
# 1 0.018704 -0.014656 0.003781 0.000000 0.011565 0.000000
# 2 -0.014656 0.031505 -0.006655 0.000000 -0.018164 0.000000
# 3 0.003781 -0.006655 0.020736 0.000000 -0.000922 0.000000
# 4 0.000000 0.000000 0.000000 0.030192 0.000000 0.003281
# 5 0.011565 -0.018164 -0.000922 0.000000 0.051581 0.000000
# 6 0.000000 0.000000 0.000000 0.003281 0.000000 0.028128
#
#
# Mechanical properties :
#
#
# Convention : Reuss Voigt Hill
#
# Bulk Modulus (GPa) = 27.86595 31.56564 29.71580
# Shear Modulus (GPa) = 21.94243 29.36036 25.65139
#
# Velocity S-wave (km/s) = 3.28605 3.80113 3.55294
# Velocity P-wave (km/s) = 5.30195 5.89904 5.60845
#
# Compressibility (1/GPa) = 0.03588609
#
# Stress axis : x y z
#
# Youngs Moduli (GPa) = 53.46330 31.74063 48.22552
#
# Poissons Ratio (x) = 0.46520 -0.18236
# Poissons Ratio (y) = 0.78357 0.32093
# Poissons Ratio (z) = -0.20216 0.21123
#
# Static dielectric constant tensor:
#      x y z
#    x 3.891460 0.000000 0.017160 
#    y 0.000000 3.620520 0.000000 
#    z 0.017160 0.000000 3.671830 
# 
# 
# High freq. dielectric constant tensor:
#      x y z
#    x 1.809950 0.000000 0.002530 
#    y 0.000000 1.791970 0.000000 
#    z 0.002530 0.000000 1.801850 
# 
# From -- ./inp_files/92770.got.cif
#   From: 2010.06.25/outbox.cif.g09.slc.cpg/sg12_47_cif.got.tgz:92770.got - 2010.06.28 00:19:55.
