data_PCOD8110319
_publ_section_title
;
Structure prediction by ZEFSAII (Michael W. Deem and Ramdas Pophale) SiO2 
 PCOD8110319
Probable space group: C 2/M
;
_chemical_formula_sum "Si O2"
_cell_formula_units_Z 64
_cell_length_a 9.731127
_cell_length_b 13.978013
_cell_length_c 28.572219
_cell_angle_alpha 90.000000
_cell_angle_beta 130.847493
_cell_angle_gamma 90.000000
_cell_volume 2939.913805
_symmetry_space_group_name_H-M "C 2/M"
_symmetry_group_IT_number 12
_symmetry_cell_setting 'monoclinic'
loop_
_space_group_symop_operation_xyz
x,y,z
-x,y,-z
-x,-y,-z
x,-y,z
1/2+x,1/2+y,z
1/2-x,1/2+y,-z
1/2-x,1/2-y,-z
1/2+x,1/2-y,z
loop_
_atom_site_type_symbol
_atom_site_label
_atom_site_fract_x
_atom_site_fract_y
_atom_site_fract_z
Si Si1 0.991626 0.387312 0.945911
Si Si2 0.205749 0.888100 0.059939
Si Si3 0.179244 0.189340 0.563688
Si Si4 0.768122 0.241399 0.757656
Si Si5 0.171225 0.108486 0.665221
Si Si6 0.444270 0.106021 0.356573
Si Si7 0.746338 0.396641 0.407627
Si Si8 0.174275 0.234092 0.841033
O O1 0.985272 0.500000 0.947450
O O2 0.805645 0.353687 0.881377
O O3 0.165364 0.354398 0.954181
O O4 0.000000 0.342610 0.000000
O O5 0.258335 0.830486 0.118297
O O6 0.232357 0.000000 0.077119
O O7 0.000000 0.864889 0.000000
O O8 0.182939 0.167911 0.619714
O O9 0.362423 0.147143 0.581819
O O10 0.170674 0.302943 0.549323
O O11 0.000000 0.142307 0.500000
O O12 0.787326 0.338762 0.731261
O O13 0.636165 0.167093 0.703182
O O14 0.669473 0.255177 0.784561
O O15 0.972101 0.204047 0.812099
O O16 0.968297 0.109813 0.638693
O O17 0.242425 0.000000 0.673919
O O18 0.299960 0.105678 0.365628
O O19 0.479192 0.000000 0.344880
O O20 0.809640 0.500000 0.444097
#
# Coordination Sequence:
#
# PCOD8110319 Si02
#       8
#     8   8   8   8   8   8   8   8
#     4  10  23  44  68  97 135 176 220 274 330 383
#     4  10  23  44  68  98 138 178 220 274 335 390
#     4  12  24  43  69  98 132 167 216 278 335 401
#     4  12  24  42  66  94 132 174 221 268 329 393
#     4  11  24  44  69  93 127 174 219 268 334 399
#     4  11  24  44  67  93 129 169 217 275 331 389
#     4  10  21  41  68  94 126 167 210 260 325 388
#     4  12  25  39  68 100 133 172 223 273 321 395
#
# _framework density 21.769347
#
# number of rings (size 3 to 8) (size 9 to 14) (size 15 to 20)
#    0.000    1.000    3.750    2.250    1.750    6.250 
#    0.000    2.500    0.000    0.000    0.000    0.000 
#    0.000    0.000    0.000    0.000    0.000    0.000 
#
# Total GULP energy -396795.003137 kJ/mol
# GULP energy per Si atom -12399.843848 kJ/mol
# Density = 2.171980 g / cm^3
# Si number density = 21.769347 Si / 1000 Ang^3
#
#
#
# Elastic Constant Matrix: (Units=GPa)
#
#
# Indices 1 2 3 4 5 6 
#
# 1 94.2900 9.4109 10.1352 0.0000 7.1740 0.0000
# 2 9.4109 96.3862 17.8077 0.0000 2.1348 0.0000
# 3 10.1352 17.8077 72.0068 0.0000 20.1448 0.0000
# 4 0.0000 0.0000 0.0000 13.6641 0.0000 4.8316
# 5 7.1740 2.1348 20.1448 0.0000 35.1505 0.0000
# 6 0.0000 0.0000 0.0000 4.8316 0.0000 26.5663
#
#
#
# Elastic Compliance Matrix: (Units=1/GPa)
#
#
# Indices 1 2 3 4 5 6 
#
# 1 0.010912 -0.000871 -0.000848 0.000000 -0.001688 0.000000
# 2 -0.000871 0.010974 -0.002923 0.000000 0.001187 0.000000
# 3 -0.000848 -0.002923 0.017426 0.000000 -0.009636 0.000000
# 4 0.000000 0.000000 0.000000 0.078215 0.000000 -0.014225
# 5 -0.001688 0.001187 -0.009636 0.000000 0.034244 0.000000
# 6 0.000000 0.000000 0.000000 -0.014225 0.000000 0.040229
#
#
# Mechanical properties :
#
#
# Convention : Reuss Voigt Hill
#
# Bulk Modulus (GPa) = 33.30430 37.48786 35.39608
# Shear Modulus (GPa) = 23.66380 30.09811 26.88095
#
# Velocity S-wave (km/s) = 3.30058 3.72236 3.51780
# Velocity P-wave (km/s) = 5.46416 5.97766 5.72667
#
# Compressibility (1/GPa) = 0.03002615
#
# Stress axis : x y z
#
# Youngs Moduli (GPa) = 91.64092 91.12613 57.38650
#
# Poissons Ratio (x) = 0.07940 0.04867
# Poissons Ratio (y) = 0.07985 0.16775
# Poissons Ratio (z) = 0.07773 0.26638
#
# Static dielectric constant tensor:
#      x y z
#    x 4.165780 0.000000 0.062470 
#    y 0.000000 4.277160 0.000000 
#    z 0.062470 0.000000 3.772430 
# 
# 
# High freq. dielectric constant tensor:
#      x y z
#    x 1.876300 0.000000 0.008690 
#    y 0.000000 1.863230 0.000000 
#    z 0.008690 0.000000 1.842970 
# 
# From -- ./inp_files/372584.got.cif
#   From: 2010.06.25/outbox.cif.g09.slc.cpg/sg12_187_cif.got.tgz:372584.got - 2010.06.28 00:19:55.
