data_PCOD8110546
_publ_section_title
;
Structure prediction by ZEFSAII (Michael W. Deem and Ramdas Pophale) SiO2 
 PCOD8110546
Probable space group: C 2/M
;
_chemical_formula_sum "Si O2"
_cell_formula_units_Z 36
_cell_length_a 14.953945
_cell_length_b 25.596285
_cell_length_c 14.079261
_cell_angle_alpha 90.000000
_cell_angle_beta 160.386674
_cell_angle_gamma 90.000000
_cell_volume 1808.947519
_symmetry_space_group_name_H-M "C 2/M"
_symmetry_group_IT_number 12
_symmetry_cell_setting 'monoclinic'
loop_
_space_group_symop_operation_xyz
x,y,z
-x,y,-z
-x,-y,-z
x,-y,z
1/2+x,1/2+y,z
1/2-x,1/2+y,-z
1/2-x,1/2-y,-z
1/2+x,1/2-y,z
loop_
_atom_site_type_symbol
_atom_site_label
_atom_site_fract_x
_atom_site_fract_y
_atom_site_fract_z
Si Si1 0.759253 0.440587 0.322149
Si Si2 0.500000 0.317652 0.500000
Si Si3 0.328113 0.166640 0.994368
Si Si4 0.815376 0.143002 0.595423
Si Si5 0.379420 0.259732 0.781256
O O1 0.824692 0.500000 0.417640
O O2 0.712899 0.409076 0.371998
O O3 0.000000 0.417181 0.500000
O O4 0.500000 0.436939 0.000000
O O5 0.288143 0.351620 0.225783
O O6 0.350022 0.282500 0.427967
O O7 0.117570 0.151038 0.864267
O O8 0.605639 0.138003 0.298677
O O9 0.389770 0.229114 0.046849
O O10 0.744677 0.193676 0.588018
O O11 0.500000 0.282563 0.000000
#
# Coordination Sequence:
#
# PCOD8110546 Si02
#       5
#     8   4   8   8   8
#     4  10  22  41  61  85 118 148 182 232 286 336
#     4  10  22  38  50  76 116 156 182 226 278 324
#     4  11  23  37  52  81 114 152 189 235 269 332
#     4  12  23  34  59  84 109 149 195 230 274 329
#     4  10  22  34  53  77 121 154 187 224 275 331
#
# _framework density 19.901074000000001
#
# number of rings (size 3 to 8) (size 9 to 14) (size 15 to 20)
#    0.000    1.333    2.222    3.333    7.778    0.000 
#    0.000    0.000    0.000    0.000    0.000    4.667 
#    0.000    0.000    0.000    0.000    0.000    0.000 
#
# Total GULP energy -223111.733722 kJ/mol
# GULP energy per Si atom -12395.096318 kJ/mol
# Density = 1.985578 g / cm^3
# Si number density = 19.901074 Si / 1000 Ang^3
#
#
#
# Elastic Constant Matrix: (Units=GPa)
#
#
# Indices 1 2 3 4 5 6 
#
# 1 80.0979 43.5602 33.7729 -0.0012 7.5996 0.0015
# 2 43.5602 66.7236 24.8707 -0.0004 -2.4287 -0.0005
# 3 33.7729 24.8707 112.0927 -0.0022 -2.6930 -0.0001
# 4 -0.0012 -0.0004 -0.0022 21.3166 0.0005 -4.9001
# 5 7.5996 -2.4287 -2.6930 0.0005 47.7799 -0.0004
# 6 0.0015 -0.0005 -0.0001 -4.9001 -0.0004 33.8424
#
#
#
# Elastic Compliance Matrix: (Units=1/GPa)
#
#
# Indices 1 2 3 4 5 6 
#
# 1 0.021377 -0.012724 -0.003720 0.000000 -0.004257 -0.000001
# 2 -0.012724 0.023931 -0.001400 0.000000 0.003161 0.000001
# 3 -0.003720 -0.001400 0.010379 0.000001 0.001105 0.000000
# 4 0.000000 0.000000 0.000001 0.048527 0.000000 0.007026
# 5 -0.004257 0.003161 0.001105 0.000000 0.021829 0.000000
# 6 -0.000001 0.000001 0.000000 0.007026 0.000000 0.030566
#
#
# Mechanical properties :
#
#
# Convention : Reuss Voigt Hill
#
# Bulk Modulus (GPa) = 50.00256 51.48020 50.74138
# Shear Modulus (GPa) = 25.13021 31.03515 28.08268
#
# Velocity S-wave (km/s) = 3.55738 3.95330 3.76055
# Velocity P-wave (km/s) = 6.48486 6.83830 6.66392
#
# Compressibility (1/GPa) = 0.01999898
#
# Stress axis : x y z
#
# Youngs Moduli (GPa) = 46.77947 41.78673 96.34711
#
# Poissons Ratio (x) = 0.53170 0.35839
# Poissons Ratio (y) = 0.59523 0.13489
# Poissons Ratio (z) = 0.17401 0.05850
#
# Static dielectric constant tensor:
#      x y z
#    x 3.738000 -0.000010 -0.035120 
#    y -0.000010 3.229170 -0.000020 
#    z -0.035120 -0.000020 3.952340 
# 
# 
# High freq. dielectric constant tensor:
#      x y z
#    x 1.783310 0.000000 -0.000730 
#    y 0.000000 1.707270 0.000000 
#    z -0.000730 0.000000 1.807310 
# 
# From -- ./inp_files/218609.got.cif
#   From: 2010.06.25/outbox.cif.g09.slc.cpg/sg12_110_cif.got.tgz:218609.got - 2010.06.28 00:19:55.
