data_PCOD8110504
_publ_section_title
;
Structure prediction by ZEFSAII (Michael W. Deem and Ramdas Pophale) SiO2 
 PCOD8110504
Probable space group: C 2/M
;
_chemical_formula_sum "Si O2"
_cell_formula_units_Z 56
_cell_length_a 13.552292
_cell_length_b 22.662098
_cell_length_c 8.972252
_cell_angle_alpha 90.000000
_cell_angle_beta 92.038552
_cell_angle_gamma 90.000000
_cell_volume 2753.844304
_symmetry_space_group_name_H-M "C 2/M"
_symmetry_group_IT_number 12
_symmetry_cell_setting 'monoclinic'
loop_
_space_group_symop_operation_xyz
x,y,z
-x,y,-z
-x,-y,-z
x,-y,z
1/2+x,1/2+y,z
1/2-x,1/2+y,-z
1/2-x,1/2-y,-z
1/2+x,1/2-y,z
loop_
_atom_site_type_symbol
_atom_site_label
_atom_site_fract_x
_atom_site_fract_y
_atom_site_fract_z
Si Si1 0.101315 0.867396 0.584781
Si Si2 0.963765 0.784834 0.156991
Si Si3 0.845721 0.775379 0.658741
Si Si4 0.327530 0.176771 0.179280
Si Si5 0.610685 0.164607 0.495902
Si Si6 0.882998 0.433684 0.997447
Si Si7 0.705060 0.065063 0.332655
O O1 0.085950 0.835020 0.743083
O O2 0.150639 0.826007 0.464250
O O3 0.181059 0.917415 0.628364
O O4 0.000000 0.891895 0.500000
O O5 0.894291 0.729068 0.116186
O O6 0.050907 0.759277 0.261538
O O7 0.000000 0.811700 0.000000
O O8 0.778462 0.793168 0.795900
O O9 0.816915 0.714825 0.570548
O O10 0.360976 0.150453 0.336161
O O11 0.324911 0.118798 0.077287
O O12 0.500000 0.188575 0.500000
O O13 0.622627 0.104804 0.406433
O O14 0.871342 0.500000 0.067772
O O15 0.825658 0.433834 0.839858
O O16 0.000000 0.418157 0.000000
O O17 0.693319 0.000000 0.398333
#
# Coordination Sequence:
#
# PCOD8110504 Si02
#       7
#     8   8   8   8   8   8   8
#     4  10  21  44  67  90 130 162 201 263 321 367
#     4  11  24  37  60  97 126 161 207 251 310 390
#     4  11  22  40  61  94 127 164 201 256 320 373
#     4  12  22  37  63  91 126 167 204 255 311 374
#     4  12  21  38  63  90 126 162 205 255 314 378
#     4  10  24  45  62  87 130 173 213 262 312 362
#     4  11  25  42  65  92 121 166 218 260 308 370
#
# _framework density 20.33521
#
# number of rings (size 3 to 8) (size 9 to 14) (size 15 to 20)
#    0.000    1.000    4.286    3.000    4.000    1.714 
#    0.000    0.000    0.000    0.429    0.000    0.000 
#    0.000    0.000    0.000    0.000    0.000    0.000 
#
# Total GULP energy -346938.218128 kJ/mol
# GULP energy per Si atom -12390.650647 kJ/mol
# Density = 2.028893 g / cm^3
# Si number density = 20.335210 Si / 1000 Ang^3
#
#
#
# Elastic Constant Matrix: (Units=GPa)
#
#
# Indices 1 2 3 4 5 6 
#
# 1 101.1159 46.6239 18.8959 0.0000 -2.3971 0.0000
# 2 46.6239 121.1644 36.6229 0.0000 -9.7864 0.0000
# 3 18.8959 36.6229 69.7044 0.0000 -7.2476 0.0000
# 4 0.0000 0.0000 0.0000 36.0124 0.0000 3.0988
# 5 -2.3971 -9.7864 -7.2476 0.0000 37.0443 0.0000
# 6 0.0000 0.0000 0.0000 3.0988 0.0000 16.6404
#
#
#
# Elastic Compliance Matrix: (Units=1/GPa)
#
#
# Indices 1 2 3 4 5 6 
#
# 1 0.012092 -0.004388 -0.001033 0.000000 -0.000579 0.000000
# 2 -0.004388 0.011499 -0.004661 0.000000 0.001842 0.000000
# 3 -0.001033 -0.004661 0.017292 0.000000 0.002085 0.000000
# 4 0.000000 0.000000 0.000000 0.028220 0.000000 -0.005255
# 5 -0.000579 0.001842 0.002085 0.000000 0.027852 0.000000
# 6 0.000000 0.000000 0.000000 -0.005255 0.000000 0.061073
#
#
# Mechanical properties :
#
#
# Convention : Reuss Voigt Hill
#
# Bulk Modulus (GPa) = 48.26116 55.14113 51.70114
# Shear Modulus (GPa) = 27.01275 30.59555 28.80415
#
# Velocity S-wave (km/s) = 3.64864 3.88307 3.76768
# Velocity P-wave (km/s) = 6.44472 6.87599 6.66385
#
# Compressibility (1/GPa) = 0.02072060
#
# Stress axis : x y z
#
# Youngs Moduli (GPa) = 82.69925 86.96340 57.83062
#
# Poissons Ratio (x) = 0.38155 0.05973
# Poissons Ratio (y) = 0.36284 0.26953
# Poissons Ratio (z) = 0.08542 0.40531
#
# Static dielectric constant tensor:
#      x y z
#    x 4.246630 0.000000 0.012470 
#    y 0.000000 3.595850 0.000000 
#    z 0.012470 0.000000 3.759350 
# 
# 
# High freq. dielectric constant tensor:
#      x y z
#    x 1.807290 0.000000 0.009460 
#    y 0.000000 1.777530 0.000000 
#    z 0.009460 0.000000 1.800580 
# 
# From -- ./inp_files/64045.got.cif
#   From: 2010.06.25/outbox.cif.g09.slc.cpg/sg12_33_cif.got.tgz:64045.got - 2010.06.28 00:19:55.
