data_PCOD8110265
_publ_section_title
;
Structure prediction by ZEFSAII (Michael W. Deem and Ramdas Pophale) SiO2 
 PCOD8110265
Probable space group: C 2/M
;
_chemical_formula_sum "Si O2"
_cell_formula_units_Z 48
_cell_length_a 20.362665
_cell_length_b 16.271022
_cell_length_c 15.096828
_cell_angle_alpha 90.000000
_cell_angle_beta 29.076941
_cell_angle_gamma 90.000000
_cell_volume 2430.842647
_symmetry_space_group_name_H-M "C 2/M"
_symmetry_group_IT_number 12
_symmetry_cell_setting 'monoclinic'
loop_
_space_group_symop_operation_xyz
x,y,z
-x,y,-z
-x,-y,-z
x,-y,z
1/2+x,1/2+y,z
1/2-x,1/2+y,-z
1/2-x,1/2-y,-z
1/2+x,1/2-y,z
loop_
_atom_site_type_symbol
_atom_site_label
_atom_site_fract_x
_atom_site_fract_y
_atom_site_fract_z
Si Si1 0.873721 0.838257 0.402636
Si Si2 0.121209 0.905236 0.417982
Si Si3 0.397469 0.820648 0.046297
Si Si4 0.063393 0.132560 0.015733
Si Si5 0.217993 0.500000 0.213078
Si Si6 0.039022 0.500000 0.597578
Si Si7 0.915247 0.653198 0.330282
O O1 0.922805 0.890075 0.428802
O O2 0.901106 0.742451 0.392822
O O3 0.715612 0.857928 0.577271
O O4 0.949241 0.867561 0.225528
O O5 0.250973 0.854916 0.236582
O O6 0.000000 0.873876 0.500000
O O7 0.152652 0.000000 0.364674
O O8 0.500000 0.852945 0.000000
O O9 0.382737 0.722889 0.068130
O O10 0.451272 0.850452 0.887733
O O11 0.189252 0.080309 0.901559
O O12 0.000000 0.094875 0.000000
O O13 0.135429 0.500000 0.400348
O O14 0.117527 0.500000 0.247437
O O15 0.072307 0.582056 0.612552
#
# Coordination Sequence:
#
# PCOD8110265 Si02
#       7
#     8   8   8   8   4   4   8
#     4  10  22  41  67  93 123 161 208 262 314 373
#     4  11  26  42  62  93 129 169 209 258 320 376
#     4  10  21  41  66  94 123 160 209 259 311 370
#     4  10  22  40  67  94 123 161 207 260 313 370
#     4  11  25  42  58  89 132 167 207 252 312 372
#     4  11  26  40  61  91 126 169 208 256 308 376
#     4  10  22  40  66  95 121 159 212 257 312 370
#
# _framework density 19.74624
#
# number of rings (size 3 to 8) (size 9 to 14) (size 15 to 20)
#    0.000    1.667    1.667    1.250    8.167    3.000 
#    0.000    3.333    0.000    0.000    0.000    0.000 
#    0.000    0.000    0.000    0.000    0.000    0.000 
#
# Total GULP energy -297693.147267 kJ/mol
# GULP energy per Si atom -12403.881136 kJ/mol
# Density = 1.970130 g / cm^3
# Si number density = 19.746240 Si / 1000 Ang^3
#
#
#
# Elastic Constant Matrix: (Units=GPa)
#
#
# Indices 1 2 3 4 5 6 
#
# 1 105.7970 45.2748 51.1848 0.0001 -4.5083 0.0000
# 2 45.2748 78.1097 49.0208 0.0000 -8.8482 0.0000
# 3 51.1848 49.0208 116.0682 0.0001 -6.5069 0.0000
# 4 0.0001 0.0000 0.0001 29.6081 -0.0001 -5.5167
# 5 -4.5083 -8.8482 -6.5069 -0.0001 29.6557 0.0000
# 6 0.0000 0.0000 0.0000 -5.5167 0.0000 19.9087
#
#
#
# Elastic Compliance Matrix: (Units=1/GPa)
#
#
# Indices 1 2 3 4 5 6 
#
# 1 0.013615 -0.005655 -0.003639 0.000000 -0.000416 0.000000
# 2 -0.005655 0.020163 -0.005804 0.000000 0.003883 0.000000
# 3 -0.003639 -0.005804 0.012700 0.000000 0.000502 0.000000
# 4 0.000000 0.000000 0.000000 0.035613 0.000000 0.009868
# 5 -0.000416 0.003883 0.000502 0.000000 0.034926 0.000000
# 6 0.000000 0.000000 0.000000 0.009868 0.000000 0.052964
#
#
# Mechanical properties :
#
#
# Convention : Reuss Voigt Hill
#
# Bulk Modulus (GPa) = 61.42040 65.65953 63.53996
# Shear Modulus (GPa) = 24.31865 26.13413 25.22639
#
# Velocity S-wave (km/s) = 3.51316 3.64194 3.57813
# Velocity P-wave (km/s) = 6.90136 7.14205 7.02274
#
# Compressibility (1/GPa) = 0.01628124
#
# Stress axis : x y z
#
# Youngs Moduli (GPa) = 73.44910 49.59645 78.74096
#
# Poissons Ratio (x) = 0.28046 0.28654
# Poissons Ratio (y) = 0.41535 0.45703
# Poissons Ratio (z) = 0.26728 0.28787
#
# Static dielectric constant tensor:
#      x y z
#    x 3.731310 0.000000 0.013730 
#    y 0.000000 3.651690 0.000000 
#    z 0.013730 0.000000 3.628700 
# 
# 
# High freq. dielectric constant tensor:
#      x y z
#    x 1.767780 0.000000 0.007280 
#    y 0.000000 1.773930 0.000000 
#    z 0.007280 0.000000 1.780690 
# 
# From -- ./inp_files/226770.got.cif
#   From: 2010.06.25/outbox.cif.g09.slc.cpg/sg12_114_cif.got.tgz:226770.got - 2010.06.28 00:19:55.
