data_PCOD8110264
_publ_section_title
;
Structure prediction by ZEFSAII (Michael W. Deem and Ramdas Pophale) SiO2 
 PCOD8110264
Probable space group: C 2/M
;
_chemical_formula_sum "Si O2"
_cell_formula_units_Z 52
_cell_length_a 14.741524
_cell_length_b 14.622992
_cell_length_c 11.602245
_cell_angle_alpha 90.000000
_cell_angle_beta 75.465257
_cell_angle_gamma 90.000000
_cell_volume 2420.995923
_symmetry_space_group_name_H-M "C 2/M"
_symmetry_group_IT_number 12
_symmetry_cell_setting 'monoclinic'
loop_
_space_group_symop_operation_xyz
x,y,z
-x,y,-z
-x,-y,-z
x,-y,z
1/2+x,1/2+y,z
1/2-x,1/2+y,-z
1/2-x,1/2-y,-z
1/2+x,1/2-y,z
loop_
_atom_site_type_symbol
_atom_site_label
_atom_site_fract_x
_atom_site_fract_y
_atom_site_fract_z
Si Si1 0.000000 0.343834 0.500000
Si Si2 0.011158 0.778122 0.127583
Si Si3 0.672524 0.604190 0.784890
Si Si4 0.731546 0.099932 0.756330
Si Si5 0.476166 0.899681 0.258730
Si Si6 0.698710 0.233587 0.396851
Si Si7 0.793848 0.151381 0.972076
O O1 0.982886 0.406755 0.394354
O O2 0.910397 0.280120 0.546558
O O3 0.099672 0.844807 0.109054
O O4 0.920089 0.833366 0.200731
O O5 0.035618 0.686084 0.192444
O O6 0.000000 0.745544 0.000000
O O7 0.652504 0.500000 0.751093
O O8 0.755025 0.646074 0.680562
O O9 0.707720 0.599895 0.905587
O O10 0.627904 0.124042 0.748710
O O11 0.798886 0.177077 0.684337
O O12 0.734324 0.098089 0.894799
O O13 0.761236 0.000000 0.700056
O O14 0.507758 0.000000 0.200663
O O15 0.750000 0.250000 0.500000
O O16 0.750000 0.250000 0.000000
#
# Coordination Sequence:
#
# PCOD8110264 Si02
#       7
#     4   8   8   8   8   8   8
#     4  12  25  44  69  92 126 176 221 280 333 382
#     4  10  21  41  66  93 135 172 215 270 328 393
#     4  11  24  42  68  99 130 173 229 278 329 398
#     4  11  22  40  66  95 132 171 210 270 332 393
#     4  11  23  41  64  94 128 170 220 268 325 392
#     4  12  24  46  68  94 133 172 223 278 332 388
#     4  11  21  40  66  96 138 175 213 268 333 396
#
# _framework density 21.478764999999999
#
# number of rings (size 3 to 8) (size 9 to 14) (size 15 to 20)
#    0.000    0.923    4.615    2.538    0.000    5.538 
#    0.000    1.154    0.000    0.000    0.000    0.000 
#    0.000    0.000    0.000    0.000    0.000    0.000 
#
# Total GULP energy -322404.920814 kJ/mol
# GULP energy per Si atom -12400.189262 kJ/mol
# Density = 2.142988 g / cm^3
# Si number density = 21.478765 Si / 1000 Ang^3
#
#
#
# Elastic Constant Matrix: (Units=GPa)
#
#
# Indices 1 2 3 4 5 6 
#
# 1 103.5433 11.9257 41.7485 0.0000 4.6629 0.0000
# 2 11.9257 138.4773 38.1578 0.0000 -8.4033 0.0000
# 3 41.7485 38.1578 103.4615 0.0000 9.1374 0.0000
# 4 0.0000 0.0000 0.0000 20.7004 0.0000 4.0740
# 5 4.6629 -8.4033 9.1374 0.0000 44.2583 0.0000
# 6 0.0000 0.0000 0.0000 4.0740 0.0000 -10.8978
#
#
#
# Elastic Compliance Matrix: (Units=1/GPa)
#
#
# Indices 1 2 3 4 5 6 
#
# 1 0.011549 0.000306 -0.004757 0.000000 -0.000177 0.000000
# 2 0.000306 0.008258 -0.003366 0.000000 0.002231 0.000000
# 3 -0.004757 -0.003366 0.013077 0.000000 -0.002838 0.000000
# 4 0.000000 0.000000 0.000000 0.044998 0.000000 0.016822
# 5 -0.000177 0.002231 -0.002838 0.000000 0.023623 0.000000
# 6 0.000000 0.000000 0.000000 0.016822 0.000000 -0.085473
#
#
# Mechanical properties :
#
#
# Convention : Reuss Voigt Hill
#
# Bulk Modulus (GPa) = 57.97591 58.79401 58.38496
# Shear Modulus (GPa) = 133.63371 27.72217 80.67794
#
# Velocity S-wave (km/s) = 7.89631 3.59650 6.13541
# Velocity P-wave (km/s) = 10.49697 6.68423 8.79958
#
# Compressibility (1/GPa) = 0.01724854
#
# Stress axis : x y z
#
# Youngs Moduli (GPa) = 86.59023 121.09562 76.46985
#
# Poissons Ratio (x) = -0.03700 0.36378
# Poissons Ratio (y) = -0.02646 0.25739
# Poissons Ratio (z) = 0.41193 0.40760
#
# Static dielectric constant tensor:
#      x y z
#    x 4.087800 0.000000 0.202800 
#    y 0.000000 3.682750 0.000000 
#    z 0.202800 0.000000 4.011610 
# 
# 
# High freq. dielectric constant tensor:
#      x y z
#    x 1.847990 0.000000 0.014210 
#    y 0.000000 1.843920 0.000000 
#    z 0.014210 0.000000 1.839250 
# 
# From -- ./inp_files/143640.got.cif
#   From: 2010.06.25/outbox.cif.g09.slc.cpg/sg12_72_cif.got.tgz:143640.got - 2010.06.28 00:19:55.
