data_PCOD8110860
_publ_section_title
;
Structure prediction by ZEFSAII (Michael W. Deem and Ramdas Pophale) SiO2 
 PCOD8110860
Probable space group: C 2/M
;
_chemical_formula_sum "Si O2"
_cell_formula_units_Z 56
_cell_length_a 13.828238
_cell_length_b 18.176804
_cell_length_c 20.973853
_cell_angle_alpha 90.000000
_cell_angle_beta 32.900517
_cell_angle_gamma 90.000000
_cell_volume 2863.571164
_symmetry_space_group_name_H-M "C 2/M"
_symmetry_group_IT_number 12
_symmetry_cell_setting 'monoclinic'
loop_
_space_group_symop_operation_xyz
x,y,z
-x,y,-z
-x,-y,-z
x,-y,z
1/2+x,1/2+y,z
1/2-x,1/2+y,-z
1/2-x,1/2-y,-z
1/2+x,1/2-y,z
loop_
_atom_site_type_symbol
_atom_site_label
_atom_site_fract_x
_atom_site_fract_y
_atom_site_fract_z
Si Si1 0.650639 0.357733 0.864700
Si Si2 0.335675 0.170033 0.951314
Si Si3 0.852489 0.086425 0.531957
Si Si4 0.973548 0.915456 0.694923
Si Si5 0.981057 0.084944 0.832175
Si Si6 0.951964 0.585056 0.769839
Si Si7 0.859151 0.688566 0.130967
O O1 0.587433 0.370832 0.827233
O O2 0.833483 0.404873 0.771468
O O3 0.701341 0.272392 0.844416
O O4 0.500000 0.380980 0.000000
O O5 0.335231 0.134939 0.881886
O O6 0.540871 0.175277 0.857748
O O7 0.250000 0.250000 0.000000
O O8 0.219456 0.116917 0.061129
O O9 0.652776 0.116761 0.654011
O O10 0.000000 0.120078 0.500000
O O11 0.892862 0.105995 0.435969
O O12 0.849281 0.000000 0.544390
O O13 0.806374 0.864036 0.779201
O O14 0.063762 0.904181 0.715011
O O15 0.910761 0.000000 0.722449
O O16 0.976460 0.000000 0.854401
O O17 0.955718 0.500000 0.788788
O O18 0.000000 0.665485 0.000000
#
# Coordination Sequence:
#
# PCOD8110860 Si02
#       7
#     8   8   8   8   8   8   8
#     4  11  22  37  58  85 124 163 197 246 301 352
#     4  12  21  36  57  86 123 158 189 241 305 359
#     4   9  19  40  63  86 117 155 201 257 304 347
#     4  10  22  38  59  86 120 156 195 251 309 358
#     4  11  22  36  57  85 121 157 195 243 300 360
#     4  11  23  38  64  91 114 154 213 253 290 356
#     4  11  21  35  57  84 120 160 196 241 307 369
#
# _framework density 19.556000999999998
#
# number of rings (size 3 to 8) (size 9 to 14) (size 15 to 20)
#    0.000    1.286    4.286    2.571    0.000    3.143 
#    0.000    1.429    0.000    5.143    0.000    0.000 
#    0.000    0.000    0.000    0.000    0.000    0.000 
#
# Total GULP energy -347063.256763 kJ/mol
# GULP energy per Si atom -12395.116313 kJ/mol
# Density = 1.951149 g / cm^3
# Si number density = 19.556001 Si / 1000 Ang^3
#
#
#
# Elastic Constant Matrix: (Units=GPa)
#
#
# Indices 1 2 3 4 5 6 
#
# 1 122.9917 28.5405 52.8095 0.0130 -0.9490 0.0036
# 2 28.5405 74.0139 43.9916 0.0031 -0.1488 0.0074
# 3 52.8095 43.9916 101.7073 -0.0088 3.0574 0.0206
# 4 0.0130 0.0031 -0.0088 13.9552 -0.0032 -3.8459
# 5 -0.9490 -0.1488 3.0574 -0.0032 35.9559 -0.0060
# 6 0.0036 0.0074 0.0206 -3.8459 -0.0060 27.5802
#
#
#
# Elastic Compliance Matrix: (Units=1/GPa)
#
#
# Indices 1 2 3 4 5 6 
#
# 1 0.010546 -0.001074 -0.005032 -0.000012 0.000702 0.000001
# 2 -0.001074 0.018316 -0.007385 -0.000008 0.000675 0.000000
# 3 -0.005032 -0.007385 0.015684 0.000014 -0.001497 -0.000007
# 4 -0.000012 -0.000008 0.000014 0.074521 0.000007 0.010392
# 5 0.000702 0.000675 -0.001497 0.000007 0.027960 0.000008
# 6 0.000001 0.000000 -0.000007 0.010392 0.000008 0.037707
#
#
# Mechanical properties :
#
#
# Convention : Reuss Voigt Hill
#
# Bulk Modulus (GPa) = 56.93589 61.04403 58.98996
# Shear Modulus (GPa) = 22.98092 27.05636 25.01864
#
# Velocity S-wave (km/s) = 3.43174 3.72362 3.58066
# Velocity P-wave (km/s) = 6.69925 7.05478 6.87931
#
# Compressibility (1/GPa) = 0.01756361
#
# Stress axis : x y z
#
# Youngs Moduli (GPa) = 94.82215 54.59767 63.75844
#
# Poissons Ratio (x) = 0.05865 0.32085
# Poissons Ratio (y) = 0.10186 0.47084
# Poissons Ratio (z) = 0.47717 0.40319
#
# Static dielectric constant tensor:
#      x y z
#    x 3.991510 0.000000 0.065330 
#    y 0.000000 3.478880 0.000050 
#    z 0.065330 0.000050 3.754890 
# 
# 
# High freq. dielectric constant tensor:
#      x y z
#    x 1.778260 0.000000 0.005520 
#    y 0.000000 1.753300 0.000000 
#    z 0.005520 0.000000 1.737300 
# 
# From -- ./inp_files/311679.got.cif
#   From: 2010.06.25/outbox.cif.g09.slc.cpg/sg12_156_cif.got.tgz:311679.got - 2010.06.28 00:19:55.
