data_PCOD8110695
_publ_section_title
;
Structure prediction by ZEFSAII (Michael W. Deem and Ramdas Pophale) SiO2 
 PCOD8110695
Probable space group: C 2/M
;
_chemical_formula_sum "Si O2"
_cell_formula_units_Z 56
_cell_length_a 25.577727
_cell_length_b 18.214397
_cell_length_c 9.637785
_cell_angle_alpha 90.000000
_cell_angle_beta 138.391769
_cell_angle_gamma 90.000000
_cell_volume 2981.563454
_symmetry_space_group_name_H-M "C 2/M"
_symmetry_group_IT_number 12
_symmetry_cell_setting 'monoclinic'
loop_
_space_group_symop_operation_xyz
x,y,z
-x,y,-z
-x,-y,-z
x,-y,z
1/2+x,1/2+y,z
1/2-x,1/2+y,-z
1/2-x,1/2-y,-z
1/2+x,1/2-y,z
loop_
_atom_site_type_symbol
_atom_site_label
_atom_site_fract_x
_atom_site_fract_y
_atom_site_fract_z
Si Si1 0.000000 0.776095 0.500000
Si Si2 0.160769 0.826208 0.717723
Si Si3 0.418606 0.223897 0.075659
Si Si4 0.734289 0.915828 0.559601
Si Si5 0.238856 0.195789 0.148437
Si Si6 0.417654 0.082912 0.911709
Si Si7 0.500000 0.681875 0.000000
Si Si8 0.866688 0.913924 0.601424
O O1 0.072670 0.827866 0.603351
O O2 0.022250 0.727006 0.676990
O O3 0.182896 0.746432 0.697186
O O4 0.166001 0.889760 0.613544
O O5 0.222789 0.840031 0.965354
O O6 0.333861 0.254479 0.948118
O O7 0.410591 0.137885 0.026382
O O8 0.450294 0.267543 0.004886
O O9 0.747498 0.871198 0.724101
O O10 0.648727 0.896931 0.331582
O O11 0.799331 0.893861 0.576556
O O12 0.742313 0.000000 0.617825
O O13 0.405828 0.000000 0.944637
O O14 0.500000 0.092662 0.000000
O O15 0.555174 0.630459 0.203451
O O16 0.886526 0.000000 0.637576
#
# Coordination Sequence:
#
# PCOD8110695 Si02
#       8
#     4   8   8   8   8   8   4   8
#     4  10  22  38  58  86 120 144 200 244 284 342
#     4  10  22  39  57  85 117 157 194 242 289 346
#     4  11  21  37  61  87 115 155 195 241 287 346
#     4  10  22  38  60  88 119 150 191 245 292 346
#     4  10  22  38  61  86 116 152 202 238 287 347
#     4  10  22  37  56  87 118 146 188 244 297 344
#     4  12  21  36  59  92 116 156 198 240 289 340
#     4  11  23  39  59  88 124 157 191 240 294 352
#
# _framework density 18.782091999999999
#
# number of rings (size 3 to 8) (size 9 to 14) (size 15 to 20)
#    0.000    1.571    3.571    1.071    4.000    1.714 
#    0.000    0.714    0.000    5.143    0.000    0.000 
#    0.000    0.000    0.000    0.000    0.000    0.000 
#
# Total GULP energy -347265.112287 kJ/mol
# GULP energy per Si atom -12402.325439 kJ/mol
# Density = 1.873934 g / cm^3
# Si number density = 18.782092 Si / 1000 Ang^3
#
#
#
# Elastic Constant Matrix: (Units=GPa)
#
#
# Indices 1 2 3 4 5 6 
#
# 1 68.7444 25.2708 25.4621 0.0000 -8.7517 0.0000
# 2 25.2708 82.4127 46.1196 0.0000 -18.9585 0.0000
# 3 25.4621 46.1196 83.6776 0.0000 -12.2243 0.0000
# 4 0.0000 0.0000 0.0000 28.7387 0.0000 2.5390
# 5 -8.7517 -18.9585 -12.2243 0.0000 39.5313 0.0000
# 6 0.0000 0.0000 0.0000 2.5390 0.0000 -24.1888
#
#
#
# Elastic Compliance Matrix: (Units=1/GPa)
#
#
# Indices 1 2 3 4 5 6 
#
# 1 0.017069 -0.003092 -0.003303 0.000000 0.001274 0.000000
# 2 -0.003092 0.019415 -0.008902 0.000000 0.005874 0.000000
# 3 -0.003303 -0.008902 0.017942 0.000000 0.000548 0.000000
# 4 0.000000 0.000000 0.000000 0.034477 0.000000 0.003619
# 5 0.001274 0.005874 0.000548 0.000000 0.028565 0.000000
# 6 0.000000 0.000000 0.000000 0.003619 0.000000 -0.040962
#
#
# Mechanical properties :
#
#
# Convention : Reuss Voigt Hill
#
# Bulk Modulus (GPa) = 41.96125 47.61551 44.78838
# Shear Modulus (GPa) = 43.46133 18.01508 30.73820
#
# Velocity S-wave (km/s) = 4.81560 3.10039 4.04984
# Velocity P-wave (km/s) = 7.30134 6.18249 6.76509
#
# Compressibility (1/GPa) = 0.02383151
#
# Stress axis : x y z
#
# Youngs Moduli (GPa) = 58.58525 51.50642 55.73469
#
# Poissons Ratio (x) = 0.15927 0.18412
# Poissons Ratio (y) = 0.18116 0.49614
# Poissons Ratio (z) = 0.19354 0.45850
#
# Static dielectric constant tensor:
#      x y z
#    x 3.617230 0.000000 0.032390 
#    y 0.000000 3.360410 0.000000 
#    z 0.032390 0.000000 3.587880 
# 
# 
# High freq. dielectric constant tensor:
#      x y z
#    x 1.740350 0.000000 0.004980 
#    y 0.000000 1.718260 0.000000 
#    z 0.004980 0.000000 1.739450 
# 
# From -- ./inp_files/106064.got.cif
#   From: 2010.06.25/outbox.cif.g09.slc.cpg/sg12_54_cif.got.tgz:106064.got - 2010.06.28 00:19:55.
