data_PCOD8110145
_publ_section_title
;
Structure prediction by ZEFSAII (Michael W. Deem and Ramdas Pophale) SiO2 
 PCOD8110145
Probable space group: C 2/M
;
_chemical_formula_sum "Si O2"
_cell_formula_units_Z 32
_cell_length_a 9.353842
_cell_length_b 25.996247
_cell_length_c 13.768845
_cell_angle_alpha 90.000000
_cell_angle_beta 29.816757
_cell_angle_gamma 90.000000
_cell_volume 1664.767301
_symmetry_space_group_name_H-M "C 2/M"
_symmetry_group_IT_number 12
_symmetry_cell_setting 'monoclinic'
loop_
_space_group_symop_operation_xyz
x,y,z
-x,y,-z
-x,-y,-z
x,-y,z
1/2+x,1/2+y,z
1/2-x,1/2+y,-z
1/2-x,1/2-y,-z
1/2+x,1/2-y,z
loop_
_atom_site_type_symbol
_atom_site_label
_atom_site_fract_x
_atom_site_fract_y
_atom_site_fract_z
Si Si1 0.278521 0.441746 0.543697
Si Si2 0.312961 0.869333 0.859981
Si Si3 0.250693 0.201676 0.069962
Si Si4 0.791877 0.651618 0.532887
O O1 0.500000 0.434611 0.500000
O O2 0.271824 0.500000 0.508801
O O3 0.360087 0.403089 0.406655
O O4 0.963000 0.425552 0.770822
O O5 0.305675 0.849083 0.973859
O O6 0.507960 0.830984 0.676854
O O7 0.000000 0.873870 0.000000
O O8 0.500000 0.209819 0.000000
O O9 0.250000 0.250000 0.000000
O O10 0.946344 0.194912 0.304672
O O11 0.000000 0.641661 0.500000
#
# Coordination Sequence:
#
# PCOD8110145 Si02
#       4
#     8   8   8   8
#     4   9  19  37  61  89 123 160 200 247 299 352
#     4  10  21  41  61  89 125 159 200 249 296 356
#     4  12  25  41  63  90 118 158 204 246 301 363
#     4  10  22  41  63  87 125 158 197 253 297 353
#
# _framework density 19.221906000000001
#
# number of rings (size 3 to 8) (size 9 to 14) (size 15 to 20)
#    1.500    0.250    2.500    2.250    0.000    2.000 
#    0.000    1.250    0.000    4.500    0.000    0.000 
#    0.000    0.000    0.000    0.000    0.000    0.000 
#
# Total GULP energy -198243.252609 kJ/mol
# GULP energy per Si atom -12390.203288 kJ/mol
# Density = 1.917816 g / cm^3
# Si number density = 19.221906 Si / 1000 Ang^3
#
#
#
# Elastic Constant Matrix: (Units=GPa)
#
#
# Indices 1 2 3 4 5 6 
#
# 1 132.5007 35.8465 44.6752 0.0000 -28.2993 0.0000
# 2 35.8465 79.1771 35.2863 0.0000 -25.7098 0.0000
# 3 44.6752 35.2863 134.9758 0.0000 -15.7673 -0.0002
# 4 0.0000 0.0000 0.0000 28.3971 0.0000 14.0691
# 5 -28.2993 -25.7098 -15.7673 0.0000 25.9433 0.0000
# 6 0.0000 0.0000 -0.0002 14.0691 0.0000 -18.9992
#
#
#
# Elastic Compliance Matrix: (Units=1/GPa)
#
#
# Indices 1 2 3 4 5 6 
#
# 1 0.010485 -0.000724 -0.002184 0.000000 0.009393 0.000000
# 2 -0.000724 0.019807 -0.002947 0.000000 0.017048 0.000000
# 3 -0.002184 -0.002947 0.008916 0.000000 0.000116 0.000000
# 4 0.000000 0.000000 0.000000 0.025763 0.000000 0.019078
# 5 0.009393 0.017048 0.000116 0.000000 0.065756 0.000000
# 6 0.000000 0.000000 0.000000 0.019078 0.000000 -0.038506
#
#
# Mechanical properties :
#
#
# Convention : Reuss Voigt Hill
#
# Bulk Modulus (GPa) = 36.36634 64.25217 50.30925
# Shear Modulus (GPa) = 44.21022 22.45793 33.33408
#
# Velocity S-wave (km/s) = 4.80103 3.42182 4.16886
# Velocity P-wave (km/s) = 7.04936 7.00792 7.02867
#
# Compressibility (1/GPa) = 0.02749796
#
# Stress axis : x y z
#
# Youngs Moduli (GPa) = 95.36980 50.48829 112.16339
#
# Poissons Ratio (x) = 0.03654 0.24497
# Poissons Ratio (y) = 0.06903 0.33054
# Poissons Ratio (z) = 0.20830 0.14879
#
# Static dielectric constant tensor:
#      x y z
#    x 3.523870 0.000000 0.000250 
#    y 0.000000 3.315150 0.000000 
#    z 0.000250 0.000000 3.589170 
# 
# 
# High freq. dielectric constant tensor:
#      x y z
#    x 1.761690 0.000000 -0.007420 
#    y 0.000000 1.723450 0.000000 
#    z -0.007420 0.000000 1.748770 
# 
# From -- ./inp_files/40697.got.cif
#   From: 2010.06.25/outbox.cif.g09.slc.cpg/sg12_21_cif.got.tgz:40697.got - 2010.06.28 00:19:55.
