data_PCOD8110863
_publ_section_title
;
Structure prediction by ZEFSAII (Michael W. Deem and Ramdas Pophale) SiO2 
 PCOD8110863
Probable space group: C 2/M
;
_chemical_formula_sum "Si O2"
_cell_formula_units_Z 32
_cell_length_a 24.074634
_cell_length_b 14.612718
_cell_length_c 7.898240
_cell_angle_alpha 90.000000
_cell_angle_beta 32.912765
_cell_angle_gamma 90.000000
_cell_volume 1509.766843
_symmetry_space_group_name_H-M "C 2/M"
_symmetry_group_IT_number 12
_symmetry_cell_setting 'monoclinic'
loop_
_space_group_symop_operation_xyz
x,y,z
-x,y,-z
-x,-y,-z
x,-y,z
1/2+x,1/2+y,z
1/2-x,1/2+y,-z
1/2-x,1/2-y,-z
1/2+x,1/2-y,z
loop_
_atom_site_type_symbol
_atom_site_label
_atom_site_fract_x
_atom_site_fract_y
_atom_site_fract_z
Si Si1 0.885235 0.602177 0.355886
Si Si2 0.683155 0.710020 0.363667
Si Si3 0.680523 0.397354 0.700651
Si Si4 0.386228 0.704873 0.808130
O O1 0.872473 0.500000 0.470765
O O2 0.859606 0.685288 0.548231
O O3 0.803084 0.611803 0.412695
O O4 0.000000 0.615210 0.000000
O O5 0.856404 0.835917 0.362919
O O6 0.644630 0.657704 0.293768
O O7 0.806865 0.712988 0.050528
O O8 0.648897 0.500000 0.736946
O O9 0.619991 0.369078 0.025382
O O10 0.500000 0.744898 0.500000
#
# Coordination Sequence:
#
# PCOD8110863 Si02
#       4
#     8   8   8   8
#     4   9  18  33  60  90 116 151 197 250 301 348
#     4  10  22  38  62  90 116 166 200 242 300 362
#     4  10  22  40  60  88 124 160 203 246 292 358
#     4  10  22  38  59  88 120 158 199 252 298 349
#
# _framework density 21.195325
#
# number of rings (size 3 to 8) (size 9 to 14) (size 15 to 20)
#    0.000    2.250    0.000    3.000    7.000    1.500 
#    0.000    5.000    0.000    3.000    0.000    0.000 
#    0.000    0.000    0.000    0.000    0.000    0.000 
#
# Total GULP energy -198227.139243 kJ/mol
# GULP energy per Si atom -12389.196203 kJ/mol
# Density = 2.114708 g / cm^3
# Si number density = 21.195325 Si / 1000 Ang^3
#
#
#
# Elastic Constant Matrix: (Units=GPa)
#
#
# Indices 1 2 3 4 5 6 
#
# 1 105.5467 51.8042 52.5302 0.0000 34.1144 0.0000
# 2 51.8042 96.2088 45.7410 0.0000 22.4253 0.0000
# 3 52.5302 45.7410 123.3709 0.0000 -3.1885 0.0000
# 4 0.0000 0.0000 0.0000 9.5265 0.0000 -0.9068
# 5 34.1144 22.4253 -3.1885 0.0000 42.3714 0.0000
# 6 0.0000 0.0000 0.0000 -0.9068 0.0000 13.3369
#
#
#
# Elastic Compliance Matrix: (Units=1/GPa)
#
#
# Indices 1 2 3 4 5 6 
#
# 1 0.019588 -0.003714 -0.007335 0.000000 -0.014357 0.000000
# 2 -0.003714 0.015839 -0.004439 0.000000 -0.005727 0.000000
# 3 -0.007335 -0.004439 0.013113 0.000000 0.009242 0.000000
# 4 0.000000 0.000000 0.000000 0.105655 0.000000 0.007184
# 5 -0.014357 -0.005727 0.009242 0.000000 0.038887 0.000000
# 6 0.000000 0.000000 0.000000 0.007184 0.000000 0.075468
#
#
# Mechanical properties :
#
#
# Convention : Reuss Voigt Hill
#
# Bulk Modulus (GPa) = 56.92948 69.47524 63.20236
# Shear Modulus (GPa) = 16.37296 24.71702 20.54499
#
# Velocity S-wave (km/s) = 2.78237 3.41860 3.11676
# Velocity P-wave (km/s) = 6.10245 6.95933 6.54492
#
# Compressibility (1/GPa) = 0.01756559
#
# Stress axis : x y z
#
# Youngs Moduli (GPa) = 51.05106 63.13430 76.25747
#
# Poissons Ratio (x) = 0.23446 0.55933
# Poissons Ratio (y) = 0.18959 0.33853
# Poissons Ratio (z) = 0.37444 0.28027
#
# Static dielectric constant tensor:
#      x y z
#    x 3.789760 0.000000 -0.048900 
#    y 0.000000 3.727250 0.000000 
#    z -0.048900 0.000000 3.851220 
# 
# 
# High freq. dielectric constant tensor:
#      x y z
#    x 1.825790 0.000000 -0.006820 
#    y 0.000000 1.801090 0.000000 
#    z -0.006820 0.000000 1.833560 
# 
# From -- ./inp_files/57710.got.cif
#   From: 2010.06.25/outbox.cif.g09.slc.cpg/sg12_29_cif.got.tgz:57710.got - 2010.06.28 00:19:55.
