data_PCOD8110556
_publ_section_title
;
Structure prediction by ZEFSAII (Michael W. Deem and Ramdas Pophale) SiO2 
 PCOD8110556
Probable space group: C 2/M
;
_chemical_formula_sum "Si O2"
_cell_formula_units_Z 64
_cell_length_a 18.355985
_cell_length_b 30.262511
_cell_length_c 22.310121
_cell_angle_alpha 90.000000
_cell_angle_beta 161.440872
_cell_angle_gamma 90.000000
_cell_volume 3944.556758
_symmetry_space_group_name_H-M "C 2/M"
_symmetry_group_IT_number 12
_symmetry_cell_setting 'monoclinic'
loop_
_space_group_symop_operation_xyz
x,y,z
-x,y,-z
-x,-y,-z
x,-y,z
1/2+x,1/2+y,z
1/2-x,1/2+y,-z
1/2-x,1/2-y,-z
1/2+x,1/2-y,z
loop_
_atom_site_type_symbol
_atom_site_label
_atom_site_fract_x
_atom_site_fract_y
_atom_site_fract_z
Si Si1 0.830616 0.280242 0.921058
Si Si2 0.266836 0.864685 0.347602
Si Si3 0.642521 0.949979 0.760877
Si Si4 0.098470 0.707266 0.893461
Si Si5 0.810729 0.209314 0.504241
Si Si6 0.634807 0.450612 0.193375
Si Si7 0.670715 0.319873 0.038874
Si Si8 0.593694 0.862230 0.414197
O O1 0.578656 0.290203 0.699358
O O2 0.866102 0.229951 0.968383
O O3 0.881080 0.308602 0.021329
O O4 0.000000 0.294193 0.000000
O O5 0.500000 0.848915 0.500000
O O6 0.233004 0.917610 0.319740
O O7 0.268204 0.850403 0.417722
O O8 0.074160 0.842183 0.156572
O O9 0.730510 0.940476 0.762698
O O10 0.441138 0.915247 0.621762
O O11 0.546209 0.000000 0.692022
O O12 0.862249 0.943969 0.975053
O O13 0.203648 0.672837 0.927651
O O14 0.831604 0.715984 0.668443
O O15 0.250000 0.750000 0.000000
O O16 0.750000 0.250000 0.500000
O O17 0.741590 0.161779 0.478263
O O18 0.688846 0.500000 0.257618
O O19 0.834487 0.342921 0.215551
#
# Coordination Sequence:
#
# PCOD8110556 Si02
#       8
#     8   8   8   8   8   8   8   8
#     4  11  23  35  53  75  98 130 167 219 251 298
#     4  12  23  28  45  70  95 129 177 220 244 290
#     4   9  17  32  50  66  95 135 167 210 257 295
#     4   9  18  36  53  65  93 132 161 204 254 303
#     4  11  20  36  55  70  96 135 172 201 255 315
#     4   9  18  32  46  64  98 136 169 209 260 292
#     4  10  22  35  48  67 101 130 168 210 257 291
#     4  11  21  33  52  69  92 131 174 209 248 301
#
# _framework density 16.224889999999998
#
# number of rings (size 3 to 8) (size 9 to 14) (size 15 to 20)
#    0.000    1.750    6.250    1.500    3.500    1.250 
#    0.000    0.000    0.000    0.000    0.000    0.000 
#    0.000    0.500    0.000    5.750    0.000    4.750 
#
# Total GULP energy -396583.270852 kJ/mol
# GULP energy per Si atom -12393.227214 kJ/mol
# Density = 1.618796 g / cm^3
# Si number density = 16.224890 Si / 1000 Ang^3
#
#
#
# Elastic Constant Matrix: (Units=GPa)
#
#
# Indices 1 2 3 4 5 6 
#
# 1 68.0837 13.5526 32.8441 0.0052 2.0414 0.0051
# 2 13.5526 68.0384 18.9916 0.0022 8.2829 0.0019
# 3 32.8441 18.9916 115.4406 -0.0208 3.4221 -0.0022
# 4 0.0052 0.0022 -0.0208 21.8924 -0.0057 -1.4418
# 5 2.0414 8.2829 3.4221 -0.0057 27.3153 0.0010
# 6 0.0051 0.0019 -0.0022 -1.4418 0.0010 16.6437
#
#
#
# Elastic Compliance Matrix: (Units=1/GPa)
#
#
# Indices 1 2 3 4 5 6 
#
# 1 0.017326 -0.002167 -0.004571 -0.000009 -0.000065 -0.000006
# 2 -0.002167 0.016214 -0.001917 -0.000004 -0.004514 -0.000002
# 3 -0.004571 -0.001917 0.010289 0.000011 -0.000366 0.000004
# 4 -0.000009 -0.000004 0.000011 0.045940 0.000010 0.003980
# 5 -0.000065 -0.004514 -0.000366 0.000010 0.038029 -0.000001
# 6 -0.000006 -0.000002 0.000004 0.003980 -0.000001 0.060427
#
#
# Mechanical properties :
#
#
# Convention : Reuss Voigt Hill
#
# Bulk Modulus (GPa) = 37.70926 42.48214 40.09570
# Shear Modulus (GPa) = 23.32346 25.58192 24.45269
#
# Velocity S-wave (km/s) = 3.79557 3.97509 3.88636
# Velocity P-wave (km/s) = 6.51924 6.87812 6.70108
#
# Compressibility (1/GPa) = 0.02651869
#
# Stress axis : x y z
#
# Youngs Moduli (GPa) = 57.71582 61.67514 97.18944
#
# Poissons Ratio (x) = 0.13368 0.44425
# Poissons Ratio (y) = 0.12509 0.18631
# Poissons Ratio (z) = 0.26382 0.11823
#
# Static dielectric constant tensor:
#      x y z
#    x 3.129210 0.000000 -0.258030 
#    y 0.000000 3.061320 -0.000020 
#    z -0.258030 -0.000020 3.384450 
# 
# 
# High freq. dielectric constant tensor:
#      x y z
#    x 1.579490 0.000000 -0.019340 
#    y 0.000000 1.601870 0.000000 
#    z -0.019340 0.000000 1.646900 
# 
# From -- ./inp_files/318645.got.cif
#   From: 2010.06.25/outbox.cif.g09.slc.cpg/sg12_160_cif.got.tgz:318645.got - 2010.06.28 00:19:55.
