data_PCOD8110733
_publ_section_title
;
Structure prediction by ZEFSAII (Michael W. Deem and Ramdas Pophale) SiO2 
 PCOD8110733
Probable space group: C 2/M
;
_chemical_formula_sum "Si O2"
_cell_formula_units_Z 52
_cell_length_a 12.466790
_cell_length_b 18.834143
_cell_length_c 12.582295
_cell_angle_alpha 90.000000
_cell_angle_beta 120.025082
_cell_angle_gamma 90.000000
_cell_volume 2557.885984
_symmetry_space_group_name_H-M "C 2/M"
_symmetry_group_IT_number 12
_symmetry_cell_setting 'monoclinic'
loop_
_space_group_symop_operation_xyz
x,y,z
-x,y,-z
-x,-y,-z
x,-y,z
1/2+x,1/2+y,z
1/2-x,1/2+y,-z
1/2-x,1/2-y,-z
1/2+x,1/2-y,z
loop_
_atom_site_type_symbol
_atom_site_label
_atom_site_fract_x
_atom_site_fract_y
_atom_site_fract_z
Si Si1 0.861540 0.355306 0.267359
Si Si2 0.966202 0.217848 0.208913
Si Si3 0.245414 0.766283 0.373494
Si Si4 0.260061 0.000000 0.969367
Si Si5 0.466983 0.000000 0.246952
Si Si6 0.626673 0.625489 0.010491
Si Si7 0.885916 0.138248 0.364376
Si Si8 0.767500 0.500000 0.727719
O O1 0.933257 0.296052 0.234344
O O2 0.841771 0.327920 0.379907
O O3 0.936797 0.429512 0.302001
O O4 0.725563 0.363693 0.151702
O O5 0.899313 0.200114 0.063807
O O6 0.934236 0.152682 0.270564
O O7 0.111991 0.212845 0.264902
O O8 0.250000 0.750000 0.500000
O O9 0.278936 0.694459 0.331845
O O10 0.177366 0.068680 0.951335
O O11 0.304663 0.000000 0.869677
O O12 0.384675 0.000000 0.100476
O O13 0.610337 0.000000 0.284717
O O14 0.500000 0.596630 0.000000
O O15 0.000000 0.147392 0.500000
O O16 0.821266 0.063843 0.346903
#
# Coordination Sequence:
#
# PCOD8110733 Si02
#       8
#     8   8   8   4   4   8   8   4
#     4  10  23  39  63  92 127 166 207 264 306 380
#     4  11  21  39  61  92 124 162 209 258 314 368
#     4  11  22  40  65  90 120 166 209 252 317 372
#     4  10  22  37  61  90 129 175 204 259 311 389
#     4  10  23  44  61  90 129 167 218 250 321 380
#     4  11  20  38  60  94 130 161 211 255 321 372
#     4  11  23  39  62  91 122 161 212 262 303 376
#     4  12  22  41  62  90 128 167 210 259 317 368
#
# _framework density 20.329287999999998
#
# number of rings (size 3 to 8) (size 9 to 14) (size 15 to 20)
#    0.000    1.231    4.615    2.077    0.000    0.000 
#    0.000    1.538    0.000    1.846    0.000    0.000 
#    0.000    0.000    0.000    0.000    0.000    0.000 
#
# Total GULP energy -322326.094813 kJ/mol
# GULP energy per Si atom -12397.157493 kJ/mol
# Density = 2.028302 g / cm^3
# Si number density = 20.329288 Si / 1000 Ang^3
#
#
#
# Elastic Constant Matrix: (Units=GPa)
#
#
# Indices 1 2 3 4 5 6 
#
# 1 130.5945 62.4879 18.9080 0.0000 -1.1916 0.0000
# 2 62.4879 135.3803 16.5545 0.0000 -8.1167 0.0000
# 3 18.9080 16.5545 47.6628 0.0000 -12.0030 0.0000
# 4 0.0000 0.0000 0.0000 27.4728 0.0000 3.0719
# 5 -1.1916 -8.1167 -12.0030 0.0000 30.1113 0.0000
# 6 0.0000 0.0000 0.0000 3.0719 0.0000 29.3106
#
#
#
# Elastic Compliance Matrix: (Units=1/GPa)
#
#
# Indices 1 2 3 4 5 6 
#
# 1 0.010210 -0.004465 -0.003002 0.000000 -0.001996 0.000000
# 2 -0.004465 0.009702 -0.001094 0.000000 0.002002 0.000000
# 3 -0.003002 -0.001094 0.024952 0.000000 0.009533 0.000000
# 4 0.000000 0.000000 0.000000 0.036831 0.000000 -0.003860
# 5 -0.001996 0.002002 0.009533 0.000000 0.037471 0.000000
# 6 0.000000 0.000000 0.000000 -0.003860 0.000000 0.034522
#
#
# Mechanical properties :
#
#
# Convention : Reuss Voigt Hill
#
# Bulk Modulus (GPa) = 36.04762 56.61536 46.33149
# Shear Modulus (GPa) = 27.76874 31.75808 29.76341
#
# Velocity S-wave (km/s) = 3.69988 3.95673 3.83046
# Velocity P-wave (km/s) = 6.00188 6.98455 6.51178
#
# Compressibility (1/GPa) = 0.02774109
#
# Stress axis : x y z
#
# Youngs Moduli (GPa) = 97.93922 103.07648 40.07638
#
# Poissons Ratio (x) = 0.46028 0.12032
# Poissons Ratio (y) = 0.43734 0.04384
# Poissons Ratio (z) = 0.29404 0.11275
#
# Static dielectric constant tensor:
#      x y z
#    x 3.581220 0.000000 0.225820 
#    y 0.000000 3.757740 0.000000 
#    z 0.225820 0.000000 3.439310 
# 
# 
# High freq. dielectric constant tensor:
#      x y z
#    x 1.812920 0.000000 0.000900 
#    y 0.000000 1.794800 0.000000 
#    z 0.000900 0.000000 1.784650 
# 
# From -- ./inp_files/134068.got.cif
#   From: 2010.06.25/outbox.cif.g09.slc.cpg/sg12_68_cif.got.tgz:134068.got - 2010.06.28 00:19:55.
