data_PCOD8110095
_publ_section_title
;
Structure prediction by ZEFSAII (Michael W. Deem and Ramdas Pophale) SiO2 
 PCOD8110095
Probable space group: C 2/M
;
_chemical_formula_sum "Si O2"
_cell_formula_units_Z 32
_cell_length_a 10.521497
_cell_length_b 17.176619
_cell_length_c 9.066023
_cell_angle_alpha 90.000000
_cell_angle_beta 65.472583
_cell_angle_gamma 90.000000
_cell_volume 1490.596769
_symmetry_space_group_name_H-M "C 2/M"
_symmetry_group_IT_number 12
_symmetry_cell_setting 'monoclinic'
loop_
_space_group_symop_operation_xyz
x,y,z
-x,y,-z
-x,-y,-z
x,-y,z
1/2+x,1/2+y,z
1/2-x,1/2+y,-z
1/2-x,1/2-y,-z
1/2+x,1/2-y,z
loop_
_atom_site_type_symbol
_atom_site_label
_atom_site_fract_x
_atom_site_fract_y
_atom_site_fract_z
Si Si1 0.866733 0.092179 0.884209
Si Si2 0.826225 0.907961 0.229624
Si Si3 0.111240 0.409081 0.818691
Si Si4 0.632640 0.187063 0.522755
O O1 0.763245 0.118540 0.804359
O O2 0.024541 0.120729 0.774345
O O3 0.864753 0.000000 0.898308
O O4 0.814803 0.124460 0.067864
O O5 0.699177 0.877911 0.386464
O O6 0.818014 0.000000 0.235917
O O7 0.110226 0.500000 0.773220
O O8 0.076365 0.355068 0.696928
O O9 0.000000 0.393299 0.000000
O O10 0.500000 0.223791 0.500000
O O11 0.750000 0.250000 0.500000
#
# Coordination Sequence:
#
# PCOD8110095 Si02
#       4
#     8   8   8   8
#     4   8  16  33  63  99 122 151 196 255 314 363
#     4   9  18  37  66  94 123 158 206 257 308 360
#     4  10  21  40  68  95 122 158 211 264 309 359
#     4  12  28  44  59  89 128 169 207 252 311 372
#
# _framework density 21.467912999999999
#
# number of rings (size 3 to 8) (size 9 to 14) (size 15 to 20)
#    0.000    2.250    0.000    3.750    3.500    4.000 
#    4.500    6.250    0.000    0.000    0.000    0.000 
#    0.000    0.000    0.000    0.000    0.000    0.000 
#
# Total GULP energy -198347.366515 kJ/mol
# GULP energy per Si atom -12396.710407 kJ/mol
# Density = 2.141905 g / cm^3
# Si number density = 21.467913 Si / 1000 Ang^3
#
#
#
# Elastic Constant Matrix: (Units=GPa)
#
#
# Indices 1 2 3 4 5 6 
#
# 1 154.7557 40.4241 42.8549 0.0000 12.1577 0.0000
# 2 40.4241 47.8826 30.2034 0.0000 7.0934 0.0000
# 3 42.8549 30.2034 100.1644 0.0000 -0.1103 0.0000
# 4 0.0000 0.0000 0.0000 10.7269 0.0000 0.5473
# 5 12.1577 7.0934 -0.1103 0.0000 30.9182 0.0000
# 6 0.0000 0.0000 0.0000 0.5473 0.0000 29.2082
#
#
#
# Elastic Compliance Matrix: (Units=1/GPa)
#
#
# Indices 1 2 3 4 5 6 
#
# 1 0.008681 -0.005772 -0.001976 0.000000 -0.002097 0.000000
# 2 -0.005772 0.030768 -0.006814 0.000000 -0.004814 0.000000
# 3 -0.001976 -0.006814 0.012886 0.000000 0.002386 0.000000
# 4 0.000000 0.000000 0.000000 0.093312 0.000000 -0.001748
# 5 -0.002097 -0.004814 0.002386 0.000000 0.034281 0.000000
# 6 0.000000 0.000000 0.000000 -0.001748 0.000000 0.034270
#
#
# Mechanical properties :
#
#
# Convention : Reuss Voigt Hill
#
# Bulk Modulus (GPa) = 43.08028 58.86305 50.97166
# Shear Modulus (GPa) = 19.91556 26.79203 23.35380
#
# Velocity S-wave (km/s) = 3.04910 3.53654 3.30183
# Velocity P-wave (km/s) = 5.70148 6.64491 6.19119
#
# Compressibility (1/GPa) = 0.02321248
#
# Stress axis : x y z
#
# Youngs Moduli (GPa) = 115.18769 32.50091 77.60221
#
# Poissons Ratio (x) = 0.18760 0.15335
# Poissons Ratio (y) = 0.66488 0.52875
# Poissons Ratio (z) = 0.22763 0.22145
#
# Static dielectric constant tensor:
#      x y z
#    x 4.566870 0.000000 -0.016810 
#    y 0.000000 3.415910 0.000000 
#    z -0.016810 0.000000 4.025370 
# 
# 
# High freq. dielectric constant tensor:
#      x y z
#    x 1.861230 0.000000 -0.001940 
#    y 0.000000 1.803160 0.000000 
#    z -0.001940 0.000000 1.844360 
# 
# From -- ./inp_files/46438.got.cif
#   From: 2010.06.25/outbox.cif.g09.slc.cpg/sg12_24_cif.got.tgz:46438.got - 2010.06.28 00:19:55.
