data_PCOD8110587
_publ_section_title
;
Structure prediction by ZEFSAII (Michael W. Deem and Ramdas Pophale) SiO2 
 PCOD8110587
Probable space group: C 2/M
;
_chemical_formula_sum "Si O2"
_cell_formula_units_Z 64
_cell_length_a 22.467573
_cell_length_b 9.390639
_cell_length_c 20.939999
_cell_angle_alpha 90.000000
_cell_angle_beta 128.510742
_cell_angle_gamma 90.000000
_cell_volume 3457.065073
_symmetry_space_group_name_H-M "C 2/M"
_symmetry_group_IT_number 12
_symmetry_cell_setting 'monoclinic'
loop_
_space_group_symop_operation_xyz
x,y,z
-x,y,-z
-x,-y,-z
x,-y,z
1/2+x,1/2+y,z
1/2-x,1/2+y,-z
1/2-x,1/2-y,-z
1/2+x,1/2-y,z
loop_
_atom_site_type_symbol
_atom_site_label
_atom_site_fract_x
_atom_site_fract_y
_atom_site_fract_z
Si Si1 0.402845 0.837273 0.750403
Si Si2 0.520482 0.161382 0.330526
Si Si3 0.360065 0.836223 0.181522
Si Si4 0.307776 0.338743 0.893328
Si Si5 0.145786 0.839144 0.471470
Si Si6 0.826618 0.162858 0.047130
Si Si7 0.773000 0.161189 0.610289
Si Si8 0.568587 0.835025 0.088984
O O1 0.459213 0.804405 0.729614
O O2 0.328982 0.736252 0.697972
O O3 0.447714 0.809194 0.846726
O O4 0.373768 0.000000 0.727908
O O5 0.429548 0.181755 0.277826
O O6 0.563276 0.266498 0.407581
O O7 0.544989 0.000000 0.363667
O O8 0.280334 0.787231 0.159884
O O9 0.382374 0.740200 0.134607
O O10 0.352598 0.000000 0.153675
O O11 0.309249 0.500000 0.868686
O O12 0.351519 0.240012 0.873007
O O13 0.353000 0.328937 0.991196
O O14 0.188890 0.838213 0.433367
O O15 0.194116 0.748932 0.555064
O O16 0.134736 0.000000 0.489233
O O17 0.814389 0.000000 0.060139
O O18 0.750000 0.250000 0.000000
O O19 0.756345 0.000000 0.621767
O O20 0.578836 0.000000 0.079342
O O21 0.500000 0.771361 0.000000
#
# Coordination Sequence:
#
# PCOD8110587 Si02
#       8
#     8   8   8   8   8   8   8   8
#     4   9  18  32  47  68  95 125 162 201 239 280
#     4   9  17  29  47  70  99 130 156 192 238 285
#     4   9  18  31  49  71  95 124 158 195 241 291
#     4   9  19  34  48  67  92 121 159 200 243 288
#     4   9  16  26  42  68 100 129 155 190 231 280
#     4   9  17  29  45  66  89 115 152 195 239 286
#     4   9  16  27  45  67  93 127 162 192 230 284
#     4  10  22  36  51  70  92 124 168 207 240 283
#
# _framework density 18.512812
#
# number of rings (size 3 to 8) (size 9 to 14) (size 15 to 20)
#    0.000    2.875    0.000    1.875    1.750    6.750 
#    0.000    0.000    0.000    0.000    0.000    0.875 
#    0.000    7.000    0.000    0.000    0.000    0.000 
#
# Total GULP energy -396624.764716 kJ/mol
# GULP energy per Si atom -12394.523897 kJ/mol
# Density = 1.847068 g / cm^3
# Si number density = 18.512812 Si / 1000 Ang^3
#
#
#
# Elastic Constant Matrix: (Units=GPa)
#
#
# Indices 1 2 3 4 5 6 
#
# 1 49.4978 21.9059 20.0198 0.0000 15.4723 0.0000
# 2 21.9059 92.4543 39.4998 0.0000 14.3614 0.0000
# 3 20.0198 39.4998 87.2704 0.0000 23.7210 0.0000
# 4 0.0000 0.0000 0.0000 30.3279 0.0000 3.6515
# 5 15.4723 14.3614 23.7210 0.0000 24.1291 0.0000
# 6 0.0000 0.0000 0.0000 3.6515 0.0000 20.7386
#
#
#
# Elastic Compliance Matrix: (Units=1/GPa)
#
#
# Indices 1 2 3 4 5 6 
#
# 1 0.026569 -0.003882 -0.000457 0.000000 -0.014276 0.000000
# 2 -0.003882 0.014111 -0.005309 0.000000 -0.000691 0.000000
# 3 -0.000457 -0.005309 0.017778 0.000000 -0.014025 0.000000
# 4 0.000000 0.000000 0.000000 0.033687 0.000000 -0.005931
# 5 -0.014276 -0.000691 -0.014025 0.000000 0.064797 0.000000
# 6 0.000000 0.000000 0.000000 -0.005931 0.000000 0.049264
#
#
# Mechanical properties :
#
#
# Convention : Reuss Voigt Hill
#
# Bulk Modulus (GPa) = 25.53487 43.56374 34.54931
# Shear Modulus (GPa) = 20.95945 24.89226 22.92586
#
# Velocity S-wave (km/s) = 3.36841 3.67085 3.52288
# Velocity P-wave (km/s) = 5.38064 6.44590 5.93721
#
# Compressibility (1/GPa) = 0.03916213
#
# Stress axis : x y z
#
# Youngs Moduli (GPa) = 37.63855 70.86511 56.24800
#
# Poissons Ratio (x) = 0.27511 0.02572
# Poissons Ratio (y) = 0.14612 0.29860
# Poissons Ratio (z) = 0.01721 0.37620
#
# Static dielectric constant tensor:
#      x y z
#    x 2.955850 0.000000 0.162700 
#    y 0.000000 3.634480 0.000000 
#    z 0.162700 0.000000 3.590660 
# 
# 
# High freq. dielectric constant tensor:
#      x y z
#    x 1.668250 0.000000 0.022610 
#    y 0.000000 1.723320 0.000000 
#    z 0.022610 0.000000 1.709080 
# 
# From -- ./inp_files/324247.got.cif
#   From: 2010.06.25/outbox.cif.g09.slc.cpg/sg12_163_cif.got.tgz:324247.got - 2010.06.28 00:19:55.
