data_PCOD8110593
_publ_section_title
;
Structure prediction by ZEFSAII (Michael W. Deem and Ramdas Pophale) SiO2 
 PCOD8110593
Probable space group: C 2/M
;
_chemical_formula_sum "Si O2"
_cell_formula_units_Z 36
_cell_length_a 24.476025
_cell_length_b 13.346352
_cell_length_c 5.052640
_cell_angle_alpha 90.000000
_cell_angle_beta 64.564297
_cell_angle_gamma 90.000000
_cell_volume 1490.535047
_symmetry_space_group_name_H-M "C 2/M"
_symmetry_group_IT_number 12
_symmetry_cell_setting 'monoclinic'
loop_
_space_group_symop_operation_xyz
x,y,z
-x,y,-z
-x,-y,-z
x,-y,z
1/2+x,1/2+y,z
1/2-x,1/2+y,-z
1/2-x,1/2-y,-z
1/2+x,1/2-y,z
loop_
_atom_site_type_symbol
_atom_site_label
_atom_site_fract_x
_atom_site_fract_y
_atom_site_fract_z
Si Si1 0.740892 0.616463 0.291038
Si Si2 0.928681 0.197869 0.203803
Si Si3 0.457204 0.500000 0.340115
Si Si4 0.679157 0.700148 0.928320
Si Si5 0.541622 0.891922 0.658852
O O1 0.757979 0.500000 0.223596
O O2 0.718108 0.637811 0.633853
O O3 0.800243 0.683422 0.107227
O O4 0.688072 0.649163 0.195498
O O5 0.891325 0.193694 0.008106
O O6 0.910531 0.300128 0.401503
O O7 0.915200 0.099291 0.411230
O O8 0.000000 0.203977 0.000000
O O9 0.500000 0.500000 0.500000
O O10 0.500000 0.500000 0.000000
O O11 0.500000 0.863585 0.500000
O O12 0.574708 0.000000 0.544107
O O13 0.500000 0.901942 0.000000
#
# Coordination Sequence:
#
# PCOD8110593 Si02
#       5
#     8   8   4   8   8
#     4  10  22  42  66  88 122 158 208 268 309 360
#     4  10  22  39  59  89 128 160 198 249 296 375
#     4  10  22  36  52  80 120 164 194 228 281 350
#     4  10  23  40  63  96 118 161 212 249 316 371
#     4   9  18  33  53  76 108 152 193 234 286 344
#
# _framework density 24.1524
#
# number of rings (size 3 to 8) (size 9 to 14) (size 15 to 20)
#    0.000    2.222    0.000    1.333    3.111    8.000 
#    0.000    0.000    0.000   10.667    0.000    0.000 
#    0.000    0.000    0.000    0.000    0.000    0.000 
#
# Total GULP energy -223079.469030 kJ/mol
# GULP energy per Si atom -12393.303835 kJ/mol
# Density = 2.409743 g / cm^3
# Si number density = 24.152400 Si / 1000 Ang^3
#
#
#
# Elastic Constant Matrix: (Units=GPa)
#
#
# Indices 1 2 3 4 5 6 
#
# 1 133.0735 48.0453 7.0136 0.0000 29.3460 0.0000
# 2 48.0453 251.2704 4.9486 0.0000 23.1861 0.0000
# 3 7.0136 4.9486 59.1105 0.0000 27.3765 0.0000
# 4 0.0000 0.0000 0.0000 17.5153 0.0000 12.4912
# 5 29.3460 23.1861 27.3765 0.0000 45.3360 0.0000
# 6 0.0000 0.0000 0.0000 12.4912 0.0000 24.1811
#
#
#
# Elastic Compliance Matrix: (Units=1/GPa)
#
#
# Indices 1 2 3 4 5 6 
#
# 1 0.009311 -0.001206 0.002085 0.000000 -0.006669 0.000000
# 2 -0.001206 0.004367 0.000625 0.000000 -0.001830 0.000000
# 3 0.002085 0.000625 0.024143 0.000000 -0.016248 0.000000
# 4 0.000000 0.000000 0.000000 0.090394 0.000000 -0.046695
# 5 -0.006669 -0.001830 -0.016248 0.000000 0.037122 0.000000
# 6 0.000000 0.000000 0.000000 -0.046695 0.000000 0.065476
#
#
# Mechanical properties :
#
#
# Convention : Reuss Voigt Hill
#
# Bulk Modulus (GPa) = 24.49231 62.60770 43.55001
# Shear Modulus (GPa) = 20.71133 42.96961 31.84047
#
# Velocity S-wave (km/s) = 2.93153 4.22252 3.63480
# Velocity P-wave (km/s) = 4.64987 7.05344 5.97379
#
# Compressibility (1/GPa) = 0.04082914
#
# Stress axis : x y z
#
# Youngs Moduli (GPa) = 107.40098 228.99287 41.41996
#
# Poissons Ratio (x) = 0.27616 -0.08636
# Poissons Ratio (y) = 0.12952 -0.02589
# Poissons Ratio (z) = -0.22393 -0.14316
#
# Static dielectric constant tensor:
#      x y z
#    x 4.066540 0.000000 0.386690 
#    y 0.000000 -0.740170 0.000000 
#    z 0.386690 0.000000 3.996870 
# 
# 
# High freq. dielectric constant tensor:
#      x y z
#    x 1.935170 0.000000 0.031770 
#    y 0.000000 1.988360 0.000000 
#    z 0.031770 0.000000 1.947450 
# 
# From -- ./inp_files/19677.got.cif
#   From: 2010.06.25/outbox.cif.g09.slc.cpg/sg12_10_cif.got.tgz:19677.got - 2010.06.28 00:19:55.
