data_PCOD8110124
_publ_section_title
;
Structure prediction by ZEFSAII (Michael W. Deem and Ramdas Pophale) SiO2 
 PCOD8110124
Probable space group: C 2/M
;
_chemical_formula_sum "Si O2"
_cell_formula_units_Z 40
_cell_length_a 10.665609
_cell_length_b 26.308998
_cell_length_c 7.633187
_cell_angle_alpha 90.000000
_cell_angle_beta 48.977208
_cell_angle_gamma 90.000000
_cell_volume 1615.940972
_symmetry_space_group_name_H-M "C 2/M"
_symmetry_group_IT_number 12
_symmetry_cell_setting 'monoclinic'
loop_
_space_group_symop_operation_xyz
x,y,z
-x,y,-z
-x,-y,-z
x,-y,z
1/2+x,1/2+y,z
1/2-x,1/2+y,-z
1/2-x,1/2-y,-z
1/2+x,1/2-y,z
loop_
_atom_site_type_symbol
_atom_site_label
_atom_site_fract_x
_atom_site_fract_y
_atom_site_fract_z
Si Si1 0.324521 0.442440 0.321850
Si Si2 0.628086 0.206476 0.221532
Si Si3 0.180027 0.718728 0.725053
Si Si4 0.672860 0.396637 0.019345
Si Si5 0.316935 0.106776 0.234894
O O1 0.389770 0.500000 0.280658
O O2 0.472599 0.400764 0.195977
O O3 0.188690 0.430436 0.593937
O O4 0.244814 0.433468 0.203132
O O5 0.500000 0.194502 0.500000
O O6 0.745924 0.254311 0.164789
O O7 0.521775 0.215645 0.133686
O O8 0.752422 0.159611 0.074128
O O9 0.250000 0.750000 0.500000
O O10 0.255800 0.662211 0.649026
O O11 0.712629 0.418412 0.174624
O O12 0.500000 0.114092 0.000000
#
# Coordination Sequence:
#
# PCOD8110124 Si02
#       5
#     8   8   8   8   8
#     4  11  27  50  76 108 142 190 254 317 385 456
#     4  10  21  40  70 105 150 197 247 299 365 445
#     4  10  22  42  68 104 154 197 249 301 364 444
#     4  11  24  45  77 104 148 190 245 308 381 441
#     4  12  26  47  73 107 153 194 247 309 376 447
#
# _framework density 24.753378999999999
#
# number of rings (size 3 to 8) (size 9 to 14) (size 15 to 20)
#    0.000    1.200    2.000    4.200    0.000   11.600 
#    7.200    1.000    0.000    0.000    0.000    0.000 
#    0.000    0.000    0.000    0.000    0.000    0.000 
#
# Total GULP energy -247860.591491 kJ/mol
# GULP energy per Si atom -12393.029575 kJ/mol
# Density = 2.469704 g / cm^3
# Si number density = 24.753379 Si / 1000 Ang^3
#
#
#
# Elastic Constant Matrix: (Units=GPa)
#
#
# Indices 1 2 3 4 5 6 
#
# 1 146.7401 69.5449 50.0485 0.0000 38.9176 0.0000
# 2 69.5449 136.8907 61.4004 0.0000 -0.5608 0.0000
# 3 50.0485 61.4004 111.1507 0.0000 18.0684 0.0000
# 4 0.0000 0.0000 0.0000 23.3826 0.0000 7.0016
# 5 38.9176 -0.5608 18.0684 0.0000 49.0002 0.0000
# 6 0.0000 0.0000 0.0000 7.0016 0.0000 6.0685
#
#
#
# Elastic Compliance Matrix: (Units=1/GPa)
#
#
# Indices 1 2 3 4 5 6 
#
# 1 0.012529 -0.006098 -0.000685 0.000000 -0.009768 0.000000
# 2 -0.006098 0.012912 -0.005530 0.000000 0.007030 0.000000
# 3 -0.000685 -0.005530 0.013065 0.000000 -0.004337 0.000000
# 4 0.000000 0.000000 0.000000 0.065340 0.000000 -0.075387
# 5 -0.009768 0.007030 -0.004337 0.000000 0.029846 0.000000
# 6 0.000000 0.000000 0.000000 -0.075387 0.000000 0.251763
#
#
# Mechanical properties :
#
#
# Convention : Reuss Voigt Hill
#
# Bulk Modulus (GPa) = 72.04334 84.08547 78.06440
# Shear Modulus (GPa) = 12.05667 29.94277 20.99972
#
# Velocity S-wave (km/s) = 2.20936 3.48177 2.91582
# Velocity P-wave (km/s) = 5.97294 7.08566 6.55296
#
# Compressibility (1/GPa) = 0.01388053
#
# Stress axis : x y z
#
# Youngs Moduli (GPa) = 79.81414 77.44652 76.54056
#
# Poissons Ratio (x) = 0.47226 0.05244
# Poissons Ratio (y) = 0.48670 0.42325
# Poissons Ratio (z) = 0.05468 0.42826
#
# Static dielectric constant tensor:
#      x y z
#    x 9.218020 0.000000 2.839310 
#    y 0.000000 4.173530 0.000000 
#    z 2.839310 0.000000 6.281600 
# 
# 
# High freq. dielectric constant tensor:
#      x y z
#    x 1.998980 0.000000 0.026370 
#    y 0.000000 1.961030 0.000000 
#    z 0.026370 0.000000 2.024850 
# 
# From -- ./inp_files/52334.got.cif
#   From: 2010.06.25/outbox.cif.g09.slc.cpg/sg12_27_cif.got.tgz:52334.got - 2010.06.28 00:19:55.
