data_PCOD8110278
_publ_section_title
;
Structure prediction by ZEFSAII (Michael W. Deem and Ramdas Pophale) SiO2 
 PCOD8110278
Probable space group: C 2/M
;
_chemical_formula_sum "Si O2"
_cell_formula_units_Z 40
_cell_length_a 20.950018
_cell_length_b 9.576222
_cell_length_c 9.048626
_cell_angle_alpha 90.000000
_cell_angle_beta 102.289023
_cell_angle_gamma 90.000000
_cell_volume 1773.757314
_symmetry_space_group_name_H-M "C 2/M"
_symmetry_group_IT_number 12
_symmetry_cell_setting 'monoclinic'
loop_
_space_group_symop_operation_xyz
x,y,z
-x,y,-z
-x,-y,-z
x,-y,z
1/2+x,1/2+y,z
1/2-x,1/2+y,-z
1/2-x,1/2-y,-z
1/2+x,1/2-y,z
loop_
_atom_site_type_symbol
_atom_site_label
_atom_site_fract_x
_atom_site_fract_y
_atom_site_fract_z
Si Si1 0.145680 0.245336 0.021964
Si Si2 0.040848 0.345864 0.756876
Si Si3 0.583339 0.658241 0.280150
Si Si4 0.642455 0.838648 0.555048
Si Si5 0.224477 0.150459 0.792510
O O1 0.109100 0.151989 0.125542
O O2 0.199767 0.340094 0.128079
O O3 0.092957 0.343544 0.915364
O O4 0.180693 0.148000 0.918984
O O5 0.007672 0.500000 0.741889
O O6 0.076659 0.322912 0.618146
O O7 0.988301 0.225358 0.751551
O O8 0.578899 0.500000 0.338900
O O9 0.632846 0.751321 0.401171
O O10 0.704295 0.775319 0.673068
O O11 0.658303 0.000000 0.527188
O O12 0.213470 0.000000 0.709468
#
# Coordination Sequence:
#
# PCOD8110278 Si02
#       5
#     8   8   8   8   8
#     4  10  23  39  62  92 124 156 196 246 301 356
#     4  10  22  41  63  88 121 161 202 243 294 357
#     4  12  25  39  60  91 124 158 199 249 300 352
#     4  10  23  42  63  88 121 161 201 245 299 356
#     4  10  21  41  67  90 117 157 203 248 296 354
#
# _framework density 22.550999000000001
#
# number of rings (size 3 to 8) (size 9 to 14) (size 15 to 20)
#    0.000    1.600    0.000    3.600    0.000   18.400 
#    0.000    0.000    0.000    0.000    0.000    0.000 
#    0.000    0.000    0.000    0.000    0.000    0.000 
#
# Total GULP energy -248030.055482 kJ/mol
# GULP energy per Si atom -12401.502774 kJ/mol
# Density = 2.249967 g / cm^3
# Si number density = 22.550999 Si / 1000 Ang^3
#
#
#
# Elastic Constant Matrix: (Units=GPa)
#
#
# Indices 1 2 3 4 5 6 
#
# 1 30.9578 23.8563 13.4722 0.0000 11.3761 0.0000
# 2 23.8563 175.0191 31.3923 0.0000 9.2304 0.0000
# 3 13.4722 31.3923 81.7871 0.0000 2.7154 0.0000
# 4 0.0000 0.0000 0.0000 28.7325 0.0000 7.6819
# 5 11.3761 9.2304 2.7154 0.0000 29.5306 0.0000
# 6 0.0000 0.0000 0.0000 7.6819 0.0000 13.0837
#
#
#
# Elastic Compliance Matrix: (Units=1/GPa)
#
#
# Indices 1 2 3 4 5 6 
#
# 1 0.043181 -0.004204 -0.005006 0.000000 -0.014860 0.000000
# 2 -0.004204 0.006632 -0.001844 0.000000 -0.000284 0.000000
# 3 -0.005006 -0.001844 0.013718 0.000000 0.001243 0.000000
# 4 0.000000 0.000000 0.000000 0.041285 0.000000 -0.024240
# 5 -0.014860 -0.000284 0.001243 0.000000 0.039562 0.000000
# 6 0.000000 0.000000 0.000000 -0.024240 0.000000 0.090663
#
#
# Mechanical properties :
#
#
# Convention : Reuss Voigt Hill
#
# Bulk Modulus (GPa) = 24.14078 47.24505 35.69291
# Shear Modulus (GPa) = 18.45312 28.87223 23.66268
#
# Velocity S-wave (km/s) = 2.86367 3.58202 3.24280
# Velocity P-wave (km/s) = 4.65428 6.17281 5.46653
#
# Compressibility (1/GPa) = 0.04142368
#
# Stress axis : x y z
#
# Youngs Moduli (GPa) = 23.15827 150.77477 72.89775
#
# Poissons Ratio (x) = 0.63390 0.36491
# Poissons Ratio (y) = 0.09736 0.13440
# Poissons Ratio (z) = 0.11593 0.27799
#
# Static dielectric constant tensor:
#      x y z
#    x 3.940990 0.000000 0.012210 
#    y 0.000000 3.874010 0.000000 
#    z 0.012210 0.000000 4.087750 
# 
# 
# High freq. dielectric constant tensor:
#      x y z
#    x 1.885980 0.000000 0.004740 
#    y 0.000000 1.886540 0.000000 
#    z 0.004740 0.000000 1.892220 
# 
# From -- ./inp_files/93008.got.cif
#   From: 2010.06.25/outbox.cif.g09.slc.cpg/sg12_47_cif.got.tgz:93008.got - 2010.06.28 00:19:55.
