data_PCOD8110293
_publ_section_title
;
Structure prediction by ZEFSAII (Michael W. Deem and Ramdas Pophale) SiO2 
 PCOD8110293
Probable space group: C 2/M
;
_chemical_formula_sum "Si O2"
_cell_formula_units_Z 36
_cell_length_a 5.083685
_cell_length_b 24.695758
_cell_length_c 13.101658
_cell_angle_alpha 90.000000
_cell_angle_beta 75.234437
_cell_angle_gamma 90.000000
_cell_volume 1590.535191
_symmetry_space_group_name_H-M "C 2/M"
_symmetry_group_IT_number 12
_symmetry_cell_setting 'monoclinic'
loop_
_space_group_symop_operation_xyz
x,y,z
-x,y,-z
-x,-y,-z
x,-y,z
1/2+x,1/2+y,z
1/2-x,1/2+y,-z
1/2-x,1/2-y,-z
1/2+x,1/2-y,z
loop_
_atom_site_type_symbol
_atom_site_label
_atom_site_fract_x
_atom_site_fract_y
_atom_site_fract_z
Si Si1 0.130038 0.381935 0.879898
Si Si2 0.162202 0.062787 0.797962
Si Si3 0.709683 0.435551 0.561339
Si Si4 0.500000 0.712816 0.500000
Si Si5 0.128636 0.213009 0.272299
O O1 0.366518 0.426462 0.876567
O O2 0.272542 0.329161 0.821096
O O3 0.900738 0.403918 0.827102
O O4 0.000000 0.366101 0.000000
O O5 0.140432 0.082363 0.682805
O O6 0.237735 0.000000 0.800094
O O7 0.500000 0.410518 0.500000
O O8 0.707930 0.500000 0.553576
O O9 0.000000 0.411528 0.500000
O O10 0.250000 0.750000 0.500000
O O11 0.572755 0.681374 0.386870
O O12 0.349188 0.260678 0.260829
#
# Coordination Sequence:
#
# PCOD8110293 Si02
#       5
#     8   8   8   4   8
#     4  12  26  42  63  96 130 170 229 272 311 386
#     4  11  24  43  64  90 130 176 221 272 323 373
#     4   9  17  33  58  85 117 156 200 257 320 378
#     4   8  16  34  62  90 119 156 197 250 314 390
#     4  10  21  41  67  94 127 164 206 264 332 386
#
# _framework density 22.633889
#
# number of rings (size 3 to 8) (size 9 to 14) (size 15 to 20)
#    0.000    1.778    0.000    4.000    0.000    7.111 
#    6.000    0.000    0.000    0.000    0.000    0.000 
#    0.000    0.000    0.000    0.000    0.000    0.000 
#
# Total GULP energy -223158.653762 kJ/mol
# GULP energy per Si atom -12397.702987 kJ/mol
# Density = 2.258237 g / cm^3
# Si number density = 22.633889 Si / 1000 Ang^3
#
#
#
# Elastic Constant Matrix: (Units=GPa)
#
#
# Indices 1 2 3 4 5 6 
#
# 1 135.6436 1.0227 22.5629 0.0000 1.4532 0.0000
# 2 1.0227 43.9366 43.3734 0.0000 2.8331 0.0000
# 3 22.5629 43.3734 136.2745 0.0000 -23.5007 0.0000
# 4 0.0000 0.0000 0.0000 30.6260 0.0000 0.0114
# 5 1.4532 2.8331 -23.5007 0.0000 41.7361 0.0000
# 6 0.0000 0.0000 0.0000 0.0114 0.0000 12.0375
#
#
#
# Elastic Compliance Matrix: (Units=1/GPa)
#
#
# Indices 1 2 3 4 5 6 
#
# 1 0.007751 0.002163 -0.002263 0.000000 -0.001691 0.000000
# 2 0.002163 0.037221 -0.014014 0.000000 -0.010493 0.000000
# 3 -0.002263 -0.014014 0.013679 0.000000 0.008733 0.000000
# 4 0.000000 0.000000 0.000000 0.032652 0.000000 -0.000031
# 5 -0.001691 -0.010493 0.008733 0.000000 0.029648 0.000000
# 6 0.000000 0.000000 0.000000 -0.000031 0.000000 0.083073
#
#
# Mechanical properties :
#
#
# Convention : Reuss Voigt Hill
#
# Bulk Modulus (GPa) = 32.87154 49.97474 41.42314
# Shear Modulus (GPa) = 20.62749 33.47296 27.05022
#
# Velocity S-wave (km/s) = 3.02214 3.84980 3.46080
# Velocity P-wave (km/s) = 5.17034 6.47216 5.85753
#
# Compressibility (1/GPa) = 0.03042145
#
# Stress axis : x y z
#
# Youngs Moduli (GPa) = 129.02308 26.86647 73.10302
#
# Poissons Ratio (x) = -0.05811 0.16545
# Poissons Ratio (y) = -0.27907 1.02450
# Poissons Ratio (z) = 0.29202 0.37652
#
# Static dielectric constant tensor:
#      x y z
#    x 4.337190 0.000000 -0.090240 
#    y 0.000000 3.678900 0.000000 
#    z -0.090240 0.000000 4.367970 
# 
# 
# High freq. dielectric constant tensor:
#      x y z
#    x 1.916430 0.000000 -0.003210 
#    y 0.000000 1.874980 0.000000 
#    z -0.003210 0.000000 1.901180 
# 
# From -- ./inp_files/114978.got.cif
#   From: 2010.06.25/outbox.cif.g09.slc.cpg/sg12_58_cif.got.tgz:114978.got - 2010.06.28 00:19:55.
