data_PCOD8110429
_publ_section_title
;
Structure prediction by ZEFSAII (Michael W. Deem and Ramdas Pophale) SiO2 
 PCOD8110429
Probable space group: C 2/M
;
_chemical_formula_sum "Si O2"
_cell_formula_units_Z 40
_cell_length_a 7.170014
_cell_length_b 14.400965
_cell_length_c 17.442322
_cell_angle_alpha 90.000000
_cell_angle_beta 57.333136
_cell_angle_gamma 90.000000
_cell_volume 1516.130996
_symmetry_space_group_name_H-M "C 2/M"
_symmetry_group_IT_number 12
_symmetry_cell_setting 'monoclinic'
loop_
_space_group_symop_operation_xyz
x,y,z
-x,y,-z
-x,-y,-z
x,-y,z
1/2+x,1/2+y,z
1/2-x,1/2+y,-z
1/2-x,1/2-y,-z
1/2+x,1/2-y,z
loop_
_atom_site_type_symbol
_atom_site_label
_atom_site_fract_x
_atom_site_fract_y
_atom_site_fract_z
Si Si1 0.774001 0.857826 0.506482
Si Si2 0.416045 0.707261 0.800205
Si Si3 0.987239 0.605824 0.170624
Si Si4 0.327706 0.602730 0.970402
Si Si5 0.202749 0.400116 0.350385
O O1 0.750000 0.750000 0.500000
O O2 0.766014 0.905397 0.425886
O O3 0.561026 0.887786 0.603897
O O4 0.000000 0.885422 0.500000
O O5 0.258379 0.649027 0.779117
O O6 0.382814 0.820384 0.802959
O O7 0.366241 0.681789 0.899488
O O8 0.666976 0.682129 0.721265
O O9 0.991047 0.500000 0.202922
O O10 0.083530 0.607243 0.062762
O O11 0.363157 0.500000 0.925715
O O12 0.500000 0.618785 0.000000
O O13 0.270229 0.500000 0.299756
#
# Coordination Sequence:
#
# PCOD8110429 Si02
#       5
#     8   8   8   8   8
#     4  11  23  45  77 103 145 193 238 292 375 451
#     4  12  25  44  73 103 148 187 241 306 359 424
#     4  11  25  44  71 101 142 198 246 294 361 427
#     4  10  21  42  69 103 144 196 249 295 358 430
#     4  11  26  46  74 112 147 189 243 305 372 443
#
# _framework density 26.382946
#
# number of rings (size 3 to 8) (size 9 to 14) (size 15 to 20)
#    0.000    1.000    2.000    5.400    2.800    3.200 
#    3.600    2.000    0.000    0.000    0.000    0.000 
#    0.000    0.000    0.000    0.000    0.000    0.000 
#
# Total GULP energy -247937.292591 kJ/mol
# GULP energy per Si atom -12396.864630 kJ/mol
# Density = 2.632290 g / cm^3
# Si number density = 26.382946 Si / 1000 Ang^3
#
#
#
# Elastic Constant Matrix: (Units=GPa)
#
#
# Indices 1 2 3 4 5 6 
#
# 1 113.8869 18.9029 24.9534 -0.0002 -33.1721 0.0002
# 2 18.9029 229.4743 27.3611 -0.0001 -10.2560 0.0001
# 3 24.9534 27.3611 93.4716 -0.0004 -29.5234 0.0004
# 4 -0.0002 -0.0001 -0.0004 32.2984 0.0004 -2.0513
# 5 -33.1721 -10.2560 -29.5234 0.0004 30.0239 -0.0003
# 6 0.0002 0.0001 0.0004 -2.0513 -0.0003 24.6457
#
#
#
# Elastic Compliance Matrix: (Units=1/GPa)
#
#
# Indices 1 2 3 4 5 6 
#
# 1 0.013174 -0.000573 0.001721 0.000000 0.016052 0.000000
# 2 -0.000573 0.004543 -0.001286 0.000000 -0.000346 0.000000
# 3 0.001721 -0.001286 0.016068 0.000000 0.017262 0.000000
# 4 0.000000 0.000000 0.000000 0.031126 0.000000 0.002591
# 5 0.016052 -0.000346 0.017262 0.000000 0.067898 0.000001
# 6 0.000000 0.000000 0.000000 0.002591 0.000001 0.040791
#
#
# Mechanical properties :
#
#
# Convention : Reuss Voigt Hill
#
# Bulk Modulus (GPa) = 29.84332 64.36308 47.10320
# Shear Modulus (GPa) = 27.02040 41.76793 34.39417
#
# Velocity S-wave (km/s) = 3.20372 3.98319 3.61453
# Velocity P-wave (km/s) = 5.00213 6.75300 5.94240
#
# Compressibility (1/GPa) = 0.03350833
#
# Stress axis : x y z
#
# Youngs Moduli (GPa) = 75.90570 220.12507 62.23660
#
# Poissons Ratio (x) = 0.12613 -0.10710
# Poissons Ratio (y) = 0.04349 0.08004
# Poissons Ratio (z) = -0.13062 0.28310
#
# Static dielectric constant tensor:
#      x y z
#    x 5.220850 0.000000 -0.331150 
#    y 0.000000 5.031030 0.000000 
#    z -0.331150 0.000000 4.770610 
# 
# 
# High freq. dielectric constant tensor:
#      x y z
#    x 2.054070 0.000000 -0.015910 
#    y 0.000000 2.073530 0.000000 
#    z -0.015910 0.000000 2.047880 
# 
# From -- ./inp_files/332481.got.cif
#   From: 2010.06.25/outbox.cif.g09.slc.cpg/sg12_167_cif.got.tgz:332481.got - 2010.06.28 00:19:55.
