data_PCOD8110483
_publ_section_title
;
Structure prediction by ZEFSAII (Michael W. Deem and Ramdas Pophale) SiO2 
 PCOD8110483
Probable space group: C 2/M
;
_chemical_formula_sum "Si O2"
_cell_formula_units_Z 52
_cell_length_a 8.472870
_cell_length_b 21.343327
_cell_length_c 20.856532
_cell_angle_alpha 90.000000
_cell_angle_beta 43.152592
_cell_angle_gamma 90.000000
_cell_volume 2579.616307
_symmetry_space_group_name_H-M "C 2/M"
_symmetry_group_IT_number 12
_symmetry_cell_setting 'monoclinic'
loop_
_space_group_symop_operation_xyz
x,y,z
-x,y,-z
-x,-y,-z
x,-y,z
1/2+x,1/2+y,z
1/2-x,1/2+y,-z
1/2-x,1/2-y,-z
1/2+x,1/2-y,z
loop_
_atom_site_type_symbol
_atom_site_label
_atom_site_fract_x
_atom_site_fract_y
_atom_site_fract_z
Si Si1 0.004185 0.928796 0.074785
Si Si2 0.500000 0.835756 0.500000
Si Si3 0.649658 0.818278 0.017588
Si Si4 0.163822 0.324354 0.769267
Si Si5 0.117287 0.242817 0.666672
Si Si6 0.991821 0.570536 0.268413
Si Si7 0.230993 0.635824 0.557492
O O1 0.758145 0.911332 0.178285
O O2 0.079128 0.000000 0.073390
O O3 0.171250 0.874211 0.050238
O O4 0.000000 0.924936 0.000000
O O5 0.643491 0.794110 0.407560
O O6 0.322193 0.872390 0.503782
O O7 0.499597 0.837297 0.122812
O O8 0.500000 0.811512 0.000000
O O9 0.750000 0.750000 0.000000
O O10 0.066805 0.269135 0.752603
O O11 0.420503 0.307587 0.712636
O O12 0.176793 0.388311 0.725525
O O13 0.128933 0.297715 0.610809
O O14 0.948150 0.500000 0.260435
O O15 0.918182 0.581338 0.363961
O O16 0.500000 0.630434 0.500000
#
# Coordination Sequence:
#
# PCOD8110483 Si02
#       7
#     8   4   8   8   8   8   8
#     4  10  21  43  70  90 121 174 223 263 320 397
#     4  12  20  38  63  92 131 162 214 268 328 396
#     4  12  26  39  60  96 138 166 212 273 335 383
#     4  11  23  38  61  91 123 169 208 263 326 381
#     4  11  21  37  59  92 126 161 212 259 326 399
#     4  10  23  43  67  92 125 172 222 261 315 391
#     4  11  23  38  63  97 132 168 216 270 333 393
#
# _framework density 20.158037
#
# number of rings (size 3 to 8) (size 9 to 14) (size 15 to 20)
#    0.000    1.077    3.846    3.692    4.308    1.846 
#    0.000    0.385    0.000    2.769    0.000    0.000 
#    0.000    0.000    0.000    0.000    0.000    0.000 
#
# Total GULP energy -322228.819154 kJ/mol
# GULP energy per Si atom -12393.416121 kJ/mol
# Density = 2.011216 g / cm^3
# Si number density = 20.158037 Si / 1000 Ang^3
#
#
#
# Elastic Constant Matrix: (Units=GPa)
#
#
# Indices 1 2 3 4 5 6 
#
# 1 127.0299 48.0958 33.4255 -0.0001 4.6785 -0.0004
# 2 48.0958 108.2519 35.5596 -0.0001 -17.8485 0.0000
# 3 33.4255 35.5596 101.8616 -0.0003 -1.7081 -0.0001
# 4 -0.0001 -0.0001 -0.0003 17.7498 0.0001 -1.6920
# 5 4.6785 -17.8485 -1.7081 0.0001 36.6463 0.0001
# 6 -0.0004 0.0000 -0.0001 -1.6920 0.0001 26.8906
#
#
#
# Elastic Compliance Matrix: (Units=1/GPa)
#
#
# Indices 1 2 3 4 5 6 
#
# 1 0.010197 -0.004522 -0.001828 0.000000 -0.003590 0.000000
# 2 -0.004522 0.013407 -0.003080 0.000000 0.006963 0.000000
# 3 -0.001828 -0.003080 0.011480 0.000000 -0.000731 0.000000
# 4 0.000000 0.000000 0.000000 0.056679 0.000000 0.003566
# 5 -0.003590 0.006963 -0.000731 0.000000 0.031104 0.000000
# 6 0.000000 0.000000 0.000000 0.003566 0.000000 0.037412
#
#
# Mechanical properties :
#
#
# Convention : Reuss Voigt Hill
#
# Bulk Modulus (GPa) = 61.63325 63.47834 62.55580
# Shear Modulus (GPa) = 27.09361 30.92817 29.01089
#
# Velocity S-wave (km/s) = 3.67012 3.92124 3.79776
# Velocity P-wave (km/s) = 6.97145 7.21528 7.09441
#
# Compressibility (1/GPa) = 0.01622501
#
# Stress axis : x y z
#
# Youngs Moduli (GPa) = 98.06357 74.59015 87.10944
#
# Poissons Ratio (x) = 0.33731 0.15922
# Poissons Ratio (y) = 0.44346 0.26826
# Poissons Ratio (z) = 0.17924 0.22970
#
# Static dielectric constant tensor:
#      x y z
#    x 4.003690 0.000020 0.591540 
#    y 0.000020 3.107790 0.000020 
#    z 0.591540 0.000020 4.692360 
# 
# 
# High freq. dielectric constant tensor:
#      x y z
#    x 1.780030 0.000000 -0.000440 
#    y 0.000000 1.771760 0.000000 
#    z -0.000440 0.000000 1.803520 
# 
# From -- ./inp_files/302271.got.cif
#   From: 2010.06.25/outbox.cif.g09.slc.cpg/sg12_152_cif.got.tgz:302271.got - 2010.06.28 00:19:55.
