data_PCOD8110183
_publ_section_title
;
Structure prediction by ZEFSAII (Michael W. Deem and Ramdas Pophale) SiO2 
 PCOD8110183
Probable space group: C 2/M
;
_chemical_formula_sum "Si O2"
_cell_formula_units_Z 44
_cell_length_a 22.348309
_cell_length_b 17.721612
_cell_length_c 5.241868
_cell_angle_alpha 90.000000
_cell_angle_beta 96.788477
_cell_angle_gamma 90.000000
_cell_volume 2061.477224
_symmetry_space_group_name_H-M "C 2/M"
_symmetry_group_IT_number 12
_symmetry_cell_setting 'monoclinic'
loop_
_space_group_symop_operation_xyz
x,y,z
-x,y,-z
-x,-y,-z
x,-y,z
1/2+x,1/2+y,z
1/2-x,1/2+y,-z
1/2-x,1/2-y,-z
1/2+x,1/2-y,z
loop_
_atom_site_type_symbol
_atom_site_label
_atom_site_fract_x
_atom_site_fract_y
_atom_site_fract_z
Si Si1 0.849288 0.913349 0.843231
Si Si2 0.086099 0.584489 0.673652
Si Si3 0.273294 0.587430 0.309298
Si Si4 0.566687 0.279529 0.150740
Si Si5 0.500000 0.199599 0.500000
Si Si6 0.855478 0.640196 0.822265
O O1 0.807500 0.890177 0.585299
O O2 0.910471 0.864672 0.863785
O O3 0.869604 0.000000 0.831391
O O4 0.816071 0.897261 0.091058
O O5 0.061004 0.500000 0.640409
O O6 0.031251 0.641801 0.718792
O O7 0.112921 0.607439 0.412791
O O8 0.134682 0.587058 0.925998
O O9 0.252520 0.500000 0.308314
O O10 0.216011 0.642381 0.262054
O O11 0.553972 0.253937 0.434067
O O12 0.619106 0.222674 0.081174
O O13 0.500000 0.269915 0.000000
#
# Coordination Sequence:
#
# PCOD8110183 Si02
#       6
#     8   8   8   8   4   8
#     4  10  24  42  67  93 120 161 210 262 318 365
#     4  11  21  36  59  90 124 168 208 240 295 367
#     4  10  21  41  63  93 126 155 205 262 307 370
#     4  11  24  43  63  88 132 163 209 260 306 371
#     4  10  23  40  57  86 126 168 200 262 295 358
#     4  11  23  38  64  94 127 166 202 250 315 364
#
# _framework density 21.343917000000001
#
# number of rings (size 3 to 8) (size 9 to 14) (size 15 to 20)
#    0.000    1.455    1.818    3.000    2.545    3.273 
#    0.000    3.182    0.000    0.000    0.000    0.000 
#    0.000    0.000    0.000    0.000    0.000    0.000 
#
# Total GULP energy -272639.462041 kJ/mol
# GULP energy per Si atom -12392.702820 kJ/mol
# Density = 2.129534 g / cm^3
# Si number density = 21.343917 Si / 1000 Ang^3
#
#
#
# Elastic Constant Matrix: (Units=GPa)
#
#
# Indices 1 2 3 4 5 6 
#
# 1 97.1276 65.3990 10.7528 0.0000 6.6959 0.0000
# 2 65.3990 113.6721 18.9068 0.0000 -0.7434 0.0000
# 3 10.7528 18.9068 102.6127 0.0000 -0.3215 0.0000
# 4 0.0000 0.0000 0.0000 16.9240 0.0000 4.9773
# 5 6.6959 -0.7434 -0.3215 0.0000 25.8019 0.0000
# 6 0.0000 0.0000 0.0000 4.9773 0.0000 40.7866
#
#
#
# Elastic Compliance Matrix: (Units=1/GPa)
#
#
# Indices 1 2 3 4 5 6 
#
# 1 0.017381 -0.010033 0.000012 0.000000 -0.004799 0.000000
# 2 -0.010033 0.014869 -0.001679 0.000000 0.003011 0.000000
# 3 0.000012 -0.001679 0.010054 0.000000 0.000074 0.000000
# 4 0.000000 0.000000 0.000000 0.061287 0.000000 -0.007479
# 5 -0.004799 0.003011 0.000074 0.000000 0.040090 0.000000
# 6 0.000000 0.000000 0.000000 -0.007479 0.000000 0.025431
#
#
# Mechanical properties :
#
#
# Convention : Reuss Voigt Hill
#
# Bulk Modulus (GPa) = 52.89964 55.94772 54.42368
# Shear Modulus (GPa) = 25.14943 31.25942 28.20442
#
# Velocity S-wave (km/s) = 3.43635 3.83111 3.63909
# Velocity P-wave (km/s) = 6.37047 6.77047 6.57351
#
# Compressibility (1/GPa) = 0.01890372
#
# Stress axis : x y z
#
# Youngs Moduli (GPa) = 57.53438 67.25604 99.46640
#
# Poissons Ratio (x) = 0.67479 -0.00122
# Poissons Ratio (y) = 0.57725 0.16698
# Poissons Ratio (z) = -0.00071 0.11291
#
# Static dielectric constant tensor:
#      x y z
#    x 3.800780 0.000000 -0.036290 
#    y 0.000000 3.806000 0.000000 
#    z -0.036290 0.000000 3.998460 
# 
# 
# High freq. dielectric constant tensor:
#      x y z
#    x 1.827130 0.000000 0.003070 
#    y 0.000000 1.828890 0.000000 
#    z 0.003070 0.000000 1.848500 
# 
# From -- ./inp_files/20418.got.cif
#   From: 2010.06.25/outbox.cif.g09.slc.cpg/sg12_11_cif.got.tgz:20418.got - 2010.06.28 00:19:55.
