data_PCOD8110214
_publ_section_title
;
Structure prediction by ZEFSAII (Michael W. Deem and Ramdas Pophale) SiO2 
 PCOD8110214
Probable space group: C 2/M
;
_chemical_formula_sum "Si O2"
_cell_formula_units_Z 56
_cell_length_a 17.094507
_cell_length_b 16.350922
_cell_length_c 20.837406
_cell_angle_alpha 90.000000
_cell_angle_beta 154.273151
_cell_angle_gamma 90.000000
_cell_volume 2528.212316
_symmetry_space_group_name_H-M "C 2/M"
_symmetry_group_IT_number 12
_symmetry_cell_setting 'monoclinic'
loop_
_space_group_symop_operation_xyz
x,y,z
-x,y,-z
-x,-y,-z
x,-y,z
1/2+x,1/2+y,z
1/2-x,1/2+y,-z
1/2-x,1/2-y,-z
1/2+x,1/2-y,z
loop_
_atom_site_type_symbol
_atom_site_label
_atom_site_fract_x
_atom_site_fract_y
_atom_site_fract_z
Si Si1 0.297639 0.670158 0.848727
Si Si2 0.690762 0.631991 0.666694
Si Si3 0.702112 0.178278 0.642721
Si Si4 0.949412 0.592928 0.244647
Si Si5 0.797394 0.098147 0.580767
Si Si6 0.427821 0.090958 0.088964
Si Si7 0.664598 0.661182 0.790943
O O1 0.287695 0.638020 0.768895
O O2 0.233691 0.597620 0.848298
O O3 0.162155 0.742702 0.771164
O O4 0.500000 0.701964 0.000000
O O5 0.500000 0.597271 0.500000
O O6 0.719134 0.723947 0.661349
O O7 0.859220 0.581165 0.765815
O O8 0.697832 0.616974 0.748144
O O9 0.500000 0.148675 0.500000
O O10 0.793143 0.142207 0.646639
O O11 0.994432 0.500000 0.261862
O O12 0.124256 0.627867 0.411649
O O13 0.909939 0.634320 0.146004
O O14 0.974484 0.131866 0.677392
O O15 0.804140 0.000000 0.594310
O O16 0.341189 0.000000 0.023399
O O17 0.325465 0.144961 0.960269
#
# Coordination Sequence:
#
# PCOD8110214 Si02
#       7
#     8   8   8   8   8   8   8
#     4  11  24  42  65  95 132 174 219 266 327 387
#     4  10  22  41  65  95 129 170 220 268 326 386
#     4  10  21  41  64  97 130 169 220 268 319 385
#     4  10  24  43  63  97 134 171 219 270 328 390
#     4  11  24  42  68 100 134 174 219 268 327 388
#     4  11  24  42  64  93 132 174 218 272 330 388
#     4  11  24  41  65  97 130 167 220 270 322 389
#
# _framework density 22.150037999999999
#
# number of rings (size 3 to 8) (size 9 to 14) (size 15 to 20)
#    0.000    1.429    1.429    3.429    4.000    4.286 
#    0.000    0.000    0.000    0.000    0.000    0.000 
#    0.000    0.000    0.000    0.000    0.000    0.000 
#
# Total GULP energy -346982.384139 kJ/mol
# GULP energy per Si atom -12392.228005 kJ/mol
# Density = 2.209962 g / cm^3
# Si number density = 22.150038 Si / 1000 Ang^3
#
#
#
# Elastic Constant Matrix: (Units=GPa)
#
#
# Indices 1 2 3 4 5 6 
#
# 1 152.4378 38.6533 61.8232 -0.0544 -22.1423 0.0048
# 2 38.6533 51.1214 24.3852 -0.0235 -3.5885 -0.0051
# 3 61.8232 24.3852 123.3696 -0.0587 -19.1048 -0.0076
# 4 -0.0544 -0.0235 -0.0587 27.7579 -0.0264 5.4493
# 5 -22.1423 -3.5885 -19.1048 -0.0264 54.8673 -0.0018
# 6 0.0048 -0.0051 -0.0076 5.4493 -0.0018 22.3064
#
#
#
# Elastic Compliance Matrix: (Units=1/GPa)
#
#
# Indices 1 2 3 4 5 6 
#
# 1 0.009683 -0.005538 -0.003392 0.000011 0.002365 -0.000007
# 2 -0.005538 0.024765 -0.002341 0.000003 -0.001430 0.000005
# 3 -0.003392 -0.002341 0.010604 0.000016 0.002171 0.000000
# 4 0.000011 0.000003 0.000016 0.037841 0.000028 -0.009244
# 5 0.002365 -0.001430 0.002171 0.000028 0.019842 -0.000005
# 6 -0.000007 0.000005 0.000000 -0.009244 -0.000005 0.047088
#
#
# Mechanical properties :
#
#
# Convention : Reuss Voigt Hill
#
# Bulk Modulus (GPa) = 44.42337 64.07247 54.24792
# Shear Modulus (GPa) = 27.79796 34.45746 31.12771
#
# Velocity S-wave (km/s) = 3.54642 3.94844 3.75282
# Velocity P-wave (km/s) = 6.07196 7.05523 6.58198
#
# Compressibility (1/GPa) = 0.02251067
#
# Stress axis : x y z
#
# Youngs Moduli (GPa) = 103.27070 40.37974 94.30104
#
# Poissons Ratio (x) = 0.22361 0.31984
# Poissons Ratio (y) = 0.57189 0.22080
# Poissons Ratio (z) = 0.35027 0.09455
#
# Static dielectric constant tensor:
#      x y z
#    x 4.163050 -0.000010 -0.197430 
#    y -0.000010 3.706440 -0.000090 
#    z -0.197430 -0.000090 4.042780 
# 
# 
# High freq. dielectric constant tensor:
#      x y z
#    x 1.889970 0.000000 -0.009380 
#    y 0.000000 1.849240 -0.000010 
#    z -0.009380 -0.000010 1.880890 
# 
# From -- ./inp_files/272423.got.cif
#   From: 2010.06.25/outbox.cif.g09.slc.cpg/sg12_137_cif.got.tgz:272423.got - 2010.06.28 00:19:55.
