data_PCOD8110789
_publ_section_title
;
Structure prediction by ZEFSAII (Michael W. Deem and Ramdas Pophale) SiO2 
 PCOD8110789
Probable space group: C 2/M
;
_chemical_formula_sum "Si O2"
_cell_formula_units_Z 56
_cell_length_a 26.781456
_cell_length_b 13.418839
_cell_length_c 8.752045
_cell_angle_alpha 90.000000
_cell_angle_beta 117.898383
_cell_angle_gamma 90.000000
_cell_volume 2779.727768
_symmetry_space_group_name_H-M "C 2/M"
_symmetry_group_IT_number 12
_symmetry_cell_setting 'monoclinic'
loop_
_space_group_symop_operation_xyz
x,y,z
-x,y,-z
-x,-y,-z
x,-y,z
1/2+x,1/2+y,z
1/2-x,1/2+y,-z
1/2-x,1/2-y,-z
1/2+x,1/2-y,z
loop_
_atom_site_type_symbol
_atom_site_label
_atom_site_fract_x
_atom_site_fract_y
_atom_site_fract_z
Si Si1 0.875814 0.388877 0.159088
Si Si2 0.164999 0.259494 0.639319
Si Si3 0.044197 0.886416 0.793604
Si Si4 0.238781 0.610731 0.186817
Si Si5 0.438287 0.796475 0.980520
Si Si6 0.660812 0.885173 0.350874
Si Si7 0.423537 0.387472 0.501284
O O1 0.886435 0.500000 0.236910
O O2 0.876304 0.310271 0.296135
O O3 0.813724 0.379631 0.000311
O O4 0.925185 0.366804 0.107549
O O5 0.218127 0.200606 0.787880
O O6 0.182806 0.343730 0.544321
O O7 0.126549 0.177539 0.498901
O O8 0.079666 0.878419 0.688027
O O9 0.981530 0.849956 0.658976
O O10 0.045283 0.000000 0.855582
O O11 0.066928 0.817194 0.963978
O O12 0.266609 0.500000 0.206518
O O13 0.216012 0.623034 0.325496
O O14 0.391366 0.818613 0.784972
O O15 0.500000 0.819531 0.000000
O O16 0.640724 0.000000 0.335557
O O17 0.413671 0.500000 0.537722
#
# Coordination Sequence:
#
# PCOD8110789 Si02
#       7
#     8   8   8   8   8   8   8
#     4  10  22  38  56  82 113 145 189 238 279 322
#     4  12  19  35  61  86 107 145 193 229 275 333
#     4   9  18  35  55  80 114 145 176 227 285 329
#     4   9  20  38  58  81 112 147 180 225 289 343
#     4  11  21  38  59  80 109 156 193 223 275 338
#     4  10  23  39  55  81 117 152 186 231 282 323
#     4   9  18  32  55  85 114 140 175 229 287 331
#
# _framework density 20.145858
#
# number of rings (size 3 to 8) (size 9 to 14) (size 15 to 20)
#    0.000    2.000    1.429    4.714    0.000    1.429 
#    0.000    1.429    0.000    6.000    0.000    0.000 
#    0.000    0.000    0.000    0.000    0.000    0.000 
#
# Total GULP energy -347056.932302 kJ/mol
# GULP energy per Si atom -12394.890439 kJ/mol
# Density = 2.010000 g / cm^3
# Si number density = 20.145858 Si / 1000 Ang^3
#
#
#
# Elastic Constant Matrix: (Units=GPa)
#
#
# Indices 1 2 3 4 5 6 
#
# 1 62.9864 40.0984 1.9079 0.0000 1.4069 0.0000
# 2 40.0984 124.7804 37.4711 0.0000 7.8393 0.0000
# 3 1.9079 37.4711 41.8999 0.0000 -3.1844 0.0000
# 4 0.0000 0.0000 0.0000 31.7779 0.0000 1.7037
# 5 1.4069 7.8393 -3.1844 0.0000 19.7845 0.0000
# 6 0.0000 0.0000 0.0000 1.7037 0.0000 32.1488
#
#
#
# Elastic Compliance Matrix: (Units=1/GPa)
#
#
# Indices 1 2 3 4 5 6 
#
# 1 0.021609 -0.009497 0.007774 0.000000 0.003478 0.000000
# 2 -0.009497 0.015880 -0.014372 0.000000 -0.007930 0.000000
# 3 0.007774 -0.014372 0.037211 0.000000 0.011131 0.000000
# 4 0.000000 0.000000 0.000000 0.031558 0.000000 -0.001672
# 5 0.003478 -0.007930 0.011131 0.000000 0.055231 0.000000
# 6 0.000000 0.000000 0.000000 -0.001672 0.000000 0.031194
#
#
# Mechanical properties :
#
#
# Convention : Reuss Voigt Hill
#
# Bulk Modulus (GPa) = 23.52396 43.18015 33.35206
# Shear Modulus (GPa) = 20.91668 26.75484 23.83576
#
# Velocity S-wave (km/s) = 3.22570 3.64820 3.44344
# Velocity P-wave (km/s) = 5.05724 6.26308 5.69218
#
# Compressibility (1/GPa) = 0.04250985
#
# Stress axis : x y z
#
# Youngs Moduli (GPa) = 46.27640 62.97262 26.87379
#
# Poissons Ratio (x) = 0.59805 -0.20890
# Poissons Ratio (y) = 0.43949 0.38622
# Poissons Ratio (z) = -0.35973 0.90502
#
# Static dielectric constant tensor:
#      x y z
#    x 3.539090 0.000000 -0.104440 
#    y 0.000000 3.787420 0.000000 
#    z -0.104440 0.000000 3.368970 
# 
# 
# High freq. dielectric constant tensor:
#      x y z
#    x 1.776870 0.000000 -0.006010 
#    y 0.000000 1.800290 0.000000 
#    z -0.006010 0.000000 1.763370 
# 
# From -- ./inp_files/96508.got.cif
#   From: 2010.06.25/outbox.cif.g09.slc.cpg/sg12_49_cif.got.tgz:96508.got - 2010.06.28 00:19:55.
