data_PCOD8110787
_publ_section_title
;
Structure prediction by ZEFSAII (Michael W. Deem and Ramdas Pophale) SiO2 
 PCOD8110787
Probable space group: C 2/M
;
_chemical_formula_sum "Si O2"
_cell_formula_units_Z 48
_cell_length_a 23.393189
_cell_length_b 17.267917
_cell_length_c 22.195966
_cell_angle_alpha 90.000000
_cell_angle_beta 161.593683
_cell_angle_gamma 90.000000
_cell_volume 2831.077863
_symmetry_space_group_name_H-M "C 2/M"
_symmetry_group_IT_number 12
_symmetry_cell_setting 'monoclinic'
loop_
_space_group_symop_operation_xyz
x,y,z
-x,y,-z
-x,-y,-z
x,-y,z
1/2+x,1/2+y,z
1/2-x,1/2+y,-z
1/2-x,1/2-y,-z
1/2+x,1/2-y,z
loop_
_atom_site_type_symbol
_atom_site_label
_atom_site_fract_x
_atom_site_fract_y
_atom_site_fract_z
Si Si1 0.454655 0.000000 0.703339
Si Si2 0.750059 0.729376 0.901974
Si Si3 0.749986 0.124437 0.981632
Si Si4 0.043930 0.335863 0.112127
Si Si5 0.542141 0.000000 0.924474
Si Si6 0.454671 0.500000 0.705955
Si Si7 0.956125 0.835858 0.524319
Si Si8 0.542185 0.500000 0.659830
O O1 0.565838 0.074955 0.792449
O O2 0.429512 0.000000 0.750336
O O3 0.249983 0.000000 0.471369
O O4 0.750059 0.816128 0.926650
O O5 0.572121 0.717924 0.684142
O O6 0.750090 0.666544 0.954569
O O7 0.927978 0.717939 0.039995
O O8 0.934149 0.074958 0.160798
O O9 0.001525 0.426192 0.078545
O O10 0.250030 0.317571 0.333775
O O11 0.000000 0.313328 0.000000
O O12 0.749987 0.000000 0.111837
O O13 0.429499 0.500000 0.608642
O O14 0.000000 0.813298 0.500000
O O15 0.998523 0.926192 0.575519
#
# Coordination Sequence:
#
# PCOD8110787 Si02
#       8
#     4   8   8   8   4   4   8   4
#     4  11  19  35  58  81 108 146 191 231 280 332
#     4  11  22  38  54  80 118 153 190 228 278 329
#     4  10  22  38  56  80 116 152 186 236 277 327
#     4  12  22  35  53  79 114 154 192 225 269 329
#     4  12  19  34  51  78 116 154 192 226 261 321
#     4  11  19  35  58  81 108 146 191 231 280 332
#     4  12  22  35  53  79 114 154 192 225 269 329
#     4  12  19  34  51  78 116 154 192 226 261 321
#
# _framework density 16.954673
#
# number of rings (size 3 to 8) (size 9 to 14) (size 15 to 20)
#    0.000    0.667    8.333    2.000    0.000    1.333 
#    0.000    3.333    0.000    0.000    0.000    4.667 
#    0.000    0.000    0.000    0.000    0.000    0.000 
#
# Total GULP energy -297699.565839 kJ/mol
# GULP energy per Si atom -12404.148577 kJ/mol
# Density = 1.691608 g / cm^3
# Si number density = 16.954673 Si / 1000 Ang^3
#
#
#
# Elastic Constant Matrix: (Units=GPa)
#
#
# Indices 1 2 3 4 5 6 
#
# 1 97.3825 59.8067 52.7101 -0.0100 -0.9085 -0.0224
# 2 59.8067 104.2223 56.5501 -0.0407 -0.8787 0.0179
# 3 52.7101 56.5501 160.6530 0.0064 19.0926 0.0192
# 4 -0.0100 -0.0407 0.0064 21.4967 -0.0140 -2.4618
# 5 -0.9085 -0.8787 19.0926 -0.0140 26.4339 -0.0012
# 6 -0.0224 0.0179 0.0192 -2.4618 -0.0012 30.1560
#
#
#
# Elastic Compliance Matrix: (Units=1/GPa)
#
#
# Indices 1 2 3 4 5 6 
#
# 1 0.016836 -0.008014 -0.002997 -0.000003 0.002477 0.000019
# 2 -0.008014 0.016021 -0.003326 0.000028 0.002659 -0.000011
# 3 -0.002997 -0.003326 0.009193 -0.000016 -0.006854 -0.000008
# 4 -0.000003 0.000028 -0.000016 0.046958 0.000037 0.003833
# 5 0.002477 0.002659 -0.006854 0.000037 0.042954 0.000009
# 6 0.000019 -0.000011 -0.000008 0.003833 0.000009 0.033474
#
#
# Mechanical properties :
#
#
# Convention : Reuss Voigt Hill
#
# Bulk Modulus (GPa) = 74.76404 77.82127 76.29266
# Shear Modulus (GPa) = 25.18021 28.49669 26.83845
#
# Velocity S-wave (km/s) = 3.85794 4.10415 3.98295
# Velocity P-wave (km/s) = 8.00232 8.27393 8.13926
#
# Compressibility (1/GPa) = 0.01337541
#
# Stress axis : x y z
#
# Youngs Moduli (GPa) = 59.39679 62.41960 108.77491
#
# Poissons Ratio (x) = 0.50022 0.32604
# Poissons Ratio (y) = 0.47600 0.36178
# Poissons Ratio (z) = 0.17803 0.20761
#
# Static dielectric constant tensor:
#      x y z
#    x 3.044860 -0.000040 0.089130 
#    y -0.000040 3.100290 -0.000120 
#    z 0.089130 -0.000120 3.355810 
# 
# 
# High freq. dielectric constant tensor:
#      x y z
#    x 1.641140 0.000000 0.008590 
#    y 0.000000 1.630150 -0.000010 
#    z 0.008590 -0.000010 1.671100 
# 
# From -- ./inp_files/317915.got.cif
#   From: 2010.06.25/outbox.cif.g09.slc.cpg/sg12_159_cif.got.tgz:317915.got - 2010.06.28 00:19:55.
