data_PCOD8110702
_publ_section_title
;
Structure prediction by ZEFSAII (Michael W. Deem and Ramdas Pophale) SiO2 
 PCOD8110702
Probable space group: C 2/M
;
_chemical_formula_sum "Si O2"
_cell_formula_units_Z 56
_cell_length_a 17.455133
_cell_length_b 11.569212
_cell_length_c 15.553330
_cell_angle_alpha 90.000000
_cell_angle_beta 120.312594
_cell_angle_gamma 90.000000
_cell_volume 2711.467090
_symmetry_space_group_name_H-M "C 2/M"
_symmetry_group_IT_number 12
_symmetry_cell_setting 'monoclinic'
loop_
_space_group_symop_operation_xyz
x,y,z
-x,y,-z
-x,-y,-z
x,-y,z
1/2+x,1/2+y,z
1/2-x,1/2+y,-z
1/2-x,1/2-y,-z
1/2+x,1/2-y,z
loop_
_atom_site_type_symbol
_atom_site_label
_atom_site_fract_x
_atom_site_fract_y
_atom_site_fract_z
Si Si1 0.997693 0.667172 0.196765
Si Si2 0.760949 0.277810 0.344854
Si Si3 0.188641 0.365174 0.984997
Si Si4 0.414719 0.626465 0.691465
Si Si5 0.467857 0.000000 0.630961
Si Si6 0.415766 0.627761 0.496946
Si Si7 0.345306 0.127177 0.839377
Si Si8 0.631671 0.000000 0.596461
O O1 0.009453 0.804772 0.213783
O O2 0.057433 0.629262 0.149443
O O3 0.895119 0.636139 0.126687
O O4 0.032778 0.610625 0.306205
O O5 0.678882 0.307862 0.359282
O O6 0.825524 0.196594 0.435321
O O7 0.724672 0.216582 0.239086
O O8 0.812096 0.390210 0.343212
O O9 0.229659 0.500000 0.000575
O O10 0.250000 0.250000 0.000000
O O11 0.147782 0.345168 0.055985
O O12 0.406837 0.500000 0.729865
O O13 0.443858 0.616679 0.610662
O O14 0.546991 0.000000 0.608477
O O15 0.384148 0.000000 0.517076
O O16 0.500000 0.691300 0.500000
O O17 0.402496 0.500000 0.449064
O O18 0.305069 0.000000 0.802491
#
# Coordination Sequence:
#
# PCOD8110702 Si02
#       8
#     8   8   8   8   4   8   8   4
#     4  11  22  42  70  89 125 170 216 269 319 394
#     4  11  22  39  60  86 127 169 207 268 321 388
#     4  11  25  44  70 104 134 168 214 276 336 398
#     4  10  22  40  58  87 123 166 210 262 326 387
#     4  11  24  40  63  96 121 174 222 266 325 382
#     4  10  22  37  57  85 119 164 216 267 320 379
#     4  10  22  42  67  96 124 166 224 265 321 383
#     4  11  26  38  60  94 135 167 218 269 326 392
#
# _framework density 20.653026000000001
#
# number of rings (size 3 to 8) (size 9 to 14) (size 15 to 20)
#    0.000    1.429    2.143    2.143    6.000    2.857 
#    0.000    2.857    0.000    2.571    0.000    0.000 
#    0.000    0.000    0.000    0.000    0.000    0.000 
#
# Total GULP energy -346960.473237 kJ/mol
# GULP energy per Si atom -12391.445473 kJ/mol
# Density = 2.060602 g / cm^3
# Si number density = 20.653026 Si / 1000 Ang^3
#
#
#
# Elastic Constant Matrix: (Units=GPa)
#
#
# Indices 1 2 3 4 5 6 
#
# 1 84.3777 49.0100 33.9064 0.0000 -7.7134 0.0000
# 2 49.0100 147.6820 48.5837 0.0000 10.2996 0.0000
# 3 33.9064 48.5837 78.3490 0.0000 -0.9336 0.0000
# 4 0.0000 0.0000 0.0000 33.1407 0.0000 4.0859
# 5 -7.7134 10.2996 -0.9336 0.0000 33.0074 0.0000
# 6 0.0000 0.0000 0.0000 4.0859 0.0000 30.7147
#
#
#
# Elastic Compliance Matrix: (Units=1/GPa)
#
#
# Indices 1 2 3 4 5 6 
#
# 1 0.016672 -0.004446 -0.004397 0.000000 0.005159 0.000000
# 2 -0.004446 0.009960 -0.004303 0.000000 -0.004269 0.000000
# 3 -0.004397 -0.004303 0.017344 0.000000 0.000806 0.000000
# 4 0.000000 0.000000 0.000000 0.030678 0.000000 -0.004081
# 5 0.005159 -0.004269 0.000806 0.000000 0.032857 0.000000
# 6 0.000000 0.000000 0.000000 -0.004081 0.000000 0.033101
#
#
# Mechanical properties :
#
#
# Convention : Reuss Voigt Hill
#
# Bulk Modulus (GPa) = 56.54558 63.71210 60.12884
# Shear Modulus (GPa) = 28.93556 31.29980 30.11768
#
# Velocity S-wave (km/s) = 3.74710 3.89717 3.82287
# Velocity P-wave (km/s) = 6.79406 7.15307 6.97587
#
# Compressibility (1/GPa) = 0.01768485
#
# Stress axis : x y z
#
# Youngs Moduli (GPa) = 59.97914 100.40018 57.65738
#
# Poissons Ratio (x) = 0.44642 0.25349
# Poissons Ratio (y) = 0.26669 0.24809
# Poissons Ratio (z) = 0.26370 0.43201
#
# Static dielectric constant tensor:
#      x y z
#    x 3.683700 0.000000 -0.033380 
#    y 0.000000 4.290510 0.000000 
#    z -0.033380 0.000000 3.581680 
# 
# 
# High freq. dielectric constant tensor:
#      x y z
#    x 1.801960 0.000000 -0.006420 
#    y 0.000000 1.828240 0.000000 
#    z -0.006420 0.000000 1.794250 
# 
# From -- ./inp_files/223950.got.cif
#   From: 2010.06.25/outbox.cif.g09.slc.cpg/sg12_112_cif.got.tgz:223950.got - 2010.06.28 00:19:55.
