data_PCOD8110411
_publ_section_title
;
Structure prediction by ZEFSAII (Michael W. Deem and Ramdas Pophale) SiO2 
 PCOD8110411
Probable space group: C 2/M
;
_chemical_formula_sum "Si O2"
_cell_formula_units_Z 56
_cell_length_a 8.996814
_cell_length_b 19.275451
_cell_length_c 30.131885
_cell_angle_alpha 90.000000
_cell_angle_beta 148.385284
_cell_angle_gamma 90.000000
_cell_volume 2739.179289
_symmetry_space_group_name_H-M "C 2/M"
_symmetry_group_IT_number 12
_symmetry_cell_setting 'monoclinic'
loop_
_space_group_symop_operation_xyz
x,y,z
-x,y,-z
-x,-y,-z
x,-y,z
1/2+x,1/2+y,z
1/2-x,1/2+y,-z
1/2-x,1/2-y,-z
1/2+x,1/2-y,z
loop_
_atom_site_type_symbol
_atom_site_label
_atom_site_fract_x
_atom_site_fract_y
_atom_site_fract_z
Si Si1 0.557455 0.578563 0.962692
Si Si2 0.321961 0.921273 0.859813
Si Si3 0.171833 0.324579 0.806564
Si Si4 0.299234 0.158235 0.578363
Si Si5 0.622526 0.795158 0.577759
Si Si6 0.220121 0.419409 0.740903
Si Si7 0.778736 0.187989 0.236309
O O1 0.462605 0.500000 0.923752
O O2 0.409082 0.640473 0.898213
O O3 0.500000 0.588044 0.000000
O O4 0.893821 0.587001 0.038880
O O5 0.349076 0.877116 0.822121
O O6 0.051140 0.898429 0.820400
O O7 0.281242 0.000000 0.833377
O O8 0.084901 0.382509 0.748890
O O9 0.274699 0.255645 0.807630
O O10 0.896347 0.301182 0.763347
O O11 0.375525 0.197552 0.551823
O O12 0.233763 0.216738 0.598826
O O13 0.551311 0.106638 0.654807
O O14 0.000000 0.116212 0.500000
O O15 0.500000 0.826153 0.500000
O O16 0.901348 0.832463 0.668419
O O17 0.175069 0.500000 0.735250
#
# Coordination Sequence:
#
# PCOD8110411 Si02
#       7
#     8   8   8   8   8   8   8
#     4  10  21  42  67  94 127 169 215 260 315 381
#     4  10  22  43  67  91 126 172 211 256 318 381
#     4  12  25  40  65  96 128 166 217 268 314 382
#     4  11  22  38  64  93 127 164 207 263 317 381
#     4  11  22  38  65  97 124 166 210 257 315 376
#     4  11  24  42  64  92 127 170 214 263 321 379
#     4  12  23  40  67  95 129 166 211 266 319 372
#
# _framework density 20.44408
#
# number of rings (size 3 to 8) (size 9 to 14) (size 15 to 20)
#    0.000    1.000    4.286    3.857    2.000    2.000 
#    0.000    2.143    0.000    0.857    0.000    0.000 
#    0.000    0.000    0.000    0.000    0.000    0.000 
#
# Total GULP energy -347097.749301 kJ/mol
# GULP energy per Si atom -12396.348189 kJ/mol
# Density = 2.039755 g / cm^3
# Si number density = 20.444080 Si / 1000 Ang^3
#
#
#
# Elastic Constant Matrix: (Units=GPa)
#
#
# Indices 1 2 3 4 5 6 
#
# 1 128.4544 50.0363 33.4556 -0.0032 11.5553 0.0009
# 2 50.0363 78.2661 37.5166 -0.0033 -2.6974 -0.0006
# 3 33.4556 37.5166 113.6367 0.0017 8.7996 -0.0004
# 4 -0.0032 -0.0033 0.0017 28.3731 -0.0018 0.9906
# 5 11.5553 -2.6974 8.7996 -0.0018 34.5376 0.0010
# 6 0.0009 -0.0006 -0.0004 0.9906 0.0010 24.3094
#
#
#
# Elastic Compliance Matrix: (Units=1/GPa)
#
#
# Indices 1 2 3 4 5 6 
#
# 1 0.010988 -0.006847 -0.000661 0.000000 -0.004042 0.000000
# 2 -0.006847 0.019662 -0.004868 0.000002 0.005067 0.000000
# 3 -0.000661 -0.004868 0.010828 -0.000001 -0.002918 0.000000
# 4 0.000000 0.000002 -0.000001 0.035295 0.000002 -0.001438
# 5 -0.004042 0.005067 -0.002918 0.000002 0.031445 -0.000001
# 6 0.000000 0.000000 0.000000 -0.001438 -0.000001 0.041195
#
#
# Mechanical properties :
#
#
# Convention : Reuss Voigt Hill
#
# Bulk Modulus (GPa) = 59.78958 62.48601 61.13780
# Shear Modulus (GPa) = 27.81784 30.73393 29.27589
#
# Velocity S-wave (km/s) = 3.69274 3.88147 3.78828
# Velocity P-wave (km/s) = 6.89135 7.12169 7.00747
#
# Compressibility (1/GPa) = 0.01672532
#
# Stress axis : x y z
#
# Youngs Moduli (GPa) = 91.00997 50.85884 92.35521
#
# Poissons Ratio (x) = 0.34823 0.06108
# Poissons Ratio (y) = 0.62314 0.44958
# Poissons Ratio (z) = 0.06019 0.24758
#
# Static dielectric constant tensor:
#      x y z
#    x 3.807290 -0.000010 0.158310 
#    y -0.000010 3.557100 -0.000020 
#    z 0.158310 -0.000020 4.044270 
# 
# 
# High freq. dielectric constant tensor:
#      x y z
#    x 1.808720 0.000000 0.008770 
#    y 0.000000 1.780450 0.000000 
#    z 0.008770 0.000000 1.809330 
# 
# From -- ./inp_files/258220.got.cif
#   From: 2010.06.25/outbox.cif.g09.slc.cpg/sg12_130_cif.got.tgz:258220.got - 2010.06.28 00:19:55.
