data_PCOD8110188
_publ_section_title
;
Structure prediction by ZEFSAII (Michael W. Deem and Ramdas Pophale) SiO2 
 PCOD8110188
Probable space group: C 2/M
;
_chemical_formula_sum "Si O2"
_cell_formula_units_Z 56
_cell_length_a 9.423270
_cell_length_b 17.801688
_cell_length_c 26.917750
_cell_angle_alpha 90.000000
_cell_angle_beta 39.349172
_cell_angle_gamma 90.000000
_cell_volume 2863.000953
_symmetry_space_group_name_H-M "C 2/M"
_symmetry_group_IT_number 12
_symmetry_cell_setting 'monoclinic'
loop_
_space_group_symop_operation_xyz
x,y,z
-x,y,-z
-x,-y,-z
x,-y,z
1/2+x,1/2+y,z
1/2-x,1/2+y,-z
1/2-x,1/2-y,-z
1/2+x,1/2-y,z
loop_
_atom_site_type_symbol
_atom_site_label
_atom_site_fract_x
_atom_site_fract_y
_atom_site_fract_z
Si Si1 0.050770 0.409922 0.839187
Si Si2 0.133097 0.331906 0.300390
Si Si3 0.728720 0.586765 0.461721
Si Si4 0.497390 0.679988 0.716938
Si Si5 0.260045 0.583765 0.428886
Si Si6 0.260844 0.088287 0.825569
Si Si7 0.353567 0.581506 0.990999
O O1 0.081438 0.500000 0.833269
O O2 0.282925 0.369662 0.788261
O O3 0.958931 0.384817 0.809422
O O4 0.879148 0.379623 0.928701
O O5 0.346531 0.313980 0.276809
O O6 0.070770 0.261627 0.283212
O O7 0.187596 0.396202 0.245703
O O8 0.930545 0.359851 0.390018
O O9 0.500000 0.614513 0.500000
O O10 0.790229 0.500000 0.432724
O O11 0.660701 0.596914 0.537018
O O12 0.627537 0.643096 0.636659
O O13 0.319986 0.500000 0.393619
O O14 0.000000 0.597330 0.500000
O O15 0.016375 0.124518 0.907248
O O16 0.236301 0.000000 0.840052
O O17 0.287476 0.500000 0.986921
O O18 0.500000 0.569673 0.000000
#
# Coordination Sequence:
#
# PCOD8110188 Si02
#       7
#     8   8   8   8   8   8   8
#     4   9  18  35  62  91 117 149 190 233 283 343
#     4  12  26  41  56  82 119 155 196 237 285 338
#     4  10  23  41  64  89 113 144 187 236 284 341
#     4  12  26  40  57  82 117 158 195 237 284 339
#     4  10  21  41  64  86 112 145 186 234 289 339
#     4   9  18  35  62  90 118 150 187 235 286 339
#     4   7  12  28  56  89 117 144 183 231 282 336
#
# _framework density 19.559895999999998
#
# number of rings (size 3 to 8) (size 9 to 14) (size 15 to 20)
#    0.000    2.143    1.429    3.429    4.000    2.857 
#    0.000    1.429    0.000    2.571    0.000    0.000 
#    0.000    0.000    0.000    0.000    0.000    0.000 
#
# Total GULP energy -346926.438963 kJ/mol
# GULP energy per Si atom -12390.229963 kJ/mol
# Density = 1.951538 g / cm^3
# Si number density = 19.559896 Si / 1000 Ang^3
#
#
#
# Elastic Constant Matrix: (Units=GPa)
#
#
# Indices 1 2 3 4 5 6 
#
# 1 125.4788 24.8610 28.6010 -0.0003 -9.7702 0.0012
# 2 24.8610 47.1229 21.6034 -0.0003 -10.3723 -0.0010
# 3 28.6010 21.6034 102.5680 -0.0028 -23.5162 -0.0089
# 4 -0.0003 -0.0003 -0.0028 10.8837 -0.0028 -1.9032
# 5 -9.7702 -10.3723 -23.5162 -0.0028 40.5376 -0.0034
# 6 0.0012 -0.0010 -0.0089 -1.9032 -0.0034 26.3704
#
#
#
# Elastic Compliance Matrix: (Units=1/GPa)
#
#
# Indices 1 2 3 4 5 6 
#
# 1 0.009162 -0.004026 -0.001657 0.000000 0.000217 -0.000001
# 2 -0.004026 0.025729 -0.003471 0.000001 0.003599 0.000001
# 3 -0.001657 -0.003471 0.012281 0.000005 0.005837 0.000005
# 4 0.000000 0.000001 0.000005 0.093055 0.000010 0.006716
# 5 0.000217 0.003599 0.005837 0.000010 0.029028 0.000007
# 6 -0.000001 0.000001 0.000005 0.006716 0.000007 0.038406
#
#
# Mechanical properties :
#
#
# Convention : Reuss Voigt Hill
#
# Bulk Modulus (GPa) = 34.64681 47.25560 40.95121
# Shear Modulus (GPa) = 21.22334 28.89864 25.06099
#
# Velocity S-wave (km/s) = 3.29757 3.84792 3.58333
# Velocity P-wave (km/s) = 5.67893 6.62977 6.17269
#
# Compressibility (1/GPa) = 0.02886268
#
# Stress axis : x y z
#
# Youngs Moduli (GPa) = 109.14943 38.86690 81.42619
#
# Poissons Ratio (x) = 0.15648 0.13493
# Poissons Ratio (y) = 0.43945 0.28265
# Poissons Ratio (z) = 0.18087 0.13492
#
# Static dielectric constant tensor:
#      x y z
#    x 3.553630 -0.000010 -0.140250 
#    y -0.000010 3.322760 0.000010 
#    z -0.140250 0.000010 3.728910 
# 
# 
# High freq. dielectric constant tensor:
#      x y z
#    x 1.754910 0.000000 -0.003970 
#    y 0.000000 1.733790 0.000000 
#    z -0.003970 0.000000 1.779340 
# 
# From -- ./inp_files/257154.got.cif
#   From: 2010.06.25/outbox.cif.g09.slc.cpg/sg12_129_cif.got.tgz:257154.got - 2010.06.28 00:19:55.
