data_PCOD8110298
_publ_section_title
;
Structure prediction by ZEFSAII (Michael W. Deem and Ramdas Pophale) SiO2 
 PCOD8110298
Probable space group: C 2/M
;
_chemical_formula_sum "Si O2"
_cell_formula_units_Z 40
_cell_length_a 17.055871
_cell_length_b 18.727223
_cell_length_c 11.399081
_cell_angle_alpha 90.000000
_cell_angle_beta 32.508866
_cell_angle_gamma 90.000000
_cell_volume 1956.767011
_symmetry_space_group_name_H-M "C 2/M"
_symmetry_group_IT_number 12
_symmetry_cell_setting 'monoclinic'
loop_
_space_group_symop_operation_xyz
x,y,z
-x,y,-z
-x,-y,-z
x,-y,z
1/2+x,1/2+y,z
1/2-x,1/2+y,-z
1/2-x,1/2-y,-z
1/2+x,1/2-y,z
loop_
_atom_site_type_symbol
_atom_site_label
_atom_site_fract_x
_atom_site_fract_y
_atom_site_fract_z
Si Si1 0.761602 0.500000 0.828037
Si Si2 0.764178 0.292328 0.146436
Si Si3 0.534451 0.111047 0.832896
Si Si4 0.183203 0.188799 0.504383
Si Si5 0.041291 0.500000 0.626794
Si Si6 0.357056 0.648265 0.927653
O O1 0.799662 0.500000 0.639258
O O2 0.918332 0.500000 0.686251
O O3 0.675047 0.570969 0.975927
O O4 0.673952 0.288451 0.380338
O O5 0.681148 0.347183 0.162902
O O6 0.760358 0.210734 0.107519
O O7 0.931330 0.318533 0.955477
O O8 0.706588 0.123762 0.620623
O O9 0.510259 0.067724 0.746234
O O10 0.500000 0.070933 0.000000
O O11 0.250000 0.250000 0.500000
O O12 0.025093 0.163646 0.744549
#
# Coordination Sequence:
#
# PCOD8110298 Si02
#       6
#     4   8   8   8   4   8
#     4  11  26  41  67  92 134 172 212 269 318 390
#     4  10  22  41  68  93 122 173 222 263 316 383
#     4  10  21  41  67  95 125 169 214 261 322 383
#     4  11  23  39  65  98 128 163 210 278 323 371
#     4  11  23  45  64  97 128 174 211 258 328 390
#     4  11  23  43  64  96 131 168 220 264 321 386
#
# _framework density 20.441880999999999
#
# number of rings (size 3 to 8) (size 9 to 14) (size 15 to 20)
#    0.000    1.400    4.000    0.900    2.800    0.800 
#    3.600    4.000    0.000    0.000    0.000    0.000 
#    0.000    0.000    0.000    0.000    0.000    0.000 
#
# Total GULP energy -247864.178496 kJ/mol
# GULP energy per Si atom -12393.208925 kJ/mol
# Density = 2.039535 g / cm^3
# Si number density = 20.441881 Si / 1000 Ang^3
#
#
#
# Elastic Constant Matrix: (Units=GPa)
#
#
# Indices 1 2 3 4 5 6 
#
# 1 88.1913 31.1518 40.3118 0.0011 10.7710 -0.0003
# 2 31.1518 119.2413 57.1047 0.0005 15.1643 -0.0001
# 3 40.3118 57.1047 110.5745 0.0017 3.6994 -0.0010
# 4 0.0011 0.0005 0.0017 11.2177 -0.0018 -0.5239
# 5 10.7710 15.1643 3.6994 -0.0018 45.7709 0.0009
# 6 -0.0003 -0.0001 -0.0010 -0.5239 0.0009 32.6223
#
#
#
# Elastic Compliance Matrix: (Units=1/GPa)
#
#
# Indices 1 2 3 4 5 6 
#
# 1 0.014109 -0.001248 -0.004414 -0.000001 -0.002550 0.000000
# 2 -0.001248 0.011752 -0.005508 0.000000 -0.003155 0.000000
# 3 -0.004414 -0.005508 0.013438 -0.000001 0.001778 0.000000
# 4 -0.000001 0.000000 -0.000001 0.089212 0.000004 0.001433
# 5 -0.002550 -0.003155 0.001778 0.000004 0.023349 -0.000001
# 6 0.000000 0.000000 0.000000 0.001433 -0.000001 0.030677
#
#
# Mechanical properties :
#
#
# Convention : Reuss Voigt Hill
#
# Bulk Modulus (GPa) = 58.96884 63.90487 61.43686
# Shear Modulus (GPa) = 23.74967 30.55145 27.15056
#
# Velocity S-wave (km/s) = 3.41224 3.87014 3.64838
# Velocity P-wave (km/s) = 6.66590 7.16242 6.91861
#
# Compressibility (1/GPa) = 0.01695811
#
# Stress axis : x y z
#
# Youngs Moduli (GPa) = 70.87810 85.09533 74.41521
#
# Poissons Ratio (x) = 0.10618 0.32846
# Poissons Ratio (y) = 0.08844 0.40991
# Poissons Ratio (z) = 0.31284 0.46874
#
# Static dielectric constant tensor:
#      x y z
#    x 3.893080 0.000000 0.284570 
#    y 0.000000 3.596250 -0.000020 
#    z 0.284570 -0.000020 1.954610 
# 
# 
# High freq. dielectric constant tensor:
#      x y z
#    x 1.813160 0.000000 0.007820 
#    y 0.000000 1.780700 0.000000 
#    z 0.007820 0.000000 1.803610 
# 
# From -- ./inp_files/133665.got.cif
#   From: 2010.06.25/outbox.cif.g09.slc.cpg/sg12_67_cif.got.tgz:133665.got - 2010.06.28 00:19:55.
