data_PCOD8110652
_publ_section_title
;
Structure prediction by ZEFSAII (Michael W. Deem and Ramdas Pophale) SiO2 
 PCOD8110652
Probable space group: C 2/M
;
_chemical_formula_sum "Si O2"
_cell_formula_units_Z 44
_cell_length_a 8.721734
_cell_length_b 17.537205
_cell_length_c 14.150606
_cell_angle_alpha 90.000000
_cell_angle_beta 81.107969
_cell_angle_gamma 90.000000
_cell_volume 2138.390478
_symmetry_space_group_name_H-M "C 2/M"
_symmetry_group_IT_number 12
_symmetry_cell_setting 'monoclinic'
loop_
_space_group_symop_operation_xyz
x,y,z
-x,y,-z
-x,-y,-z
x,-y,z
1/2+x,1/2+y,z
1/2-x,1/2+y,-z
1/2-x,1/2-y,-z
1/2+x,1/2-y,z
loop_
_atom_site_type_symbol
_atom_site_label
_atom_site_fract_x
_atom_site_fract_y
_atom_site_fract_z
Si Si1 0.000000 0.278901 0.500000
Si Si2 0.832880 0.585279 0.088032
Si Si3 0.085343 0.084285 0.268082
Si Si4 0.609147 0.828856 0.103693
Si Si5 0.388512 0.709426 0.204500
Si Si6 0.734911 0.182823 0.624937
O O1 0.870323 0.227043 0.559062
O O2 0.914517 0.330414 0.428416
O O3 0.851774 0.500000 0.042987
O O4 0.675861 0.588390 0.160730
O O5 0.982314 0.604967 0.140461
O O6 0.832883 0.652920 0.009066
O O7 0.196206 0.101998 0.347198
O O8 0.950480 0.146631 0.272697
O O9 0.015501 0.000000 0.289884
O O10 0.523732 0.746606 0.126030
O O11 0.759982 0.833272 0.154335
O O12 0.309193 0.774012 0.274826
#
# Coordination Sequence:
#
# PCOD8110652 Si02
#       6
#     4   8   8   8   8   8
#     4  10  22  36  76  88 120 146 210 254 308 370
#     4  10  23  40  57  86 130 173 208 256 308 348
#     4  11  24  42  61  91 134 166 197 258 315 358
#     4  11  21  36  59  88 120 166 217 256 286 353
#     4  12  22  38  64  92 123 161 217 253 300 366
#     4  11  20  42  62  99 115 159 198 257 307 377
#
# _framework density 20.576224
#
# number of rings (size 3 to 8) (size 9 to 14) (size 15 to 20)
#    0.000    1.091    5.455    1.091    0.000    8.727 
#    0.000    2.727    0.000    0.000    0.000    0.000 
#    0.000    0.000    0.000    0.000    0.000    0.000 
#
# Total GULP energy -272599.815726 kJ/mol
# GULP energy per Si atom -12390.900715 kJ/mol
# Density = 2.052939 g / cm^3
# Si number density = 20.576224 Si / 1000 Ang^3
#
#
#
# Elastic Constant Matrix: (Units=GPa)
#
#
# Indices 1 2 3 4 5 6 
#
# 1 87.1754 21.3897 26.5188 0.0000 29.8778 0.0000
# 2 21.3897 101.2913 27.7592 0.0000 22.6586 0.0000
# 3 26.5188 27.7592 72.1629 0.0000 22.4010 0.0000
# 4 0.0000 0.0000 0.0000 28.3059 0.0000 6.0473
# 5 29.8778 22.6586 22.4010 0.0000 42.0039 0.0000
# 6 0.0000 0.0000 0.0000 6.0473 0.0000 23.3267
#
#
#
# Elastic Compliance Matrix: (Units=1/GPa)
#
#
# Indices 1 2 3 4 5 6 
#
# 1 0.015628 -0.000463 -0.002627 0.000000 -0.009466 0.000000
# 2 -0.000463 0.011780 -0.002985 0.000000 -0.004433 0.000000
# 3 -0.002627 -0.002985 0.017846 0.000000 -0.006039 0.000000
# 4 0.000000 0.000000 0.000000 0.037400 0.000000 -0.009696
# 5 -0.009466 -0.004433 -0.006039 0.000000 0.036152 0.000000
# 6 0.000000 0.000000 0.000000 -0.009696 0.000000 0.045383
#
#
# Mechanical properties :
#
#
# Convention : Reuss Voigt Hill
#
# Bulk Modulus (GPa) = 30.20740 45.77388 37.99064
# Shear Modulus (GPa) = 26.68480 31.05810 28.87145
#
# Velocity S-wave (km/s) = 3.60512 3.88934 3.74992
# Velocity P-wave (km/s) = 5.66055 6.51641 6.10350
#
# Compressibility (1/GPa) = 0.03310447
#
# Stress axis : x y z
#
# Youngs Moduli (GPa) = 63.98793 84.88893 56.03627
#
# Poissons Ratio (x) = 0.03929 0.14718
# Poissons Ratio (y) = 0.02962 0.16728
# Poissons Ratio (z) = 0.16807 0.25341
#
# Static dielectric constant tensor:
#      x y z
#    x 4.026840 0.000000 0.080750 
#    y 0.000000 3.748360 0.000000 
#    z 0.080750 0.000000 3.792890 
# 
# 
# High freq. dielectric constant tensor:
#      x y z
#    x 1.816030 0.000000 -0.001050 
#    y 0.000000 1.782090 0.000000 
#    z -0.001050 0.000000 1.796860 
# 
# From -- ./inp_files/195516.got.cif
#   From: 2010.06.25/outbox.cif.g09.slc.cpg/sg12_98_cif.got.tgz:195516.got - 2010.06.28 00:19:55.
