data_PCOD8110102
_publ_section_title
;
Structure prediction by ZEFSAII (Michael W. Deem and Ramdas Pophale) SiO2 
 PCOD8110102
Probable space group: C 2/M
;
_chemical_formula_sum "Si O2"
_cell_formula_units_Z 56
_cell_length_a 17.961484
_cell_length_b 17.654529
_cell_length_c 8.841064
_cell_angle_alpha 90.000000
_cell_angle_beta 110.642837
_cell_angle_gamma 90.000000
_cell_volume 2623.518753
_symmetry_space_group_name_H-M "C 2/M"
_symmetry_group_IT_number 12
_symmetry_cell_setting 'monoclinic'
loop_
_space_group_symop_operation_xyz
x,y,z
-x,y,-z
-x,-y,-z
x,-y,z
1/2+x,1/2+y,z
1/2-x,1/2+y,-z
1/2-x,1/2-y,-z
1/2+x,1/2-y,z
loop_
_atom_site_type_symbol
_atom_site_label
_atom_site_fract_x
_atom_site_fract_y
_atom_site_fract_z
Si Si1 0.151562 0.087520 0.818492
Si Si2 0.965149 0.326246 0.134713
Si Si3 0.000459 0.823959 0.678697
Si Si4 0.283517 0.825487 0.437285
Si Si5 0.351318 0.413039 0.532807
Si Si6 0.439684 0.085722 0.593182
Si Si7 0.784523 0.672750 0.079744
O O1 0.166864 0.109038 0.654364
O O2 0.073433 0.133521 0.814300
O O3 0.132414 0.000000 0.824662
O O4 0.227030 0.106459 0.978296
O O5 0.870920 0.340221 0.068012
O O6 0.992341 0.263352 0.275101
O O7 0.008525 0.403708 0.216991
O O8 0.000000 0.299998 0.000000
O O9 0.916978 0.861721 0.665994
O O10 0.000000 0.836262 0.500000
O O11 0.250000 0.750000 0.500000
O O12 0.229064 0.897462 0.434699
O O13 0.371520 0.850052 0.550614
O O14 0.287471 0.817629 0.260870
O O15 0.377550 0.500000 0.565234
O O16 0.500000 0.100783 0.500000
O O17 0.405222 0.000000 0.562827
O O18 0.750000 0.750000 0.000000
#
# Coordination Sequence:
#
# PCOD8110102 Si02
#       7
#     8   8   8   8   8   8   8
#     4  10  22  41  66  96 136 176 211 268 333 391
#     4  12  27  43  69  97 131 173 222 273 331 396
#     4  10  21  40  68  97 131 174 222 266 320 390
#     4  12  26  43  71  99 132 175 226 277 332 390
#     4  10  22  40  66  99 131 170 219 268 323 394
#     4  11  25  48  71  96 132 179 230 283 333 392
#     4  12  26  44  63  98 135 173 220 271 334 399
#
# _framework density 21.345378
#
# number of rings (size 3 to 8) (size 9 to 14) (size 15 to 20)
#    0.000    1.000    2.857    3.000    8.000    3.714 
#    0.000    0.000    0.000    2.571    0.000    0.000 
#    0.000    0.000    0.000    0.000    0.000    0.000 
#
# Total GULP energy -347120.265498 kJ/mol
# GULP energy per Si atom -12397.152339 kJ/mol
# Density = 2.129679 g / cm^3
# Si number density = 21.345378 Si / 1000 Ang^3
#
#
#
# Elastic Constant Matrix: (Units=GPa)
#
#
# Indices 1 2 3 4 5 6 
#
# 1 134.5050 38.3081 52.3611 0.0000 16.8437 0.0000
# 2 38.3081 85.0593 27.1051 0.0000 11.1787 0.0000
# 3 52.3611 27.1051 83.5821 0.0000 18.9757 0.0000
# 4 0.0000 0.0000 0.0000 32.8364 0.0000 5.0344
# 5 16.8437 11.1787 18.9757 0.0000 35.1428 0.0000
# 6 0.0000 0.0000 0.0000 5.0344 0.0000 36.3473
#
#
#
# Elastic Compliance Matrix: (Units=1/GPa)
#
#
# Indices 1 2 3 4 5 6 
#
# 1 0.010490 -0.002853 -0.005369 0.000000 -0.001221 0.000000
# 2 -0.002853 0.014030 -0.002347 0.000000 -0.001828 0.000000
# 3 -0.005369 -0.002347 0.017478 0.000000 -0.006117 0.000000
# 4 0.000000 0.000000 0.000000 0.031115 0.000000 -0.004310
# 5 -0.001221 -0.001828 -0.006117 0.000000 0.032925 0.000000
# 6 0.000000 0.000000 0.000000 -0.004310 0.000000 0.028109
#
#
# Mechanical properties :
#
#
# Convention : Reuss Voigt Hill
#
# Bulk Modulus (GPa) = 47.94230 59.85499 53.89865
# Shear Modulus (GPa) = 30.81859 33.22345 32.02102
#
# Velocity S-wave (km/s) = 3.80387 3.94949 3.87736
# Velocity P-wave (km/s) = 6.46541 6.99286 6.73430
#
# Compressibility (1/GPa) = 0.02085841
#
# Stress axis : x y z
#
# Youngs Moduli (GPa) = 95.32533 71.27752 57.21468
#
# Poissons Ratio (x) = 0.20336 0.30721
# Poissons Ratio (y) = 0.27197 0.13431
# Poissons Ratio (z) = 0.51184 0.16732
#
# Static dielectric constant tensor:
#      x y z
#    x 4.042030 0.000000 0.060910 
#    y 0.000000 3.936750 0.000000 
#    z 0.060910 0.000000 3.376080 
# 
# 
# High freq. dielectric constant tensor:
#      x y z
#    x 1.849370 0.000000 0.014140 
#    y 0.000000 1.842520 0.000000 
#    z 0.014140 0.000000 1.831000 
# 
# From -- ./inp_files/75960.got.cif
#   From: 2010.06.25/outbox.cif.g09.slc.cpg/sg12_38_cif.got.tgz:75960.got - 2010.06.28 00:19:55.
