data_PCOD8110108
_publ_section_title
;
Structure prediction by ZEFSAII (Michael W. Deem and Ramdas Pophale) SiO2 
 PCOD8110108
Probable space group: C 2/M
;
_chemical_formula_sum "Si O2"
_cell_formula_units_Z 56
_cell_length_a 18.741723
_cell_length_b 18.674020
_cell_length_c 15.073472
_cell_angle_alpha 90.000000
_cell_angle_beta 28.432530
_cell_angle_gamma 90.000000
_cell_volume 2511.772511
_symmetry_space_group_name_H-M "C 2/M"
_symmetry_group_IT_number 12
_symmetry_cell_setting 'monoclinic'
loop_
_space_group_symop_operation_xyz
x,y,z
-x,y,-z
-x,-y,-z
x,-y,z
1/2+x,1/2+y,z
1/2-x,1/2+y,-z
1/2-x,1/2-y,-z
1/2+x,1/2-y,z
loop_
_atom_site_type_symbol
_atom_site_label
_atom_site_fract_x
_atom_site_fract_y
_atom_site_fract_z
Si Si1 0.112251 0.080428 0.794924
Si Si2 0.825029 0.339205 0.674038
Si Si3 0.326088 0.918673 0.180983
Si Si4 0.869095 0.856271 0.949649
Si Si5 0.515179 0.779786 0.755300
Si Si6 0.831168 0.581772 0.971868
Si Si7 0.267392 0.284892 0.623295
O O1 0.273085 0.114302 0.644730
O O2 0.141926 0.000000 0.733368
O O3 0.000000 0.087131 0.000000
O O4 0.038207 0.120274 0.791619
O O5 0.748951 0.371959 0.843926
O O6 0.763283 0.259529 0.720146
O O7 0.000000 0.343284 0.500000
O O8 0.224604 0.867998 0.355199
O O9 0.298982 0.000000 0.242629
O O10 0.500000 0.897202 0.000000
O O11 0.281423 0.907940 0.127709
O O12 0.817810 0.903105 0.921987
O O13 0.871282 0.771141 0.928395
O O14 0.460767 0.861598 0.801051
O O15 0.589818 0.745971 0.585560
O O16 0.620297 0.773684 0.725747
O O17 0.888929 0.500000 0.893293
#
# Coordination Sequence:
#
# PCOD8110108 Si02
#       7
#     8   8   8   8   8   8   8
#     4   9  19  37  61  88 123 169 213 260 324 394
#     4  11  23  39  64  96 130 171 222 276 332 402
#     4  10  21  40  68  99 133 175 224 281 345 404
#     4  11  22  41  67  94 133 176 222 279 342 400
#     4  11  23  40  66  98 133 178 226 281 342 406
#     4  11  23  40  67 101 136 176 228 282 339 402
#     4  11  23  40  65  98 137 170 226 282 337 408
#
# _framework density 22.295013999999998
#
# number of rings (size 3 to 8) (size 9 to 14) (size 15 to 20)
#    0.000    1.429    2.857    2.571    0.000    2.000 
#    0.000    3.571    0.000    2.143    0.000    0.000 
#    0.000    0.000    0.000    0.000    0.000    0.000 
#
# Total GULP energy -347117.941570 kJ/mol
# GULP energy per Si atom -12397.069342 kJ/mol
# Density = 2.224427 g / cm^3
# Si number density = 22.295014 Si / 1000 Ang^3
#
#
#
# Elastic Constant Matrix: (Units=GPa)
#
#
# Indices 1 2 3 4 5 6 
#
# 1 157.0813 59.2452 40.9104 -0.0037 -19.0561 0.0025
# 2 59.2452 179.0762 58.8502 -0.0036 -7.3021 0.0029
# 3 40.9104 58.8502 55.1449 -0.0038 -5.9249 0.0033
# 4 -0.0037 -0.0036 -0.0038 29.9742 0.0041 2.7278
# 5 -19.0561 -7.3021 -5.9249 0.0041 32.1090 -0.0029
# 6 0.0025 0.0029 0.0033 2.7278 -0.0029 35.7665
#
#
#
# Elastic Compliance Matrix: (Units=1/GPa)
#
#
# Indices 1 2 3 4 5 6 
#
# 1 0.008479 -0.001104 -0.004692 0.000000 0.003916 0.000000
# 2 -0.001104 0.008746 -0.008541 0.000000 -0.000242 0.000000
# 3 -0.004692 -0.008541 0.030834 0.000002 0.000962 -0.000002
# 4 0.000000 0.000000 0.000002 0.033595 -0.000004 -0.002562
# 5 0.003916 -0.000242 0.000962 -0.000004 0.033590 0.000003
# 6 0.000000 0.000000 -0.000002 -0.002562 0.000003 0.028155
#
#
# Mechanical properties :
#
#
# Convention : Reuss Voigt Hill
#
# Bulk Modulus (GPa) = 51.58560 78.81265 65.19912
# Shear Modulus (GPa) = 28.00563 35.05639 31.53101
#
# Velocity S-wave (km/s) = 3.54805 3.96964 3.76475
# Velocity P-wave (km/s) = 6.32241 7.51248 6.94299
#
# Compressibility (1/GPa) = 0.01938526
#
# Stress axis : x y z
#
# Youngs Moduli (GPa) = 117.93254 114.33205 32.43208
#
# Poissons Ratio (x) = 0.12619 0.15217
# Poissons Ratio (y) = 0.13016 0.27701
# Poissons Ratio (z) = 0.55335 0.97655
#
# Static dielectric constant tensor:
#      x y z
#    x 4.288830 -0.000010 -0.038150 
#    y -0.000010 4.180240 0.000010 
#    z -0.038150 0.000010 3.536340 
# 
# 
# High freq. dielectric constant tensor:
#      x y z
#    x 1.898070 0.000000 -0.004190 
#    y 0.000000 1.886740 0.000000 
#    z -0.004190 0.000000 1.835240 
# 
# From -- ./inp_files/227591.got.cif
#   From: 2010.06.25/outbox.cif.g09.slc.cpg/sg12_114_cif.got.tgz:227591.got - 2010.06.28 00:19:55.
