data_PCOD8110036
_publ_section_title
;
Structure prediction by ZEFSAII (Michael W. Deem and Ramdas Pophale) SiO2 
 PCOD8110036
Probable space group: C 2/M
;
_chemical_formula_sum "Si O2"
_cell_formula_units_Z 56
_cell_length_a 18.897882
_cell_length_b 8.763482
_cell_length_c 26.043431
_cell_angle_alpha 90.000000
_cell_angle_beta 140.216705
_cell_angle_gamma 90.000000
_cell_volume 2759.881384
_symmetry_space_group_name_H-M "C 2/M"
_symmetry_group_IT_number 12
_symmetry_cell_setting 'monoclinic'
loop_
_space_group_symop_operation_xyz
x,y,z
-x,y,-z
-x,-y,-z
x,-y,z
1/2+x,1/2+y,z
1/2-x,1/2+y,-z
1/2-x,1/2-y,-z
1/2+x,1/2-y,z
loop_
_atom_site_type_symbol
_atom_site_label
_atom_site_fract_x
_atom_site_fract_y
_atom_site_fract_z
Si Si1 0.791255 0.179245 0.756397
Si Si2 0.966270 0.319976 0.924553
Si Si3 0.640108 0.821492 0.416607
Si Si4 0.910686 0.325380 0.728590
Si Si5 0.084981 0.821958 0.683115
Si Si6 0.858702 0.672565 0.183187
Si Si7 0.175866 0.824541 0.001221
O O1 0.854795 0.241699 0.842235
O O2 0.852883 0.218868 0.738011
O O3 0.668052 0.250421 0.687259
O O4 0.781746 0.000000 0.756546
O O5 0.949117 0.500000 0.913388
O O6 0.000000 0.261925 0.000000
O O7 0.063411 0.270589 0.940302
O O8 0.750000 0.750000 0.500000
O O9 0.634141 0.783468 0.352872
O O10 0.535989 0.751888 0.389031
O O11 0.640397 0.000000 0.426891
O O12 0.883936 0.500000 0.728221
O O13 0.042917 0.295138 0.802910
O O14 0.135812 0.791739 0.767677
O O15 0.074556 0.000000 0.666985
O O16 0.876004 0.500000 0.214598
O O17 0.740091 0.689959 0.090863
O O18 0.149759 0.000000 0.973327
O O19 0.250000 0.750000 0.000000
#
# Coordination Sequence:
#
# PCOD8110036 Si02
#       7
#     8   8   8   8   8   8   8
#     4  12  24  38  58  84 116 152 194 243 290 341
#     4  11  24  40  57  79 111 152 197 245 296 349
#     4  10  21  40  66  94 123 152 185 228 277 334
#     4   9  19  37  60  86 118 154 189 231 285 340
#     4  11  22  37  60  86 114 150 189 229 277 337
#     4   9  19  36  56  79 109 145 188 238 288 339
#     4  11  22  35  54  79 109 146 189 240 293 342
#
# _framework density 20.290725999999999
#
# number of rings (size 3 to 8) (size 9 to 14) (size 15 to 20)
#    0.000    1.571    0.000    6.429    0.000    8.571 
#    0.000    0.714    0.000    4.286    0.000    0.000 
#    0.000    0.000    0.000    0.000    0.000    0.000 
#
# Total GULP energy -347295.721180 kJ/mol
# GULP energy per Si atom -12403.418614 kJ/mol
# Density = 2.024454 g / cm^3
# Si number density = 20.290726 Si / 1000 Ang^3
#
#
#
# Elastic Constant Matrix: (Units=GPa)
#
#
# Indices 1 2 3 4 5 6 
#
# 1 88.2145 34.5614 19.9585 0.0000 18.2002 0.0000
# 2 34.5614 122.8677 37.0784 0.0000 10.3186 0.0001
# 3 19.9585 37.0784 81.1267 0.0000 21.5638 0.0000
# 4 0.0000 0.0000 0.0000 33.3165 0.0000 2.8930
# 5 18.2002 10.3186 21.5638 0.0000 29.5662 0.0000
# 6 0.0000 0.0001 0.0000 2.8930 0.0000 34.7113
#
#
#
# Elastic Compliance Matrix: (Units=1/GPa)
#
#
# Indices 1 2 3 4 5 6 
#
# 1 0.014217 -0.003381 0.000075 0.000000 -0.007626 0.000000
# 2 -0.003381 0.010246 -0.004284 0.000000 0.001630 0.000000
# 3 0.000075 -0.004284 0.017219 0.000000 -0.011109 0.000000
# 4 0.000000 0.000000 0.000000 0.030234 0.000000 -0.002520
# 5 -0.007626 0.001630 -0.011109 0.000000 0.046050 0.000000
# 6 0.000000 0.000000 0.000000 -0.002520 0.000000 0.029019
#
#
# Mechanical properties :
#
#
# Convention : Reuss Voigt Hill
#
# Bulk Modulus (GPa) = 37.73499 52.82284 45.27891
# Shear Modulus (GPa) = 29.23963 32.89284 31.06624
#
# Velocity S-wave (km/s) = 3.80021 4.03063 3.91712
# Velocity P-wave (km/s) = 6.15573 6.91020 6.54385
#
# Compressibility (1/GPa) = 0.02650061
#
# Stress axis : x y z
#
# Youngs Moduli (GPa) = 70.33708 97.59962 58.07529
#
# Poissons Ratio (x) = 0.33001 -0.00434
# Poissons Ratio (y) = 0.23783 0.24881
# Poissons Ratio (z) = -0.00526 0.41815
#
# Static dielectric constant tensor:
#      x y z
#    x 3.692080 0.000000 0.198620 
#    y 0.000000 3.659250 0.000000 
#    z 0.198620 0.000000 3.700340 
# 
# 
# High freq. dielectric constant tensor:
#      x y z
#    x 1.799100 0.000000 0.016870 
#    y 0.000000 1.798050 0.000000 
#    z 0.016870 0.000000 1.779360 
# 
# From -- ./inp_files/363173.got.cif
#   From: 2010.06.25/outbox.cif.g09.slc.cpg/sg12_182_cif.got.tgz:363173.got - 2010.06.28 00:19:55.
