data_PCOD8110391
_publ_section_title
;
Structure prediction by ZEFSAII (Michael W. Deem and Ramdas Pophale) SiO2 
 PCOD8110391
Probable space group: C 2/M
;
_chemical_formula_sum "Si O2"
_cell_formula_units_Z 44
_cell_length_a 16.920439
_cell_length_b 28.027069
_cell_length_c 11.186542
_cell_angle_alpha 90.000000
_cell_angle_beta 25.548544
_cell_angle_gamma 90.000000
_cell_volume 2287.916210
_symmetry_space_group_name_H-M "C 2/M"
_symmetry_group_IT_number 12
_symmetry_cell_setting 'monoclinic'
loop_
_space_group_symop_operation_xyz
x,y,z
-x,y,-z
-x,-y,-z
x,-y,z
1/2+x,1/2+y,z
1/2-x,1/2+y,-z
1/2-x,1/2-y,-z
1/2+x,1/2-y,z
loop_
_atom_site_type_symbol
_atom_site_label
_atom_site_fract_x
_atom_site_fract_y
_atom_site_fract_z
Si Si1 0.964913 0.852732 0.327591
Si Si2 0.500000 0.418627 0.500000
Si Si3 0.286473 0.234750 0.314930
Si Si4 0.305532 0.172425 0.703604
Si Si5 0.750614 0.000000 0.756263
Si Si6 0.189791 0.905809 0.680584
Si Si7 0.834364 0.500000 0.388089
O O1 0.037589 0.885555 0.335007
O O2 0.834940 0.810907 0.554907
O O3 0.840507 0.883018 0.407429
O O4 0.143244 0.831787 0.020386
O O5 0.325832 0.452359 0.715988
O O6 0.250000 0.250000 0.500000
O O7 0.218330 0.276788 0.324091
O O8 0.500000 0.223593 0.000000
O O9 0.500000 0.169007 0.500000
O O10 0.299579 0.131054 0.612960
O O11 0.797095 0.000000 0.550303
O O12 0.537659 0.000000 0.064808
O O13 0.304457 0.953938 0.511084
O O14 0.000000 0.919952 0.000000
#
# Coordination Sequence:
#
# PCOD8110391 Si02
#       7
#     8   4   8   8   4   8   4
#     4  11  24  42  67  94 131 177 214 265 326 393
#     4  11  24  44  62  94 132 170 210 267 334 382
#     4  12  23  44  68  96 131 174 220 265 323 390
#     4  11  25  42  65  96 138 168 219 273 321 381
#     4  10  24  40  63  91 134 162 207 280 316 389
#     4  10  21  42  65  92 127 173 214 261 322 390
#     4  11  21  40  66  96 121 168 222 257 331 388
#
# _framework density 19.231473999999999
#
# number of rings (size 3 to 8) (size 9 to 14) (size 15 to 20)
#    0.000    1.091    5.455    0.818    3.818    3.636 
#    0.000    0.455    0.000    0.000    0.000    0.000 
#    0.000    0.000    0.000    0.000    0.000    0.000 
#
# Total GULP energy -272880.499436 kJ/mol
# GULP energy per Si atom -12403.659065 kJ/mol
# Density = 1.918770 g / cm^3
# Si number density = 19.231474 Si / 1000 Ang^3
#
#
#
# Elastic Constant Matrix: (Units=GPa)
#
#
# Indices 1 2 3 4 5 6 
#
# 1 121.2816 58.9860 45.7548 -0.0219 2.8935 -0.0229
# 2 58.9860 145.9053 54.0771 -0.0174 8.4179 -0.0216
# 3 45.7548 54.0771 88.2741 -0.0403 -0.5347 -0.0562
# 4 -0.0219 -0.0174 -0.0403 73.2738 0.0277 31.4139
# 5 2.8935 8.4179 -0.5347 0.0277 31.8676 0.0338
# 6 -0.0229 -0.0216 -0.0562 31.4139 0.0338 65.3924
#
#
#
# Elastic Compliance Matrix: (Units=1/GPa)
#
#
# Indices 1 2 3 4 5 6 
#
# 1 0.011230 -0.003061 -0.003947 0.000001 -0.000277 -0.000001
# 2 -0.003061 0.009894 -0.004489 0.000000 -0.002411 0.000000
# 3 -0.003947 -0.004489 0.016135 0.000002 0.001815 0.000009
# 4 0.000001 0.000000 0.000002 0.017187 -0.000006 -0.008257
# 5 -0.000277 -0.002411 0.001815 -0.000006 0.032072 -0.000013
# 6 -0.000001 0.000000 0.000009 -0.008257 -0.000013 0.019259
#
#
# Mechanical properties :
#
#
# Convention : Reuss Voigt Hill
#
# Bulk Modulus (GPa) = 70.10393 74.78855 72.44624
# Shear Modulus (GPa) = 37.44557 47.21631 42.33094
#
# Velocity S-wave (km/s) = 4.41738 4.96033 4.69671
# Velocity P-wave (km/s) = 7.90883 8.47228 8.19540
#
# Compressibility (1/GPa) = 0.01426454
#
# Stress axis : x y z
#
# Youngs Moduli (GPa) = 89.04938 101.06941 61.97549
#
# Poissons Ratio (x) = 0.30937 0.24463
# Poissons Ratio (y) = 0.27258 0.27822
# Poissons Ratio (z) = 0.35149 0.45373
#
# Static dielectric constant tensor:
#      x y z
#    x 3.660440 -0.000020 0.077290 
#    y -0.000020 3.730170 0.000010 
#    z 0.077290 0.000010 3.491720 
# 
# 
# High freq. dielectric constant tensor:
#      x y z
#    x 1.754660 0.000000 0.003590 
#    y 0.000000 1.764560 0.000000 
#    z 0.003590 0.000000 1.747790 
# 
# From -- ./inp_files/161159.got.cif
#   From: 2010.06.25/outbox.cif.g09.slc.cpg/sg12_81_cif.got.tgz:161159.got - 2010.06.28 00:19:55.
