data_PCOD8110936
_publ_section_title
;
Structure prediction by ZEFSAII (Michael W. Deem and Ramdas Pophale) SiO2 
 PCOD8110936
Probable space group: C 2/M
;
_chemical_formula_sum "Si O2"
_cell_formula_units_Z 40
_cell_length_a 14.290028
_cell_length_b 14.693060
_cell_length_c 14.956787
_cell_angle_alpha 90.000000
_cell_angle_beta 139.674043
_cell_angle_gamma 90.000000
_cell_volume 2032.257258
_symmetry_space_group_name_H-M "C 2/M"
_symmetry_group_IT_number 12
_symmetry_cell_setting 'monoclinic'
loop_
_space_group_symop_operation_xyz
x,y,z
-x,y,-z
-x,-y,-z
x,-y,z
1/2+x,1/2+y,z
1/2-x,1/2+y,-z
1/2-x,1/2-y,-z
1/2+x,1/2-y,z
loop_
_atom_site_type_symbol
_atom_site_label
_atom_site_fract_x
_atom_site_fract_y
_atom_site_fract_z
Si Si1 0.420409 0.222901 0.205564
Si Si2 0.865928 0.314409 0.967647
Si Si3 0.670453 0.000000 0.135357
Si Si4 0.832165 0.844426 0.575314
Si Si5 0.059711 0.602083 0.454187
Si Si6 0.650320 0.500000 0.558237
O O1 0.427482 0.179460 0.112452
O O2 0.507695 0.319510 0.272358
O O3 0.496748 0.149317 0.321851
O O4 0.256781 0.236410 0.121792
O O5 0.780999 0.407221 0.878314
O O6 0.000000 0.290223 0.000000
O O7 0.720638 0.000000 0.275150
O O8 0.500000 0.000000 0.000000
O O9 0.750000 0.750000 0.500000
O O10 0.735362 0.896003 0.579468
O O11 0.840606 0.908189 0.493833
O O12 0.000892 0.500000 0.410037
O O13 0.000000 0.651471 0.500000
O O14 0.500000 0.500000 0.500000
#
# Coordination Sequence:
#
# PCOD8110936 Si02
#       6
#     8   8   4   8   8   4
#     4  10  23  40  61  91 125 167 208 264 327 394
#     4  10  23  39  62  91 123 167 210 259 323 393
#     4  10  24  36  66  92 126 165 213 264 332 390
#     4  10  23  38  64  93 131 164 210 273 333 396
#     4  10  22  38  62  87 117 163 209 258 319 385
#     4  12  24  42  67 102 133 168 224 288 346 392
#
# _framework density 19.682547
#
# number of rings (size 3 to 8) (size 9 to 14) (size 15 to 20)
#    0.000    1.800    1.000    1.200   15.400    4.800 
#    0.000    0.000    0.000    0.600    0.000    0.000 
#    0.000    0.000    0.000    0.000    0.000    0.000 
#
# Total GULP energy -247824.017761 kJ/mol
# GULP energy per Si atom -12391.200888 kJ/mol
# Density = 1.963775 g / cm^3
# Si number density = 19.682547 Si / 1000 Ang^3
#
#
#
# Elastic Constant Matrix: (Units=GPa)
#
#
# Indices 1 2 3 4 5 6 
#
# 1 167.7223 38.9870 46.8183 0.0001 -1.8221 0.0000
# 2 38.9870 86.7043 25.8269 0.0000 -14.6838 0.0000
# 3 46.8183 25.8269 92.9068 0.0001 -12.1213 0.0001
# 4 0.0001 0.0000 0.0001 30.1190 0.0000 -4.7358
# 5 -1.8221 -14.6838 -12.1213 0.0000 34.3365 0.0000
# 6 0.0000 0.0000 0.0001 -4.7358 0.0000 29.0151
#
#
#
# Elastic Compliance Matrix: (Units=1/GPa)
#
#
# Indices 1 2 3 4 5 6 
#
# 1 0.007485 -0.002717 -0.003267 0.000000 -0.001918 0.000000
# 2 -0.002717 0.014211 -0.001894 0.000000 0.005264 0.000000
# 3 -0.003267 -0.001894 0.013426 0.000000 0.003756 0.000000
# 4 0.000000 0.000000 0.000000 0.034076 0.000000 0.005562
# 5 -0.001918 0.005264 0.003756 0.000000 0.032599 0.000000
# 6 0.000000 0.000000 0.000000 0.005562 0.000000 0.035373
#
#
# Mechanical properties :
#
#
# Convention : Reuss Voigt Hill
#
# Bulk Modulus (GPa) = 51.63804 63.39975 57.51890
# Shear Modulus (GPa) = 31.37113 34.40754 32.88934
#
# Velocity S-wave (km/s) = 3.99664 4.18559 4.09221
# Velocity P-wave (km/s) = 6.89855 7.45922 7.18436
#
# Compressibility (1/GPa) = 0.01936557
#
# Stress axis : x y z
#
# Youngs Moduli (GPa) = 133.60168 70.36722 74.48056
#
# Poissons Ratio (x) = 0.19122 0.24331
# Poissons Ratio (y) = 0.36305 0.14109
# Poissons Ratio (z) = 0.43644 0.13330
#
# Static dielectric constant tensor:
#      x y z
#    x 4.202510 0.000000 0.199830 
#    y 0.000000 4.200470 0.000000 
#    z 0.199830 0.000000 3.822330 
# 
# 
# High freq. dielectric constant tensor:
#      x y z
#    x 1.780550 0.000000 0.008550 
#    y 0.000000 1.765290 0.000000 
#    z 0.008550 0.000000 1.761810 
# 
# From -- ./inp_files/141924.got.cif
#   From: 2010.06.25/outbox.cif.g09.slc.cpg/sg12_71_cif.got.tgz:141924.got - 2010.06.28 00:19:55.
