data_PCOD8110951
_publ_section_title
;
Structure prediction by ZEFSAII (Michael W. Deem and Ramdas Pophale) SiO2 
 PCOD8110951
Probable space group: C 2/M
;
_chemical_formula_sum "Si O2"
_cell_formula_units_Z 56
_cell_length_a 28.140056
_cell_length_b 19.915293
_cell_length_c 8.997656
_cell_angle_alpha 90.000000
_cell_angle_beta 32.152236
_cell_angle_gamma 90.000000
_cell_volume 2683.440555
_symmetry_space_group_name_H-M "C 2/M"
_symmetry_group_IT_number 12
_symmetry_cell_setting 'monoclinic'
loop_
_space_group_symop_operation_xyz
x,y,z
-x,y,-z
-x,-y,-z
x,-y,z
1/2+x,1/2+y,z
1/2-x,1/2+y,-z
1/2-x,1/2-y,-z
1/2+x,1/2-y,z
loop_
_atom_site_type_symbol
_atom_site_label
_atom_site_fract_x
_atom_site_fract_y
_atom_site_fract_z
Si Si1 0.814932 0.669437 0.219705
Si Si2 0.831980 0.296471 0.833440
Si Si3 0.371109 0.705313 0.246738
Si Si4 0.552579 0.697585 0.637018
Si Si5 0.784679 0.575755 0.772666
Si Si6 0.909618 0.576845 0.169911
Si Si7 0.913190 0.075863 0.636274
O O1 0.709406 0.651246 0.519793
O O2 0.832603 0.724278 0.298152
O O3 0.880480 0.608267 0.088681
O O4 0.835204 0.696151 0.001735
O O5 0.922654 0.258058 0.542462
O O6 0.823750 0.370777 0.786105
O O7 0.750000 0.250000 0.000000
O O8 0.411917 0.719863 0.298806
O O9 0.446206 0.683265 0.928854
O O10 0.596726 0.626804 0.474522
O O11 0.806883 0.500000 0.772193
O O12 0.828259 0.587973 0.498021
O O13 0.678170 0.583043 0.028420
O O14 0.929869 0.500000 0.080388
O O15 0.000000 0.609459 0.000000
O O16 0.000000 0.097792 0.500000
O O17 0.925373 0.000000 0.543795
#
# Coordination Sequence:
#
# PCOD8110951 Si02
#       7
#     8   8   8   8   8   8   8
#     4  11  24  40  64  94 127 167 215 270 324 388
#     4  12  23  40  65  99 130 168 214 268 320 384
#     4  10  24  40  60  94 125 169 210 262 324 383
#     4  11  23  41  63  89 133 170 209 266 325 384
#     4  10  22  42  67  90 127 175 213 262 325 383
#     4  10  24  45  67  92 127 173 221 274 329 388
#     4  10  22  38  62  95 129 167 212 262 319 387
#
# _framework density 20.868732000000001
#
# number of rings (size 3 to 8) (size 9 to 14) (size 15 to 20)
#    0.000    1.429    2.857    0.857   10.000    0.571 
#    0.000    2.143    0.000    2.571    0.000    0.000 
#    0.000    0.000    0.000    0.000    0.000    0.000 
#
# Total GULP energy -347074.825059 kJ/mol
# GULP energy per Si atom -12395.529466 kJ/mol
# Density = 2.082123 g / cm^3
# Si number density = 20.868732 Si / 1000 Ang^3
#
#
#
# Elastic Constant Matrix: (Units=GPa)
#
#
# Indices 1 2 3 4 5 6 
#
# 1 111.6691 51.7757 59.7650 0.0000 3.0245 0.0000
# 2 51.7757 105.1119 43.1263 0.0000 7.1923 0.0000
# 3 59.7650 43.1263 149.0811 0.0000 -6.6760 0.0000
# 4 0.0000 0.0000 0.0000 23.9527 0.0000 0.0486
# 5 3.0245 7.1923 -6.6760 0.0000 29.5512 0.0000
# 6 0.0000 0.0000 0.0000 0.0486 0.0000 34.6559
#
#
#
# Elastic Compliance Matrix: (Units=1/GPa)
#
#
# Indices 1 2 3 4 5 6 
#
# 1 0.013390 -0.004878 -0.004006 0.000000 -0.001088 0.000000
# 2 -0.004878 0.012914 -0.001918 0.000000 -0.003077 0.000000
# 3 -0.004006 -0.001918 0.008999 0.000000 0.002910 0.000000
# 4 0.000000 0.000000 0.000000 0.041749 0.000000 -0.000059
# 5 -0.001088 -0.003077 0.002910 0.000000 0.035357 0.000000
# 6 0.000000 0.000000 0.000000 -0.000059 0.000000 0.028855
#
#
# Mechanical properties :
#
#
# Convention : Reuss Voigt Hill
#
# Bulk Modulus (GPa) = 72.99415 75.02179 74.00797
# Shear Modulus (GPa) = 29.86270 31.71163 30.78717
#
# Velocity S-wave (km/s) = 3.78693 3.90240 3.84510
# Velocity P-wave (km/s) = 7.36035 7.50549 7.43328
#
# Compressibility (1/GPa) = 0.01369973
#
# Stress axis : x y z
#
# Youngs Moduli (GPa) = 74.68382 77.43643 111.12696
#
# Poissons Ratio (x) = 0.37770 0.44512
# Poissons Ratio (y) = 0.36428 0.21316
# Poissons Ratio (z) = 0.29915 0.14853
#
# Static dielectric constant tensor:
#      x y z
#    x 3.727890 0.000000 -0.314960 
#    y 0.000000 3.788490 0.000000 
#    z -0.314960 0.000000 4.239780 
# 
# 
# High freq. dielectric constant tensor:
#      x y z
#    x 1.804870 0.000000 -0.013050 
#    y 0.000000 1.807590 0.000000 
#    z -0.013050 0.000000 1.834700 
# 
# From -- ./inp_files/113329.got.cif
#   From: 2010.06.25/outbox.cif.g09.slc.cpg/sg12_57_cif.got.tgz:113329.got - 2010.06.28 00:19:55.
