data_PCOD8110586
_publ_section_title
;
Structure prediction by ZEFSAII (Michael W. Deem and Ramdas Pophale) SiO2 
 PCOD8110586
Probable space group: C 2/M
;
_chemical_formula_sum "Si O2"
_cell_formula_units_Z 56
_cell_length_a 11.002289
_cell_length_b 13.628218
_cell_length_c 21.685232
_cell_angle_alpha 90.000000
_cell_angle_beta 66.748923
_cell_angle_gamma 90.000000
_cell_volume 2987.442243
_symmetry_space_group_name_H-M "C 2/M"
_symmetry_group_IT_number 12
_symmetry_cell_setting 'monoclinic'
loop_
_space_group_symop_operation_xyz
x,y,z
-x,y,-z
-x,-y,-z
x,-y,z
1/2+x,1/2+y,z
1/2-x,1/2+y,-z
1/2-x,1/2-y,-z
1/2+x,1/2-y,z
loop_
_atom_site_type_symbol
_atom_site_label
_atom_site_fract_x
_atom_site_fract_y
_atom_site_fract_z
Si Si1 0.529921 0.107212 0.295203
Si Si2 0.645526 0.610543 0.495367
Si Si3 0.873303 0.384485 0.851798
Si Si4 0.340303 0.747982 0.391046
Si Si5 0.090294 0.885496 0.865089
Si Si6 0.907945 0.738162 0.960214
Si Si7 0.677846 0.607107 0.717822
O O1 0.525385 0.142061 0.224642
O O2 0.470061 0.186599 0.354208
O O3 0.681531 0.092814 0.279740
O O4 0.459459 0.000000 0.317173
O O5 0.500000 0.599721 0.500000
O O6 0.705951 0.500000 0.491411
O O7 0.640924 0.666480 0.560921
O O8 0.725089 0.675380 0.430241
O O9 0.863846 0.500000 0.860563
O O10 0.725690 0.341859 0.867823
O O11 0.933704 0.342384 0.902423
O O12 0.309903 0.691398 0.334763
O O13 0.080864 0.862525 0.793379
O O14 0.963045 0.841277 0.924313
O O15 0.084181 0.000000 0.878232
O O16 0.750000 0.750000 0.000000
O O17 0.000000 0.706432 0.000000
O O18 0.634669 0.500000 0.698591
#
# Coordination Sequence:
#
# PCOD8110586 Si02
#       7
#     8   8   8   8   8   8   8
#     4   9  18  33  55  80 104 132 172 221 274 324
#     4  10  22  36  48  70 108 147 178 209 258 321
#     4   9  19  37  57  79 110 145 178 222 281 336
#     4  11  19  32  55  78 101 136 179 222 262 307
#     4   9  19  37  58  79 108 146 182 219 275 342
#     4  12  23  36  56  85 112 145 191 230 268 324
#     4   9  18  33  55  81 104 130 173 225 269 315
#
# _framework density 18.745132000000002
#
# number of rings (size 3 to 8) (size 9 to 14) (size 15 to 20)
#    0.000    2.143    1.429    4.286    0.000    1.143 
#    0.000    0.000    0.000    6.857    0.000    0.000 
#    0.000    0.000    0.000    0.000    0.000    0.000 
#
# Total GULP energy -346955.099105 kJ/mol
# GULP energy per Si atom -12391.253539 kJ/mol
# Density = 1.870247 g / cm^3
# Si number density = 18.745132 Si / 1000 Ang^3
#
#
#
# Elastic Constant Matrix: (Units=GPa)
#
#
# Indices 1 2 3 4 5 6 
#
# 1 60.4661 31.4641 35.5552 0.0000 1.4842 0.0000
# 2 31.4641 103.6757 59.1731 0.0000 2.9186 0.0000
# 3 35.5552 59.1731 101.8153 0.0000 3.1667 0.0000
# 4 0.0000 0.0000 0.0000 35.4501 0.0000 -3.7417
# 5 1.4842 2.9186 3.1667 0.0000 24.6718 0.0000
# 6 0.0000 0.0000 0.0000 -3.7417 0.0000 23.8951
#
#
#
# Elastic Compliance Matrix: (Units=1/GPa)
#
#
# Indices 1 2 3 4 5 6 
#
# 1 0.021568 -0.003359 -0.005574 0.000000 -0.000185 0.000000
# 2 -0.003359 0.014966 -0.007506 0.000000 -0.000605 0.000000
# 3 -0.005574 -0.007506 0.016157 0.000000 -0.000851 0.000000
# 4 0.000000 0.000000 0.000000 0.028683 0.000000 0.004491
# 5 -0.000185 -0.000605 -0.000851 0.000000 0.040724 0.000000
# 6 0.000000 0.000000 0.000000 0.004491 0.000000 0.042553
#
#
# Mechanical properties :
#
#
# Convention : Reuss Voigt Hill
#
# Bulk Modulus (GPa) = 50.47180 57.59353 54.03267
# Shear Modulus (GPa) = 24.49377 26.12105 25.30741
#
# Velocity S-wave (km/s) = 3.61872 3.73699 3.67833
# Velocity P-wave (km/s) = 6.66662 7.02932 6.85037
#
# Compressibility (1/GPa) = 0.01981304
#
# Stress axis : x y z
#
# Youngs Moduli (GPa) = 46.36450 66.81779 61.89246
#
# Poissons Ratio (x) = 0.22445 0.34498
# Poissons Ratio (y) = 0.15574 0.46457
# Poissons Ratio (z) = 0.25843 0.50154
#
# Static dielectric constant tensor:
#      x y z
#    x 3.311140 0.000000 0.035880 
#    y 0.000000 3.674580 0.000000 
#    z 0.035880 0.000000 3.745620 
# 
# 
# High freq. dielectric constant tensor:
#      x y z
#    x 1.699930 0.000000 -0.001880 
#    y 0.000000 1.733980 0.000000 
#    z -0.001880 0.000000 1.743660 
# 
# From -- ./inp_files/304157.got.cif
#   From: 2010.06.25/outbox.cif.g09.slc.cpg/sg12_153_cif.got.tgz:304157.got - 2010.06.28 00:19:55.
