data_PCOD8110129
_publ_section_title
;
Structure prediction by ZEFSAII (Michael W. Deem and Ramdas Pophale) SiO2 
 PCOD8110129
Probable space group: C 2/M
;
_chemical_formula_sum "Si O2"
_cell_formula_units_Z 28
_cell_length_a 17.642837
_cell_length_b 10.190212
_cell_length_c 12.895644
_cell_angle_alpha 90.000000
_cell_angle_beta 31.108240
_cell_angle_gamma 90.000000
_cell_volume 1197.833754
_symmetry_space_group_name_H-M "C 2/M"
_symmetry_group_IT_number 12
_symmetry_cell_setting 'monoclinic'
loop_
_space_group_symop_operation_xyz
x,y,z
-x,y,-z
-x,-y,-z
x,-y,z
1/2+x,1/2+y,z
1/2-x,1/2+y,-z
1/2-x,1/2-y,-z
1/2+x,1/2-y,z
loop_
_atom_site_type_symbol
_atom_site_label
_atom_site_fract_x
_atom_site_fract_y
_atom_site_fract_z
Si Si1 0.444573 0.500000 0.683374
Si Si2 0.136912 0.500000 0.118512
Si Si3 0.123446 0.236911 0.785941
Si Si4 0.559988 0.231188 0.624324
Si Si5 0.193998 0.500000 0.822789
O O1 0.538162 0.368814 0.591982
O O2 0.368979 0.500000 0.654897
O O3 0.312936 0.500000 0.923722
O O4 0.068845 0.628961 0.253131
O O5 0.097811 0.500000 0.041118
O O6 0.283398 0.167630 0.594357
O O7 0.058020 0.245214 0.748699
O O8 0.150910 0.377777 0.804461
O O9 0.000000 0.161366 0.000000
#
# Coordination Sequence:
#
# PCOD8110129 Si02
#       5
#     4   4   8   8   4
#     4  10  23  42  68 100 130 170 219 278 322 389
#     4  10  21  41  69  92 129 170 219 266 320 387
#     4  11  21  38  63  98 129 169 221 271 309 389
#     4  11  23  39  67  99 134 171 215 271 338 375
#     4  10  21  40  74  88 129 172 238 257 306 391
#
# _framework density 23.375532
#
# number of rings (size 3 to 8) (size 9 to 14) (size 15 to 20)
#    0.857    0.571    2.857    3.000    0.000    5.714 
#    0.000    2.857    0.000    6.857    0.000    0.000 
#    0.000    0.000    0.000    0.000    0.000    0.000 
#
# Total GULP energy -173488.381862 kJ/mol
# GULP energy per Si atom -12392.027276 kJ/mol
# Density = 2.332233 g / cm^3
# Si number density = 23.375532 Si / 1000 Ang^3
#
#
#
# Elastic Constant Matrix: (Units=GPa)
#
#
# Indices 1 2 3 4 5 6 
#
# 1 89.8134 29.7759 29.8563 0.0000 -1.5103 0.0000
# 2 29.7759 91.7556 12.2088 0.0000 2.9944 0.0000
# 3 29.8563 12.2088 172.5691 0.0000 -6.5983 0.0000
# 4 0.0000 0.0000 0.0000 10.7709 0.0000 2.3836
# 5 -1.5103 2.9944 -6.5983 0.0000 41.1034 0.0000
# 6 0.0000 0.0000 0.0000 2.3836 0.0000 28.2350
#
#
#
# Elastic Compliance Matrix: (Units=1/GPa)
#
#
# Indices 1 2 3 4 5 6 
#
# 1 0.013127 -0.004013 -0.001970 0.000000 0.000458 0.000000
# 2 -0.004013 0.012264 -0.000215 0.000000 -0.001075 0.000000
# 3 -0.001970 -0.000215 0.006187 0.000000 0.000936 0.000000
# 4 0.000000 0.000000 0.000000 0.094610 0.000000 -0.007987
# 5 0.000458 -0.001075 0.000936 0.000000 0.024574 0.000000
# 6 0.000000 0.000000 0.000000 -0.007987 0.000000 0.036091
#
#
# Mechanical properties :
#
#
# Convention : Reuss Voigt Hill
#
# Bulk Modulus (GPa) = 52.12699 55.31334 53.72017
# Shear Modulus (GPa) = 24.31409 34.84168 29.57788
#
# Velocity S-wave (km/s) = 3.22864 3.86491 3.56101
# Velocity P-wave (km/s) = 6.02055 6.60538 6.31973
#
# Compressibility (1/GPa) = 0.01918392
#
# Stress axis : x y z
#
# Youngs Moduli (GPa) = 76.17864 81.53714 161.64124
#
# Poissons Ratio (x) = 0.32719 0.31838
# Poissons Ratio (y) = 0.30569 0.03468
# Poissons Ratio (z) = 0.15005 0.01749
#
# Static dielectric constant tensor:
#      x y z
#    x 3.942910 0.000000 -0.226620 
#    y 0.000000 3.725530 0.000000 
#    z -0.226620 0.000000 5.480770 
# 
# 
# High freq. dielectric constant tensor:
#      x y z
#    x 1.909340 0.000000 -0.009950 
#    y 0.000000 1.887120 0.000000 
#    z -0.009950 0.000000 1.973740 
# 
# From -- ./inp_files/230756.got.cif
#   From: 2010.06.25/outbox.cif.g09.slc.cpg/sg12_116_cif.got.tgz:230756.got - 2010.06.28 00:19:55.
