data_PCOD8110851
_publ_section_title
;
Structure prediction by ZEFSAII (Michael W. Deem and Ramdas Pophale) SiO2 
 PCOD8110851
Probable space group: C 2/M
;
_chemical_formula_sum "Si O2"
_cell_formula_units_Z 40
_cell_length_a 20.987220
_cell_length_b 18.061651
_cell_length_c 10.749028
_cell_angle_alpha 90.000000
_cell_angle_beta 31.630078
_cell_angle_gamma 90.000000
_cell_volume 2136.837671
_symmetry_space_group_name_H-M "C 2/M"
_symmetry_group_IT_number 12
_symmetry_cell_setting 'monoclinic'
loop_
_space_group_symop_operation_xyz
x,y,z
-x,y,-z
-x,-y,-z
x,-y,z
1/2+x,1/2+y,z
1/2-x,1/2+y,-z
1/2-x,1/2-y,-z
1/2+x,1/2-y,z
loop_
_atom_site_type_symbol
_atom_site_label
_atom_site_fract_x
_atom_site_fract_y
_atom_site_fract_z
Si Si1 0.500000 0.246647 0.500000
Si Si2 0.000000 0.124565 0.000000
Si Si3 0.101791 0.000000 0.531946
Si Si4 0.312576 0.121563 0.786869
Si Si5 0.183817 0.000000 0.666805
Si Si6 0.684962 0.000000 0.015244
Si Si7 0.037528 0.148964 0.206150
Si Si8 0.912873 0.500000 0.441657
O O1 0.379688 0.197758 0.704279
O O2 0.505321 0.293616 0.618253
O O3 0.012569 0.171721 0.850250
O O4 0.116902 0.072538 0.831899
O O5 0.014751 0.070105 0.666102
O O6 0.179835 0.000000 0.526466
O O7 0.797686 0.000000 0.738561
O O8 0.300956 0.074762 0.930973
O O9 0.388709 0.073702 0.561639
O O10 0.181557 0.143795 0.954777
O O11 0.324976 0.000000 0.469164
O O12 0.553423 0.000000 0.165474
#
# Coordination Sequence:
#
# PCOD8110851 Si02
#       8
#     4   4   4   8   4   4   8   4
#     4  12  24  38  54  90 124 154 188 232 292 348
#     4   9  18  36  60  90 110 147 196 238 288 337
#     4  10  22  38  58  94 109 142 201 245 288 331
#     4  11  21  38  59  86 111 156 194 233 291 342
#     4   9  17  33  63  86 112 142 192 245 289 336
#     4  11  21  35  61  83 123 144 191 247 286 337
#     4  11  22  38  64  84 118 150 193 247 283 337
#     4  11  18  36  64  85 110 153 191 242 282 345
#
# _framework density 18.719251
#
# number of rings (size 3 to 8) (size 9 to 14) (size 15 to 20)
#    0.000    1.400    4.000    4.200    0.000    1.600 
#    0.000    1.000    4.400    0.000    0.000    0.000 
#    0.000    0.000    0.000    0.000    0.000    0.000 
#
# Total GULP energy -247954.743335 kJ/mol
# GULP energy per Si atom -12397.737167 kJ/mol
# Density = 1.867665 g / cm^3
# Si number density = 18.719251 Si / 1000 Ang^3
#
#
#
# Elastic Constant Matrix: (Units=GPa)
#
#
# Indices 1 2 3 4 5 6 
#
# 1 118.6307 55.3078 45.4241 0.0000 8.5408 0.0000
# 2 55.3078 98.3055 31.4955 0.0000 19.3297 0.0000
# 3 45.4241 31.4955 97.8366 0.0000 2.6582 0.0000
# 4 0.0000 0.0000 0.0000 -3.4084 0.0000 -5.0587
# 5 8.5408 19.3297 2.6582 0.0000 29.6303 0.0000
# 6 0.0000 0.0000 0.0000 -5.0587 0.0000 10.4480
#
#
#
# Elastic Compliance Matrix: (Units=1/GPa)
#
#
# Indices 1 2 3 4 5 6 
#
# 1 0.012705 -0.005989 -0.003987 0.000000 0.000603 0.000000
# 2 -0.005989 0.015875 -0.002100 0.000000 -0.008441 0.000000
# 3 -0.003987 -0.002100 0.012711 0.000000 0.001379 0.000000
# 4 0.000000 0.000000 0.000000 -0.170715 0.000000 -0.082657
# 5 0.000603 -0.008441 0.001379 0.000000 0.038959 0.000000
# 6 0.000000 0.000000 0.000000 -0.082657 0.000000 0.055691
#
#
# Mechanical properties :
#
#
# Convention : Reuss Voigt Hill
#
# Bulk Modulus (GPa) = 58.35163 64.35862 61.35512
# Shear Modulus (GPa) = -1018.39764 19.50368 -499.44698
#
# Velocity S-wave (km/s) = -23.34992 3.23136 -16.35202
# Velocity P-wave (km/s) = 26.37648 6.95542 17.99084
#
# Compressibility (1/GPa) = 0.01713748
#
# Stress axis : x y z
#
# Youngs Moduli (GPa) = 78.70895 62.99368 78.67222
#
# Poissons Ratio (x) = 0.37727 0.31368
# Poissons Ratio (y) = 0.47139 0.16524
# Poissons Ratio (z) = 0.31382 0.13231
#
# Static dielectric constant tensor:
#      x y z
#    x 3.571500 0.000000 -0.013370 
#    y 0.000000 3.429190 0.000000 
#    z -0.013370 0.000000 3.413490 
# 
# 
# High freq. dielectric constant tensor:
#      x y z
#    x 1.735160 0.000000 -0.007500 
#    y 0.000000 1.707930 0.000000 
#    z -0.007500 0.000000 1.728820 
# 
# From -- ./inp_files/159052.got.cif
#   From: 2010.06.25/outbox.cif.g09.slc.cpg/sg12_80_cif.got.tgz:159052.got - 2010.06.28 00:19:55.
