data_PCOD8110260
_publ_section_title
;
Structure prediction by ZEFSAII (Michael W. Deem and Ramdas Pophale) SiO2 
 PCOD8110260
Probable space group: C 2/M
;
_chemical_formula_sum "Si O2"
_cell_formula_units_Z 56
_cell_length_a 9.241544
_cell_length_b 23.059795
_cell_length_c 14.281636
_cell_angle_alpha 90.000000
_cell_angle_beta 118.877478
_cell_angle_gamma 90.000000
_cell_volume 2665.082678
_symmetry_space_group_name_H-M "C 2/M"
_symmetry_group_IT_number 12
_symmetry_cell_setting 'monoclinic'
loop_
_space_group_symop_operation_xyz
x,y,z
-x,y,-z
-x,-y,-z
x,-y,z
1/2+x,1/2+y,z
1/2-x,1/2+y,-z
1/2-x,1/2-y,-z
1/2+x,1/2-y,z
loop_
_atom_site_type_symbol
_atom_site_label
_atom_site_fract_x
_atom_site_fract_y
_atom_site_fract_z
Si Si1 0.060060 0.846222 0.750951
Si Si2 0.276973 0.433913 0.666891
Si Si3 0.565069 0.143768 0.119270
Si Si4 0.497821 0.130141 0.698902
Si Si5 0.436990 0.268111 0.071349
Si Si6 0.312509 0.434337 0.461042
Si Si7 0.560636 0.248351 0.417692
O O1 0.243889 0.871657 0.803480
O O2 0.031862 0.804181 0.827920
O O3 0.948052 0.901572 0.737994
O O4 0.005208 0.810454 0.641030
O O5 0.291600 0.500000 0.706606
O O6 0.126147 0.404308 0.674805
O O7 0.248399 0.431417 0.547182
O O8 0.457245 0.123215 0.176031
O O9 0.557466 0.212929 0.112208
O O10 0.500000 0.116357 0.000000
O O11 0.311923 0.105997 0.634152
O O12 0.495538 0.198042 0.671642
O O13 0.500000 0.304357 0.000000
O O14 0.250000 0.250000 0.000000
O O15 0.500000 0.411851 0.500000
O O16 0.300722 0.500000 0.419390
O O17 0.500000 0.231793 0.500000
O O18 0.750000 0.250000 0.500000
#
# Coordination Sequence:
#
# PCOD8110260 Si02
#       7
#     8   8   8   8   8   8   8
#     4  12  24  41  67  92 135 177 218 279 339 409
#     4  11  26  44  67  98 130 179 238 280 328 399
#     4  11  24  41  64 100 130 171 226 273 339 411
#     4  12  23  39  66  94 136 176 220 278 343 401
#     4  11  22  39  65  99 133 170 223 275 340 411
#     4  10  21  41  66  92 126 174 229 277 323 396
#     4  12  25  37  56  95 139 169 204 257 343 414
#
# _framework density 21.012481000000001
#
# number of rings (size 3 to 8) (size 9 to 14) (size 15 to 20)
#    0.000    0.714    4.286    5.143    4.000    2.286 
#    0.000    0.714    0.000    6.857    0.000    0.000 
#    0.000    0.000    0.000    0.000    0.000    0.000 
#
# Total GULP energy -347067.161829 kJ/mol
# GULP energy per Si atom -12395.255780 kJ/mol
# Density = 2.096466 g / cm^3
# Si number density = 21.012481 Si / 1000 Ang^3
#
#
#
# Elastic Constant Matrix: (Units=GPa)
#
#
# Indices 1 2 3 4 5 6 
#
# 1 138.2374 40.5069 51.9094 0.0000 -7.4301 0.0000
# 2 40.5069 88.2666 28.4320 0.0000 6.5902 0.0000
# 3 51.9094 28.4320 111.5001 0.0000 -12.2243 0.0000
# 4 0.0000 0.0000 0.0000 17.7366 0.0000 1.8863
# 5 -7.4301 6.5902 -12.2243 0.0000 48.8571 0.0000
# 6 0.0000 0.0000 0.0000 1.8863 0.0000 36.1080
#
#
#
# Elastic Compliance Matrix: (Units=1/GPa)
#
#
# Indices 1 2 3 4 5 6 
#
# 1 0.009583 -0.003350 -0.003494 0.000000 0.001035 0.000000
# 2 -0.003350 0.013824 -0.002289 0.000000 -0.002947 0.000000
# 3 -0.003494 -0.002289 0.011469 0.000000 0.002647 0.000000
# 4 0.000000 0.000000 0.000000 0.056696 0.000000 -0.002962
# 5 0.001035 -0.002947 0.002647 0.000000 0.021685 0.000000
# 6 0.000000 0.000000 0.000000 -0.002962 0.000000 0.027849
#
#
# Mechanical properties :
#
#
# Convention : Reuss Voigt Hill
#
# Bulk Modulus (GPa) = 60.19901 64.41121 62.30511
# Shear Modulus (GPa) = 30.32010 35.01738 32.66874
#
# Velocity S-wave (km/s) = 3.80275 4.08671 3.94728
# Velocity P-wave (km/s) = 6.92767 7.27933 7.10567
#
# Compressibility (1/GPa) = 0.01661157
#
# Stress axis : x y z
#
# Youngs Moduli (GPa) = 104.35077 72.33936 87.19205
#
# Poissons Ratio (x) = 0.24231 0.30463
# Poissons Ratio (y) = 0.34954 0.19955
# Poissons Ratio (z) = 0.36458 0.16555
#
# Static dielectric constant tensor:
#      x y z
#    x 4.091020 0.000000 -0.284610 
#    y 0.000000 4.254610 0.000000 
#    z -0.284610 0.000000 4.088100 
# 
# 
# High freq. dielectric constant tensor:
#      x y z
#    x 1.849340 0.000000 -0.011510 
#    y 0.000000 1.798520 0.000000 
#    z -0.011510 0.000000 1.824200 
# 
# From -- ./inp_files/198962.got.cif
#   From: 2010.06.25/outbox.cif.g09.slc.cpg/sg12_100_cif.got.tgz:198962.got - 2010.06.28 00:19:55.
