data_PCOD8110957
_publ_section_title
;
Structure prediction by ZEFSAII (Michael W. Deem and Ramdas Pophale) SiO2 
 PCOD8110957
Probable space group: C 2/M
;
_chemical_formula_sum "Si O2"
_cell_formula_units_Z 56
_cell_length_a 17.873880
_cell_length_b 20.418930
_cell_length_c 11.593671
_cell_angle_alpha 90.000000
_cell_angle_beta 139.632346
_cell_angle_gamma 90.000000
_cell_volume 2740.563685
_symmetry_space_group_name_H-M "C 2/M"
_symmetry_group_IT_number 12
_symmetry_cell_setting 'monoclinic'
loop_
_space_group_symop_operation_xyz
x,y,z
-x,y,-z
-x,-y,-z
x,-y,z
1/2+x,1/2+y,z
1/2-x,1/2+y,-z
1/2-x,1/2-y,-z
1/2+x,1/2-y,z
loop_
_atom_site_type_symbol
_atom_site_label
_atom_site_fract_x
_atom_site_fract_y
_atom_site_fract_z
Si Si1 0.855152 0.236491 0.539242
Si Si2 0.084919 0.301651 0.802327
Si Si3 0.381017 0.926851 0.296100
Si Si4 0.216556 0.797986 0.800515
Si Si5 0.407396 0.427547 0.297168
Si Si6 0.025009 0.885763 0.214464
Si Si7 0.341611 0.425511 0.831978
O O1 0.750000 0.250000 0.500000
O O2 0.796386 0.214967 0.350411
O O3 0.941230 0.181853 0.688059
O O4 0.944433 0.297975 0.640618
O O5 0.121813 0.375180 0.810476
O O6 0.126587 0.250372 0.755321
O O7 0.151333 0.285426 0.000992
O O8 0.500000 0.924051 0.500000
O O9 0.288505 0.908482 0.286506
O O10 0.356867 0.000000 0.217364
O O11 0.190908 0.872647 0.809225
O O12 0.500000 0.406958 0.500000
O O13 0.354829 0.500000 0.259700
O O14 0.472317 0.432058 0.250800
O O15 0.138245 0.914847 0.281791
O O16 0.924306 0.876916 0.001087
O O17 0.374502 0.500000 0.902438
#
# Coordination Sequence:
#
# PCOD8110957 Si02
#       7
#     8   8   8   8   8   8   8
#     4  12  27  43  63  91 128 166 217 262 314 383
#     4  11  24  41  69  90 128 168 204 266 320 369
#     4  10  22  40  65  96 129 170 215 257 316 380
#     4  11  23  43  64  96 127 163 211 260 317 381
#     4  11  20  36  63  94 130 167 204 258 316 376
#     4  11  21  37  60  90 128 162 205 259 312 372
#     4  10  22  38  62  96 130 162 207 264 319 373
#
# _framework density 20.433751000000001
#
# number of rings (size 3 to 8) (size 9 to 14) (size 15 to 20)
#    0.000    1.143    2.857    3.857    6.000    3.429 
#    0.000    0.000    0.000    0.857    0.000    2.000 
#    0.000    0.000    0.000    0.000    0.000    0.000 
#
# Total GULP energy -347042.174776 kJ/mol
# GULP energy per Si atom -12394.363385 kJ/mol
# Density = 2.038724 g / cm^3
# Si number density = 20.433751 Si / 1000 Ang^3
#
#
#
# Elastic Constant Matrix: (Units=GPa)
#
#
# Indices 1 2 3 4 5 6 
#
# 1 142.0343 34.0155 63.4579 0.0000 2.4147 0.0000
# 2 34.0155 96.1635 26.9094 0.0000 -2.4312 0.0000
# 3 63.4579 26.9094 98.1424 0.0000 -6.8601 0.0000
# 4 0.0000 0.0000 0.0000 25.8460 0.0000 0.9261
# 5 2.4147 -2.4312 -6.8601 0.0000 38.5348 0.0000
# 6 0.0000 0.0000 0.0000 0.9261 0.0000 27.7104
#
#
#
# Elastic Compliance Matrix: (Units=1/GPa)
#
#
# Indices 1 2 3 4 5 6 
#
# 1 0.010350 -0.001949 -0.006290 0.000000 -0.001891 0.000000
# 2 -0.001949 0.011631 -0.001893 0.000000 0.000519 0.000000
# 3 -0.006290 -0.001893 0.014981 0.000000 0.002942 0.000000
# 4 0.000000 0.000000 0.000000 0.038737 0.000000 -0.001295
# 5 -0.001891 0.000519 0.002942 0.000000 0.026626 0.000000
# 6 0.000000 0.000000 0.000000 -0.001295 0.000000 0.036131
#
#
# Mechanical properties :
#
#
# Convention : Reuss Voigt Hill
#
# Bulk Modulus (GPa) = 59.88444 65.01174 62.44809
# Shear Modulus (GPa) = 30.43518 32.54874 31.49196
#
# Velocity S-wave (km/s) = 3.86353 3.99543 3.93004
# Velocity P-wave (km/s) = 7.01946 7.29175 7.15690
#
# Compressibility (1/GPa) = 0.01669883
#
# Stress axis : x y z
#
# Youngs Moduli (GPa) = 96.62275 85.97686 66.75202
#
# Poissons Ratio (x) = 0.16754 0.41986
# Poissons Ratio (y) = 0.18828 0.12635
# Poissons Ratio (z) = 0.60774 0.16274
#
# Static dielectric constant tensor:
#      x y z
#    x 3.902480 0.000000 -0.111320 
#    y 0.000000 3.898720 0.000000 
#    z -0.111320 0.000000 3.714260 
# 
# 
# High freq. dielectric constant tensor:
#      x y z
#    x 1.788670 0.000000 -0.001060 
#    y 0.000000 1.801740 0.000000 
#    z -0.001060 0.000000 1.801140 
# 
# From -- ./inp_files/160323.got.cif
#   From: 2010.06.25/outbox.cif.g09.slc.cpg/sg12_81_cif.got.tgz:160323.got - 2010.06.28 00:19:55.
