data_PCOD8110143
_publ_section_title
;
Structure prediction by ZEFSAII (Michael W. Deem and Ramdas Pophale) SiO2 
 PCOD8110143
Probable space group: C 2/M
;
_chemical_formula_sum "Si O2"
_cell_formula_units_Z 32
_cell_length_a 26.023983
_cell_length_b 14.182006
_cell_length_c 9.277075
_cell_angle_alpha 90.000000
_cell_angle_beta 30.060299
_cell_angle_gamma 90.000000
_cell_volume 1715.075294
_symmetry_space_group_name_H-M "C 2/M"
_symmetry_group_IT_number 12
_symmetry_cell_setting 'monoclinic'
loop_
_space_group_symop_operation_xyz
x,y,z
-x,y,-z
-x,-y,-z
x,-y,z
1/2+x,1/2+y,z
1/2-x,1/2+y,-z
1/2-x,1/2-y,-z
1/2+x,1/2-y,z
loop_
_atom_site_type_symbol
_atom_site_label
_atom_site_fract_x
_atom_site_fract_y
_atom_site_fract_z
Si Si1 0.311845 0.642427 0.703541
Si Si2 0.031436 0.500000 0.589405
Si Si3 0.790250 0.000000 0.264371
Si Si4 0.799802 0.357793 0.731848
Si Si5 0.981950 0.000000 0.213651
Si Si6 0.193467 0.500000 0.808049
O O1 0.322866 0.750876 0.631655
O O2 0.419933 0.592915 0.410663
O O3 0.221603 0.593147 0.831268
O O4 0.285026 0.634116 0.937144
O O5 0.094959 0.406453 0.472935
O O6 0.000000 0.500000 0.500000
O O7 0.927042 0.500000 0.936356
O O8 0.745521 0.093075 0.299021
O O9 0.759501 0.000000 0.504499
O O10 0.912615 0.000000 0.954983
O O11 0.000000 0.000000 0.000000
#
# Coordination Sequence:
#
# PCOD8110143 Si02
#       6
#     8   4   4   8   4   4
#     4  10  21  41  61  87 119 157 197 243 296 354
#     4  11  19  39  63  83 113 159 196 239 293 352
#     4  11  23  40  58  90 121 154 195 250 297 347
#     4  10  23  39  61  91 117 149 206 248 287 351
#     4  11  21  41  62  86 122 163 194 237 305 360
#     4  11  21  38  61  81 122 158 188 243 307 348
#
# _framework density 18.658073999999999
#
# number of rings (size 3 to 8) (size 9 to 14) (size 15 to 20)
#    0.000    1.500    5.000    2.250    0.000    7.000 
#    4.500    0.000    0.000    0.000    0.000    0.000 
#    0.000    0.000    0.000    0.000    0.000    0.000 
#
# Total GULP energy -198457.398874 kJ/mol
# GULP energy per Si atom -12403.587430 kJ/mol
# Density = 1.861561 g / cm^3
# Si number density = 18.658074 Si / 1000 Ang^3
#
#
#
# Elastic Constant Matrix: (Units=GPa)
#
#
# Indices 1 2 3 4 5 6 
#
# 1 90.7428 54.7521 30.1387 0.0000 -15.2140 0.0000
# 2 54.7521 186.7191 51.5447 0.0000 -9.0716 0.0000
# 3 30.1387 51.5447 108.7141 0.0000 -17.2140 0.0000
# 4 0.0000 0.0000 0.0000 8.7782 0.0000 3.7949
# 5 -15.2140 -9.0716 -17.2140 0.0000 43.2512 0.0000
# 6 0.0000 0.0000 0.0000 3.7949 0.0000 7.2343
#
#
#
# Elastic Compliance Matrix: (Units=1/GPa)
#
#
# Indices 1 2 3 4 5 6 
#
# 1 0.014342 -0.003556 -0.001718 0.000000 0.003616 0.000000
# 2 -0.003556 0.007045 -0.002474 0.000000 -0.000758 0.000000
# 3 -0.001718 -0.002474 0.011388 0.000000 0.003409 0.000000
# 4 0.000000 0.000000 0.000000 0.147328 0.000000 -0.077284
# 5 0.003616 -0.000758 0.003409 0.000000 0.025590 0.000000
# 6 0.000000 0.000000 0.000000 -0.077284 0.000000 0.178771
#
#
# Mechanical properties :
#
#
# Convention : Reuss Voigt Hill
#
# Bulk Modulus (GPa) = 57.87415 73.22746 65.55081
# Shear Modulus (GPa) = 12.32380 28.50211 20.41295
#
# Velocity S-wave (km/s) = 2.57282 3.91269 3.31124
# Velocity P-wave (km/s) = 6.31756 7.72946 7.05890
#
# Compressibility (1/GPa) = 0.01727887
#
# Stress axis : x y z
#
# Youngs Moduli (GPa) = 69.72362 141.95425 87.81507
#
# Poissons Ratio (x) = 0.50476 0.15084
# Poissons Ratio (y) = 0.24792 0.21728
# Poissons Ratio (z) = 0.11976 0.35123
#
# Static dielectric constant tensor:
#      x y z
#    x 3.402770 0.000000 -0.099030 
#    y 0.000000 3.537120 0.000000 
#    z -0.099030 0.000000 3.576190 
# 
# 
# High freq. dielectric constant tensor:
#      x y z
#    x 1.724290 0.000000 -0.000430 
#    y 0.000000 1.727630 0.000000 
#    z -0.000430 0.000000 1.732360 
# 
# From -- ./inp_files/57987.got.cif
#   From: 2010.06.25/outbox.cif.g09.slc.cpg/sg12_29_cif.got.tgz:57987.got - 2010.06.28 00:19:55.
