data_PCOD8110456
_publ_section_title
;
Structure prediction by ZEFSAII (Michael W. Deem and Ramdas Pophale) SiO2 
 PCOD8110456
Probable space group: C 2/M
;
_chemical_formula_sum "Si O2"
_cell_formula_units_Z 44
_cell_length_a 11.966602
_cell_length_b 16.507139
_cell_length_c 12.185374
_cell_angle_alpha 90.000000
_cell_angle_beta 123.965372
_cell_angle_gamma 90.000000
_cell_volume 1996.331497
_symmetry_space_group_name_H-M "C 2/M"
_symmetry_group_IT_number 12
_symmetry_cell_setting 'monoclinic'
loop_
_space_group_symop_operation_xyz
x,y,z
-x,y,-z
-x,-y,-z
x,-y,z
1/2+x,1/2+y,z
1/2-x,1/2+y,-z
1/2-x,1/2-y,-z
1/2+x,1/2-y,z
loop_
_atom_site_type_symbol
_atom_site_label
_atom_site_fract_x
_atom_site_fract_y
_atom_site_fract_z
Si Si1 0.630039 0.403150 0.262429
Si Si2 0.000000 0.180319 0.000000
Si Si3 0.025916 0.410494 0.857673
Si Si4 0.519636 0.681754 0.633316
Si Si5 0.924970 0.634635 0.355789
Si Si6 0.815684 0.673910 0.882621
O O1 0.641726 0.500000 0.279349
O O2 0.595697 0.362510 0.360022
O O3 0.767696 0.362188 0.296941
O O4 0.513889 0.377949 0.112888
O O5 0.135885 0.234870 0.060121
O O6 0.986931 0.500000 0.874869
O O7 0.052687 0.414403 0.743074
O O8 0.904651 0.351492 0.825666
O O9 0.159048 0.382251 0.997044
O O10 0.500000 0.647032 0.500000
O O11 0.505077 0.778348 0.624386
O O12 0.663070 0.662350 0.765112
O O13 0.000000 0.591840 0.500000
#
# Coordination Sequence:
#
# PCOD8110456 Si02
#       6
#     8   4   8   8   8   8
#     4  12  27  44  67 105 139 172 221 283 347 394
#     4  10  21  44  69  96 132 174 222 280 325 402
#     4  10  22  40  67  99 133 173 225 280 332 396
#     4  11  26  45  70  96 136 179 228 274 330 402
#     4  11  26  45  72  96 133 182 230 271 331 407
#     4  10  21  42  71  98 129 180 233 271 329 402
#
# _framework density 22.040429
#
# number of rings (size 3 to 8) (size 9 to 14) (size 15 to 20)
#    0.000    1.455    1.818    4.091    5.091    6.182 
#    0.000    0.000    0.000    0.000    0.000    0.000 
#    0.000    0.000    0.000    0.000    0.000    0.000 
#
# Total GULP energy -272760.607363 kJ/mol
# GULP energy per Si atom -12398.209426 kJ/mol
# Density = 2.199026 g / cm^3
# Si number density = 22.040429 Si / 1000 Ang^3
#
#
#
# Elastic Constant Matrix: (Units=GPa)
#
#
# Indices 1 2 3 4 5 6 
#
# 1 85.5449 22.5965 41.6440 0.0000 -16.8085 0.0000
# 2 22.5965 98.4824 17.1938 0.0000 -11.5468 0.0000
# 3 41.6440 17.1938 135.8933 0.0000 -22.0380 0.0000
# 4 0.0000 0.0000 0.0000 -4.9823 0.0000 -4.5463
# 5 -16.8085 -11.5468 -22.0380 0.0000 42.4618 0.0000
# 6 0.0000 0.0000 0.0000 -4.5463 0.0000 18.6379
#
#
#
# Elastic Compliance Matrix: (Units=1/GPa)
#
#
# Indices 1 2 3 4 5 6 
#
# 1 0.014754 -0.002356 -0.003691 0.000000 0.003284 0.000000
# 2 -0.002356 0.010977 -0.000365 0.000000 0.001863 0.000000
# 3 -0.003691 -0.000365 0.009044 0.000000 0.003134 0.000000
# 4 0.000000 0.000000 0.000000 -0.164171 0.000000 -0.040046
# 5 0.003284 0.001863 0.003134 0.000000 0.026984 0.000000
# 6 0.000000 0.000000 0.000000 -0.040046 0.000000 0.043886
#
#
# Mechanical properties :
#
#
# Convention : Reuss Voigt Hill
#
# Bulk Modulus (GPa) = 45.55312 53.64323 49.59818
# Shear Modulus (GPa) = -130.25428 27.12257 -51.56585
#
# Velocity S-wave (km/s) = -7.69586 3.51177 -4.84219
# Velocity P-wave (km/s) = 7.63252 6.39021 2.95132
#
# Compressibility (1/GPa) = 0.02195239
#
# Stress axis : x y z
#
# Youngs Moduli (GPa) = 67.77816 91.10150 110.56987
#
# Poissons Ratio (x) = 0.21462 0.40807
# Poissons Ratio (y) = 0.15968 0.04033
# Poissons Ratio (z) = 0.25014 0.03323
#
# Static dielectric constant tensor:
#      x y z
#    x 3.714050 0.000000 -0.100730 
#    y 0.000000 3.842190 0.000000 
#    z -0.100730 0.000000 4.258800 
# 
# 
# High freq. dielectric constant tensor:
#      x y z
#    x 1.855980 0.000000 -0.010540 
#    y 0.000000 1.861990 0.000000 
#    z -0.010540 0.000000 1.881990 
# 
# From -- ./inp_files/131865.got.cif
#   From: 2010.06.25/outbox.cif.g09.slc.cpg/sg12_66_cif.got.tgz:131865.got - 2010.06.28 00:19:55.
