data_PCOD8110289
_publ_section_title
;
Structure prediction by ZEFSAII (Michael W. Deem and Ramdas Pophale) SiO2 
 PCOD8110289
Probable space group: C 2/M
;
_chemical_formula_sum "Si O2"
_cell_formula_units_Z 48
_cell_length_a 17.865382
_cell_length_b 14.684583
_cell_length_c 9.137469
_cell_angle_alpha 90.000000
_cell_angle_beta 98.191466
_cell_angle_gamma 90.000000
_cell_volume 2372.718292
_symmetry_space_group_name_H-M "C 2/M"
_symmetry_group_IT_number 12
_symmetry_cell_setting 'monoclinic'
loop_
_space_group_symop_operation_xyz
x,y,z
-x,y,-z
-x,-y,-z
x,-y,z
1/2+x,1/2+y,z
1/2-x,1/2+y,-z
1/2-x,1/2-y,-z
1/2+x,1/2-y,z
loop_
_atom_site_type_symbol
_atom_site_label
_atom_site_fract_x
_atom_site_fract_y
_atom_site_fract_z
Si Si1 0.047639 0.748759 0.154530
Si Si2 0.780709 0.742151 0.846942
Si Si3 0.932775 0.104752 0.593949
Si Si4 0.796432 0.396425 0.336149
Si Si5 0.467928 0.106754 0.334554
Si Si6 0.219873 0.896000 0.605670
O O1 0.130999 0.719044 0.127430
O O2 0.049634 0.835713 0.259615
O O3 0.009710 0.661447 0.219567
O O4 0.000000 0.777475 0.000000
O O5 0.766836 0.837477 0.762044
O O6 0.734806 0.662618 0.753217
O O7 0.750000 0.750000 0.000000
O O8 0.856414 0.138735 0.493935
O O9 0.000000 0.118134 0.500000
O O10 0.924393 0.000000 0.641774
O O11 0.778526 0.500000 0.288503
O O12 0.879595 0.367719 0.308206
O O13 0.788871 0.383743 0.509714
O O14 0.500000 0.136716 0.500000
O O15 0.481462 0.000000 0.310089
O O16 0.211024 0.000000 0.654576
#
# Coordination Sequence:
#
# PCOD8110289 Si02
#       6
#     8   8   8   8   8   8
#     4  12  26  41  63  94 133 173 207 258 321 384
#     4  12  26  40  62  94 130 168 210 258 321 378
#     4  10  23  42  66  94 124 164 215 268 316 373
#     4  10  21  41  67  93 124 162 211 264 314 373
#     4  10  22  40  66  96 125 165 213 262 316 377
#     4  10  22  42  68  95 123 164 216 268 319 373
#
# _framework density 20.229962
#
# number of rings (size 3 to 8) (size 9 to 14) (size 15 to 20)
#    0.000    1.333    1.667    3.000    7.000    3.333 
#    0.000    0.000    0.000    0.000    0.000    0.000 
#    0.000    0.000    0.000    0.000    0.000    0.000 
#
# Total GULP energy -297740.501319 kJ/mol
# GULP energy per Si atom -12405.854222 kJ/mol
# Density = 2.018392 g / cm^3
# Si number density = 20.229962 Si / 1000 Ang^3
#
#
#
# Elastic Constant Matrix: (Units=GPa)
#
#
# Indices 1 2 3 4 5 6 
#
# 1 140.5062 51.5964 60.9551 0.0000 -2.6525 0.0000
# 2 51.5964 94.1790 66.2671 0.0000 7.8471 0.0000
# 3 60.9551 66.2671 141.3611 0.0000 8.9489 0.0000
# 4 0.0000 0.0000 0.0000 9.8870 0.0000 -4.9099
# 5 -2.6525 7.8471 8.9489 0.0000 37.9604 0.0000
# 6 0.0000 0.0000 0.0000 -4.9099 0.0000 29.2198
#
#
#
# Elastic Compliance Matrix: (Units=1/GPa)
#
#
# Indices 1 2 3 4 5 6 
#
# 1 0.009600 -0.003619 -0.002571 0.000000 0.002025 0.000000
# 2 -0.003619 0.017298 -0.006402 0.000000 -0.002320 0.000000
# 3 -0.002571 -0.006402 0.011280 0.000000 -0.001515 0.000000
# 4 0.000000 0.000000 0.000000 0.110351 0.000000 0.018543
# 5 0.002025 -0.002320 -0.001515 0.000000 0.027322 0.000000
# 6 0.000000 0.000000 0.000000 0.018543 0.000000 0.037339
#
#
# Mechanical properties :
#
#
# Convention : Reuss Voigt Hill
#
# Bulk Modulus (GPa) = 76.95730 81.52037 79.23883
# Shear Modulus (GPa) = 20.60116 28.56195 24.58155
#
# Velocity S-wave (km/s) = 3.19462 3.76155 3.48962
# Velocity P-wave (km/s) = 7.19245 7.69740 7.44921
#
# Compressibility (1/GPa) = 0.01299422
#
# Stress axis : x y z
#
# Youngs Moduli (GPa) = 104.17017 57.80854 88.65428
#
# Poissons Ratio (x) = 0.20920 0.22794
# Poissons Ratio (y) = 0.37697 0.56755
# Poissons Ratio (z) = 0.26784 0.37008
#
# Static dielectric constant tensor:
#      x y z
#    x 3.915720 0.000000 -0.043420 
#    y 0.000000 3.716770 0.000000 
#    z -0.043420 0.000000 3.554600 
# 
# 
# High freq. dielectric constant tensor:
#      x y z
#    x 1.808680 0.000000 -0.005940 
#    y 0.000000 1.797850 0.000000 
#    z -0.005940 0.000000 1.779000 
# 
# From -- ./inp_files/73619.got.cif
#   From: 2010.06.25/outbox.cif.g09.slc.cpg/sg12_37_cif.got.tgz:73619.got - 2010.06.28 00:19:55.
