data_PCOD8110211
_publ_section_title
;
Structure prediction by ZEFSAII (Michael W. Deem and Ramdas Pophale) SiO2 
 PCOD8110211
Probable space group: C 2/M
;
_chemical_formula_sum "Si O2"
_cell_formula_units_Z 56
_cell_length_a 18.531638
_cell_length_b 14.615192
_cell_length_c 21.166617
_cell_angle_alpha 90.000000
_cell_angle_beta 27.854874
_cell_angle_gamma 90.000000
_cell_volume 2678.575349
_symmetry_space_group_name_H-M "C 2/M"
_symmetry_group_IT_number 12
_symmetry_cell_setting 'monoclinic'
loop_
_space_group_symop_operation_xyz
x,y,z
-x,y,-z
-x,-y,-z
x,-y,z
1/2+x,1/2+y,z
1/2-x,1/2+y,-z
1/2-x,1/2-y,-z
1/2+x,1/2-y,z
loop_
_atom_site_type_symbol
_atom_site_label
_atom_site_fract_x
_atom_site_fract_y
_atom_site_fract_z
Si Si1 0.070137 0.356512 0.623168
Si Si2 0.132612 0.713679 0.012464
Si Si3 0.704788 0.104044 0.079557
Si Si4 0.608114 0.313866 0.283746
Si Si5 0.212703 0.725999 0.730187
Si Si6 0.690453 0.602838 0.459036
Si Si7 0.149959 0.600066 0.423347
O O1 0.216107 0.349292 0.556664
O O2 0.116556 0.408226 0.523498
O O3 0.927585 0.409114 0.765856
O O4 0.016630 0.255387 0.647870
O O5 0.127632 0.651633 0.078620
O O6 0.963269 0.706649 0.113340
O O7 0.166636 0.822288 0.996984
O O8 0.257672 0.665362 0.870289
O O9 0.770835 0.000000 0.015430
O O10 0.683496 0.274024 0.288203
O O11 0.495748 0.399737 0.384386
O O12 0.277433 0.651756 0.631893
O O13 0.218253 0.825714 0.693025
O O14 0.750781 0.500000 0.406390
O O15 0.206757 0.500000 0.356449
O O16 0.000000 0.630464 0.500000
#
# Coordination Sequence:
#
# PCOD8110211 Si02
#       7
#     8   8   8   8   8   8   8
#     4  11  21  41  66  96 127 168 213 271 327 377
#     4  10  24  40  67  94 126 178 215 260 325 388
#     4  10  21  41  64  94 132 168 215 269 323 383
#     4  11  24  43  65  92 134 174 213 272 325 383
#     4  12  23  44  64  96 135 171 218 270 324 391
#     4  12  25  41  69  99 128 171 222 272 327 386
#     4  11  22  37  62  97 132 171 214 267 330 384
#
# _framework density 20.906635999999999
#
# number of rings (size 3 to 8) (size 9 to 14) (size 15 to 20)
#    0.000    1.000    4.286    2.571    0.000    2.286 
#    0.000    0.000    0.000    5.143    0.000    0.000 
#    0.000    0.000    0.000    0.000    0.000    0.000 
#
# Total GULP energy -347107.760757 kJ/mol
# GULP energy per Si atom -12396.705741 kJ/mol
# Density = 2.085905 g / cm^3
# Si number density = 20.906636 Si / 1000 Ang^3
#
#
#
# Elastic Constant Matrix: (Units=GPa)
#
#
# Indices 1 2 3 4 5 6 
#
# 1 83.5012 28.3958 43.8000 -0.0031 8.2290 0.0158
# 2 28.3958 82.9988 24.0415 0.0152 -4.2597 0.0117
# 3 43.8000 24.0415 91.5221 0.0254 -18.5194 0.0261
# 4 -0.0031 0.0152 0.0254 10.5625 -0.0051 4.3577
# 5 8.2290 -4.2597 -18.5194 -0.0051 26.0058 -0.0114
# 6 0.0158 0.0117 0.0261 4.3577 -0.0114 -48.7340
#
#
#
# Elastic Compliance Matrix: (Units=1/GPa)
#
#
# Indices 1 2 3 4 5 6 
#
# 1 0.021788 -0.004668 -0.012561 0.000033 -0.016604 0.000006
# 2 -0.004668 0.014044 -0.000807 -0.000018 0.003203 -0.000001
# 3 -0.012561 -0.000807 0.020945 -0.000043 0.018758 -0.000001
# 4 0.000033 -0.000018 -0.000043 0.091306 -0.000023 0.008164
# 5 -0.016604 0.003203 0.018758 -0.000023 0.057590 -0.000010
# 6 0.000006 -0.000001 -0.000001 0.008164 -0.000010 -0.019790
#
#
# Mechanical properties :
#
#
# Convention : Reuss Voigt Hill
#
# Bulk Modulus (GPa) = 48.29662 50.05520 49.17591
# Shear Modulus (GPa) = 21.84764 8.35251 15.10007
#
# Velocity S-wave (km/s) = 3.23617 2.00096 2.69041
# Velocity P-wave (km/s) = 6.09220 5.41596 5.76401
#
# Compressibility (1/GPa) = 0.02070538
#
# Stress axis : x y z
#
# Youngs Moduli (GPa) = 45.89588 71.20715 47.74322
#
# Poissons Ratio (x) = 0.33240 0.59970
# Poissons Ratio (y) = 0.21425 0.03853
# Poissons Ratio (z) = 0.57650 0.05746
#
# Static dielectric constant tensor:
#      x y z
#    x 3.772820 0.000000 0.072830 
#    y 0.000000 3.698460 0.000010 
#    z 0.072830 0.000010 3.827000 
# 
# 
# High freq. dielectric constant tensor:
#      x y z
#    x 1.823400 0.000000 0.003150 
#    y 0.000000 1.814360 0.000000 
#    z 0.003150 0.000000 1.815020 
# 
# From -- ./inp_files/316689.got.cif
#   From: 2010.06.25/outbox.cif.g09.slc.cpg/sg12_159_cif.got.tgz:316689.got - 2010.06.28 00:19:55.
