data_PCOD8110557
_publ_section_title
;
Structure prediction by ZEFSAII (Michael W. Deem and Ramdas Pophale) SiO2 
 PCOD8110557
Probable space group: C 2/M
;
_chemical_formula_sum "Si O2"
_cell_formula_units_Z 48
_cell_length_a 23.306864
_cell_length_b 9.727865
_cell_length_c 18.825789
_cell_angle_alpha 90.000000
_cell_angle_beta 141.230136
_cell_angle_gamma 90.000000
_cell_volume 2672.780764
_symmetry_space_group_name_H-M "C 2/M"
_symmetry_group_IT_number 12
_symmetry_cell_setting 'monoclinic'
loop_
_space_group_symop_operation_xyz
x,y,z
-x,y,-z
-x,-y,-z
x,-y,z
1/2+x,1/2+y,z
1/2-x,1/2+y,-z
1/2-x,1/2-y,-z
1/2+x,1/2-y,z
loop_
_atom_site_type_symbol
_atom_site_label
_atom_site_fract_x
_atom_site_fract_y
_atom_site_fract_z
Si Si1 0.428462 0.337396 0.868995
Si Si2 0.169611 0.651187 0.903829
Si Si3 0.411469 0.837613 0.565456
Si Si4 0.222349 0.337693 0.681378
Si Si5 0.094953 0.345288 0.678894
Si Si6 0.026588 0.661124 0.224778
O O1 0.431539 0.500000 0.855767
O O2 0.326449 0.286674 0.792491
O O3 0.451853 0.255290 0.820970
O O4 0.500000 0.298241 0.000000
O O5 0.199748 0.500000 0.957123
O O6 0.157619 0.656237 0.808365
O O7 0.077726 0.692438 0.855865
O O8 0.250000 0.750000 0.000000
O O9 0.316232 0.798602 0.434591
O O10 0.496820 0.773752 0.602069
O O11 0.411316 0.789258 0.647636
O O12 0.430214 0.000000 0.586241
O O13 0.222254 0.500000 0.691601
O O14 0.153779 0.269972 0.673585
O O15 0.075162 0.500000 0.633705
O O16 0.042812 0.500000 0.222671
#
# Coordination Sequence:
#
# PCOD8110557 Si02
#       6
#     8   8   8   8   8   8
#     4  10  22  35  48  71 100 132 168 203 240 286
#     4   9  18  30  48  73  98 127 162 198 241 290
#     4   8  14  27  48  73  97 121 157 204 249 290
#     4   9  16  27  46  71  98 128 161 200 244 287
#     4   8  14  25  44  71  98 122 153 199 249 288
#     4   9  19  35  51  71  99 129 163 204 244 289
#
# _framework density 17.958825000000001
#
# number of rings (size 3 to 8) (size 9 to 14) (size 15 to 20)
#    0.000    3.167    0.000    2.500    2.333    3.667 
#    0.000    0.000    0.000    0.000    0.000    0.000 
#    0.000    6.667    0.000    0.000    0.000    0.000 
#
# Total GULP energy -297340.037689 kJ/mol
# GULP energy per Si atom -12389.168237 kJ/mol
# Density = 1.791795 g / cm^3
# Si number density = 17.958825 Si / 1000 Ang^3
#
#
#
# Elastic Constant Matrix: (Units=GPa)
#
#
# Indices 1 2 3 4 5 6 
#
# 1 117.0765 30.4457 65.9990 0.0000 -17.7747 0.0000
# 2 30.4457 24.2402 26.3059 0.0000 -0.9724 0.0000
# 3 65.9990 26.3059 137.3497 0.0000 4.6607 0.0000
# 4 0.0000 0.0000 0.0000 11.9584 0.0000 -1.7683
# 5 -17.7747 -0.9724 4.6607 0.0000 19.5473 0.0000
# 6 0.0000 0.0000 0.0000 -1.7683 0.0000 24.6426
#
#
#
# Elastic Compliance Matrix: (Units=1/GPa)
#
#
# Indices 1 2 3 4 5 6 
#
# 1 0.019438 -0.016227 -0.006860 0.000000 0.018503 0.000000
# 2 -0.016227 0.066115 -0.004513 0.000000 -0.010390 0.000000
# 3 -0.006860 -0.004513 0.011756 0.000000 -0.009266 0.000000
# 4 0.000000 0.000000 0.000000 0.084520 0.000000 0.006065
# 5 0.018503 -0.010390 -0.009266 0.000000 0.069676 0.000000
# 6 0.000000 0.000000 0.000000 0.006065 0.000000 0.041015
#
#
# Mechanical properties :
#
#
# Convention : Reuss Voigt Hill
#
# Bulk Modulus (GPa) = 23.74784 58.24084 40.99434
# Shear Modulus (GPa) = 13.82150 21.62404 17.72277
#
# Velocity S-wave (km/s) = 2.77722 3.47376 3.14483
# Velocity P-wave (km/s) = 4.85140 6.97065 6.00525
#
# Compressibility (1/GPa) = 0.04210909
#
# Stress axis : x y z
#
# Youngs Moduli (GPa) = 51.44668 15.12518 85.06371
#
# Poissons Ratio (x) = 0.24543 0.58356
# Poissons Ratio (y) = 0.83480 0.38389
# Poissons Ratio (z) = 0.35294 0.06826
#
# Static dielectric constant tensor:
#      x y z
#    x 3.312150 0.000000 0.136940 
#    y 0.000000 2.794180 0.000000 
#    z 0.136940 0.000000 3.399210 
# 
# 
# High freq. dielectric constant tensor:
#      x y z
#    x 1.700500 0.000000 -0.002430 
#    y 0.000000 1.628040 0.000000 
#    z -0.002430 0.000000 1.708280 
# 
# From -- ./inp_files/239221.got.cif
#   From: 2010.06.25/outbox.cif.g09.slc.cpg/sg12_120_cif.got.tgz:239221.got - 2010.06.28 00:19:55.
