data_PCOD8110742
_publ_section_title
;
Structure prediction by ZEFSAII (Michael W. Deem and Ramdas Pophale) SiO2 
 PCOD8110742
Probable space group: C 2/M
;
_chemical_formula_sum "Si O2"
_cell_formula_units_Z 48
_cell_length_a 12.301099
_cell_length_b 21.763275
_cell_length_c 9.356114
_cell_angle_alpha 90.000000
_cell_angle_beta 108.763552
_cell_angle_gamma 90.000000
_cell_volume 2371.628827
_symmetry_space_group_name_H-M "C 2/M"
_symmetry_group_IT_number 12
_symmetry_cell_setting 'monoclinic'
loop_
_space_group_symop_operation_xyz
x,y,z
-x,y,-z
-x,-y,-z
x,-y,z
1/2+x,1/2+y,z
1/2-x,1/2+y,-z
1/2-x,1/2-y,-z
1/2+x,1/2-y,z
loop_
_atom_site_type_symbol
_atom_site_label
_atom_site_fract_x
_atom_site_fract_y
_atom_site_fract_z
Si Si1 0.871677 0.307525 0.452917
Si Si2 0.074084 0.930461 0.313574
Si Si3 0.673373 0.667980 0.560275
Si Si4 0.163735 0.500000 0.171157
Si Si5 0.230246 0.390215 0.812348
Si Si6 0.822671 0.105165 0.162399
Si Si7 0.575592 0.000000 0.813831
O O1 0.802038 0.339983 0.552147
O O2 0.875004 0.235537 0.490799
O O3 0.809110 0.326330 0.277718
O O4 0.000000 0.333627 0.500000
O O5 0.091456 0.882997 0.451895
O O6 0.161679 0.918884 0.222350
O O7 0.948288 0.923085 0.191151
O O8 0.089448 0.000000 0.378274
O O9 0.671482 0.663665 0.731038
O O10 0.243472 0.559240 0.221083
O O11 0.063696 0.500000 0.249662
O O12 0.112548 0.500000 0.992382
O O13 0.125932 0.439105 0.760049
O O14 0.266393 0.375245 0.989424
#
# Coordination Sequence:
#
# PCOD8110742 Si02
#       7
#     8   8   8   4   8   8   4
#     4  10  22  44  61  80 117 162 197 246 296 347
#     4  11  21  37  60  90 124 157 193 239 298 359
#     4  10  24  40  60  87 118 155 201 243 295 350
#     4   9  20  31  53  83 124 150 178 240 299 336
#     4  10  22  37  62  87 118 156 198 244 296 349
#     4  11  21  36  59  92 118 154 195 244 296 349
#     4   9  18  37  51  82 120 151 188 238 289 350
#
# _framework density 20.239255
#
# number of rings (size 3 to 8) (size 9 to 14) (size 15 to 20)
#    0.000    1.833    1.667    2.000    3.500    2.000 
#    0.000    0.417    0.000    0.000    0.000    0.000 
#    0.000    0.000    0.000    0.000    0.000    0.000 
#
# Total GULP energy -297545.917867 kJ/mol
# GULP energy per Si atom -12397.746578 kJ/mol
# Density = 2.019319 g / cm^3
# Si number density = 20.239255 Si / 1000 Ang^3
#
#
#
# Elastic Constant Matrix: (Units=GPa)
#
#
# Indices 1 2 3 4 5 6 
#
# 1 160.3000 22.7194 33.5371 0.0000 4.8514 0.0000
# 2 22.7194 80.4143 42.2415 0.0000 5.1759 0.0000
# 3 33.5371 42.2415 100.3816 0.0000 -6.9443 0.0000
# 4 0.0000 0.0000 0.0000 27.3954 0.0000 -4.0744
# 5 4.8514 5.1759 -6.9443 0.0000 28.5682 0.0000
# 6 0.0000 0.0000 0.0000 -4.0744 0.0000 20.0715
#
#
#
# Elastic Compliance Matrix: (Units=1/GPa)
#
#
# Indices 1 2 3 4 5 6 
#
# 1 0.006823 -0.000740 -0.002074 0.000000 -0.001529 0.000000
# 2 -0.000740 0.016663 -0.007084 0.000000 -0.004615 0.000000
# 3 -0.002074 -0.007084 0.013984 0.000000 0.005035 0.000000
# 4 0.000000 0.000000 0.000000 0.037639 0.000000 0.007640
# 5 -0.001529 -0.004615 0.005035 0.000000 0.037324 0.000000
# 6 0.000000 0.000000 0.000000 0.007640 0.000000 0.051373
#
#
# Mechanical properties :
#
#
# Convention : Reuss Voigt Hill
#
# Bulk Modulus (GPa) = 56.57834 59.78800 58.18317
# Shear Modulus (GPa) = 26.38616 31.38022 28.88319
#
# Velocity S-wave (km/s) = 3.61461 3.94186 3.78178
# Velocity P-wave (km/s) = 6.74062 7.09383 6.91948
#
# Compressibility (1/GPa) = 0.01767461
#
# Stress axis : x y z
#
# Youngs Moduli (GPa) = 146.55531 60.01352 71.50903
#
# Poissons Ratio (x) = 0.04440 0.14831
# Poissons Ratio (y) = 0.10843 0.50657
# Poissons Ratio (z) = 0.30397 0.42514
#
# Static dielectric constant tensor:
#      x y z
#    x 4.106180 0.000000 -0.040990 
#    y 0.000000 3.520280 0.000000 
#    z -0.040990 0.000000 3.368180 
# 
# 
# High freq. dielectric constant tensor:
#      x y z
#    x 1.815840 0.000000 -0.006750 
#    y 0.000000 1.779120 0.000000 
#    z -0.006750 0.000000 1.772040 
# 
# From -- ./inp_files/51485.got.cif
#   From: 2010.06.25/outbox.cif.g09.slc.cpg/sg12_26_cif.got.tgz:51485.got - 2010.06.28 00:19:55.
