data_PCOD8110651
_publ_section_title
;
Structure prediction by ZEFSAII (Michael W. Deem and Ramdas Pophale) SiO2 
 PCOD8110651
Probable space group: C 2/M
;
_chemical_formula_sum "Si O2"
_cell_formula_units_Z 44
_cell_length_a 8.325189
_cell_length_b 18.264262
_cell_length_c 17.621802
_cell_angle_alpha 90.000000
_cell_angle_beta 55.934904
_cell_angle_gamma 90.000000
_cell_volume 2219.665528
_symmetry_space_group_name_H-M "C 2/M"
_symmetry_group_IT_number 12
_symmetry_cell_setting 'monoclinic'
loop_
_space_group_symop_operation_xyz
x,y,z
-x,y,-z
-x,-y,-z
x,-y,z
1/2+x,1/2+y,z
1/2-x,1/2+y,-z
1/2-x,1/2-y,-z
1/2+x,1/2-y,z
loop_
_atom_site_type_symbol
_atom_site_label
_atom_site_fract_x
_atom_site_fract_y
_atom_site_fract_z
Si Si1 0.988625 0.697623 0.089708
Si Si2 0.257350 0.083393 0.740809
Si Si3 0.216120 0.083488 0.929294
Si Si4 0.500000 0.718131 0.500000
Si Si5 0.948146 0.201425 0.790823
Si Si6 0.919556 0.688363 0.374183
O O1 0.769321 0.676059 0.171557
O O2 0.128035 0.628263 0.063563
O O3 0.055071 0.765599 0.123565
O O4 0.000000 0.724231 0.000000
O O5 0.263222 0.091361 0.829042
O O6 0.463939 0.112410 0.656504
O O7 0.084589 0.130589 0.749964
O O8 0.228481 0.000000 0.722091
O O9 0.230280 0.000000 0.954133
O O10 0.000000 0.113909 0.000000
O O11 0.690569 0.668677 0.435020
O O12 0.526917 0.768909 0.564864
O O13 0.022395 0.263000 0.713522
#
# Coordination Sequence:
#
# PCOD8110651 Si02
#       6
#     8   8   8   4   8   8
#     4  12  23  35  60  92 125 162 218 260 299 351
#     4  11  23  41  64  91 130 168 201 255 318 366
#     4  10  22  41  60  85 129 175 209 251 312 362
#     4  10  22  36  72  92 118 152 210 254 318 366
#     4  12  22  39  62  90 127 160 210 257 299 372
#     4  11  20  41  64  95 117 159 203 255 307 383
#
# _framework density 19.822806
#
# number of rings (size 3 to 8) (size 9 to 14) (size 15 to 20)
#    0.000    0.909    5.455    1.636    0.000    2.545 
#    0.000    0.909    0.000    0.000    0.000    0.000 
#    0.000    0.000    0.000    0.000    0.000    0.000 
#
# Total GULP energy -272856.431703 kJ/mol
# GULP energy per Si atom -12402.565077 kJ/mol
# Density = 1.977769 g / cm^3
# Si number density = 19.822806 Si / 1000 Ang^3
#
#
#
# Elastic Constant Matrix: (Units=GPa)
#
#
# Indices 1 2 3 4 5 6 
#
# 1 124.8595 51.8841 42.1044 0.0000 -36.8136 0.0000
# 2 51.8841 108.2143 30.6007 0.0000 -20.2833 0.0000
# 3 42.1044 30.6007 86.1432 0.0000 -24.2144 0.0000
# 4 0.0000 0.0000 0.0000 24.5690 0.0000 -4.7371
# 5 -36.8136 -20.2833 -24.2144 0.0000 51.9775 0.0000
# 6 0.0000 0.0000 0.0000 -4.7371 0.0000 38.0341
#
#
#
# Elastic Compliance Matrix: (Units=1/GPa)
#
#
# Indices 1 2 3 4 5 6 
#
# 1 0.012403 -0.004006 -0.003002 0.000000 0.005822 0.000000
# 2 -0.004006 0.011896 -0.002026 0.000000 0.000861 0.000000
# 3 -0.003002 -0.002026 0.014931 0.000000 0.004039 0.000000
# 4 0.000000 0.000000 0.000000 0.041703 0.000000 0.005194
# 5 0.005822 0.000861 0.004039 0.000000 0.025580 0.000000
# 6 0.000000 0.000000 0.000000 0.005194 0.000000 0.026939
#
#
# Mechanical properties :
#
#
# Convention : Reuss Voigt Hill
#
# Bulk Modulus (GPa) = 47.25638 63.15505 55.20571
# Shear Modulus (GPa) = 31.53084 35.89129 33.71107
#
# Velocity S-wave (km/s) = 3.99260 4.25974 4.12833
# Velocity P-wave (km/s) = 6.71905 7.49151 7.11577
#
# Compressibility (1/GPa) = 0.02116116
#
# Stress axis : x y z
#
# Youngs Moduli (GPa) = 80.62634 84.06206 66.97517
#
# Poissons Ratio (x) = 0.33678 0.20108
# Poissons Ratio (y) = 0.32301 0.13567
# Poissons Ratio (z) = 0.24207 0.17028
#
# Static dielectric constant tensor:
#      x y z
#    x 3.932120 0.000000 -0.174990 
#    y 0.000000 3.507190 0.000000 
#    z -0.174990 0.000000 4.335180 
# 
# 
# High freq. dielectric constant tensor:
#      x y z
#    x 1.787870 0.000000 -0.010700 
#    y 0.000000 1.746920 0.000000 
#    z -0.010700 0.000000 1.785470 
# 
# From -- ./inp_files/195364.got.cif
#   From: 2010.06.25/outbox.cif.g09.slc.cpg/sg12_98_cif.got.tgz:195364.got - 2010.06.28 00:19:55.
