data_PCOD8110928
_publ_section_title
;
Structure prediction by ZEFSAII (Michael W. Deem and Ramdas Pophale) SiO2 
 PCOD8110928
Probable space group: C 2/M
;
_chemical_formula_sum "Si O2"
_cell_formula_units_Z 52
_cell_length_a 11.088681
_cell_length_b 21.357805
_cell_length_c 10.683213
_cell_angle_alpha 90.000000
_cell_angle_beta 80.477433
_cell_angle_gamma 90.000000
_cell_volume 2495.240598
_symmetry_space_group_name_H-M "C 2/M"
_symmetry_group_IT_number 12
_symmetry_cell_setting 'monoclinic'
loop_
_space_group_symop_operation_xyz
x,y,z
-x,y,-z
-x,-y,-z
x,-y,z
1/2+x,1/2+y,z
1/2-x,1/2+y,-z
1/2-x,1/2-y,-z
1/2+x,1/2-y,z
loop_
_atom_site_type_symbol
_atom_site_label
_atom_site_fract_x
_atom_site_fract_y
_atom_site_fract_z
Si Si1 0.000000 0.277408 0.000000
Si Si2 0.645520 0.072383 0.221108
Si Si3 0.202011 0.810989 0.375626
Si Si4 0.220931 0.170763 0.649504
Si Si5 0.307028 0.430088 0.952704
Si Si6 0.969706 0.172000 0.820815
Si Si7 0.385841 0.124464 0.184983
O O1 0.897058 0.321154 0.078577
O O2 0.062288 0.235275 0.097589
O O3 0.683933 0.115471 0.332321
O O4 0.511623 0.090696 0.195595
O O5 0.644720 0.000000 0.263922
O O6 0.740881 0.084747 0.094268
O O7 0.167164 0.836991 0.518773
O O8 0.207244 0.736125 0.364634
O O9 0.097059 0.832171 0.299887
O O10 0.331697 0.842483 0.317888
O O11 0.113913 0.168732 0.770830
O O12 0.359621 0.500000 0.942178
O O13 0.423802 0.385193 0.914725
O O14 0.209349 0.424806 0.856249
#
# Coordination Sequence:
#
# PCOD8110928 Si02
#       7
#     4   8   8   8   8   8   8
#     4  12  20  34  62  96 124 152 196 260 320 368
#     4  11  23  40  64  93 129 165 207 255 307 367
#     4  10  24  40  63  87 124 163 210 256 313 367
#     4  11  23  41  60  89 122 168 210 256 307 363
#     4  10  22  38  61  91 127 169 204 245 308 375
#     4  11  23  39  62  92 126 161 204 259 309 370
#     4  11  21  38  63  94 124 160 203 262 312 366
#
# _framework density 20.839673000000001
#
# number of rings (size 3 to 8) (size 9 to 14) (size 15 to 20)
#    0.000    1.231    3.077    2.769    0.000    3.692 
#    0.000    6.538    0.000    4.615    0.000    0.000 
#    0.000    0.000    0.000    0.000    0.000    0.000 
#
# Total GULP energy -322424.450039 kJ/mol
# GULP energy per Si atom -12400.940386 kJ/mol
# Density = 2.079224 g / cm^3
# Si number density = 20.839673 Si / 1000 Ang^3
#
#
#
# Elastic Constant Matrix: (Units=GPa)
#
#
# Indices 1 2 3 4 5 6 
#
# 1 59.6473 29.1980 19.4695 0.0000 1.4754 0.0000
# 2 29.1980 117.1575 40.4317 0.0000 1.0641 0.0000
# 3 19.4695 40.4317 80.1648 0.0000 1.0449 0.0000
# 4 0.0000 0.0000 0.0000 29.0339 0.0000 -0.3459
# 5 1.4754 1.0641 1.0449 0.0000 34.6388 0.0000
# 6 0.0000 0.0000 0.0000 -0.3459 0.0000 26.0001
#
#
#
# Elastic Compliance Matrix: (Units=1/GPa)
#
#
# Indices 1 2 3 4 5 6 
#
# 1 0.019607 -0.003923 -0.002775 0.000000 -0.000631 0.000000
# 2 -0.003923 0.011120 -0.004655 0.000000 -0.000034 0.000000
# 3 -0.002775 -0.004655 0.015499 0.000000 -0.000206 0.000000
# 4 0.000000 0.000000 0.000000 0.034448 0.000000 0.000458
# 5 -0.000631 -0.000034 -0.000206 0.000000 0.028903 0.000000
# 6 0.000000 0.000000 0.000000 0.000458 0.000000 0.038467
#
#
# Mechanical properties :
#
#
# Convention : Reuss Voigt Hill
#
# Bulk Modulus (GPa) = 42.51844 48.35200 45.43522
# Shear Modulus (GPa) = 27.99686 29.12592 28.56139
#
# Velocity S-wave (km/s) = 3.66927 3.74253 3.70608
# Velocity P-wave (km/s) = 6.19664 6.47516 6.33743
#
# Compressibility (1/GPa) = 0.02351921
#
# Stress axis : x y z
#
# Youngs Moduli (GPa) = 51.00211 89.92732 64.52076
#
# Poissons Ratio (x) = 0.35279 0.17905
# Poissons Ratio (y) = 0.20008 0.30036
# Poissons Ratio (z) = 0.14154 0.41864
#
# Static dielectric constant tensor:
#      x y z
#    x 3.535340 0.000000 -0.050740 
#    y 0.000000 3.780560 0.000000 
#    z -0.050740 0.000000 3.924210 
# 
# 
# High freq. dielectric constant tensor:
#      x y z
#    x 1.811930 0.000000 0.001380 
#    y 0.000000 1.813700 0.000000 
#    z 0.001380 0.000000 1.816940 
# 
# From -- ./inp_files/133089.got.cif
#   From: 2010.06.25/outbox.cif.g09.slc.cpg/sg12_67_cif.got.tgz:133089.got - 2010.06.28 00:19:55.
