data_PCOD8110977
_publ_section_title
;
Structure prediction by ZEFSAII (Michael W. Deem and Ramdas Pophale) SiO2 
 PCOD8110977
Probable space group: C 2/M
;
_chemical_formula_sum "Si O2"
_cell_formula_units_Z 48
_cell_length_a 14.218254
_cell_length_b 17.710128
_cell_length_c 17.734062
_cell_angle_alpha 90.000000
_cell_angle_beta 30.914468
_cell_angle_gamma 90.000000
_cell_volume 2294.218153
_symmetry_space_group_name_H-M "C 2/M"
_symmetry_group_IT_number 12
_symmetry_cell_setting 'monoclinic'
loop_
_space_group_symop_operation_xyz
x,y,z
-x,y,-z
-x,-y,-z
x,-y,z
1/2+x,1/2+y,z
1/2-x,1/2+y,-z
1/2-x,1/2-y,-z
1/2+x,1/2-y,z
loop_
_atom_site_type_symbol
_atom_site_label
_atom_site_fract_x
_atom_site_fract_y
_atom_site_fract_z
Si Si1 0.606940 0.778566 0.537365
Si Si2 0.601873 0.083262 0.350474
Si Si3 0.387658 0.667898 0.234174
Si Si4 0.987004 0.311552 0.921569
Si Si5 0.878656 0.138441 0.653393
Si Si6 0.355153 0.585428 0.832518
O O1 0.750000 0.750000 0.500000
O O2 0.511614 0.858810 0.625331
O O3 0.712028 0.786004 0.385947
O O4 0.444598 0.719465 0.638195
O O5 0.500000 0.076639 0.500000
O O6 0.809309 0.114148 0.221509
O O7 0.611241 0.000000 0.305847
O O8 0.533486 0.730015 0.104958
O O9 0.467872 0.617342 0.246352
O O10 0.169639 0.355305 0.768850
O O11 0.815249 0.364481 0.022626
O O12 0.000000 0.293546 0.000000
O O13 0.889209 0.084085 0.719018
O O14 0.000000 0.107171 0.500000
O O15 0.318971 0.500000 0.883474
#
# Coordination Sequence:
#
# PCOD8110977 Si02
#       6
#     8   8   8   8   8   8
#     4  11  19  34  61  93 123 155 202 255 303 371
#     4   9  18  32  56  89 122 151 190 253 316 358
#     4  11  19  37  65  88 119 161 206 252 303 375
#     4  10  22  38  64  89 118 163 207 254 305 370
#     4  11  20  39  64  90 118 161 208 258 304 362
#     4  11  25  40  59  92 126 164 207 253 311 371
#
# _framework density 20.922160000000002
#
# number of rings (size 3 to 8) (size 9 to 14) (size 15 to 20)
#    0.000    1.500    5.000    1.500    0.000    4.000 
#    0.000    0.000    0.000    5.000    0.000    0.000 
#    0.000    0.000    0.000    0.000    0.000    0.000 
#
# Total GULP energy -297511.483932 kJ/mol
# GULP energy per Si atom -12396.311831 kJ/mol
# Density = 2.087454 g / cm^3
# Si number density = 20.922160 Si / 1000 Ang^3
#
#
#
# Elastic Constant Matrix: (Units=GPa)
#
#
# Indices 1 2 3 4 5 6 
#
# 1 74.0237 34.1741 19.4311 0.0072 -19.9572 -0.0027
# 2 34.1741 132.5772 31.9154 0.0010 -11.1477 -0.0023
# 3 19.4311 31.9154 91.3713 -0.0254 -7.6861 0.0012
# 4 0.0072 0.0010 -0.0254 25.6762 0.0064 -3.3931
# 5 -19.9572 -11.1477 -7.6861 0.0064 28.0497 0.0008
# 6 -0.0027 -0.0023 0.0012 -3.3931 0.0008 27.7209
#
#
#
# Elastic Compliance Matrix: (Units=1/GPa)
#
#
# Indices 1 2 3 4 5 6 
#
# 1 0.018633 -0.003408 -0.001813 -0.000010 0.011407 0.000000
# 2 -0.003408 0.009040 -0.002390 -0.000002 0.000513 0.000000
# 3 -0.001813 -0.002390 0.012259 0.000013 0.001120 0.000001
# 4 -0.000010 -0.000002 0.000013 0.039587 -0.000013 0.004846
# 5 0.011407 0.000513 0.001120 -0.000013 0.044278 -0.000002
# 6 0.000000 0.000000 0.000001 0.004846 -0.000002 0.036667
#
#
# Mechanical properties :
#
#
# Convention : Reuss Voigt Hill
#
# Bulk Modulus (GPa) = 40.46670 52.11260 46.28965
# Shear Modulus (GPa) = 27.18565 30.45279 28.81922
#
# Velocity S-wave (km/s) = 3.60859 3.81928 3.71543
# Velocity P-wave (km/s) = 6.06186 6.66416 6.37013
#
# Compressibility (1/GPa) = 0.02471168
#
# Stress axis : x y z
#
# Youngs Moduli (GPa) = 53.66679 110.62490 81.57448
#
# Poissons Ratio (x) = 0.37696 0.14788
# Poissons Ratio (y) = 0.18287 0.19493
# Poissons Ratio (z) = 0.09729 0.26435
#
# Static dielectric constant tensor:
#      x y z
#    x 3.680660 -0.000020 -0.204480 
#    y -0.000020 3.997790 0.000030 
#    z -0.204480 0.000030 3.853290 
# 
# 
# High freq. dielectric constant tensor:
#      x y z
#    x 1.801550 0.000000 -0.023520 
#    y 0.000000 1.816440 0.000000 
#    z -0.023520 0.000000 1.807610 
# 
# From -- ./inp_files/311308.got.cif
#   From: 2010.06.25/outbox.cif.g09.slc.cpg/sg12_156_cif.got.tgz:311308.got - 2010.06.28 00:19:55.
