data_PCOD8110967
_publ_section_title
;
Structure prediction by ZEFSAII (Michael W. Deem and Ramdas Pophale) SiO2 
 PCOD8110967
Probable space group: C 2/M
;
_chemical_formula_sum "Si O2"
_cell_formula_units_Z 60
_cell_length_a 8.150093
_cell_length_b 22.071757
_cell_length_c 21.053483
_cell_angle_alpha 90.000000
_cell_angle_beta 128.863390
_cell_angle_gamma 90.000000
_cell_volume 2948.916650
_symmetry_space_group_name_H-M "C 2/M"
_symmetry_group_IT_number 12
_symmetry_cell_setting 'monoclinic'
loop_
_space_group_symop_operation_xyz
x,y,z
-x,y,-z
-x,-y,-z
x,-y,z
1/2+x,1/2+y,z
1/2-x,1/2+y,-z
1/2-x,1/2-y,-z
1/2+x,1/2-y,z
loop_
_atom_site_type_symbol
_atom_site_label
_atom_site_fract_x
_atom_site_fract_y
_atom_site_fract_z
Si Si1 0.375630 0.346773 0.688653
Si Si2 0.726606 0.736948 0.565658
Si Si3 0.785854 0.824904 0.871922
Si Si4 0.350115 0.302990 0.129317
Si Si5 0.485516 0.135827 0.308458
Si Si6 0.231595 0.069304 0.718256
Si Si7 0.380735 0.933036 0.098359
Si Si8 0.000000 0.387384 0.000000
O O1 0.255374 0.297059 0.616334
O O2 0.523449 0.311655 0.774524
O O3 0.522410 0.389779 0.679987
O O4 0.197708 0.385665 0.685587
O O5 0.500000 0.708102 0.500000
O O6 0.750000 0.750000 0.500000
O O7 0.881840 0.685686 0.624574
O O8 0.722071 0.766179 0.896516
O O9 0.621174 0.830351 0.775568
O O10 0.784655 0.884137 0.915800
O O11 0.019016 0.818374 0.901649
O O12 0.150305 0.346577 0.080224
O O13 0.641868 0.084875 0.316902
O O14 0.387298 0.078280 0.815672
O O15 0.155597 0.000000 0.693999
O O16 0.301209 0.000000 0.098855
O O17 0.383584 0.929853 0.022637
#
# Coordination Sequence:
#
# PCOD8110967 Si02
#       8
#     8   8   8   8   8   8   8   4
#     4  11  22  40  63  95 131 167 209 260 321 380
#     4  12  22  36  64 103 134 163 203 259 329 386
#     4  10  22  39  62  87 121 164 206 254 315 379
#     4  11  23  37  63  91 121 167 204 255 324 375
#     4  10  22  38  63  94 131 166 206 261 315 382
#     4  10  22  41  66  92 124 173 221 259 310 378
#     4  10  22  41  61  87 123 162 211 266 313 367
#     4  12  23  40  62  88 123 162 210 266 314 378
#
# _framework density 20.346454000000001
#
# number of rings (size 3 to 8) (size 9 to 14) (size 15 to 20)
#    0.000    1.333    4.000    1.800    1.867    3.200 
#    0.000    4.000    0.000    4.000    0.000    0.000 
#    0.000    0.000    0.000    0.000    0.000    0.000 
#
# Total GULP energy -371660.755072 kJ/mol
# GULP energy per Si atom -12388.691836 kJ/mol
# Density = 2.030014 g / cm^3
# Si number density = 20.346454 Si / 1000 Ang^3
#
#
#
# Elastic Constant Matrix: (Units=GPa)
#
#
# Indices 1 2 3 4 5 6 
#
# 1 118.9001 41.5131 19.6768 0.0000 -9.3906 0.0000
# 2 41.5131 108.0362 16.5632 0.0000 -6.3303 0.0000
# 3 19.6768 16.5632 69.1031 0.0000 -18.8264 0.0000
# 4 0.0000 0.0000 0.0000 6.0552 0.0000 -1.4636
# 5 -9.3906 -6.3303 -18.8264 0.0000 27.9658 0.0000
# 6 0.0000 0.0000 0.0000 -1.4636 0.0000 28.4995
#
#
#
# Elastic Compliance Matrix: (Units=1/GPa)
#
#
# Indices 1 2 3 4 5 6 
#
# 1 0.010022 -0.003518 -0.001605 0.000000 0.001488 0.000000
# 2 -0.003518 0.010857 -0.001534 0.000000 0.000244 0.000000
# 3 -0.001605 -0.001534 0.018436 0.000000 0.011524 0.000000
# 4 0.000000 0.000000 0.000000 0.167224 0.000000 0.008588
# 5 0.001488 0.000244 0.011524 0.000000 0.044071 0.000000
# 6 0.000000 0.000000 0.000000 0.008588 0.000000 0.035529
#
#
# Mechanical properties :
#
#
# Convention : Reuss Voigt Hill
#
# Bulk Modulus (GPa) = 38.46051 50.17174 44.31612
# Shear Modulus (GPa) = 16.22746 27.05652 21.64199
#
# Velocity S-wave (km/s) = 2.82717 3.65059 3.26494
# Velocity P-wave (km/s) = 5.44068 6.51777 6.00343
#
# Compressibility (1/GPa) = 0.02600070
#
# Stress axis : x y z
#
# Youngs Moduli (GPa) = 99.78318 92.10385 54.24276
#
# Poissons Ratio (x) = 0.32398 0.08706
# Poissons Ratio (y) = 0.35100 0.08323
# Poissons Ratio (z) = 0.16015 0.14132
#
# Static dielectric constant tensor:
#      x y z
#    x 4.003380 0.000000 -0.067570 
#    y 0.000000 3.577670 0.000000 
#    z -0.067570 0.000000 3.633500 
# 
# 
# High freq. dielectric constant tensor:
#      x y z
#    x 1.810980 0.000000 -0.004310 
#    y 0.000000 1.775940 0.000000 
#    z -0.004310 0.000000 1.789950 
# 
# From -- ./inp_files/301905.got.cif
#   From: 2010.06.25/outbox.cif.g09.slc.cpg/sg12_151_cif.got.tgz:301905.got - 2010.06.28 00:19:55.
