data_PCOD8110227
_publ_section_title
;
Structure prediction by ZEFSAII (Michael W. Deem and Ramdas Pophale) SiO2 
 PCOD8110227
Probable space group: C 2/M
;
_chemical_formula_sum "Si O2"
_cell_formula_units_Z 64
_cell_length_a 18.693201
_cell_length_b 8.675404
_cell_length_c 29.837058
_cell_angle_alpha 90.000000
_cell_angle_beta 39.499227
_cell_angle_gamma 90.000000
_cell_volume 3077.746174
_symmetry_space_group_name_H-M "C 2/M"
_symmetry_group_IT_number 12
_symmetry_cell_setting 'monoclinic'
loop_
_space_group_symop_operation_xyz
x,y,z
-x,y,-z
-x,-y,-z
x,-y,z
1/2+x,1/2+y,z
1/2-x,1/2+y,-z
1/2-x,1/2-y,-z
1/2+x,1/2-y,z
loop_
_atom_site_type_symbol
_atom_site_label
_atom_site_fract_x
_atom_site_fract_y
_atom_site_fract_z
Si Si1 0.538964 0.681922 0.303891
Si Si2 0.630412 0.680537 0.070842
Si Si3 0.595059 0.172749 0.840289
Si Si4 0.780011 0.181660 0.437806
Si Si5 0.849554 0.181677 0.839668
Si Si6 0.695991 0.818359 0.304526
Si Si7 0.370992 0.682380 0.568213
Si Si8 0.616073 0.826885 0.931565
O O1 0.557611 0.500000 0.299766
O O2 0.408913 0.726571 0.367273
O O3 0.580833 0.749091 0.235726
O O4 0.605105 0.759899 0.312656
O O5 0.635304 0.500000 0.059124
O O6 0.529384 0.757322 0.092440
O O7 0.595238 0.718381 0.139335
O O8 0.750000 0.750000 0.000000
O O9 0.676351 0.274959 0.770283
O O10 0.647206 0.169959 0.864340
O O11 0.587915 0.000000 0.823902
O O12 0.750000 0.250000 0.500000
O O13 0.702138 0.252317 0.437097
O O14 0.761306 0.000000 0.447103
O O15 0.723393 0.254765 0.902635
O O16 0.837589 0.000000 0.837627
O O17 0.673214 0.745955 0.363618
O O18 0.686482 0.000000 0.312937
O O19 0.500000 0.734561 0.500000
O O20 0.359758 0.500000 0.573515
O O21 0.604098 0.000000 0.956967
O O22 0.500000 0.737560 0.000000
#
# Coordination Sequence:
#
# PCOD8110227 Si02
#       8
#     8   8   8   8   8   8   8   8
#     4  10  21  41  65  90 122 166 212 256 310 374
#     4  11  23  39  61  88 123 164 210 265 323 387
#     4  11  22  39  63  89 123 165 210 263 320 379
#     4  11  24  41  67  99 133 170 211 258 313 375
#     4   9  18  35  59  85 116 158 207 254 303 367
#     4  12  25  41  64  95 131 168 210 261 317 381
#     4  11  25  45  69  97 130 169 215 265 316 373
#     4   9  16  30  58  88 110 147 205 254 299 362
#
# _framework density 20.794436999999999
#
# number of rings (size 3 to 8) (size 9 to 14) (size 15 to 20)
#    0.000    1.500    1.250    4.125    1.750    7.000 
#    0.000    1.250    0.000    1.500    0.000    0.000 
#    0.000    0.000    0.000    0.000    0.000    0.000 
#
# Total GULP energy -396742.770223 kJ/mol
# GULP energy per Si atom -12398.211569 kJ/mol
# Density = 2.074711 g / cm^3
# Si number density = 20.794437 Si / 1000 Ang^3
#
#
#
# Elastic Constant Matrix: (Units=GPa)
#
#
# Indices 1 2 3 4 5 6 
#
# 1 101.3480 28.5310 29.1052 0.0022 -6.8766 0.0195
# 2 28.5310 49.4239 19.9271 0.0050 -9.3618 0.0134
# 3 29.1052 19.9271 111.8366 0.0007 -8.8215 0.0024
# 4 0.0022 0.0050 0.0007 29.0113 -0.0009 -1.2458
# 5 -6.8766 -9.3618 -8.8215 -0.0009 43.0899 0.0030
# 6 0.0195 0.0134 0.0024 -1.2458 0.0030 30.6540
#
#
#
# Elastic Compliance Matrix: (Units=1/GPa)
#
#
# Indices 1 2 3 4 5 6 
#
# 1 0.012212 -0.006184 -0.002062 0.000000 0.000183 -0.000005
# 2 -0.006184 0.025633 -0.002639 -0.000004 0.004042 -0.000008
# 3 -0.002062 -0.002639 0.010039 0.000000 0.001153 0.000002
# 4 0.000000 -0.000004 0.000000 0.034530 0.000000 0.001403
# 5 0.000183 0.004042 0.001153 0.000000 0.024351 -0.000004
# 6 -0.000005 -0.000008 0.000002 0.001403 -0.000004 0.032679
#
#
# Mechanical properties :
#
#
# Convention : Reuss Voigt Hill
#
# Bulk Modulus (GPa) = 38.29265 46.41500 42.35383
# Shear Modulus (GPa) = 29.42590 32.88740 31.15665
#
# Velocity S-wave (km/s) = 3.76584 3.98118 3.87501
# Velocity P-wave (km/s) = 6.11258 6.59564 6.35870
#
# Compressibility (1/GPa) = 0.02611467
#
# Stress axis : x y z
#
# Youngs Moduli (GPa) = 81.88392 39.01296 99.60754
#
# Poissons Ratio (x) = 0.24125 0.20539
# Poissons Ratio (y) = 0.50635 0.26287
# Poissons Ratio (z) = 0.16884 0.10296
#
# Static dielectric constant tensor:
#      x y z
#    x 3.890340 -0.000010 -0.097190 
#    y -0.000010 3.567030 -0.000020 
#    z -0.097190 -0.000020 4.238860 
# 
# 
# High freq. dielectric constant tensor:
#      x y z
#    x 1.828200 0.000000 -0.002760 
#    y 0.000000 1.790690 0.000000 
#    z -0.002760 0.000000 1.833070 
# 
# From -- ./inp_files/378223.got.cif
#   From: 2010.06.25/outbox.cif.g09.slc.cpg/sg12_190_cif.got.tgz:378223.got - 2010.06.28 00:19:55.
