data_PCOD8110761
_publ_section_title
;
Structure prediction by ZEFSAII (Michael W. Deem and Ramdas Pophale) SiO2 
 PCOD8110761
Probable space group: C 2/M
;
_chemical_formula_sum "Si O2"
_cell_formula_units_Z 40
_cell_length_a 30.944945
_cell_length_b 12.364945
_cell_length_c 19.164806
_cell_angle_alpha 90.000000
_cell_angle_beta 17.331991
_cell_angle_gamma 90.000000
_cell_volume 2184.582126
_symmetry_space_group_name_H-M "C 2/M"
_symmetry_group_IT_number 12
_symmetry_cell_setting 'monoclinic'
loop_
_space_group_symop_operation_xyz
x,y,z
-x,y,-z
-x,-y,-z
x,-y,z
1/2+x,1/2+y,z
1/2-x,1/2+y,-z
1/2-x,1/2-y,-z
1/2+x,1/2-y,z
loop_
_atom_site_type_symbol
_atom_site_label
_atom_site_fract_x
_atom_site_fract_y
_atom_site_fract_z
Si Si1 0.643670 0.381443 0.732889
Si Si2 0.582398 0.738548 0.184327
Si Si3 0.137951 0.126086 0.240520
Si Si4 0.308785 0.128602 0.606220
Si Si5 0.533838 0.371112 0.116869
O O1 0.703718 0.500000 0.620770
O O2 0.764020 0.325265 0.597548
O O3 0.596051 0.323229 0.733373
O O4 0.500000 0.394928 0.000000
O O5 0.609656 0.652423 0.203268
O O6 0.461355 0.823503 0.395721
O O7 0.518267 0.674528 0.217830
O O8 0.727276 0.803114 0.940167
O O9 0.000000 0.157318 0.500000
O O10 0.175965 0.000000 0.189320
O O11 0.321444 0.000000 0.583777
O O12 0.189500 0.164601 0.846550
O O13 0.521480 0.500000 0.137209
#
# Coordination Sequence:
#
# PCOD8110761 Si02
#       5
#     8   8   8   8   8
#     4   7  12  25  44  66  96 128 148 172 220 272
#     4  11  20  31  52  74  88 115 160 199 228 266
#     4  10  22  38  50  64  92 124 152 190 242 288
#     4   9  17  30  48  71  98 124 151 185 224 268
#     4   9  17  30  48  71  98 124 151 185 224 268
#
# _framework density 18.310137000000001
#
# number of rings (size 3 to 8) (size 9 to 14) (size 15 to 20)
#    0.000    2.800    0.000    4.800    0.000    0.800 
#    0.000    0.000    0.000    9.600    0.000    0.000 
#    0.000   25.600    0.000    0.000    0.000    0.000 
#
# Total GULP energy -247788.432251 kJ/mol
# GULP energy per Si atom -12389.421613 kJ/mol
# Density = 1.826846 g / cm^3
# Si number density = 18.310137 Si / 1000 Ang^3
#
#
#
# Elastic Constant Matrix: (Units=GPa)
#
#
# Indices 1 2 3 4 5 6 
#
# 1 73.7734 12.9582 -3.1550 0.0012 3.9439 0.0007
# 2 12.9582 33.3718 13.2524 0.0002 2.6047 0.0003
# 3 -3.1550 13.2524 48.6986 0.0010 -2.5758 0.0019
# 4 0.0012 0.0002 0.0010 12.9309 -0.0001 2.5131
# 5 3.9439 2.6047 -2.5758 -0.0001 24.9928 -0.0006
# 6 0.0007 0.0003 0.0019 2.5131 -0.0006 14.4972
#
#
#
# Elastic Compliance Matrix: (Units=1/GPa)
#
#
# Indices 1 2 3 4 5 6 
#
# 1 0.014937 -0.006781 0.002741 -0.000001 -0.001368 -0.000001
# 2 -0.006781 0.037179 -0.010764 0.000001 -0.003914 0.000001
# 3 0.002741 -0.010764 0.023807 -0.000001 0.003143 -0.000003
# 4 -0.000001 0.000001 -0.000001 0.080031 0.000000 -0.013874
# 5 -0.001368 -0.003914 0.003143 0.000000 0.040959 0.000001
# 6 -0.000001 0.000001 -0.000003 -0.013874 0.000001 0.071384
#
#
# Mechanical properties :
#
#
# Convention : Reuss Voigt Hill
#
# Bulk Modulus (GPa) = 21.59193 22.43943 22.01568
# Shear Modulus (GPa) = 15.95695 19.33672 17.64683
#
# Velocity S-wave (km/s) = 2.95529 3.25324 3.10784
# Velocity P-wave (km/s) = 4.84385 5.13744 4.99280
#
# Compressibility (1/GPa) = 0.04631360
#
# Stress axis : x y z
#
# Youngs Moduli (GPa) = 66.95001 26.89718 42.00365
#
# Poissons Ratio (x) = 0.18240 -0.11512
# Poissons Ratio (y) = 0.45402 0.45212
# Poissons Ratio (z) = -0.18350 0.28952
#
# Static dielectric constant tensor:
#      x y z
#    x 3.616990 0.000000 -0.175010 
#    y 0.000000 2.995950 0.000000 
#    z -0.175010 0.000000 3.225460 
# 
# 
# High freq. dielectric constant tensor:
#      x y z
#    x 1.726430 0.000000 -0.009870 
#    y 0.000000 1.680810 0.000000 
#    z -0.009870 0.000000 1.695290 
# 
# From -- ./inp_files/129227.got.cif
#   From: 2010.06.25/outbox.cif.g09.slc.cpg/sg12_65_cif.got.tgz:129227.got - 2010.06.28 00:19:55.
