data_PCOD8110720
_publ_section_title
;
Structure prediction by ZEFSAII (Michael W. Deem and Ramdas Pophale) SiO2 
 PCOD8110720
Probable space group: C 2/M
;
_chemical_formula_sum "Si O2"
_cell_formula_units_Z 64
_cell_length_a 27.561088
_cell_length_b 19.119454
_cell_length_c 12.157264
_cell_angle_alpha 90.000000
_cell_angle_beta 29.819821
_cell_angle_gamma 90.000000
_cell_volume 3185.690316
_symmetry_space_group_name_H-M "C 2/M"
_symmetry_group_IT_number 12
_symmetry_cell_setting 'monoclinic'
loop_
_space_group_symop_operation_xyz
x,y,z
-x,y,-z
-x,-y,-z
x,-y,z
1/2+x,1/2+y,z
1/2-x,1/2+y,-z
1/2-x,1/2-y,-z
1/2+x,1/2-y,z
loop_
_atom_site_type_symbol
_atom_site_label
_atom_site_fract_x
_atom_site_fract_y
_atom_site_fract_z
Si Si1 0.241457 0.078943 0.602447
Si Si2 0.067367 0.736525 0.073499
Si Si3 0.249744 0.819492 0.384642
Si Si4 0.033610 0.887880 0.057444
Si Si5 0.390174 0.421468 0.729055
Si Si6 0.710522 0.290631 0.971651
Si Si7 0.352069 0.424807 0.553788
Si Si8 0.646199 0.809824 0.504537
O O1 0.221907 0.128264 0.536467
O O2 0.328268 0.112452 0.503336
O O3 0.271186 0.000000 0.511345
O O4 0.140201 0.078915 0.869440
O O5 0.037601 0.805524 0.067374
O O6 0.969164 0.693177 0.287823
O O7 0.135199 0.693405 0.855143
O O8 0.123599 0.750139 0.078045
O O9 0.214031 0.859287 0.346411
O O10 0.189618 0.745954 0.509750
O O11 0.961551 0.919129 0.290259
O O12 0.000000 0.906303 0.000000
O O13 0.500000 0.393346 0.500000
O O14 0.387566 0.500000 0.786635
O O15 0.346305 0.424033 0.694987
O O16 0.328278 0.367971 0.924242
O O17 0.803464 0.296544 0.710529
O O18 0.750000 0.250000 0.000000
O O19 0.310496 0.500000 0.594123
#
# Coordination Sequence:
#
# PCOD8110720 Si02
#       8
#     8   8   8   8   8   8   8   8
#     4  12  25  41  62  95 130 167 210 256 312 376
#     4  11  24  41  64  95 122 164 211 263 308 374
#     4  11  22  39  64  89 124 165 212 252 308 371
#     4  12  22  36  65  94 131 164 200 256 319 379
#     4  10  22  37  59  89 125 163 196 252 325 380
#     4  11  24  40  66  94 124 163 211 267 313 370
#     4  11  22  37  58  91 130 161 200 256 317 381
#     4  11  24  43  63  90 127 168 209 257 315 369
#
# _framework density 20.089836999999999
#
# number of rings (size 3 to 8) (size 9 to 14) (size 15 to 20)
#    0.000    0.875    5.000    3.375    3.500    1.000 
#    0.000    1.875    0.000    0.750    0.000    3.500 
#    0.000    0.000    0.000    0.000    0.000    0.000 
#
# Total GULP energy -396740.908022 kJ/mol
# GULP energy per Si atom -12398.153376 kJ/mol
# Density = 2.004411 g / cm^3
# Si number density = 20.089837 Si / 1000 Ang^3
#
#
#
# Elastic Constant Matrix: (Units=GPa)
#
#
# Indices 1 2 3 4 5 6 
#
# 1 53.4175 11.7663 17.7878 0.0000 -8.9175 0.0000
# 2 11.7663 104.6044 24.0329 0.0000 -3.0224 0.0000
# 3 17.7878 24.0329 95.4388 0.0000 -15.1429 0.0000
# 4 0.0000 0.0000 0.0000 287.5470 0.0000 73.0671
# 5 -8.9175 -3.0224 -15.1429 0.0000 34.4921 0.0000
# 6 0.0000 0.0000 0.0000 73.0671 0.0000 37.9319
#
#
#
# Elastic Compliance Matrix: (Units=1/GPa)
#
#
# Indices 1 2 3 4 5 6 
#
# 1 0.020668 -0.001560 -0.002830 0.000000 0.003964 0.000000
# 2 -0.001560 0.010267 -0.002382 0.000000 -0.000549 0.000000
# 3 -0.002830 -0.002382 0.012314 0.000000 0.004466 0.000000
# 4 0.000000 0.000000 0.000000 0.006812 0.000000 -0.013122
# 5 0.003964 -0.000549 0.004466 0.000000 0.031929 0.000000
# 6 0.000000 0.000000 0.000000 -0.013122 0.000000 0.051639
#
#
# Mechanical properties :
#
#
# Convention : Reuss Voigt Hill
#
# Bulk Modulus (GPa) = 33.66482 40.07051 36.86767
# Shear Modulus (GPa) = 31.83196 85.31911 58.57554
#
# Velocity S-wave (km/s) = 3.98487 6.52388 5.40556
# Velocity P-wave (km/s) = 6.16164 8.75996 7.57307
#
# Compressibility (1/GPa) = 0.02970460
#
# Stress axis : x y z
#
# Youngs Moduli (GPa) = 48.38316 97.40296 81.21024
#
# Poissons Ratio (x) = 0.15195 0.22985
# Poissons Ratio (y) = 0.07548 0.19342
# Poissons Ratio (z) = 0.13694 0.23198
#
# Static dielectric constant tensor:
#      x y z
#    x 3.656300 0.000000 -0.014880 
#    y 0.000000 3.989140 0.000000 
#    z -0.014880 0.000000 3.661070 
# 
# 
# High freq. dielectric constant tensor:
#      x y z
#    x 1.782660 0.000000 0.008230 
#    y 0.000000 1.785820 0.000000 
#    z 0.008230 0.000000 1.777330 
# 
# From -- ./inp_files/190008.got.cif
#   From: 2010.06.25/outbox.cif.g09.slc.cpg/sg12_96_cif.got.tgz:190008.got - 2010.06.28 00:19:55.
