data_PCOD8110025
_publ_section_title
;
Structure prediction by ZEFSAII (Michael W. Deem and Ramdas Pophale) SiO2 
 PCOD8110025
Probable space group: C 2/M
;
_chemical_formula_sum "Si O2"
_cell_formula_units_Z 40
_cell_length_a 11.421305
_cell_length_b 14.574433
_cell_length_c 11.549484
_cell_angle_alpha 90.000000
_cell_angle_beta 105.117887
_cell_angle_gamma 90.000000
_cell_volume 1855.980208
_symmetry_space_group_name_H-M "C 2/M"
_symmetry_group_IT_number 12
_symmetry_cell_setting 'monoclinic'
loop_
_space_group_symop_operation_xyz
x,y,z
-x,y,-z
-x,-y,-z
x,-y,z
1/2+x,1/2+y,z
1/2-x,1/2+y,-z
1/2-x,1/2-y,-z
1/2+x,1/2-y,z
loop_
_atom_site_type_symbol
_atom_site_label
_atom_site_fract_x
_atom_site_fract_y
_atom_site_fract_z
Si Si1 0.626214 0.109010 0.488113
Si Si2 0.316616 0.605097 0.723389
Si Si3 0.641468 0.742458 0.067477
Si Si4 0.693336 0.891720 0.251626
Si Si5 0.955345 0.895130 0.369073
O O1 0.500000 0.148900 0.500000
O O2 0.730448 0.146065 0.600377
O O3 0.638711 0.141912 0.359608
O O4 0.631742 0.000000 0.491711
O O5 0.282289 0.500000 0.744218
O O6 0.306167 0.662751 0.837024
O O7 0.452001 0.613263 0.711244
O O8 0.627548 0.839123 0.130703
O O9 0.500000 0.717941 0.000000
O O10 0.750000 0.750000 0.000000
O O11 0.831009 0.854323 0.288564
O O12 0.678138 0.000000 0.225950
O O13 0.000000 0.846384 0.500000
O O14 0.925606 0.000000 0.395453
#
# Coordination Sequence:
#
# PCOD8110025 Si02
#       5
#     8   8   8   8   8
#     4   9  18  34  61  98 128 153 192 246 319 390
#     4  10  21  40  67  93 123 160 200 257 318 368
#     4  12  29  47  61  88 125 168 226 263 288 357
#     4  10  21  40  66  93 126 161 197 254 318 371
#     4   9  15  32  62  96 126 150 187 244 313 381
#
# _framework density 21.551953000000001
#
# number of rings (size 3 to 8) (size 9 to 14) (size 15 to 20)
#    0.000    2.000    2.000    1.200    2.800    2.400 
#    0.000    0.000    0.000    0.000    0.000    0.000 
#    0.000    0.000    0.000    0.000    0.000    0.000 
#
# Total GULP energy -247857.688325 kJ/mol
# GULP energy per Si atom -12392.884416 kJ/mol
# Density = 2.150290 g / cm^3
# Si number density = 21.551953 Si / 1000 Ang^3
#
#
#
# Elastic Constant Matrix: (Units=GPa)
#
#
# Indices 1 2 3 4 5 6 
#
# 1 124.4095 12.5872 40.3112 0.0000 -14.7557 0.0000
# 2 12.5872 67.8406 48.8057 0.0000 -7.1315 0.0000
# 3 40.3112 48.8057 131.1656 0.0000 -15.9832 0.0000
# 4 0.0000 0.0000 0.0000 39.8442 0.0000 0.2084
# 5 -14.7557 -7.1315 -15.9832 0.0000 32.9124 0.0000
# 6 0.0000 0.0000 0.0000 0.2084 0.0000 16.9878
#
#
#
# Elastic Compliance Matrix: (Units=1/GPa)
#
#
# Indices 1 2 3 4 5 6 
#
# 1 0.009197 0.000517 -0.002660 0.000000 0.002943 0.000000
# 2 0.000517 0.020176 -0.007552 0.000000 0.000936 0.000000
# 3 -0.002660 -0.007552 0.011593 0.000000 0.002801 0.000000
# 4 0.000000 0.000000 0.000000 0.025099 0.000000 -0.000308
# 5 0.002943 0.000936 0.002801 0.000000 0.033266 0.000000
# 6 0.000000 0.000000 0.000000 -0.000308 0.000000 0.058870
#
#
# Mechanical properties :
#
#
# Convention : Reuss Voigt Hill
#
# Bulk Modulus (GPa) = 46.35050 58.53601 52.44325
# Shear Modulus (GPa) = 27.05872 32.72965 29.89418
#
# Velocity S-wave (km/s) = 3.54716 3.90120 3.72839
# Velocity P-wave (km/s) = 6.19109 6.89289 6.55139
#
# Compressibility (1/GPa) = 0.02157474
#
# Stress axis : x y z
#
# Youngs Moduli (GPa) = 108.73471 49.56368 86.26011
#
# Poissons Ratio (x) = -0.02561 0.22945
# Poissons Ratio (y) = -0.05619 0.65145
# Poissons Ratio (z) = 0.28924 0.37431
#
# Static dielectric constant tensor:
#      x y z
#    x 4.099480 0.000000 0.058680 
#    y 0.000000 3.599150 0.000000 
#    z 0.058680 0.000000 3.869680 
# 
# 
# High freq. dielectric constant tensor:
#      x y z
#    x 1.856650 0.000000 -0.000760 
#    y 0.000000 1.831610 0.000000 
#    z -0.000760 0.000000 1.839520 
# 
# From -- ./inp_files/47127.got.cif
#   From: 2010.06.25/outbox.cif.g09.slc.cpg/sg12_24_cif.got.tgz:47127.got - 2010.06.28 00:19:55.
