data_PCOD8110406
_publ_section_title
;
Structure prediction by ZEFSAII (Michael W. Deem and Ramdas Pophale) SiO2 
 PCOD8110406
Probable space group: C 2/M
;
_chemical_formula_sum "Si O2"
_cell_formula_units_Z 48
_cell_length_a 19.993749
_cell_length_b 23.407084
_cell_length_c 6.143379
_cell_angle_alpha 90.000000
_cell_angle_beta 43.172858
_cell_angle_gamma 90.000000
_cell_volume 1967.129765
_symmetry_space_group_name_H-M "C 2/M"
_symmetry_group_IT_number 12
_symmetry_cell_setting 'monoclinic'
loop_
_space_group_symop_operation_xyz
x,y,z
-x,y,-z
-x,-y,-z
x,-y,z
1/2+x,1/2+y,z
1/2-x,1/2+y,-z
1/2-x,1/2-y,-z
1/2+x,1/2-y,z
loop_
_atom_site_type_symbol
_atom_site_label
_atom_site_fract_x
_atom_site_fract_y
_atom_site_fract_z
Si Si1 0.596647 0.936762 0.128554
Si Si2 0.360064 0.739055 0.818866
Si Si3 0.279861 0.653999 0.319058
Si Si4 0.587214 0.820875 0.942667
Si Si5 0.205989 0.934132 0.069272
Si Si6 0.086048 0.852016 0.622871
O O1 0.500000 0.931012 0.500000
O O2 0.601230 0.000000 0.011280
O O3 0.587267 0.889557 0.963219
O O4 0.695296 0.925499 0.028667
O O5 0.425904 0.709993 0.470332
O O6 0.250000 0.750000 0.000000
O O7 0.360205 0.691237 0.004885
O O8 0.409721 0.793850 0.818838
O O9 0.180767 0.691770 0.568334
O O10 0.312389 0.646490 0.488747
O O11 0.269645 0.593125 0.223858
O O12 0.500000 0.797800 0.000000
O O13 0.108236 0.903315 0.400121
O O14 0.178659 0.000000 0.102306
O O15 0.000000 0.864712 0.000000
#
# Coordination Sequence:
#
# PCOD8110406 Si02
#       6
#     8   8   8   8   8   8
#     4  10  21  42  66  97 145 190 229 287 360 430
#     4  11  24  47  68  93 145 188 237 301 357 429
#     4  11  23  45  68 100 144 183 232 303 360 418
#     4  12  24  41  71 110 141 184 245 294 359 433
#     4  10  22  42  72 105 143 188 238 297 358 430
#     4  11  25  47  72  98 140 197 243 294 367 426
#
# _framework density 24.401033999999999
#
# number of rings (size 3 to 8) (size 9 to 14) (size 15 to 20)
#    0.000    1.167    3.333    2.500    0.000    5.333 
#    6.000    0.833    0.000    0.000    0.000    0.000 
#    0.000    0.000    0.000    0.000    0.000    0.000 
#
# Total GULP energy -297402.450762 kJ/mol
# GULP energy per Si atom -12391.768782 kJ/mol
# Density = 2.434550 g / cm^3
# Si number density = 24.401034 Si / 1000 Ang^3
#
#
#
# Elastic Constant Matrix: (Units=GPa)
#
#
# Indices 1 2 3 4 5 6 
#
# 1 107.8930 43.4239 33.3241 0.0000 5.9460 0.0000
# 2 43.4239 132.6847 45.2801 0.0000 6.4249 0.0000
# 3 33.3241 45.2801 132.9309 0.0000 -12.5495 0.0000
# 4 0.0000 0.0000 0.0000 34.0406 0.0000 6.5871
# 5 5.9460 6.4249 -12.5495 0.0000 34.7061 0.0000
# 6 0.0000 0.0000 0.0000 6.5871 0.0000 32.5509
#
#
#
# Elastic Compliance Matrix: (Units=1/GPa)
#
#
# Indices 1 2 3 4 5 6 
#
# 1 0.011161 -0.002860 -0.002023 0.000000 -0.002114 0.000000
# 2 -0.002860 0.009517 -0.002738 0.000000 -0.002262 0.000000
# 3 -0.002023 -0.002738 0.009363 0.000000 0.004239 0.000000
# 4 0.000000 0.000000 0.000000 0.030574 0.000000 -0.006187
# 5 -0.002114 -0.002262 0.004239 0.000000 0.031127 0.000000
# 6 0.000000 0.000000 0.000000 -0.006187 0.000000 0.031973
#
#
# Mechanical properties :
#
#
# Convention : Reuss Voigt Hill
#
# Bulk Modulus (GPa) = 67.57882 68.61830 68.09856
# Shear Modulus (GPa) = 34.74880 37.02489 35.88684
#
# Velocity S-wave (km/s) = 3.77778 3.89954 3.83914
# Velocity P-wave (km/s) = 6.83988 6.96113 6.90077
#
# Compressibility (1/GPa) = 0.01479754
#
# Stress axis : x y z
#
# Youngs Moduli (GPa) = 89.59859 105.07998 106.80491
#
# Poissons Ratio (x) = 0.30050 0.21611
# Poissons Ratio (y) = 0.25623 0.29246
# Poissons Ratio (z) = 0.18129 0.28773
#
# Static dielectric constant tensor:
#      x y z
#    x 4.362990 0.000000 0.023980 
#    y 0.000000 4.517150 0.000000 
#    z 0.023980 0.000000 4.432410 
# 
# 
# High freq. dielectric constant tensor:
#      x y z
#    x 1.968720 0.000000 -0.004870 
#    y 0.000000 1.967390 0.000000 
#    z -0.004870 0.000000 1.978190 
# 
# From -- ./inp_files/21790.got.cif
#   From: 2010.06.25/outbox.cif.g09.slc.cpg/sg12_11_cif.got.tgz:21790.got - 2010.06.28 00:19:55.
