data_PCOD8110348
_publ_section_title
;
Structure prediction by ZEFSAII (Michael W. Deem and Ramdas Pophale) SiO2 
 PCOD8110348
Probable space group: C 2/M
;
_chemical_formula_sum "Si O2"
_cell_formula_units_Z 64
_cell_length_a 14.486800
_cell_length_b 28.649522
_cell_length_c 9.252258
_cell_angle_alpha 90.000000
_cell_angle_beta 49.887509
_cell_angle_gamma 90.000000
_cell_volume 2936.801853
_symmetry_space_group_name_H-M "C 2/M"
_symmetry_group_IT_number 12
_symmetry_cell_setting 'monoclinic'
loop_
_space_group_symop_operation_xyz
x,y,z
-x,y,-z
-x,-y,-z
x,-y,z
1/2+x,1/2+y,z
1/2-x,1/2+y,-z
1/2-x,1/2-y,-z
1/2+x,1/2-y,z
loop_
_atom_site_type_symbol
_atom_site_label
_atom_site_fract_x
_atom_site_fract_y
_atom_site_fract_z
Si Si1 0.865854 0.946444 0.106130
Si Si2 0.130694 0.884241 0.402605
Si Si3 0.478097 0.052776 0.190415
Si Si4 0.320946 0.285659 0.769496
Si Si5 0.727508 0.113397 0.463066
Si Si6 0.756991 0.448051 0.062933
Si Si7 0.343827 0.218319 0.492149
Si Si8 0.562624 0.243383 0.084593
O O1 0.765568 0.915808 0.286042
O O2 0.853142 0.000000 0.170646
O O3 0.841720 0.940994 0.961113
O O4 0.000000 0.927477 0.000000
O O5 0.129196 0.830560 0.359674
O O6 0.159367 0.887729 0.542301
O O7 0.233711 0.912082 0.214568
O O8 0.000000 0.906355 0.500000
O O9 0.390047 0.090757 0.346981
O O10 0.428111 0.000000 0.264659
O O11 0.500000 0.062789 0.000000
O O12 0.608275 0.059071 0.136462
O O13 0.361338 0.240737 0.633486
O O14 0.381280 0.283846 0.868907
O O15 0.175243 0.289619 0.927404
O O16 0.703571 0.166183 0.438188
O O17 0.746949 0.500000 0.139851
O O18 0.250000 0.250000 0.500000
O O19 0.466551 0.214760 0.275962
O O20 0.500000 0.263241 0.000000
#
# Coordination Sequence:
#
# PCOD8110348 Si02
#       8
#     8   8   8   8   8   8   8   8
#     4  10  23  46  68  95 136 175 218 273 329 395
#     4  12  24  40  66  96 130 173 223 273 324 401
#     4  10  21  41  69  99 133 167 214 281 332 389
#     4  11  26  45  66  96 131 179 219 274 334 383
#     4  12  25  40  70  98 130 177 226 267 328 402
#     4  10  23  43  66  97 136 169 212 276 338 392
#     4  12  24  45  64  96 138 174 215 278 334 381
#     4  11  23  44  71  91 125 176 222 275 328 390
#
# _framework density 21.792414000000001
#
# number of rings (size 3 to 8) (size 9 to 14) (size 15 to 20)
#    0.000    1.000    3.750    2.250    1.750    3.750 
#    4.500    1.875    0.000    0.000    0.000    0.000 
#    0.000    0.000    0.000    0.000    0.000    0.000 
#
# Total GULP energy -396846.880168 kJ/mol
# GULP energy per Si atom -12401.465005 kJ/mol
# Density = 2.174281 g / cm^3
# Si number density = 21.792414 Si / 1000 Ang^3
#
#
#
# Elastic Constant Matrix: (Units=GPa)
#
#
# Indices 1 2 3 4 5 6 
#
# 1 118.0526 19.0602 18.2950 0.0000 2.9483 0.0000
# 2 19.0602 114.9626 38.2465 0.0000 1.4698 0.0000
# 3 18.2950 38.2465 96.5768 0.0000 -7.9160 0.0000
# 4 0.0000 0.0000 0.0000 13.6638 0.0000 3.3648
# 5 2.9483 1.4698 -7.9160 0.0000 35.8089 0.0000
# 6 0.0000 0.0000 0.0000 3.3648 0.0000 23.1667
#
#
#
# Elastic Compliance Matrix: (Units=1/GPa)
#
#
# Indices 1 2 3 4 5 6 
#
# 1 0.008869 -0.001004 -0.001364 0.000000 -0.000990 0.000000
# 2 -0.001004 0.010193 -0.003945 0.000000 -0.001208 0.000000
# 3 -0.001364 -0.003945 0.012423 0.000000 0.003020 0.000000
# 4 0.000000 0.000000 0.000000 0.075901 0.000000 -0.011024
# 5 -0.000990 -0.001208 0.003020 0.000000 0.028725 0.000000
# 6 0.000000 0.000000 0.000000 -0.011024 0.000000 0.044767
#
#
# Mechanical properties :
#
#
# Convention : Reuss Voigt Hill
#
# Bulk Modulus (GPa) = 53.02662 53.42170 53.22416
# Shear Modulus (GPa) = 25.02633 31.46057 28.24345
#
# Velocity S-wave (km/s) = 3.39248 3.80366 3.60394
# Velocity P-wave (km/s) = 6.30322 6.62250 6.46483
#
# Compressibility (1/GPa) = 0.01885845
#
# Stress axis : x y z
#
# Youngs Moduli (GPa) = 112.75253 98.10656 80.49697
#
# Poissons Ratio (x) = 0.09851 0.10977
# Poissons Ratio (y) = 0.11322 0.31760
# Poissons Ratio (z) = 0.15375 0.38707
#
# Static dielectric constant tensor:
#      x y z
#    x 4.268470 0.000000 -0.084130 
#    y 0.000000 3.710920 0.000000 
#    z -0.084130 0.000000 3.930860 
# 
# 
# High freq. dielectric constant tensor:
#      x y z
#    x 1.876540 0.000000 -0.007090 
#    y 0.000000 1.839060 0.000000 
#    z -0.007090 0.000000 1.855490 
# 
# From -- ./inp_files/68616.got.cif
#   From: 2010.06.25/outbox.cif.g09.slc.cpg/sg12_35_cif.got.tgz:68616.got - 2010.06.28 00:19:55.
