data_PCOD8110701
_publ_section_title
;
Structure prediction by ZEFSAII (Michael W. Deem and Ramdas Pophale) SiO2 
 PCOD8110701
Probable space group: C 2/M
;
_chemical_formula_sum "Si O2"
_cell_formula_units_Z 48
_cell_length_a 9.500251
_cell_length_b 20.234661
_cell_length_c 13.742131
_cell_angle_alpha 90.000000
_cell_angle_beta 63.482494
_cell_angle_gamma 90.000000
_cell_volume 2363.796561
_symmetry_space_group_name_H-M "C 2/M"
_symmetry_group_IT_number 12
_symmetry_cell_setting 'monoclinic'
loop_
_space_group_symop_operation_xyz
x,y,z
-x,y,-z
-x,-y,-z
x,-y,z
1/2+x,1/2+y,z
1/2-x,1/2+y,-z
1/2-x,1/2-y,-z
1/2+x,1/2-y,z
loop_
_atom_site_type_symbol
_atom_site_label
_atom_site_fract_x
_atom_site_fract_y
_atom_site_fract_z
Si Si1 0.436788 0.924029 0.322170
Si Si2 0.624624 0.402002 0.532793
Si Si3 0.281738 0.571476 0.283616
Si Si4 0.624799 0.688543 0.881551
Si Si5 0.429764 0.256682 0.426979
Si Si6 0.477005 0.197492 0.804345
O O1 0.291794 0.894227 0.427340
O O2 0.593769 0.917182 0.339290
O O3 0.459209 0.878480 0.217729
O O4 0.404793 0.000000 0.301168
O O5 0.500000 0.440544 0.500000
O O6 0.657989 0.436949 0.624705
O O7 0.533576 0.334385 0.586883
O O8 0.318677 0.500000 0.222053
O O9 0.368961 0.631291 0.201735
O O10 0.572383 0.758565 0.851413
O O11 0.791115 0.698963 0.884499
O O12 0.500000 0.665523 0.000000
O O13 0.500000 0.221020 0.500000
O O14 0.250000 0.250000 0.500000
O O15 0.501613 0.223637 0.310975
#
# Coordination Sequence:
#
# PCOD8110701 Si02
#       6
#     8   8   8   8   8   8
#     4  10  22  37  57  84 118 161 194 225 279 352
#     4  11  22  34  54  87 125 155 188 226 278 349
#     4  10  22  40  60  84 118 156 194 237 287 344
#     4  11  24  41  63  87 110 148 201 252 301 337
#     4  11  21  32  54  87 118 150 189 227 281 345
#     4  11  22  39  62  84 119 151 189 248 290 345
#
# _framework density 20.306317
#
# number of rings (size 3 to 8) (size 9 to 14) (size 15 to 20)
#    0.000    1.333    3.333    2.500    4.667    3.000 
#    0.000    0.000    0.000    0.500    0.000    0.000 
#    0.000    0.000    0.000    0.000    0.000    0.000 
#
# Total GULP energy -297400.985357 kJ/mol
# GULP energy per Si atom -12391.707723 kJ/mol
# Density = 2.026010 g / cm^3
# Si number density = 20.306317 Si / 1000 Ang^3
#
#
#
# Elastic Constant Matrix: (Units=GPa)
#
#
# Indices 1 2 3 4 5 6 
#
# 1 88.6310 19.2631 37.4779 0.0000 -8.0753 0.0000
# 2 19.2631 105.5121 19.9188 0.0000 -3.1316 0.0000
# 3 37.4779 19.9188 81.5141 0.0000 -19.5980 0.0000
# 4 0.0000 0.0000 0.0000 6.2146 0.0000 -0.9730
# 5 -8.0753 -3.1316 -19.5980 0.0000 31.1676 0.0000
# 6 0.0000 0.0000 0.0000 -0.9730 0.0000 17.5089
#
#
#
# Elastic Compliance Matrix: (Units=1/GPa)
#
#
# Indices 1 2 3 4 5 6 
#
# 1 0.014212 -0.001420 -0.006287 0.000000 -0.000413 0.000000
# 2 -0.001420 0.010088 -0.001952 0.000000 -0.000582 0.000000
# 3 -0.006287 -0.001952 0.017903 0.000000 0.009432 0.000000
# 4 0.000000 0.000000 0.000000 0.162325 0.000000 0.009021
# 5 -0.000413 -0.000582 0.009432 0.000000 0.037850 0.000000
# 6 0.000000 0.000000 0.000000 0.009021 0.000000 0.057615
#
#
# Mechanical properties :
#
#
# Convention : Reuss Voigt Hill
#
# Bulk Modulus (GPa) = 43.69592 47.66408 45.68000
# Shear Modulus (GPa) = 15.29336 24.24472 19.76904
#
# Velocity S-wave (km/s) = 2.74730 3.45911 3.12355
# Velocity P-wave (km/s) = 5.62394 6.28310 5.96264
#
# Compressibility (1/GPa) = 0.02288543
#
# Stress axis : x y z
#
# Youngs Moduli (GPa) = 70.36279 99.12668 55.85645
#
# Poissons Ratio (x) = 0.14077 0.35115
# Poissons Ratio (y) = 0.09992 0.10904
# Poissons Ratio (z) = 0.44235 0.19350
#
# Static dielectric constant tensor:
#      x y z
#    x 3.824170 0.000000 -0.034840 
#    y 0.000000 12.919320 0.000000 
#    z -0.034840 0.000000 3.324200 
# 
# 
# High freq. dielectric constant tensor:
#      x y z
#    x 1.800310 0.000000 -0.011310 
#    y 0.000000 1.810930 0.000000 
#    z -0.011310 0.000000 1.756280 
# 
# From -- ./inp_files/196934.got.cif
#   From: 2010.06.25/outbox.cif.g09.slc.cpg/sg12_99_cif.got.tgz:196934.got - 2010.06.28 00:19:55.
