data_PCOD8110774
_publ_section_title
;
Structure prediction by ZEFSAII (Michael W. Deem and Ramdas Pophale) SiO2 
 PCOD8110774
Probable space group: C 2/M
;
_chemical_formula_sum "Si O2"
_cell_formula_units_Z 40
_cell_length_a 22.643923
_cell_length_b 10.104880
_cell_length_c 24.907908
_cell_angle_alpha 90.000000
_cell_angle_beta 157.083216
_cell_angle_gamma 90.000000
_cell_volume 2219.264647
_symmetry_space_group_name_H-M "C 2/M"
_symmetry_group_IT_number 12
_symmetry_cell_setting 'monoclinic'
loop_
_space_group_symop_operation_xyz
x,y,z
-x,y,-z
-x,-y,-z
x,-y,z
1/2+x,1/2+y,z
1/2-x,1/2+y,-z
1/2-x,1/2-y,-z
1/2+x,1/2-y,z
loop_
_atom_site_type_symbol
_atom_site_label
_atom_site_fract_x
_atom_site_fract_y
_atom_site_fract_z
Si Si1 0.673345 0.349991 0.135097
Si Si2 0.703594 0.262814 0.042977
Si Si3 0.048065 0.854428 0.813611
Si Si4 0.674516 0.652256 0.658332
Si Si5 0.907475 0.351450 0.762750
O O1 0.702606 0.500000 0.179824
O O2 0.713922 0.343557 0.106416
O O3 0.780362 0.248098 0.255585
O O4 0.500000 0.309369 0.000000
O O5 0.863972 0.189568 0.166717
O O6 0.670696 0.361891 0.965362
O O7 0.563639 0.157925 0.928143
O O8 0.915188 0.749888 0.718392
O O9 0.977103 0.000000 0.745322
O O10 0.500000 0.675847 0.500000
O O11 0.707377 0.500000 0.702389
O O12 0.767785 0.690608 0.683211
O O13 0.886283 0.500000 0.723047
#
# Coordination Sequence:
#
# PCOD8110774 Si02
#       5
#     8   8   8   8   8
#     4  11  21  35  54  80 109 139 176 223 267 311
#     4   9  18  27  49  76 107 131 167 212 262 311
#     4   9  17  29  48  75 108 135 166 214 264 313
#     4  10  22  38  54  76 108 145 180 217 262 316
#     4   9  17  30  50  73 101 136 172 209 256 309
#
# _framework density 18.023987999999999
#
# number of rings (size 3 to 8) (size 9 to 14) (size 15 to 20)
#    1.200    1.200    2.000    1.200    0.000    4.000 
#    0.000    0.000    0.000    1.200    0.000    0.000 
#    0.000    0.000    0.000    0.000    0.000    0.000 
#
# Total GULP energy -247846.471152 kJ/mol
# GULP energy per Si atom -12392.323558 kJ/mol
# Density = 1.798296 g / cm^3
# Si number density = 18.023988 Si / 1000 Ang^3
#
#
#
# Elastic Constant Matrix: (Units=GPa)
#
#
# Indices 1 2 3 4 5 6 
#
# 1 117.0727 39.8719 31.9637 0.0031 19.7191 0.0002
# 2 39.8719 91.6487 23.8751 0.0047 2.9500 0.0005
# 3 31.9637 23.8751 46.7861 0.0013 8.2744 -0.0008
# 4 0.0031 0.0047 0.0013 20.3145 0.0007 1.9465
# 5 19.7191 2.9500 8.2744 0.0007 21.8934 -0.0004
# 6 0.0002 0.0005 -0.0008 1.9465 -0.0004 24.6415
#
#
#
# Elastic Compliance Matrix: (Units=1/GPa)
#
#
# Indices 1 2 3 4 5 6 
#
# 1 0.012816 -0.003945 -0.005138 0.000000 -0.009069 0.000000
# 2 -0.003945 0.013811 -0.004985 -0.000002 0.003576 0.000000
# 3 -0.005138 -0.004985 0.028389 0.000000 -0.005429 0.000001
# 4 0.000000 -0.000002 0.000000 0.049601 -0.000001 -0.003918
# 5 -0.009069 0.003576 -0.005429 -0.000001 0.055415 0.000001
# 6 0.000000 0.000000 0.000001 -0.003918 0.000001 0.040891
#
#
# Mechanical properties :
#
#
# Convention : Reuss Voigt Hill
#
# Bulk Modulus (GPa) = 37.20490 49.65879 43.43185
# Shear Modulus (GPa) = 21.00667 24.02299 22.51483
#
# Velocity S-wave (km/s) = 3.41762 3.65476 3.53818
# Velocity P-wave (km/s) = 6.02165 6.73951 6.39067
#
# Compressibility (1/GPa) = 0.02687818
#
# Stress axis : x y z
#
# Youngs Moduli (GPa) = 78.02873 72.40578 35.22543
#
# Poissons Ratio (x) = 0.28564 0.18101
# Poissons Ratio (y) = 0.30782 0.17560
# Poissons Ratio (z) = 0.40095 0.36095
#
# Static dielectric constant tensor:
#      x y z
#    x 3.326740 -0.000010 0.190530 
#    y -0.000010 3.246930 -0.000010 
#    z 0.190530 -0.000010 2.783630 
# 
# 
# High freq. dielectric constant tensor:
#      x y z
#    x 1.707780 0.000000 0.021310 
#    y 0.000000 1.701010 0.000000 
#    z 0.021310 0.000000 1.633830 
# 
# From -- ./inp_files/349219.got.cif
#   From: 2010.06.25/outbox.cif.g09.slc.cpg/sg12_175_cif.got.tgz:349219.got - 2010.06.28 00:19:55.
