data_PCOD8110455
_publ_section_title
;
Structure prediction by ZEFSAII (Michael W. Deem and Ramdas Pophale) SiO2 
 PCOD8110455
Probable space group: C 2/M
;
_chemical_formula_sum "Si O2"
_cell_formula_units_Z 40
_cell_length_a 9.059909
_cell_length_b 27.524256
_cell_length_c 15.306675
_cell_angle_alpha 90.000000
_cell_angle_beta 28.494161
_cell_angle_gamma 90.000000
_cell_volume 1820.965267
_symmetry_space_group_name_H-M "C 2/M"
_symmetry_group_IT_number 12
_symmetry_cell_setting 'monoclinic'
loop_
_space_group_symop_operation_xyz
x,y,z
-x,y,-z
-x,-y,-z
x,-y,z
1/2+x,1/2+y,z
1/2-x,1/2+y,-z
1/2-x,1/2-y,-z
1/2+x,1/2-y,z
loop_
_atom_site_type_symbol
_atom_site_label
_atom_site_fract_x
_atom_site_fract_y
_atom_site_fract_z
Si Si1 0.209524 0.873370 0.305383
Si Si2 0.888321 0.600341 0.463335
Si Si3 0.228805 0.189646 0.808821
Si Si4 0.147149 0.555103 0.166279
Si Si5 0.669837 0.231334 0.711333
O O1 0.497432 0.910227 0.169376
O O2 0.335396 0.818635 0.228809
O O3 0.000000 0.874182 0.500000
O O4 0.983610 0.888974 0.342716
O O5 0.000000 0.582522 0.500000
O O6 0.075652 0.648176 0.338968
O O7 0.962276 0.558753 0.354097
O O8 0.451182 0.227332 0.741865
O O9 0.050218 0.223061 0.831380
O O10 0.000000 0.166099 0.000000
O O11 0.122835 0.500000 0.144654
O O12 0.500000 0.570391 0.000000
O O13 0.000000 0.244909 0.500000
#
# Coordination Sequence:
#
# PCOD8110455 Si02
#       5
#     8   8   8   8   8
#     4   9  19  38  60  88 120 159 209 245 296 366
#     4  11  23  39  61  90 125 165 204 254 298 355
#     4  12  24  38  57  87 125 164 209 256 301 356
#     4  10  21  42  71  94 119 156 196 253 319 371
#     4  11  21  38  59  84 120 164 209 250 299 360
#
# _framework density 21.966372
#
# number of rings (size 3 to 8) (size 9 to 14) (size 15 to 20)
#    0.000    1.400    6.000    2.400    2.800    4.000 
#    0.000    1.000    0.000    2.400    0.000    0.000 
#    0.000    0.000    0.000    0.000    0.000    0.000 
#
# Total GULP energy -247945.113258 kJ/mol
# GULP energy per Si atom -12397.255663 kJ/mol
# Density = 2.191638 g / cm^3
# Si number density = 21.966372 Si / 1000 Ang^3
#
#
#
# Elastic Constant Matrix: (Units=GPa)
#
#
# Indices 1 2 3 4 5 6 
#
# 1 86.1717 7.6119 10.2203 0.0000 -11.8613 0.0000
# 2 7.6119 99.8231 18.7001 0.0000 -10.0153 0.0000
# 3 10.2203 18.7001 48.5111 0.0000 -11.3549 0.0000
# 4 0.0000 0.0000 0.0000 29.6299 0.0000 -10.2594
# 5 -11.8613 -10.0153 -11.3549 0.0000 30.8616 0.0000
# 6 0.0000 0.0000 0.0000 -10.2594 0.0000 22.4001
#
#
#
# Elastic Compliance Matrix: (Units=1/GPa)
#
#
# Indices 1 2 3 4 5 6 
#
# 1 0.012376 -0.000241 -0.001553 0.000000 0.004107 0.000000
# 2 -0.000241 0.010935 -0.003672 0.000000 0.002105 0.000000
# 3 -0.001553 -0.003672 0.024005 0.000000 0.007044 0.000000
# 4 0.000000 0.000000 0.000000 0.040111 0.000000 0.018371
# 5 0.004107 0.002105 0.007044 0.000000 0.037256 0.000000
# 6 0.000000 0.000000 0.000000 0.018371 0.000000 0.053057
#
#
# Mechanical properties :
#
#
# Convention : Reuss Voigt Hill
#
# Bulk Modulus (GPa) = 27.48431 34.17451 30.82941
# Shear Modulus (GPa) = 24.90056 29.77655 27.33856
#
# Velocity S-wave (km/s) = 3.37052 3.68578 3.53167
# Velocity P-wave (km/s) = 5.26178 5.80557 5.54035
#
# Compressibility (1/GPa) = 0.03638440
#
# Stress axis : x y z
#
# Youngs Moduli (GPa) = 80.80479 91.44823 41.65771
#
# Poissons Ratio (x) = 0.02201 0.06470
# Poissons Ratio (y) = 0.01945 0.15296
# Poissons Ratio (z) = 0.12551 0.33578
#
# Static dielectric constant tensor:
#      x y z
#    x 4.237530 0.000000 -0.379010 
#    y 0.000000 3.843880 0.000000 
#    z -0.379010 0.000000 3.884640 
# 
# 
# High freq. dielectric constant tensor:
#      x y z
#    x 1.859280 0.000000 -0.030290 
#    y 0.000000 1.856110 0.000000 
#    z -0.030290 0.000000 1.842200 
# 
# From -- ./inp_files/41403.got.cif
#   From: 2010.06.25/outbox.cif.g09.slc.cpg/sg12_21_cif.got.tgz:41403.got - 2010.06.28 00:19:55.
