data_PCOD8110332
_publ_section_title
;
Structure prediction by ZEFSAII (Michael W. Deem and Ramdas Pophale) SiO2 
 PCOD8110332
Probable space group: C 2/M
;
_chemical_formula_sum "Si O2"
_cell_formula_units_Z 64
_cell_length_a 9.434818
_cell_length_b 28.100544
_cell_length_c 16.618631
_cell_angle_alpha 90.000000
_cell_angle_beta 46.079460
_cell_angle_gamma 90.000000
_cell_volume 3173.645499
_symmetry_space_group_name_H-M "C 2/M"
_symmetry_group_IT_number 12
_symmetry_cell_setting 'monoclinic'
loop_
_space_group_symop_operation_xyz
x,y,z
-x,y,-z
-x,-y,-z
x,-y,z
1/2+x,1/2+y,z
1/2-x,1/2+y,-z
1/2-x,1/2-y,-z
1/2+x,1/2-y,z
loop_
_atom_site_type_symbol
_atom_site_label
_atom_site_fract_x
_atom_site_fract_y
_atom_site_fract_z
Si Si1 0.421171 0.945922 0.777849
Si Si2 0.144275 0.786622 0.375041
Si Si3 0.211180 0.112344 0.421135
Si Si4 0.939579 0.207815 0.287639
Si Si5 0.795872 0.702917 0.031846
Si Si6 0.725708 0.117743 0.418801
Si Si7 0.669947 0.388156 0.996542
Si Si8 0.586440 0.445171 0.780589
O O1 0.627509 0.922525 0.676365
O O2 0.323515 0.923182 0.894384
O O3 0.284099 0.940815 0.754456
O O4 0.462264 0.000000 0.784045
O O5 0.209502 0.840385 0.367255
O O6 0.340396 0.755173 0.291303
O O7 0.000000 0.765921 0.500000
O O8 0.022362 0.781992 0.342343
O O9 0.237265 0.127184 0.502756
O O10 0.000000 0.086212 0.500000
O O11 0.776714 0.166072 0.350805
O O12 0.119677 0.192356 0.161791
O O13 0.750000 0.750000 0.000000
O O14 0.795422 0.658189 0.971570
O O15 0.000000 0.707351 0.000000
O O16 0.500000 0.103166 0.500000
O O17 0.863518 0.076028 0.327298
O O18 0.500000 0.373523 0.000000
O O19 0.584685 0.415408 0.108047
O O20 0.519368 0.500000 0.798006
#
# Coordination Sequence:
#
# PCOD8110332 Si02
#       8
#     8   8   8   8   8   8   8   8
#     4  10  22  40  67  97 127 169 215 268 321 376
#     4  11  24  41  63  93 124 169 210 258 308 382
#     4  11  24  41  63  91 137 167 212 261 320 378
#     4  12  25  42  65  91 129 168 212 259 320 378
#     4  12  27  45  65  96 131 169 212 263 318 378
#     4  12  23  40  64  99 128 171 211 262 318 383
#     4  10  22  42  70  97 127 166 216 267 321 379
#     4  10  21  41  68  98 126 164 217 271 318 378
#
# _framework density 20.166084000000001
#
# number of rings (size 3 to 8) (size 9 to 14) (size 15 to 20)
#    0.000    1.000    5.000    2.250    5.250    2.500 
#    0.000    0.000    0.000    0.750    0.000    0.000 
#    0.000    0.000    0.000    0.000    0.000    0.000 
#
# Total GULP energy -396875.870886 kJ/mol
# GULP energy per Si atom -12402.370965 kJ/mol
# Density = 2.012019 g / cm^3
# Si number density = 20.166084 Si / 1000 Ang^3
#
#
#
# Elastic Constant Matrix: (Units=GPa)
#
#
# Indices 1 2 3 4 5 6 
#
# 1 65.0753 41.4797 15.7220 0.0000 -11.1571 0.0000
# 2 41.4797 129.4370 33.1796 0.0000 -16.5868 0.0000
# 3 15.7220 33.1796 97.4254 0.0000 -20.9022 0.0000
# 4 0.0000 0.0000 0.0000 62.0273 0.0000 11.0694
# 5 -11.1571 -16.5868 -20.9022 0.0000 27.9861 0.0000
# 6 0.0000 0.0000 0.0000 11.0694 0.0000 32.0164
#
#
#
# Elastic Compliance Matrix: (Units=1/GPa)
#
#
# Indices 1 2 3 4 5 6 
#
# 1 0.019825 -0.005721 -0.000337 0.000000 0.004262 0.000000
# 2 -0.005721 0.010398 -0.002126 0.000000 0.002294 0.000000
# 3 -0.000337 -0.002126 0.012793 0.000000 0.008161 0.000000
# 4 0.000000 0.000000 0.000000 0.017182 0.000000 -0.005941
# 5 0.004262 0.002294 0.008161 0.000000 0.044886 0.000000
# 6 0.000000 0.000000 0.000000 -0.005941 0.000000 0.033288
#
#
# Mechanical properties :
#
#
# Convention : Reuss Voigt Hill
#
# Bulk Modulus (GPa) = 37.52314 52.52224 45.02269
# Shear Modulus (GPa) = 30.55806 37.84306 34.20056
#
# Velocity S-wave (km/s) = 3.89693 4.33664 4.12265
# Velocity P-wave (km/s) = 6.23663 7.15378 6.71089
#
# Compressibility (1/GPa) = 0.02665022
#
# Stress axis : x y z
#
# Youngs Moduli (GPa) = 50.44053 96.17230 78.16490
#
# Poissons Ratio (x) = 0.55019 0.02632
# Poissons Ratio (y) = 0.28856 0.16616
# Poissons Ratio (z) = 0.01698 0.20444
#
# Static dielectric constant tensor:
#      x y z
#    x 2.949710 0.000000 -0.377790 
#    y 0.000000 3.644570 0.000000 
#    z -0.377790 0.000000 3.378890 
# 
# 
# High freq. dielectric constant tensor:
#      x y z
#    x 1.779130 0.000000 -0.001900 
#    y 0.000000 1.789020 0.000000 
#    z -0.001900 0.000000 1.804570 
# 
# From -- ./inp_files/201270.got.cif
#   From: 2010.06.25/outbox.cif.g09.slc.cpg/sg12_101_cif.got.tgz:201270.got - 2010.06.28 00:19:55.
