data_PCOD8110680
_publ_section_title
;
Structure prediction by ZEFSAII (Michael W. Deem and Ramdas Pophale) SiO2 
 PCOD8110680
Probable space group: C 2/M
;
_chemical_formula_sum "Si O2"
_cell_formula_units_Z 48
_cell_length_a 16.449085
_cell_length_b 14.067507
_cell_length_c 11.971108
_cell_angle_alpha 90.000000
_cell_angle_beta 125.465141
_cell_angle_gamma 90.000000
_cell_volume 2256.148163
_symmetry_space_group_name_H-M "C 2/M"
_symmetry_group_IT_number 12
_symmetry_cell_setting 'monoclinic'
loop_
_space_group_symop_operation_xyz
x,y,z
-x,y,-z
-x,-y,-z
x,-y,z
1/2+x,1/2+y,z
1/2-x,1/2+y,-z
1/2-x,1/2-y,-z
1/2+x,1/2-y,z
loop_
_atom_site_type_symbol
_atom_site_label
_atom_site_fract_x
_atom_site_fract_y
_atom_site_fract_z
Si Si1 0.604578 0.202796 0.045692
Si Si2 0.910752 0.108767 0.226101
Si Si3 0.720982 0.609383 0.676664
Si Si4 0.715005 0.108963 0.949727
Si Si5 0.630548 0.388955 0.380003
Si Si6 0.173717 0.892331 0.167459
O O1 0.690444 0.169403 0.198651
O O2 0.626503 0.169851 0.935434
O O3 0.596769 0.317404 0.051596
O O4 0.500000 0.157470 0.000000
O O5 0.880490 0.119340 0.331903
O O6 0.820336 0.151691 0.079829
O O7 0.018851 0.157884 0.288596
O O8 0.920304 0.000000 0.196681
O O9 0.756247 0.500000 0.700181
O O10 0.696974 0.652213 0.534623
O O11 0.700307 0.000000 0.976867
O O12 0.721117 0.118074 0.818890
O O13 0.617116 0.500000 0.395139
O O14 0.689307 0.370704 0.310976
O O15 0.131895 0.000000 0.117267
#
# Coordination Sequence:
#
# PCOD8110680 Si02
#       6
#     8   8   8   8   8   8
#     4  11  23  36  55  82 109 144 186 229 264 316
#     4   8  14  26  50  81 110 138 170 215 270 321
#     4   9  18  34  54  80 112 144 181 226 269 315
#     4   9  19  36  57  81 111 143 179 224 273 321
#     4   9  17  30  53  82 111 143 177 216 274 334
#     4  10  22  37  55  80 112 146 178 221 278 331
#
# _framework density 21.275200000000002
#
# number of rings (size 3 to 8) (size 9 to 14) (size 15 to 20)
#    0.000    2.667    0.000    2.500    2.333    4.333 
#    0.000    0.000    0.000    1.000    0.000    4.667 
#    0.000    0.000    0.000    0.000    0.000    0.000 
#
# Total GULP energy -297325.606501 kJ/mol
# GULP energy per Si atom -12388.566938 kJ/mol
# Density = 2.122678 g / cm^3
# Si number density = 21.275200 Si / 1000 Ang^3
#
#
#
# Elastic Constant Matrix: (Units=GPa)
#
#
# Indices 1 2 3 4 5 6 
#
# 1 164.0862 35.3999 72.6414 0.0000 -23.7693 0.0000
# 2 35.3999 56.3736 9.3603 0.0000 -6.3213 0.0000
# 3 72.6414 9.3603 60.1164 0.0000 -24.9325 0.0000
# 4 0.0000 0.0000 0.0000 10.6132 0.0000 -6.1477
# 5 -23.7693 -6.3213 -24.9325 0.0000 40.3044 0.0000
# 6 0.0000 0.0000 0.0000 -6.1477 0.0000 18.1236
#
#
#
# Elastic Compliance Matrix: (Units=1/GPa)
#
#
# Indices 1 2 3 4 5 6 
#
# 1 0.015651 -0.007038 -0.019430 0.000000 -0.003894 0.000000
# 2 -0.007038 0.021441 0.006509 0.000000 0.003239 0.000000
# 3 -0.019430 0.006509 0.046770 0.000000 0.018494 0.000000
# 4 0.000000 0.000000 0.000000 0.117263 0.000000 0.039776
# 5 -0.003894 0.003239 0.018494 0.000000 0.034463 0.000000
# 6 0.000000 0.000000 0.000000 0.039776 0.000000 0.068669
#
#
# Mechanical properties :
#
#
# Convention : Reuss Voigt Hill
#
# Bulk Modulus (GPa) = 22.75692 57.26436 40.01064
# Shear Modulus (GPa) = 13.93450 24.68655 19.31052
#
# Velocity S-wave (km/s) = 2.56200 3.41008 3.01600
# Velocity P-wave (km/s) = 4.41265 6.51761 5.56555
#
# Compressibility (1/GPa) = 0.04394268
#
# Stress axis : x y z
#
# Youngs Moduli (GPa) = 63.89534 46.64011 21.38144
#
# Poissons Ratio (x) = 0.32826 0.41545
# Poissons Ratio (y) = 0.44971 -0.13918
# Poissons Ratio (z) = 1.24151 -0.30360
#
# Static dielectric constant tensor:
#      x y z
#    x 3.985360 0.000000 -0.371870 
#    y 0.000000 3.693320 0.000000 
#    z -0.371870 0.000000 3.668680 
# 
# 
# High freq. dielectric constant tensor:
#      x y z
#    x 1.834180 0.000000 -0.037480 
#    y 0.000000 1.815340 0.000000 
#    z -0.037480 0.000000 1.801270 
# 
# From -- ./inp_files/143877.got.cif
#   From: 2010.06.25/outbox.cif.g09.slc.cpg/sg12_72_cif.got.tgz:143877.got - 2010.06.28 00:19:55.
