data_PCOD8110561
_publ_section_title
;
Structure prediction by ZEFSAII (Michael W. Deem and Ramdas Pophale) SiO2 
 PCOD8110561
Probable space group: C 2/M
;
_chemical_formula_sum "Si O2"
_cell_formula_units_Z 56
_cell_length_a 18.834839
_cell_length_b 24.919338
_cell_length_c 16.811014
_cell_angle_alpha 90.000000
_cell_angle_beta 156.259588
_cell_angle_gamma 90.000000
_cell_volume 3176.574876
_symmetry_space_group_name_H-M "C 2/M"
_symmetry_group_IT_number 12
_symmetry_cell_setting 'monoclinic'
loop_
_space_group_symop_operation_xyz
x,y,z
-x,y,-z
-x,-y,-z
x,-y,z
1/2+x,1/2+y,z
1/2-x,1/2+y,-z
1/2-x,1/2-y,-z
1/2+x,1/2-y,z
loop_
_atom_site_type_symbol
_atom_site_label
_atom_site_fract_x
_atom_site_fract_y
_atom_site_fract_z
Si Si1 0.810060 0.196166 0.519351
Si Si2 0.196026 0.198358 0.892990
Si Si3 0.757427 0.000000 0.686069
Si Si4 0.492113 0.207138 0.900979
Si Si5 0.911306 0.830427 0.789003
Si Si6 0.589749 0.891231 0.508522
Si Si7 0.238680 0.884605 0.070687
Si Si8 0.656522 0.500000 0.042483
O O1 0.750000 0.250000 0.500000
O O2 0.659174 0.174927 0.303967
O O3 0.847053 0.157136 0.632243
O O4 0.992231 0.205434 0.657512
O O5 0.250000 0.250000 0.000000
O O6 0.316361 0.195091 0.938658
O O7 0.209384 0.142497 0.954941
O O8 0.656647 0.051113 0.547707
O O9 0.751445 0.000000 0.776448
O O10 0.949554 0.000000 0.845099
O O11 0.441437 0.269197 0.842947
O O12 0.500000 0.187637 0.000000
O O13 0.758625 0.852248 0.689781
O O14 0.098509 0.860653 0.991350
O O15 0.500000 0.898036 0.500000
O O16 0.440018 0.868177 0.296742
O O17 0.215831 0.948876 0.050547
#
# Coordination Sequence:
#
# PCOD8110561 Si02
#       8
#     8   8   4   8   8   8   8   4
#     4   9  18  36  53  69 107 142 181 223 275 323
#     4  11  20  37  59  76 106 150 186 224 286 332
#     4  11  22  37  50  73 117 153 181 239 276 302
#     4  11  23  35  54  82 114 139 187 233 278 335
#     4  10  22  35  51  78 106 150 187 228 269 324
#     4  12  23  32  50  73 108 152 196 221 273 308
#     4  11  22  36  57  74 104 148 191 230 266 331
#     4  11  21  38  55  73 113 149 188 233 280 314
#
# _framework density 17.629051
#
# number of rings (size 3 to 8) (size 9 to 14) (size 15 to 20)
#    0.000    1.286    7.143    1.500    4.000    0.571 
#    0.000    0.000    0.000    0.000    0.000    0.500 
#    0.000    4.571    0.000    0.000    0.000    0.000 
#
# Total GULP energy -347020.601046 kJ/mol
# GULP energy per Si atom -12393.592894 kJ/mol
# Density = 1.758893 g / cm^3
# Si number density = 17.629051 Si / 1000 Ang^3
#
#
#
# Elastic Constant Matrix: (Units=GPa)
#
#
# Indices 1 2 3 4 5 6 
#
# 1 82.9972 6.1273 41.9387 0.0000 15.8041 0.0000
# 2 6.1273 59.1072 7.5239 0.0000 6.3684 0.0000
# 3 41.9387 7.5239 106.8507 -0.0001 16.9343 0.0000
# 4 0.0000 0.0000 -0.0001 22.4113 0.0000 2.9517
# 5 15.8041 6.3684 16.9343 0.0000 39.7222 0.0000
# 6 0.0000 0.0000 0.0000 2.9517 0.0000 14.4429
#
#
#
# Elastic Compliance Matrix: (Units=1/GPa)
#
#
# Indices 1 2 3 4 5 6 
#
# 1 0.015574 -0.000510 -0.005478 0.000000 -0.003779 0.000000
# 2 -0.000510 0.017302 -0.000655 0.000000 -0.002292 0.000000
# 3 -0.005478 -0.000655 0.012004 0.000000 -0.002833 0.000000
# 4 0.000000 0.000000 0.000000 0.045855 0.000000 -0.009371
# 5 -0.003779 -0.002292 -0.002833 0.000000 0.028254 0.000000
# 6 0.000000 0.000000 0.000000 -0.009371 0.000000 0.071154
#
#
# Mechanical properties :
#
#
# Convention : Reuss Voigt Hill
#
# Bulk Modulus (GPa) = 31.65161 40.01496 35.83329
# Shear Modulus (GPa) = 23.36906 28.20628 25.78767
#
# Velocity S-wave (km/s) = 3.64483 4.00433 3.82880
# Velocity P-wave (km/s) = 5.97547 6.64282 6.31796
#
# Compressibility (1/GPa) = 0.03159396
#
# Stress axis : x y z
#
# Youngs Moduli (GPa) = 64.21018 57.79829 83.30545
#
# Poissons Ratio (x) = 0.02948 0.45633
# Poissons Ratio (y) = 0.03275 0.05456
# Poissons Ratio (z) = 0.35173 0.03785
#
# Static dielectric constant tensor:
#      x y z
#    x 3.330680 0.000000 0.155470 
#    y 0.000000 3.110350 0.000000 
#    z 0.155470 0.000000 4.115190 
# 
# 
# High freq. dielectric constant tensor:
#      x y z
#    x 1.662050 0.000000 0.032200 
#    y 0.000000 1.649030 0.000000 
#    z 0.032200 0.000000 1.699730 
# 
# From -- ./inp_files/286657.got.cif
#   From: 2010.06.25/outbox.cif.g09.slc.cpg/sg12_144_cif.got.tgz:286657.got - 2010.06.28 00:19:55.
