data_PCOD8110641
_publ_section_title
;
Structure prediction by ZEFSAII (Michael W. Deem and Ramdas Pophale) SiO2 
 PCOD8110641
Probable space group: C 2/M
;
_chemical_formula_sum "Si O2"
_cell_formula_units_Z 40
_cell_length_a 22.891323
_cell_length_b 13.281788
_cell_length_c 7.745280
_cell_angle_alpha 90.000000
_cell_angle_beta 70.509093
_cell_angle_gamma 90.000000
_cell_volume 2219.910741
_symmetry_space_group_name_H-M "C 2/M"
_symmetry_group_IT_number 12
_symmetry_cell_setting 'monoclinic'
loop_
_space_group_symop_operation_xyz
x,y,z
-x,y,-z
-x,-y,-z
x,-y,z
1/2+x,1/2+y,z
1/2-x,1/2+y,-z
1/2-x,1/2-y,-z
1/2+x,1/2-y,z
loop_
_atom_site_type_symbol
_atom_site_label
_atom_site_fract_x
_atom_site_fract_y
_atom_site_fract_z
Si Si1 0.656562 0.886339 0.331285
Si Si2 0.508047 0.614082 0.789374
Si Si3 0.619998 0.297782 0.192865
Si Si4 0.198503 0.113243 0.807248
Si Si5 0.635565 0.705031 0.553539
O O1 0.623340 0.824793 0.207107
O O2 0.729569 0.885602 0.221172
O O3 0.642209 0.826984 0.525488
O O4 0.630803 0.000000 0.367029
O O5 0.514685 0.500000 0.712472
O O6 0.450313 0.667545 0.756475
O O7 0.567918 0.679436 0.689292
O O8 0.500000 0.612896 0.000000
O O9 0.645657 0.343009 0.350912
O O10 0.662120 0.330850 0.993685
O O11 0.187330 0.165649 0.633870
O O12 0.172135 0.000000 0.822748
#
# Coordination Sequence:
#
# PCOD8110641 Si02
#       5
#     8   8   8   8   8
#     4   9  22  41  59  81 117 159 198 237 274 330
#     4  11  21  37  59  87 120 147 181 239 300 350
#     4  10  22  36  61  85 119 151 190 233 287 345
#     4  11  20  37  60  89 122 149 185 237 293 344
#     4  10  22  36  61  85 119 151 190 233 287 345
#
# _framework density 18.018743000000001
#
# number of rings (size 3 to 8) (size 9 to 14) (size 15 to 20)
#    1.200    0.600    2.000    3.000    0.000    4.000 
#    0.000    3.000    0.000    1.200    0.000    0.000 
#    0.000    0.000    0.000    0.000    0.000    0.000 
#
# Total GULP energy -247817.935933 kJ/mol
# GULP energy per Si atom -12390.896797 kJ/mol
# Density = 1.797773 g / cm^3
# Si number density = 18.018743 Si / 1000 Ang^3
#
#
#
# Elastic Constant Matrix: (Units=GPa)
#
#
# Indices 1 2 3 4 5 6 
#
# 1 43.7026 27.5816 8.5846 0.0000 -5.6919 0.0000
# 2 27.5816 151.9150 33.0494 0.0000 -5.5225 0.0000
# 3 8.5846 33.0494 65.5165 0.0000 8.5388 0.0000
# 4 0.0000 0.0000 0.0000 30.0808 0.0000 -1.3649
# 5 -5.6919 -5.5225 8.5388 0.0000 30.1035 0.0000
# 6 0.0000 0.0000 0.0000 -1.3649 0.0000 -8.2161
#
#
#
# Elastic Compliance Matrix: (Units=1/GPa)
#
#
# Indices 1 2 3 4 5 6 
#
# 1 0.026558 -0.004216 -0.001980 0.000000 0.004810 0.000000
# 2 -0.004216 0.008250 -0.003845 0.000000 0.001807 0.000000
# 3 -0.001980 -0.003845 0.018279 0.000000 -0.006264 0.000000
# 4 0.000000 0.000000 0.000000 0.032995 0.000000 -0.005481
# 5 0.004810 0.001807 -0.006264 0.000000 0.036236 0.000000
# 6 0.000000 0.000000 0.000000 -0.005481 0.000000 -0.120801
#
#
# Mechanical properties :
#
#
# Convention : Reuss Voigt Hill
#
# Bulk Modulus (GPa) = 30.29823 44.39613 37.34718
# Shear Modulus (GPa) = 153.36595 23.18818 88.27707
#
# Velocity S-wave (km/s) = 9.23577 3.59122 7.00701
# Velocity P-wave (km/s) = 11.42733 6.47211 9.28634
#
# Compressibility (1/GPa) = 0.03300522
#
# Stress axis : x y z
#
# Youngs Moduli (GPa) = 37.65302 121.20796 54.70847
#
# Poissons Ratio (x) = 0.51105 0.10831
# Poissons Ratio (y) = 0.15876 0.21035
# Poissons Ratio (z) = 0.07455 0.46602
#
# Static dielectric constant tensor:
#      x y z
#    x 3.348210 0.000000 0.089540 
#    y 0.000000 3.498150 0.000000 
#    z 0.089540 0.000000 3.319460 
# 
# 
# High freq. dielectric constant tensor:
#      x y z
#    x 1.698310 0.000000 0.000010 
#    y 0.000000 1.688220 0.000000 
#    z 0.000010 0.000000 1.698440 
# 
# From -- ./inp_files/101613.got.cif
#   From: 2010.06.25/outbox.cif.g09.slc.cpg/sg12_51_cif.got.tgz:101613.got - 2010.06.28 00:19:55.
