data_PCOD8110876
_publ_section_title
;
Structure prediction by ZEFSAII (Michael W. Deem and Ramdas Pophale) SiO2 
 PCOD8110876
Probable space group: C 2/M
;
_chemical_formula_sum "Si O2"
_cell_formula_units_Z 28
_cell_length_a 8.399790
_cell_length_b 29.182391
_cell_length_c 5.214045
_cell_angle_alpha 90.000000
_cell_angle_beta 84.094534
_cell_angle_gamma 90.000000
_cell_volume 1271.314909
_symmetry_space_group_name_H-M "C 2/M"
_symmetry_group_IT_number 12
_symmetry_cell_setting 'monoclinic'
loop_
_space_group_symop_operation_xyz
x,y,z
-x,y,-z
-x,-y,-z
x,-y,z
1/2+x,1/2+y,z
1/2-x,1/2+y,-z
1/2-x,1/2-y,-z
1/2+x,1/2-y,z
loop_
_atom_site_type_symbol
_atom_site_label
_atom_site_fract_x
_atom_site_fract_y
_atom_site_fract_z
Si Si1 0.901754 0.946095 0.267769
Si Si2 0.895470 0.615800 0.771288
Si Si3 0.500000 0.257566 0.500000
Si Si4 0.734604 0.708994 0.806722
O O1 0.726675 0.923912 0.287704
O O2 0.000000 0.928680 0.500000
O O3 0.872808 0.000000 0.288709
O O4 0.000000 0.931975 0.000000
O O5 0.791657 0.659386 0.891515
O O6 0.000000 0.626536 0.500000
O O7 0.000000 0.600083 0.000000
O O8 0.448237 0.291373 0.273286
O O9 0.354569 0.222804 0.560112
O O10 0.750000 0.750000 0.000000
#
# Coordination Sequence:
#
# PCOD8110876 Si02
#       4
#     8   8   4   8
#     4  10  23  45  72 102 135 173 222 278 336 407
#     4  12  26  43  67 100 138 176 224 280 334 404
#     4  10  22  38  60  82 120 168 216 270 322 378
#     4  11  23  40  60  89 125 172 222 271 326 387
#
# _framework density 22.024440999999999
#
# number of rings (size 3 to 8) (size 9 to 14) (size 15 to 20)
#    0.000    1.143    1.429    4.286    6.000    3.429 
#    0.000    0.000    0.000    0.000    0.000    0.000 
#    0.000    0.000    0.000    0.000    0.000    0.000 
#
# Total GULP energy -173483.321150 kJ/mol
# GULP energy per Si atom -12391.665796 kJ/mol
# Density = 2.197431 g / cm^3
# Si number density = 22.024441 Si / 1000 Ang^3
#
#
#
# Elastic Constant Matrix: (Units=GPa)
#
#
# Indices 1 2 3 4 5 6 
#
# 1 127.8066 52.5174 37.5898 0.0000 51.5056 0.0000
# 2 52.5174 78.3973 33.0599 0.0000 8.2696 0.0000
# 3 37.5898 33.0599 121.7102 0.0000 37.5899 0.0000
# 4 0.0000 0.0000 0.0000 21.2355 0.0000 1.7357
# 5 51.5056 8.2696 37.5899 0.0000 43.9216 0.0000
# 6 0.0000 0.0000 0.0000 1.7357 0.0000 39.9456
#
#
#
# Elastic Compliance Matrix: (Units=1/GPa)
#
#
# Indices 1 2 3 4 5 6 
#
# 1 0.026246 -0.016931 0.006816 0.000000 -0.033424 0.000000
# 2 -0.016931 0.025351 -0.008584 0.000000 0.022427 0.000000
# 3 0.006816 -0.008584 0.014153 0.000000 -0.018489 0.000000
# 4 0.000000 0.000000 0.000000 0.047259 0.000000 -0.002053
# 5 -0.033424 0.022427 -0.018489 0.000000 0.073564 0.000000
# 6 0.000000 0.000000 0.000000 -0.002053 0.000000 0.025123
#
#
# Mechanical properties :
#
#
# Convention : Reuss Voigt Hill
#
# Bulk Modulus (GPa) = 35.26929 63.80535 49.53732
# Shear Modulus (GPa) = 19.33896 34.67035 27.00465
#
# Velocity S-wave (km/s) = 2.96644 3.97189 3.50540
# Velocity P-wave (km/s) = 5.27081 7.07585 6.23896
#
# Compressibility (1/GPa) = 0.02835328
#
# Stress axis : x y z
#
# Youngs Moduli (GPa) = 38.10040 39.44595 70.65556
#
# Poissons Ratio (x) = 0.66784 -0.48156
# Poissons Ratio (y) = 0.64506 0.60649
# Poissons Ratio (z) = -0.25968 0.33859
#
# Static dielectric constant tensor:
#      x y z
#    x 2.076030 0.000000 0.861290 
#    y 0.000000 3.924510 0.000000 
#    z 0.861290 0.000000 3.751330 
# 
# 
# High freq. dielectric constant tensor:
#      x y z
#    x 1.885820 0.000000 0.008040 
#    y 0.000000 1.849960 0.000000 
#    z 0.008040 0.000000 1.873900 
# 
# From -- ./inp_files/3077.got.cif
#   From: 2010.06.25/outbox.cif.g09.slc.cpg/sg12_2_cif.got.tgz:3077.got - 2010.06.28 00:19:55.
