data_PCOD8110424
_publ_section_title
;
Structure prediction by ZEFSAII (Michael W. Deem and Ramdas Pophale) SiO2 
 PCOD8110424
Probable space group: C 2/M
;
_chemical_formula_sum "Si O2"
_cell_formula_units_Z 36
_cell_length_a 21.982968
_cell_length_b 13.303827
_cell_length_c 18.882432
_cell_angle_alpha 90.000000
_cell_angle_beta 18.289523
_cell_angle_gamma 90.000000
_cell_volume 1733.005174
_symmetry_space_group_name_H-M "C 2/M"
_symmetry_group_IT_number 12
_symmetry_cell_setting 'monoclinic'
loop_
_space_group_symop_operation_xyz
x,y,z
-x,y,-z
-x,-y,-z
x,-y,z
1/2+x,1/2+y,z
1/2-x,1/2+y,-z
1/2-x,1/2-y,-z
1/2+x,1/2-y,z
loop_
_atom_site_type_symbol
_atom_site_label
_atom_site_fract_x
_atom_site_fract_y
_atom_site_fract_z
Si Si1 0.352292 0.883093 0.542393
Si Si2 0.415999 0.269865 0.260777
Si Si3 0.206927 0.384640 0.914217
Si Si4 0.000000 0.245987 0.500000
Si Si5 0.254971 0.611509 0.024931
O O1 0.158967 0.844715 0.716878
O O2 0.375217 0.818806 0.587995
O O3 0.533422 0.864972 0.290068
O O4 0.326199 0.000000 0.590934
O O5 0.250000 0.250000 0.500000
O O6 0.492067 0.164591 0.143596
O O7 0.605508 0.313400 0.089110
O O8 0.190621 0.500000 0.907439
O O9 0.357355 0.326048 0.699688
O O10 0.282415 0.377031 0.911087
O O11 0.311373 0.500000 0.987350
#
# Coordination Sequence:
#
# PCOD8110424 Si02
#       5
#     8   8   8   4   8
#     4  11  24  43  69  99 130 169 220 276 331 390
#     4  12  22  39  70 101 132 165 219 277 332 384
#     4  11  24  43  67  97 135 178 222 266 320 391
#     4  12  24  46  66  92 140 182 214 264 330 396
#     4  10  21  42  68  97 129 167 218 276 328 382
#
# _framework density 20.773164000000001
#
# number of rings (size 3 to 8) (size 9 to 14) (size 15 to 20)
#    0.000    0.889    4.444    3.333    0.000    1.778 
#    0.000    4.444    0.000    0.000    0.000    0.000 
#    0.000    0.000    0.000    0.000    0.000    0.000 
#
# Total GULP energy -223248.784911 kJ/mol
# GULP energy per Si atom -12402.710273 kJ/mol
# Density = 2.072588 g / cm^3
# Si number density = 20.773164 Si / 1000 Ang^3
#
#
#
# Elastic Constant Matrix: (Units=GPa)
#
#
# Indices 1 2 3 4 5 6 
#
# 1 74.3789 60.0387 41.3665 -0.0008 6.2328 0.0014
# 2 60.0387 180.7093 59.7204 -0.0107 -7.6402 0.0018
# 3 41.3665 59.7204 86.8691 -0.0085 -7.6041 -0.0013
# 4 -0.0008 -0.0107 -0.0085 40.6369 -0.0072 -0.2226
# 5 6.2328 -7.6402 -7.6041 -0.0072 30.8464 0.0028
# 6 0.0014 0.0018 -0.0013 -0.2226 0.0028 33.5859
#
#
#
# Elastic Compliance Matrix: (Units=1/GPa)
#
#
# Indices 1 2 3 4 5 6 
#
# 1 0.022758 -0.005285 -0.007891 -0.000004 -0.007853 0.000000
# 2 -0.005285 0.008398 -0.003047 0.000002 0.002397 -0.000001
# 3 -0.007891 -0.003047 0.017822 0.000004 0.005233 0.000001
# 4 -0.000004 0.000002 0.000004 0.024609 0.000008 0.000163
# 5 -0.007853 0.002397 0.005233 0.000008 0.035889 -0.000003
# 6 0.000000 -0.000001 0.000001 0.000163 -0.000003 0.029775
#
#
# Mechanical properties :
#
#
# Convention : Reuss Voigt Hill
#
# Bulk Modulus (GPa) = 60.49055 73.80094 67.14574
# Shear Modulus (GPa) = 28.21553 33.06929 30.64241
#
# Velocity S-wave (km/s) = 3.68947 3.99422 3.84486
# Velocity P-wave (km/s) = 6.87985 7.54161 7.21832
#
# Compressibility (1/GPa) = 0.01653151
#
# Stress axis : x y z
#
# Youngs Moduli (GPa) = 43.94154 119.07709 56.11076
#
# Poissons Ratio (x) = 0.62934 0.44277
# Poissons Ratio (y) = 0.23224 0.17096
# Poissons Ratio (z) = 0.34674 0.36280
#
# Static dielectric constant tensor:
#      x y z
#    x 3.738180 -0.000050 -0.044720 
#    y -0.000050 4.244850 -0.000030 
#    z -0.044720 -0.000030 3.626170 
# 
# 
# High freq. dielectric constant tensor:
#      x y z
#    x 1.804690 0.000000 0.004070 
#    y 0.000000 1.839050 0.000000 
#    z 0.004070 0.000000 1.812660 
# 
# From -- ./inp_files/284178.got.cif
#   From: 2010.06.25/outbox.cif.g09.slc.cpg/sg12_143_cif.got.tgz:284178.got - 2010.06.28 00:19:55.
