data_PCOD8110472
_publ_section_title
;
Structure prediction by ZEFSAII (Michael W. Deem and Ramdas Pophale) SiO2 
 PCOD8110472
Probable space group: C 2/M
;
_chemical_formula_sum "Si O2"
_cell_formula_units_Z 56
_cell_length_a 11.434236
_cell_length_b 25.946457
_cell_length_c 14.494693
_cell_angle_alpha 90.000000
_cell_angle_beta 40.182193
_cell_angle_gamma 90.000000
_cell_volume 2774.611888
_symmetry_space_group_name_H-M "C 2/M"
_symmetry_group_IT_number 12
_symmetry_cell_setting 'monoclinic'
loop_
_space_group_symop_operation_xyz
x,y,z
-x,y,-z
-x,-y,-z
x,-y,z
1/2+x,1/2+y,z
1/2-x,1/2+y,-z
1/2-x,1/2-y,-z
1/2+x,1/2-y,z
loop_
_atom_site_type_symbol
_atom_site_label
_atom_site_fract_x
_atom_site_fract_y
_atom_site_fract_z
Si Si1 0.582861 0.059782 0.728424
Si Si2 0.322522 0.837384 0.671428
Si Si3 0.508243 0.325345 0.244449
Si Si4 0.157483 0.851267 0.472441
Si Si5 0.394650 0.860340 0.966989
Si Si6 0.987792 0.709167 0.747429
Si Si7 0.876949 0.446219 0.662515
O O1 0.764186 0.094932 0.615094
O O2 0.448886 0.085960 0.884237
O O3 0.500737 0.063606 0.676830
O O4 0.624165 0.000000 0.731269
O O5 0.500000 0.830157 0.500000
O O6 0.143213 0.810736 0.740726
O O7 0.362699 0.820316 0.750124
O O8 0.253564 0.896814 0.719859
O O9 0.422272 0.359459 0.377749
O O10 0.565543 0.268127 0.240567
O O11 0.678151 0.359209 0.109459
O O12 0.301863 0.804900 0.394809
O O13 0.000000 0.831407 0.500000
O O14 0.441505 0.810151 0.877928
O O15 0.500000 0.855839 0.000000
O O16 0.765267 0.500000 0.743595
O O17 0.000000 0.453238 0.500000
#
# Coordination Sequence:
#
# PCOD8110472 Si02
#       7
#     8   8   8   8   8   8   8
#     4  10  21  43  68  92 126 169 210 265 336 388
#     4  11  21  38  63  96 131 156 217 270 317 392
#     4  12  25  38  66  94 129 174 219 266 319 380
#     4  11  22  39  64  96 130 165 219 268 316 389
#     4  11  25  46  61  88 131 171 223 267 317 384
#     4  11  24  42  60  90 129 178 213 261 331 372
#     4   9  16  33  62  89 119 157 196 256 322 374
#
# _framework density 20.183001999999998
#
# number of rings (size 3 to 8) (size 9 to 14) (size 15 to 20)
#    0.000    1.286    4.286    3.429    4.000    1.143 
#    0.000    1.429    0.000    1.714    0.000    0.000 
#    0.000    0.000    0.000    0.000    0.000    0.000 
#
# Total GULP energy -346967.406586 kJ/mol
# GULP energy per Si atom -12391.693092 kJ/mol
# Density = 2.013706 g / cm^3
# Si number density = 20.183002 Si / 1000 Ang^3
#
#
#
# Elastic Constant Matrix: (Units=GPa)
#
#
# Indices 1 2 3 4 5 6 
#
# 1 121.3818 11.6023 54.6488 0.0000 9.6396 0.0000
# 2 11.6023 120.5237 37.8077 0.0000 1.3717 0.0000
# 3 54.6488 37.8077 121.9644 0.0000 1.1134 0.0000
# 4 0.0000 0.0000 0.0000 29.9051 0.0000 9.8263
# 5 9.6396 1.3717 1.1134 0.0000 33.3342 0.0000
# 6 0.0000 0.0000 0.0000 9.8263 0.0000 22.5660
#
#
#
# Elastic Compliance Matrix: (Units=1/GPa)
#
#
# Indices 1 2 3 4 5 6 
#
# 1 0.010627 0.000549 -0.004905 0.000000 -0.002932 0.000000
# 2 0.000549 0.009222 -0.003101 0.000000 -0.000435 0.000000
# 3 -0.004905 -0.003101 0.011348 0.000000 0.001167 0.000000
# 4 0.000000 0.000000 0.000000 0.039022 0.000000 -0.016992
# 5 -0.002932 -0.000435 0.001167 0.000000 0.030826 0.000000
# 6 0.000000 0.000000 0.000000 -0.016992 0.000000 0.051714
#
#
# Mechanical properties :
#
#
# Convention : Reuss Voigt Hill
#
# Bulk Modulus (GPa) = 61.41401 63.55416 62.48408
# Shear Modulus (GPa) = 28.88500 34.48180 31.68340
#
# Velocity S-wave (km/s) = 3.78716 4.13783 3.96638
# Velocity P-wave (km/s) = 7.04401 7.37470 7.21125
#
# Compressibility (1/GPa) = 0.01628293
#
# Stress axis : x y z
#
# Youngs Moduli (GPa) = 94.09752 108.43747 88.12478
#
# Poissons Ratio (x) = -0.05954 0.43227
# Poissons Ratio (y) = -0.05167 0.27325
# Poissons Ratio (z) = 0.46157 0.33624
#
# Static dielectric constant tensor:
#      x y z
#    x 3.671680 0.000000 0.148490 
#    y 0.000000 4.049230 0.000000 
#    z 0.148490 0.000000 3.672370 
# 
# 
# High freq. dielectric constant tensor:
#      x y z
#    x 1.791460 0.000000 0.019310 
#    y 0.000000 1.791870 0.000000 
#    z 0.019310 0.000000 1.773420 
# 
# From -- ./inp_files/209113.got.cif
#   From: 2010.06.25/outbox.cif.g09.slc.cpg/sg12_105_cif.got.tgz:209113.got - 2010.06.28 00:19:55.
