data_PCOD8110478
_publ_section_title
;
Structure prediction by ZEFSAII (Michael W. Deem and Ramdas Pophale) SiO2 
 PCOD8110478
Probable space group: C 2/M
;
_chemical_formula_sum "Si O2"
_cell_formula_units_Z 40
_cell_length_a 10.413192
_cell_length_b 23.701118
_cell_length_c 9.064170
_cell_angle_alpha 90.000000
_cell_angle_beta 120.702214
_cell_angle_gamma 90.000000
_cell_volume 1923.510799
_symmetry_space_group_name_H-M "C 2/M"
_symmetry_group_IT_number 12
_symmetry_cell_setting 'monoclinic'
loop_
_space_group_symop_operation_xyz
x,y,z
-x,y,-z
-x,-y,-z
x,-y,z
1/2+x,1/2+y,z
1/2-x,1/2+y,-z
1/2-x,1/2-y,-z
1/2+x,1/2-y,z
loop_
_atom_site_type_symbol
_atom_site_label
_atom_site_fract_x
_atom_site_fract_y
_atom_site_fract_z
Si Si1 0.826667 0.095842 0.260603
Si Si2 0.340574 0.592025 0.598765
Si Si3 0.337877 0.000000 0.337512
Si Si4 0.152652 0.500000 0.005225
Si Si5 0.105351 0.797251 0.192808
Si Si6 0.390867 0.276297 0.296173
O O1 0.764832 0.089892 0.392246
O O2 0.824221 0.162035 0.218827
O O3 0.991889 0.070943 0.331983
O O4 0.728622 0.058745 0.094331
O O5 0.252897 0.554347 0.663496
O O6 0.338698 0.654375 0.664530
O O7 0.500000 0.000000 0.500000
O O8 0.358784 0.000000 0.176080
O O9 0.000000 0.500000 0.000000
O O10 0.253218 0.766007 0.225580
O O11 0.996869 0.755758 0.223470
O O12 0.000000 0.821279 0.000000
O O13 0.500000 0.279294 0.500000
#
# Coordination Sequence:
#
# PCOD8110478 Si02
#       6
#     8   8   4   4   8   8
#     4  10  21  43  69  94 128 176 218 261 327 400
#     4  10  22  42  68  94 130 171 219 265 325 396
#     4  12  27  44  65  99 133 166 216 276 333 388
#     4  12  27  44  67  95 132 169 215 277 335 388
#     4  11  24  41  66 100 138 175 227 276 329 393
#     4  11  22  43  67  99 133 182 223 269 334 397
#
# _framework density 20.795307999999999
#
# number of rings (size 3 to 8) (size 9 to 14) (size 15 to 20)
#    0.000    1.200    4.000    3.600    5.600    4.000 
#    3.600    0.000    0.000    0.000    0.000    0.000 
#    0.000    0.000    0.000    0.000    0.000    0.000 
#
# Total GULP energy -247880.714040 kJ/mol
# GULP energy per Si atom -12394.035702 kJ/mol
# Density = 2.074798 g / cm^3
# Si number density = 20.795308 Si / 1000 Ang^3
#
#
#
# Elastic Constant Matrix: (Units=GPa)
#
#
# Indices 1 2 3 4 5 6 
#
# 1 148.6383 47.6220 49.2720 0.0000 -18.0154 0.0000
# 2 47.6220 73.3592 40.5778 0.0000 8.0919 0.0000
# 3 49.2720 40.5778 129.8358 0.0000 -12.7701 0.0000
# 4 0.0000 0.0000 0.0000 25.4611 0.0000 -7.5791
# 5 -18.0154 8.0919 -12.7701 0.0000 37.8992 0.0000
# 6 0.0000 0.0000 0.0000 -7.5791 0.0000 27.1791
#
#
#
# Elastic Compliance Matrix: (Units=1/GPa)
#
#
# Indices 1 2 3 4 5 6 
#
# 1 0.009840 -0.006347 -0.001197 0.000000 0.005629 0.000000
# 2 -0.006347 0.021732 -0.005313 0.000000 -0.009447 0.000000
# 3 -0.001197 -0.005313 0.010211 0.000000 0.004006 0.000000
# 4 0.000000 0.000000 0.000000 0.042831 0.000000 0.011944
# 5 0.005629 -0.009447 0.004006 0.000000 0.032428 0.000000
# 6 0.000000 0.000000 0.000000 0.011944 0.000000 0.040124
#
#
# Mechanical properties :
#
#
# Convention : Reuss Voigt Hill
#
# Bulk Modulus (GPa) = 62.22659 69.64188 65.93424
# Shear Modulus (GPa) = 26.56241 32.39865 29.48053
#
# Velocity S-wave (km/s) = 3.57785 3.95141 3.76926
# Velocity P-wave (km/s) = 6.85976 7.37428 7.12167
#
# Compressibility (1/GPa) = 0.01607030
#
# Stress axis : x y z
#
# Youngs Moduli (GPa) = 101.62323 46.01448 97.93644
#
# Poissons Ratio (x) = 0.29204 0.11724
# Poissons Ratio (y) = 0.64497 0.52030
# Poissons Ratio (z) = 0.12165 0.24446
#
# Static dielectric constant tensor:
#      x y z
#    x 4.466490 0.000000 -0.138760 
#    y 0.000000 3.572620 0.000000 
#    z -0.138760 0.000000 3.888030 
# 
# 
# High freq. dielectric constant tensor:
#      x y z
#    x 1.829630 0.000000 -0.016690 
#    y 0.000000 1.802240 0.000000 
#    z -0.016690 0.000000 1.817580 
# 
# From -- ./inp_files/50980.got.cif
#   From: 2010.06.25/outbox.cif.g09.slc.cpg/sg12_26_cif.got.tgz:50980.got - 2010.06.28 00:19:55.
