data_PCOD8110888
_publ_section_title
;
Structure prediction by ZEFSAII (Michael W. Deem and Ramdas Pophale) SiO2 
 PCOD8110888
Probable space group: C 2/M
;
_chemical_formula_sum "Si O2"
_cell_formula_units_Z 48
_cell_length_a 24.544904
_cell_length_b 8.805734
_cell_length_c 14.426229
_cell_angle_alpha 90.000000
_cell_angle_beta 49.405010
_cell_angle_gamma 90.000000
_cell_volume 2367.605041
_symmetry_space_group_name_H-M "C 2/M"
_symmetry_group_IT_number 12
_symmetry_cell_setting 'monoclinic'
loop_
_space_group_symop_operation_xyz
x,y,z
-x,y,-z
-x,-y,-z
x,-y,z
1/2+x,1/2+y,z
1/2-x,1/2+y,-z
1/2-x,1/2-y,-z
1/2+x,1/2-y,z
loop_
_atom_site_type_symbol
_atom_site_label
_atom_site_fract_x
_atom_site_fract_y
_atom_site_fract_z
Si Si1 0.043511 0.822111 0.176747
Si Si2 0.519974 0.828130 0.578267
Si Si3 0.909839 0.321149 0.242667
Si Si4 0.828905 0.669422 0.513465
Si Si5 0.791372 0.322684 0.237286
Si Si6 0.302331 0.180682 0.018800
O O1 0.013360 0.787604 0.311738
O O2 0.985588 0.766358 0.164242
O O3 0.057694 0.000000 0.148888
O O4 0.116676 0.730885 0.086445
O O5 0.500000 0.765817 0.500000
O O6 0.605635 0.827664 0.487310
O O7 0.490774 0.000000 0.627548
O O8 0.925804 0.500000 0.238163
O O9 0.856317 0.266615 0.384202
O O10 0.871197 0.283041 0.187916
O O11 0.798522 0.500000 0.534526
O O12 0.766268 0.769273 0.624715
O O13 0.782700 0.500000 0.240522
O O14 0.780428 0.256781 0.145730
O O15 0.297133 0.000000 0.018551
O O16 0.250000 0.250000 0.000000
#
# Coordination Sequence:
#
# PCOD8110888 Si02
#       6
#     8   8   8   8   8   8
#     4  11  23  39  60  88 118 152 195 247 294 343
#     4   9  19  36  58  85 116 156 197 237 294 352
#     4   9  19  39  62  87 119 156 193 236 295 358
#     4   9  18  32  55  88 122 153 187 232 293 354
#     4  10  22  38  60  87 117 155 199 243 292 347
#     4  11  25  44  62  84 116 158 201 247 296 349
#
# _framework density 20.273651000000001
#
# number of rings (size 3 to 8) (size 9 to 14) (size 15 to 20)
#    0.000    2.167    0.000    3.500    2.333    5.667 
#    0.000    3.333    0.000    0.000    0.000    0.000 
#    0.000    0.000    0.000    0.000    0.000    0.000 
#
# Total GULP energy -297541.141839 kJ/mol
# GULP energy per Si atom -12397.547577 kJ/mol
# Density = 2.022751 g / cm^3
# Si number density = 20.273651 Si / 1000 Ang^3
#
#
#
# Elastic Constant Matrix: (Units=GPa)
#
#
# Indices 1 2 3 4 5 6 
#
# 1 137.7922 48.7633 52.3026 0.0000 7.2692 0.0000
# 2 48.7633 51.2439 24.2191 -0.0001 3.5880 0.0000
# 3 52.3026 24.2191 64.5055 -0.0001 -13.0120 0.0000
# 4 0.0000 -0.0001 -0.0001 28.7031 0.0000 -4.4253
# 5 7.2692 3.5880 -13.0120 0.0000 27.0655 0.0000
# 6 0.0000 0.0000 0.0000 -4.4253 0.0000 32.0386
#
#
#
# Elastic Compliance Matrix: (Units=1/GPa)
#
#
# Indices 1 2 3 4 5 6 
#
# 1 0.014501 -0.008486 -0.010111 0.000000 -0.007630 0.000000
# 2 -0.008486 0.030468 -0.005441 0.000000 -0.004376 0.000000
# 3 -0.010111 -0.005441 0.029276 0.000000 0.017512 0.000000
# 4 0.000000 0.000000 0.000000 0.035598 0.000000 0.004917
# 5 -0.007630 -0.004376 0.017512 0.000000 0.047996 0.000000
# 6 0.000000 0.000000 0.000000 0.004917 0.000000 0.031891
#
#
# Mechanical properties :
#
#
# Convention : Reuss Voigt Hill
#
# Bulk Modulus (GPa) = 38.21398 56.01238 47.11318
# Shear Modulus (GPa) = 20.28168 26.11188 23.19678
#
# Velocity S-wave (km/s) = 3.16634 3.59273 3.38625
# Velocity P-wave (km/s) = 5.67958 6.70063 6.21112
#
# Compressibility (1/GPa) = 0.02616843
#
# Stress axis : x y z
#
# Youngs Moduli (GPa) = 68.96240 32.82150 34.15778
#
# Poissons Ratio (x) = 0.27852 0.34535
# Poissons Ratio (y) = 0.58521 0.18587
# Poissons Ratio (z) = 0.69725 0.17860
#
# Static dielectric constant tensor:
#      x y z
#    x 4.008290 0.000000 0.160920 
#    y 0.000000 3.500930 0.000000 
#    z 0.160920 0.000000 3.640700 
# 
# 
# High freq. dielectric constant tensor:
#      x y z
#    x 1.809780 0.000000 0.002210 
#    y 0.000000 1.777620 0.000000 
#    z 0.002210 0.000000 1.781410 
# 
# From -- ./inp_files/244675.got.cif
#   From: 2010.06.25/outbox.cif.g09.slc.cpg/sg12_123_cif.got.tgz:244675.got - 2010.06.28 00:19:55.
