data_PCOD8110880
_publ_section_title
;
Structure prediction by ZEFSAII (Michael W. Deem and Ramdas Pophale) SiO2 
 PCOD8110880
Probable space group: C 2/M
;
_chemical_formula_sum "Si O2"
_cell_formula_units_Z 44
_cell_length_a 14.078184
_cell_length_b 9.300025
_cell_length_c 15.330393
_cell_angle_alpha 90.000000
_cell_angle_beta 63.659811
_cell_angle_gamma 90.000000
_cell_volume 1798.775951
_symmetry_space_group_name_H-M "C 2/M"
_symmetry_group_IT_number 12
_symmetry_cell_setting 'monoclinic'
loop_
_space_group_symop_operation_xyz
x,y,z
-x,y,-z
-x,-y,-z
x,-y,z
1/2+x,1/2+y,z
1/2-x,1/2+y,-z
1/2-x,1/2-y,-z
1/2+x,1/2-y,z
loop_
_atom_site_type_symbol
_atom_site_label
_atom_site_fract_x
_atom_site_fract_y
_atom_site_fract_z
Si Si1 0.296006 0.838668 0.241443
Si Si2 0.000000 0.268203 0.500000
Si Si3 0.267713 0.158770 0.577109
Si Si4 0.100588 0.337379 0.120110
Si Si5 0.652207 0.336772 0.937363
Si Si6 0.948980 0.843727 0.703590
O O1 0.303801 0.738463 0.322695
O O2 0.368556 0.763192 0.138628
O O3 0.175634 0.847295 0.261069
O O4 0.339003 0.000000 0.242675
O O5 0.108149 0.358712 0.447856
O O6 0.990333 0.179615 0.413305
O O7 0.250000 0.250000 0.500000
O O8 0.220853 0.000000 0.583563
O O9 0.062393 0.500000 0.115812
O O10 0.223719 0.338589 0.093366
O O11 0.029869 0.276501 0.230105
O O12 0.084663 0.233714 0.043243
O O13 0.612226 0.500000 0.938317
O O14 0.984900 0.000000 0.724094
#
# Coordination Sequence:
#
# PCOD8110880 Si02
#       6
#     8   4   8   8   8   8
#     4   9  17  30  48  72 103 139 180 227 279 334
#     4  10  22  38  60  84 114 152 192 236 286 336
#     4  11  23  39  59  85 116 151 192 236 283 337
#     4   9  16  24  37  62  97 135 177 225 276 331
#     4   9  15  24  40  63  95 135 177 224 277 330
#     4   9  17  29  47  71 101 139 183 229 278 333
#
# _framework density 24.461078000000001
#
# number of rings (size 3 to 8) (size 9 to 14) (size 15 to 20)
#    0.000    2.545    0.000    2.727    0.000   11.636 
#    0.000    0.000    0.000    0.000    0.000    1.273 
#    0.000    8.727    0.000    0.727    0.000    0.182 
#
# Total GULP energy -272676.306111 kJ/mol
# GULP energy per Si atom -12394.377550 kJ/mol
# Density = 2.440540 g / cm^3
# Si number density = 24.461078 Si / 1000 Ang^3
#
#
#
# Elastic Constant Matrix: (Units=GPa)
#
#
# Indices 1 2 3 4 5 6 
#
# 1 19.9377 1.6715 16.2987 0.0000 -15.8792 0.0000
# 2 1.6715 262.6890 112.4705 0.0000 28.1383 0.0000
# 3 16.2987 112.4705 212.4345 0.0000 21.7907 0.0000
# 4 0.0000 0.0000 0.0000 39.2787 0.0000 21.3562
# 5 -15.8792 28.1383 21.7907 0.0000 39.5362 0.0000
# 6 0.0000 0.0000 0.0000 21.3562 0.0000 3.9915
#
#
#
# Elastic Compliance Matrix: (Units=1/GPa)
#
#
# Indices 1 2 3 4 5 6 
#
# 1 0.095921 -0.000418 -0.011787 0.000000 0.045319 0.000000
# 2 -0.000418 0.005110 -0.002420 0.000000 -0.002471 0.000000
# 3 -0.011787 -0.002420 0.007633 0.000000 -0.007219 0.000000
# 4 0.000000 0.000000 0.000000 -0.013336 0.000000 0.071352
# 5 0.045319 -0.002471 -0.007219 0.000000 0.049233 0.000000
# 6 0.000000 0.000000 0.000000 0.071352 0.000000 -0.131232
#
#
# Mechanical properties :
#
#
# Convention : Reuss Voigt Hill
#
# Bulk Modulus (GPa) = 12.59214 83.99361 48.29287
# Shear Modulus (GPa) = 72.41138 40.86931 56.64034
#
# Velocity S-wave (km/s) = 5.44674 4.09196 4.81722
# Velocity P-wave (km/s) = 6.68692 7.53245 7.12224
#
# Compressibility (1/GPa) = 0.07941464
#
# Stress axis : x y z
#
# Youngs Moduli (GPa) = 10.42527 195.68438 131.00431
#
# Poissons Ratio (x) = 0.08186 1.54409
# Poissons Ratio (y) = 0.00436 0.31703
# Poissons Ratio (z) = 0.12288 0.47355
#
# Static dielectric constant tensor:
#      x y z
#    x 3.615440 0.000000 -0.428310 
#    y 0.000000 5.125920 0.000000 
#    z -0.428310 0.000000 4.443190 
# 
# 
# High freq. dielectric constant tensor:
#      x y z
#    x 1.959860 0.000000 -0.007270 
#    y 0.000000 1.974790 0.000000 
#    z -0.007270 0.000000 1.979690 
# 
# From -- ./inp_files/279810.got.cif
#   From: 2010.06.25/outbox.cif.g09.slc.cpg/sg12_140_cif.got.tgz:279810.got - 2010.06.28 00:19:55.
