data_PCOD8110144
_publ_section_title
;
Structure prediction by ZEFSAII (Michael W. Deem and Ramdas Pophale) SiO2 
 PCOD8110144
Probable space group: C 2/M
;
_chemical_formula_sum "Si O2"
_cell_formula_units_Z 36
_cell_length_a 27.903180
_cell_length_b 14.327833
_cell_length_c 22.884702
_cell_angle_alpha 90.000000
_cell_angle_beta 11.234670
_cell_angle_gamma 90.000000
_cell_volume 1782.504423
_symmetry_space_group_name_H-M "C 2/M"
_symmetry_group_IT_number 12
_symmetry_cell_setting 'monoclinic'
loop_
_space_group_symop_operation_xyz
x,y,z
-x,y,-z
-x,-y,-z
x,-y,z
1/2+x,1/2+y,z
1/2-x,1/2+y,-z
1/2-x,1/2-y,-z
1/2+x,1/2-y,z
loop_
_atom_site_type_symbol
_atom_site_label
_atom_site_fract_x
_atom_site_fract_y
_atom_site_fract_z
Si Si1 0.174046 0.500000 0.623281
Si Si2 0.780702 0.000000 0.038770
Si Si3 0.934663 0.700158 0.236389
Si Si4 0.579741 0.179923 0.340597
Si Si5 0.980751 0.000000 0.363520
Si Si6 0.251805 0.677344 0.669032
O O1 0.020205 0.593880 0.793669
O O2 0.227104 0.500000 0.629175
O O3 0.437812 0.500000 0.273575
O O4 0.641697 0.091266 0.226947
O O5 0.786867 0.000000 0.959705
O O6 0.750000 0.750000 0.500000
O O7 0.794995 0.703181 0.341980
O O8 0.193204 0.750566 0.924591
O O9 0.500000 0.145183 0.500000
O O10 0.354118 0.232105 0.579701
O O11 0.958719 0.905007 0.427700
O O12 0.000000 0.644355 0.000000
#
# Coordination Sequence:
#
# PCOD8110144 Si02
#       6
#     4   4   8   8   4   8
#     4   8  18  37  61  88 124 156 202 253 311 349
#     4  10  21  41  61  87 125 166 208 258 303 369
#     4  11  21  41  65  91 127 165 208 258 306 376
#     4  12  24  40  65  92 124 168 210 253 316 372
#     4   8  19  38  63  87 122 163 194 256 319 360
#     4  11  22  40  63  94 129 158 203 260 316 370
#
# _framework density 20.196303
#
# number of rings (size 3 to 8) (size 9 to 14) (size 15 to 20)
#    0.667    0.889    4.444    0.667    0.000    4.444 
#    0.000    3.889    0.000    0.000    0.000    0.000 
#    0.000    0.000    0.000    0.000    0.000    0.000 
#
# Total GULP energy -223110.815968 kJ/mol
# GULP energy per Si atom -12395.045332 kJ/mol
# Density = 2.015034 g / cm^3
# Si number density = 20.196303 Si / 1000 Ang^3
#
#
#
# Elastic Constant Matrix: (Units=GPa)
#
#
# Indices 1 2 3 4 5 6 
#
# 1 77.7091 29.9965 26.3646 -0.5624 24.1206 -0.4296
# 2 29.9965 137.6847 33.8767 -1.3032 16.7977 -1.6051
# 3 26.3646 33.8767 87.8399 -1.3143 26.6243 -1.5907
# 4 -0.5624 -1.3032 -1.3143 31.3179 0.8555 2.3144
# 5 24.1206 16.7977 26.6243 0.8555 37.0597 0.5310
# 6 -0.4296 -1.6051 -1.5907 2.3144 0.5310 16.7628
#
#
#
# Elastic Compliance Matrix: (Units=1/GPa)
#
#
# Indices 1 2 3 4 5 6 
#
# 1 0.017045 -0.002235 -0.001513 0.000372 -0.009007 0.000313
# 2 -0.002235 0.008421 -0.002359 0.000191 -0.000680 0.000520
# 3 -0.001513 -0.002359 0.015560 0.000674 -0.009161 0.001409
# 4 0.000372 0.000191 0.000674 0.032334 -0.001498 -0.004325
# 5 -0.009007 -0.000680 -0.009161 -0.001498 0.039802 -0.002219
# 6 0.000313 0.000520 0.001409 -0.004325 -0.002219 0.060515
#
#
# Mechanical properties :
#
#
# Convention : Reuss Voigt Hill
#
# Bulk Modulus (GPa) = 34.70617 53.74547 44.22582
# Shear Modulus (GPa) = 25.57627 31.22779 28.40203
#
# Velocity S-wave (km/s) = 3.56249 3.93646 3.75413
# Velocity P-wave (km/s) = 5.84324 6.87970 6.38254
#
# Compressibility (1/GPa) = 0.02881332
#
# Stress axis : x y z
#
# Youngs Moduli (GPa) = 58.66947 118.75026 64.26638
#
# Poissons Ratio (x) = 0.26543 0.09721
# Poissons Ratio (y) = 0.13114 0.15157
# Poissons Ratio (z) = 0.08874 0.28008
#
# Static dielectric constant tensor:
#      x y z
#    x 3.455100 0.013670 0.267250 
#    y 0.013670 4.535470 -0.001940 
#    z 0.267250 -0.001940 3.510090 
# 
# 
# High freq. dielectric constant tensor:
#      x y z
#    x 1.770300 -0.000080 0.019610 
#    y -0.000080 1.800830 0.000220 
#    z 0.019610 0.000220 1.786330 
# 
# From -- ./inp_files/83843.got.cif
#   From: 2010.06.25/outbox.cif.g09.slc.cpg/sg12_42_cif.got.tgz:83843.got - 2010.06.28 00:19:55.
