data_PCOD8110243
_publ_section_title
;
Structure prediction by ZEFSAII (Michael W. Deem and Ramdas Pophale) SiO2 
 PCOD8110243
Probable space group: C 2/M
;
_chemical_formula_sum "Si O2"
_cell_formula_units_Z 48
_cell_length_a 11.801588
_cell_length_b 23.144058
_cell_length_c 8.069633
_cell_angle_alpha 90.000000
_cell_angle_beta 72.174766
_cell_angle_gamma 90.000000
_cell_volume 2098.303270
_symmetry_space_group_name_H-M "C 2/M"
_symmetry_group_IT_number 12
_symmetry_cell_setting 'monoclinic'
loop_
_space_group_symop_operation_xyz
x,y,z
-x,y,-z
-x,-y,-z
x,-y,z
1/2+x,1/2+y,z
1/2-x,1/2+y,-z
1/2-x,1/2-y,-z
1/2+x,1/2-y,z
loop_
_atom_site_type_symbol
_atom_site_label
_atom_site_fract_x
_atom_site_fract_y
_atom_site_fract_z
Si Si1 0.835604 0.607283 0.762142
Si Si2 0.534404 0.500000 0.175714
Si Si3 0.508034 0.000000 0.295830
Si Si4 0.000000 0.696548 0.500000
Si Si5 0.049059 0.201622 0.711347
Si Si6 0.140759 0.914321 0.592697
Si Si7 0.757761 0.000000 0.702503
Si Si8 0.680400 0.692925 0.997344
O O1 0.924706 0.558325 0.790956
O O2 0.900760 0.656607 0.626472
O O3 0.739758 0.576271 0.689340
O O4 0.768926 0.637626 0.947443
O O5 0.479569 0.443944 0.288617
O O6 0.679355 0.500000 0.142156
O O7 0.500000 0.500000 0.000000
O O8 0.500000 0.000000 0.500000
O O9 0.385073 0.000000 0.246528
O O10 0.940493 0.737303 0.386962
O O11 0.108398 0.152336 0.569502
O O12 0.120025 0.203866 0.848724
O O13 0.913410 0.183754 0.813383
O O14 0.192269 0.942443 0.405384
O O15 0.750000 0.750000 0.000000
#
# Coordination Sequence:
#
# PCOD8110243 Si02
#       8
#     8   4   4   4   8   8   4   8
#     4  11  22  39  72 101 137 186 227 277 358 405
#     4  11  26  41  67  96 133 182 230 280 350 419
#     4  12  20  42  71 106 142 175 225 295 342 409
#     4  12  22  39  64 107 134 178 238 276 338 412
#     4  10  24  38  65  98 136 173 234 282 336 412
#     4  10  21  41  65  97 132 174 231 288 347 400
#     4  11  22  43  69 101 136 177 225 292 360 402
#     4  10  21  44  62  90 141 187 220 276 349 408
#
# _framework density 22.875626
#
# number of rings (size 3 to 8) (size 9 to 14) (size 15 to 20)
#    0.000    1.333    4.167    1.500    7.000    2.667 
#    0.000    1.667    3.667    1.000    0.000    0.000 
#    0.000    0.000    0.000    0.000    0.000    0.000 
#
# Total GULP energy -297539.037237 kJ/mol
# GULP energy per Si atom -12397.459885 kJ/mol
# Density = 2.282356 g / cm^3
# Si number density = 22.875626 Si / 1000 Ang^3
#
#
#
# Elastic Constant Matrix: (Units=GPa)
#
#
# Indices 1 2 3 4 5 6 
#
# 1 164.2994 63.3710 32.0205 0.0000 -8.1783 0.0000
# 2 63.3710 151.1554 40.8271 0.0000 -12.9153 0.0000
# 3 32.0205 40.8271 53.3752 0.0000 -9.0711 0.0000
# 4 0.0000 0.0000 0.0000 3.0214 0.0000 7.9688
# 5 -8.1783 -12.9153 -9.0711 0.0000 30.5386 0.0000
# 6 0.0000 0.0000 0.0000 7.9688 0.0000 34.4946
#
#
#
# Elastic Compliance Matrix: (Units=1/GPa)
#
#
# Indices 1 2 3 4 5 6 
#
# 1 0.007549 -0.002437 -0.002629 0.000000 0.000210 0.000000
# 2 -0.002437 0.009212 -0.005301 0.000000 0.001669 0.000000
# 3 -0.002629 -0.005301 0.025135 0.000000 0.004520 0.000000
# 4 0.000000 0.000000 0.000000 0.847126 0.000000 -0.195700
# 5 0.000210 0.001669 0.004520 0.000000 0.034850 0.000000
# 6 0.000000 0.000000 0.000000 -0.195700 0.000000 0.074200
#
#
# Mechanical properties :
#
#
# Convention : Reuss Voigt Hill
#
# Bulk Modulus (GPa) = 47.25248 71.25189 59.25219
# Shear Modulus (GPa) = 4.87396 29.11834 16.99615
#
# Velocity S-wave (km/s) = 1.46125 3.57164 2.72872
# Velocity P-wave (km/s) = 4.85264 6.94435 5.99050
#
# Compressibility (1/GPa) = 0.02116291
#
# Stress axis : x y z
#
# Youngs Moduli (GPa) = 132.46393 108.55884 39.78478
#
# Poissons Ratio (x) = 0.26454 0.10460
# Poissons Ratio (y) = 0.32280 0.21088
# Poissons Ratio (z) = 0.34827 0.57542
#
# Static dielectric constant tensor:
#      x y z
#    x 4.331310 0.000000 -0.236110 
#    y 0.000000 4.256470 0.000000 
#    z -0.236110 0.000000 4.083940 
# 
# 
# High freq. dielectric constant tensor:
#      x y z
#    x 1.913680 0.000000 -0.009090 
#    y 0.000000 1.915250 0.000000 
#    z -0.009090 0.000000 1.881100 
# 
# From -- ./inp_files/51420.got.cif
#   From: 2010.06.25/outbox.cif.g09.slc.cpg/sg12_26_cif.got.tgz:51420.got - 2010.06.28 00:19:55.
