data_PCOD8110160
_publ_section_title
;
Structure prediction by ZEFSAII (Michael W. Deem and Ramdas Pophale) SiO2 
 PCOD8110160
Probable space group: C 2/M
;
_chemical_formula_sum "Si O2"
_cell_formula_units_Z 64
_cell_length_a 18.184984
_cell_length_b 13.874152
_cell_length_c 23.044369
_cell_angle_alpha 90.000000
_cell_angle_beta 30.367601
_cell_angle_gamma 90.000000
_cell_volume 2939.306228
_symmetry_space_group_name_H-M "C 2/M"
_symmetry_group_IT_number 12
_symmetry_cell_setting 'monoclinic'
loop_
_space_group_symop_operation_xyz
x,y,z
-x,y,-z
-x,-y,-z
x,-y,z
1/2+x,1/2+y,z
1/2-x,1/2+y,-z
1/2-x,1/2-y,-z
1/2+x,1/2-y,z
loop_
_atom_site_type_symbol
_atom_site_label
_atom_site_fract_x
_atom_site_fract_y
_atom_site_fract_z
Si Si1 0.551426 0.102711 0.530800
Si Si2 0.466531 0.606033 0.801048
Si Si3 0.396274 0.890768 0.752228
Si Si4 0.603489 0.309892 0.485311
Si Si5 0.153496 0.256525 0.919090
Si Si6 0.075213 0.689129 0.727898
Si Si7 0.117436 0.106934 0.275690
Si Si8 0.147191 0.609037 0.031006
O O1 0.500000 0.098352 0.500000
O O2 0.418787 0.112202 0.667145
O O3 0.644766 0.199284 0.474144
O O4 0.633798 0.000000 0.488403
O O5 0.535094 0.500000 0.769999
O O6 0.571170 0.695600 0.744862
O O7 0.428620 0.609111 0.759323
O O8 0.314225 0.620643 0.939004
O O9 0.246510 0.838058 0.870904
O O10 0.531164 0.834461 0.691246
O O11 0.386744 0.000000 0.781662
O O12 0.500000 0.319047 0.500000
O O13 0.764402 0.353979 0.366766
O O14 0.522561 0.361697 0.592601
O O15 0.245325 0.321101 0.809856
O O16 0.114084 0.318268 0.001955
O O17 0.000000 0.220057 0.000000
O O18 0.958511 0.630931 0.844284
O O19 0.164946 0.000000 0.262978
O O20 0.121961 0.500000 0.025765
#
# Coordination Sequence:
#
# PCOD8110160 Si02
#       8
#     8   8   8   8   8   8   8   8
#     4   9  19  39  66  90 126 172 215 260 312 381
#     4   9  19  38  65  93 121 162 216 274 322 378
#     4  11  23  41  66  98 131 166 214 265 324 388
#     4  11  25  41  61  90 129 170 214 269 331 386
#     4  11  23  41  68  94 125 165 216 266 324 383
#     4  12  23  40  64  91 134 173 217 270 328 390
#     4  10  21  41  62  89 127 163 214 270 321 384
#     4  10  22  40  63  94 130 169 217 266 325 388
#
# _framework density 21.773845999999999
#
# number of rings (size 3 to 8) (size 9 to 14) (size 15 to 20)
#    0.000    1.625    3.750    1.875    1.750    5.000 
#    0.000    2.500    0.000    0.000    0.000    0.000 
#    0.000    0.000    0.000    0.000    0.000    0.000 
#
# Total GULP energy -396522.405931 kJ/mol
# GULP energy per Si atom -12391.325185 kJ/mol
# Density = 2.172429 g / cm^3
# Si number density = 21.773846 Si / 1000 Ang^3
#
#
#
# Elastic Constant Matrix: (Units=GPa)
#
#
# Indices 1 2 3 4 5 6 
#
# 1 65.6385 19.7623 49.8042 -0.0003 -8.9624 0.0002
# 2 19.7623 119.5295 33.9914 -0.0015 -6.5777 0.0009
# 3 49.8042 33.9914 143.9026 -0.0044 -7.3331 0.0030
# 4 -0.0003 -0.0015 -0.0044 18.1371 0.0017 14.4990
# 5 -8.9624 -6.5777 -7.3331 0.0017 39.4299 -0.0007
# 6 0.0002 0.0009 0.0030 14.4990 -0.0007 23.4841
#
#
#
# Elastic Compliance Matrix: (Units=1/GPa)
#
#
# Indices 1 2 3 4 5 6 
#
# 1 0.021332 -0.001385 -0.006886 -0.000005 0.003337 0.000004
# 2 -0.001385 0.009107 -0.001626 0.000001 0.000902 -0.000001
# 3 -0.006886 -0.001626 0.009715 0.000006 -0.000030 -0.000005
# 4 -0.000005 0.000001 0.000006 0.108868 -0.000006 -0.067214
# 5 0.003337 0.000902 -0.000030 -0.000006 0.026265 0.000004
# 6 0.000004 -0.000001 -0.000005 -0.067214 0.000004 0.084080
#
#
# Mechanical properties :
#
#
# Convention : Reuss Voigt Hill
#
# Bulk Modulus (GPa) = 49.11421 59.57629 54.34525
# Shear Modulus (GPa) = 17.48573 31.24440 24.36506
#
# Velocity S-wave (km/s) = 2.83691 3.79218 3.34878
# Velocity P-wave (km/s) = 5.77375 6.82605 6.32184
#
# Compressibility (1/GPa) = 0.02036070
#
# Stress axis : x y z
#
# Youngs Moduli (GPa) = 46.87711 109.80396 102.93533
#
# Poissons Ratio (x) = 0.15210 0.70879
# Poissons Ratio (y) = 0.06493 0.16736
# Poissons Ratio (z) = 0.32279 0.17852
#
# Static dielectric constant tensor:
#      x y z
#    x 3.520250 0.000000 0.223470 
#    y 0.000000 4.482970 0.000010 
#    z 0.223470 0.000010 3.971360 
# 
# 
# High freq. dielectric constant tensor:
#      x y z
#    x 1.815710 0.000000 0.020090 
#    y 0.000000 1.875900 0.000000 
#    z 0.020090 0.000000 1.855920 
# 
# From -- ./inp_files/344031.got.cif
#   From: 2010.06.25/outbox.cif.g09.slc.cpg/sg12_173_cif.got.tgz:344031.got - 2010.06.28 00:19:55.
