data_PCOD8110447
_publ_section_title
;
Structure prediction by ZEFSAII (Michael W. Deem and Ramdas Pophale) SiO2 
 PCOD8110447
Probable space group: C 2/M
;
_chemical_formula_sum "Si O2"
_cell_formula_units_Z 56
_cell_length_a 8.214602
_cell_length_b 27.580902
_cell_length_c 13.086317
_cell_angle_alpha 90.000000
_cell_angle_beta 117.422827
_cell_angle_gamma 90.000000
_cell_volume 2631.754433
_symmetry_space_group_name_H-M "C 2/M"
_symmetry_group_IT_number 12
_symmetry_cell_setting 'monoclinic'
loop_
_space_group_symop_operation_xyz
x,y,z
-x,y,-z
-x,-y,-z
x,-y,z
1/2+x,1/2+y,z
1/2-x,1/2+y,-z
1/2-x,1/2-y,-z
1/2+x,1/2-y,z
loop_
_atom_site_type_symbol
_atom_site_label
_atom_site_fract_x
_atom_site_fract_y
_atom_site_fract_z
Si Si1 0.355297 0.901962 0.531988
Si Si2 0.605614 0.716100 0.634866
Si Si3 0.173931 0.135787 0.109635
Si Si4 0.735994 0.446362 0.694347
Si Si5 0.093949 0.555139 0.922381
Si Si6 0.457398 0.629738 0.702494
Si Si7 0.006730 0.685992 0.699825
O O1 0.500000 0.930369 0.500000
O O2 0.243493 0.937322 0.574703
O O3 0.210037 0.874272 0.422214
O O4 0.473726 0.862857 0.628093
O O5 0.500000 0.701496 0.500000
O O6 0.528840 0.684637 0.707339
O O7 0.819980 0.704678 0.694315
O O8 0.584992 0.773084 0.647256
O O9 0.237657 0.089257 0.061659
O O10 0.106032 0.119476 0.201507
O O11 0.340803 0.174369 0.168665
O O12 0.000000 0.159283 0.000000
O O13 0.655872 0.500000 0.691319
O O14 0.614768 0.408353 0.720090
O O15 0.944817 0.442039 0.790216
O O16 0.167274 0.500000 0.957825
O O17 0.000000 0.573454 0.000000
#
# Coordination Sequence:
#
# PCOD8110447 Si02
#       7
#     8   8   8   8   8   8   8
#     4  12  22  40  64  93 138 169 220 279 336 399
#     4  12  23  40  71 102 136 172 224 287 340 392
#     4  12  26  44  67  95 137 179 224 278 342 399
#     4  11  23  41  64  98 139 178 218 271 345 414
#     4  10  21  42  70  97 128 174 233 287 330 389
#     4  12  23  41  65  99 133 178 224 276 334 407
#     4  12  24  42  64 103 131 170 226 279 341 395
#
# _framework density 21.278580999999999
#
# number of rings (size 3 to 8) (size 9 to 14) (size 15 to 20)
#    0.000    0.429    5.714    3.000    0.000    2.286 
#    0.000    2.857    0.000    0.857    0.000    0.000 
#    0.000    0.000    0.000    0.000    0.000    0.000 
#
# Total GULP energy -347212.628149 kJ/mol
# GULP energy per Si atom -12400.451005 kJ/mol
# Density = 2.123015 g / cm^3
# Si number density = 21.278581 Si / 1000 Ang^3
#
#
#
# Elastic Constant Matrix: (Units=GPa)
#
#
# Indices 1 2 3 4 5 6 
#
# 1 120.3667 32.4753 45.4071 0.0000 -0.7873 0.0000
# 2 32.4753 87.3212 26.2654 0.0000 -2.6451 0.0000
# 3 45.4071 26.2654 105.7898 0.0000 3.6046 0.0000
# 4 0.0000 0.0000 0.0000 21.7575 0.0000 -5.4078
# 5 -0.7873 -2.6451 3.6046 0.0000 50.6064 0.0000
# 6 0.0000 0.0000 0.0000 -5.4078 0.0000 27.9575
#
#
#
# Elastic Compliance Matrix: (Units=1/GPa)
#
#
# Indices 1 2 3 4 5 6 
#
# 1 0.010496 -0.002741 -0.003834 0.000000 0.000293 0.000000
# 2 -0.002741 0.013130 -0.002110 0.000000 0.000794 0.000000
# 3 -0.003834 -0.002110 0.011657 0.000000 -0.001000 0.000000
# 4 0.000000 0.000000 0.000000 0.048283 0.000000 0.009339
# 5 0.000293 0.000794 -0.001000 0.000000 0.019878 0.000000
# 6 0.000000 0.000000 0.000000 0.009339 0.000000 0.037575
#
#
# Mechanical properties :
#
#
# Convention : Reuss Voigt Hill
#
# Bulk Modulus (GPa) = 55.83300 57.97480 56.90390
# Shear Modulus (GPa) = 30.42091 34.01961 32.22026
#
# Velocity S-wave (km/s) = 3.78517 4.00280 3.89551
# Velocity P-wave (km/s) = 6.73791 6.97625 6.85811
#
# Compressibility (1/GPa) = 0.01791055
#
# Stress axis : x y z
#
# Youngs Moduli (GPa) = 95.27463 76.15967 85.78840
#
# Poissons Ratio (x) = 0.20877 0.32895
# Poissons Ratio (y) = 0.26117 0.18105
# Poissons Ratio (z) = 0.36533 0.16073
#
# Static dielectric constant tensor:
#      x y z
#    x 4.148490 0.000000 -0.008550 
#    y 0.000000 3.828350 0.000000 
#    z -0.008550 0.000000 3.950230 
# 
# 
# High freq. dielectric constant tensor:
#      x y z
#    x 1.853230 0.000000 0.002930 
#    y 0.000000 1.821580 0.000000 
#    z 0.002930 0.000000 1.828100 
# 
# From -- ./inp_files/124342.got.cif
#   From: 2010.06.25/outbox.cif.g09.slc.cpg/sg12_63_cif.got.tgz:124342.got - 2010.06.28 00:19:55.
