data_PCOD8110485
_publ_section_title
;
Structure prediction by ZEFSAII (Michael W. Deem and Ramdas Pophale) SiO2 
 PCOD8110485
Probable space group: C 2/M
;
_chemical_formula_sum "Si O2"
_cell_formula_units_Z 40
_cell_length_a 7.879730
_cell_length_b 21.398715
_cell_length_c 13.985786
_cell_angle_alpha 90.000000
_cell_angle_beta 54.541948
_cell_angle_gamma 90.000000
_cell_volume 1920.872621
_symmetry_space_group_name_H-M "C 2/M"
_symmetry_group_IT_number 12
_symmetry_cell_setting 'monoclinic'
loop_
_space_group_symop_operation_xyz
x,y,z
-x,y,-z
-x,-y,-z
x,-y,z
1/2+x,1/2+y,z
1/2-x,1/2+y,-z
1/2-x,1/2-y,-z
1/2+x,1/2-y,z
loop_
_atom_site_type_symbol
_atom_site_label
_atom_site_fract_x
_atom_site_fract_y
_atom_site_fract_z
Si Si1 0.063522 0.378021 0.242338
Si Si2 0.603466 0.632876 0.368650
Si Si3 0.190154 0.572653 0.007769
Si Si4 0.581262 0.571009 0.751351
Si Si5 0.983092 0.730034 0.406498
O O1 0.184131 0.382247 0.102220
O O2 0.188965 0.418267 0.279901
O O3 0.829119 0.401338 0.295250
O O4 0.041690 0.308323 0.292639
O O5 0.500000 0.610291 0.500000
O O6 0.458235 0.613099 0.328153
O O7 0.628856 0.708133 0.356513
O O8 0.178129 0.500000 0.044156
O O9 0.408216 0.588023 0.886690
O O10 0.000000 0.589273 0.000000
O O11 0.559110 0.500000 0.725696
O O12 0.750000 0.750000 0.500000
O O13 0.000000 0.689966 0.500000
#
# Coordination Sequence:
#
# PCOD8110485 Si02
#       5
#     8   8   8   8   8
#     4  12  23  39  72  97 128 174 226 273 325 395
#     4  11  24  42  66  97 135 180 219 272 326 393
#     4  10  21  43  70  94 128 176 222 271 335 394
#     4  11  25  43  68 100 135 175 222 273 332 396
#     4  11  21  41  67  92 127 175 223 264 323 394
#
# _framework density 20.823868999999998
#
# number of rings (size 3 to 8) (size 9 to 14) (size 15 to 20)
#    0.000    1.000    6.000    2.400    0.000    2.800 
#    0.000    2.000    4.400    0.000    0.000    0.000 
#    0.000    0.000    0.000    0.000    0.000    0.000 
#
# Total GULP energy -247773.300106 kJ/mol
# GULP energy per Si atom -12388.665005 kJ/mol
# Density = 2.077647 g / cm^3
# Si number density = 20.823869 Si / 1000 Ang^3
#
#
#
# Elastic Constant Matrix: (Units=GPa)
#
#
# Indices 1 2 3 4 5 6 
#
# 1 125.5181 25.0762 38.8130 0.0000 13.8647 0.0000
# 2 25.0762 69.3130 57.2742 0.0000 15.3512 0.0000
# 3 38.8130 57.2742 116.1923 0.0000 26.2407 0.0000
# 4 0.0000 0.0000 0.0000 35.6500 0.0000 2.7400
# 5 13.8647 15.3512 26.2407 0.0000 45.3281 0.0000
# 6 0.0000 0.0000 0.0000 2.7400 0.0000 28.6690
#
#
#
# Elastic Compliance Matrix: (Units=1/GPa)
#
#
# Indices 1 2 3 4 5 6 
#
# 1 0.008999 -0.001238 -0.002150 0.000000 -0.001089 0.000000
# 2 -0.001238 0.024601 -0.011408 0.000000 -0.001349 0.000000
# 3 -0.002150 -0.011408 0.016022 0.000000 -0.004754 0.000000
# 4 0.000000 0.000000 0.000000 0.028258 0.000000 -0.002701
# 5 -0.001089 -0.001349 -0.004754 0.000000 0.025603 0.000000
# 6 0.000000 0.000000 0.000000 -0.002701 0.000000 0.035139
#
#
# Mechanical properties :
#
#
# Convention : Reuss Voigt Hill
#
# Bulk Modulus (GPa) = 49.92752 61.48338 55.70545
# Shear Modulus (GPa) = 28.58931 34.58675 31.58803
#
# Velocity S-wave (km/s) = 3.70930 4.07986 3.89898
# Velocity P-wave (km/s) = 6.50948 7.19605 6.86136
#
# Compressibility (1/GPa) = 0.02002903
#
# Stress axis : x y z
#
# Youngs Moduli (GPa) = 111.11821 40.64946 62.41593
#
# Poissons Ratio (x) = 0.05033 0.13419
# Poissons Ratio (y) = 0.13758 0.71205
# Poissons Ratio (z) = 0.23890 0.46373
#
# Static dielectric constant tensor:
#      x y z
#    x 4.281910 0.000000 0.077360 
#    y 0.000000 -8.170070 0.000000 
#    z 0.077360 0.000000 3.849950 
# 
# 
# High freq. dielectric constant tensor:
#      x y z
#    x 1.850600 0.000000 0.005070 
#    y 0.000000 1.779320 0.000000 
#    z 0.005070 0.000000 1.814200 
# 
# From -- ./inp_files/196781.got.cif
#   From: 2010.06.25/outbox.cif.g09.slc.cpg/sg12_99_cif.got.tgz:196781.got - 2010.06.28 00:19:55.
