data_PCOD8110571
_publ_section_title
;
Structure prediction by ZEFSAII (Michael W. Deem and Ramdas Pophale) SiO2 
 PCOD8110571
Probable space group: C 2/M
;
_chemical_formula_sum "Si O2"
_cell_formula_units_Z 64
_cell_length_a 17.279455
_cell_length_b 20.786384
_cell_length_c 9.457713
_cell_angle_alpha 90.000000
_cell_angle_beta 82.010353
_cell_angle_gamma 90.000000
_cell_volume 3364.022676
_symmetry_space_group_name_H-M "C 2/M"
_symmetry_group_IT_number 12
_symmetry_cell_setting 'monoclinic'
loop_
_space_group_symop_operation_xyz
x,y,z
-x,y,-z
-x,-y,-z
x,-y,z
1/2+x,1/2+y,z
1/2-x,1/2+y,-z
1/2-x,1/2-y,-z
1/2+x,1/2-y,z
loop_
_atom_site_type_symbol
_atom_site_label
_atom_site_fract_x
_atom_site_fract_y
_atom_site_fract_z
Si Si1 0.462507 0.754247 0.860818
Si Si2 0.796716 0.695886 0.893723
Si Si3 0.429303 0.428399 0.209537
Si Si4 0.722950 0.813888 0.434871
Si Si5 0.066986 0.287892 0.580395
Si Si6 0.587656 0.383776 0.219330
Si Si7 0.298567 0.574751 0.021912
Si Si8 0.381140 0.354430 0.481318
O O1 0.389717 0.802631 0.899281
O O2 0.533569 0.783564 0.748246
O O3 0.423416 0.691726 0.803294
O O4 0.500000 0.736293 0.000000
O O5 0.781646 0.702704 0.730276
O O6 0.773560 0.622619 0.937375
O O7 0.750000 0.750000 0.000000
O O8 0.404052 0.500000 0.257223
O O9 0.521637 0.424798 0.149431
O O10 0.369862 0.403047 0.106565
O O11 0.432572 0.382029 0.342680
O O12 0.750000 0.750000 0.500000
O O13 0.641674 0.834797 0.533576
O O14 0.790378 0.865611 0.456729
O O15 0.094034 0.219558 0.509482
O O16 0.000000 0.317326 0.500000
O O17 0.595771 0.394002 0.385251
O O18 0.669741 0.411230 0.142346
O O19 0.273465 0.500000 0.048678
#
# Coordination Sequence:
#
# PCOD8110571 Si02
#       8
#     8   8   8   8   8   8   8   8
#     4  12  24  35  59  92 124 154 191 253 306 364
#     4  12  24  39  61  92 120 154 208 254 300 364
#     4  11  22  37  56  80 115 166 205 232 282 355
#     4  10  22  35  57  83 119 162 192 246 307 350
#     4  11  19  36  53  80 119 152 192 235 311 353
#     4  12  22  35  55  85 124 162 199 238 290 354
#     4  11  25  42  60  82 122 167 204 247 302 357
#     4  11  21  35  54  81 117 161 197 242 288 345
#
# _framework density 19.024842
#
# number of rings (size 3 to 8) (size 9 to 14) (size 15 to 20)
#    0.000    0.750    6.250    2.625    3.500    2.500 
#    0.000    0.000    0.000    0.375    0.000    2.625 
#    0.000    0.000    0.000    0.000    0.000    0.000 
#
# Total GULP energy -396499.156319 kJ/mol
# GULP energy per Si atom -12390.598635 kJ/mol
# Density = 1.898154 g / cm^3
# Si number density = 19.024842 Si / 1000 Ang^3
#
#
#
# Elastic Constant Matrix: (Units=GPa)
#
#
# Indices 1 2 3 4 5 6 
#
# 1 109.2739 22.3795 19.0800 0.0000 -12.3558 0.0000
# 2 22.3795 62.1907 11.6756 0.0000 -6.9624 0.0000
# 3 19.0800 11.6756 84.6295 0.0000 -8.7146 0.0000
# 4 0.0000 0.0000 0.0000 12.4755 0.0000 -1.9319
# 5 -12.3558 -6.9624 -8.7146 0.0000 34.2908 0.0000
# 6 0.0000 0.0000 0.0000 -1.9319 0.0000 25.2164
#
#
#
# Elastic Compliance Matrix: (Units=1/GPa)
#
#
# Indices 1 2 3 4 5 6 
#
# 1 0.010381 -0.003128 -0.001632 0.000000 0.002691 0.000000
# 2 -0.003128 0.017725 -0.001526 0.000000 0.002084 0.000000
# 3 -0.001632 -0.001526 0.012633 0.000000 0.002313 0.000000
# 4 0.000000 0.000000 0.000000 0.081120 0.000000 0.006215
# 5 0.002691 0.002084 0.002313 0.000000 0.031143 0.000000
# 6 0.000000 0.000000 0.000000 0.006215 0.000000 0.040133
#
#
# Mechanical properties :
#
#
# Convention : Reuss Voigt Hill
#
# Bulk Modulus (GPa) = 35.50135 40.26269 37.88202
# Shear Modulus (GPa) = 23.24563 27.92714 25.58639
#
# Velocity S-wave (km/s) = 3.49930 3.83551 3.67126
# Velocity P-wave (km/s) = 5.91843 6.38937 6.15840
#
# Compressibility (1/GPa) = 0.02816794
#
# Stress axis : x y z
#
# Youngs Moduli (GPa) = 96.32859 56.41766 79.15948
#
# Poissons Ratio (x) = 0.17648 0.12917
# Poissons Ratio (y) = 0.30133 0.12076
# Poissons Ratio (z) = 0.15719 0.08607
#
# Static dielectric constant tensor:
#      x y z
#    x 4.659220 0.000000 -0.097200 
#    y 0.000000 3.135530 0.000000 
#    z -0.097200 0.000000 3.446620 
# 
# 
# High freq. dielectric constant tensor:
#      x y z
#    x 1.746020 0.000000 -0.004870 
#    y 0.000000 1.684910 0.000000 
#    z -0.004870 0.000000 1.757230 
# 
# From -- ./inp_files/78759.got.cif
#   From: 2010.06.25/outbox.cif.g09.slc.cpg/sg12_40_cif.got.tgz:78759.got - 2010.06.28 00:19:55.
