data_PCOD8110405
_publ_section_title
;
Structure prediction by ZEFSAII (Michael W. Deem and Ramdas Pophale) SiO2 
 PCOD8110405
Probable space group: C 2/M
;
_chemical_formula_sum "Si O2"
_cell_formula_units_Z 56
_cell_length_a 19.732133
_cell_length_b 18.099190
_cell_length_c 14.028912
_cell_angle_alpha 90.000000
_cell_angle_beta 148.405491
_cell_angle_gamma 90.000000
_cell_volume 2624.877913
_symmetry_space_group_name_H-M "C 2/M"
_symmetry_group_IT_number 12
_symmetry_cell_setting 'monoclinic'
loop_
_space_group_symop_operation_xyz
x,y,z
-x,y,-z
-x,-y,-z
x,-y,z
1/2+x,1/2+y,z
1/2-x,1/2+y,-z
1/2-x,1/2-y,-z
1/2+x,1/2-y,z
loop_
_atom_site_type_symbol
_atom_site_label
_atom_site_fract_x
_atom_site_fract_y
_atom_site_fract_z
Si Si1 0.009183 0.581568 0.621593
Si Si2 0.149599 0.584192 0.157425
Si Si3 0.569182 0.791825 0.348288
Si Si4 0.981313 0.086221 0.870075
Si Si5 0.778856 0.145184 0.956356
Si Si6 0.784087 0.697163 0.927015
Si Si7 0.710250 0.347926 0.507875
O O1 0.963569 0.500000 0.600710
O O2 0.915851 0.642018 0.557778
O O3 0.000000 0.591613 0.500000
O O4 0.159149 0.590252 0.826159
O O5 0.157372 0.500000 0.128417
O O6 0.244183 0.589997 0.362286
O O7 0.207655 0.640968 0.150263
O O8 0.000000 0.604134 0.000000
O O9 0.423622 0.787698 0.139793
O O10 0.615322 0.712235 0.444828
O O11 0.657476 0.807539 0.362562
O O12 0.857275 0.119850 0.667912
O O13 0.957263 0.000000 0.849748
O O14 0.000000 0.119199 0.000000
O O15 0.106413 0.101703 0.956221
O O16 0.813213 0.167044 0.107553
O O17 0.739312 0.218979 0.847042
#
# Coordination Sequence:
#
# PCOD8110405 Si02
#       7
#     8   8   8   8   8   8   8
#     4  10  23  39  61  94 126 162 212 267 324 381
#     4  11  24  41  66  98 133 175 218 269 331 393
#     4  10  22  40  63  93 125 173 213 268 322 379
#     4  11  25  42  65  94 130 173 213 269 335 394
#     4  10  22  41  65  91 124 169 216 267 320 390
#     4  10  21  42  66  94 125 168 221 265 323 380
#     4  11  23  42  64  97 133 169 222 266 324 393
#
# _framework density 21.334326000000001
#
# number of rings (size 3 to 8) (size 9 to 14) (size 15 to 20)
#    0.000    1.571    2.857    0.857    4.000    5.714 
#    0.000    0.714    0.000    1.714    0.000    0.000 
#    0.000    0.000    0.000    0.000    0.000    0.000 
#
# Total GULP energy -346998.945238 kJ/mol
# GULP energy per Si atom -12392.819473 kJ/mol
# Density = 2.128577 g / cm^3
# Si number density = 21.334326 Si / 1000 Ang^3
#
#
#
# Elastic Constant Matrix: (Units=GPa)
#
#
# Indices 1 2 3 4 5 6 
#
# 1 89.4580 36.8199 32.2063 0.0000 0.2823 0.0000
# 2 36.8199 109.0856 27.1289 0.0000 -17.6836 0.0000
# 3 32.2063 27.1289 80.9057 0.0000 -13.0422 0.0000
# 4 0.0000 0.0000 0.0000 26.8662 0.0000 -6.3534
# 5 0.2823 -17.6836 -13.0422 0.0000 27.9559 0.0000
# 6 0.0000 0.0000 0.0000 -6.3534 0.0000 41.9107
#
#
#
# Elastic Compliance Matrix: (Units=1/GPa)
#
#
# Indices 1 2 3 4 5 6 
#
# 1 0.015027 -0.004653 -0.005321 0.000000 -0.005577 0.000000
# 2 -0.004653 0.012178 -0.001062 0.000000 0.007255 0.000000
# 3 -0.005321 -0.001062 0.015933 0.000000 0.006815 0.000000
# 4 0.000000 0.000000 0.000000 0.038606 0.000000 0.005852
# 5 -0.005577 0.007255 0.006815 0.000000 0.043595 0.000000
# 6 0.000000 0.000000 0.000000 0.005852 0.000000 0.024747
#
#
# Mechanical properties :
#
#
# Convention : Reuss Voigt Hill
#
# Bulk Modulus (GPa) = 47.46824 52.41773 49.94299
# Shear Modulus (GPa) = 27.90526 31.56618 29.73572
#
# Velocity S-wave (km/s) = 3.62055 3.85072 3.73741
# Velocity P-wave (km/s) = 6.30681 6.66287 6.48728
#
# Compressibility (1/GPa) = 0.02106672
#
# Stress axis : x y z
#
# Youngs Moduli (GPa) = 66.54879 82.11736 62.76422
#
# Poissons Ratio (x) = 0.38208 0.33394
# Poissons Ratio (y) = 0.30964 0.06664
# Poissons Ratio (z) = 0.35407 0.08718
#
# Static dielectric constant tensor:
#      x y z
#    x 3.894630 0.000000 0.023070 
#    y 0.000000 4.122540 0.000000 
#    z 0.023070 0.000000 3.608490 
# 
# 
# High freq. dielectric constant tensor:
#      x y z
#    x 1.834340 0.000000 0.009290 
#    y 0.000000 1.849430 0.000000 
#    z 0.009290 0.000000 1.820090 
# 
# From -- ./inp_files/234705.got.cif
#   From: 2010.06.25/outbox.cif.g09.slc.cpg/sg12_118_cif.got.tgz:234705.got - 2010.06.28 00:19:55.
