data_PCOD8110855
_publ_section_title
;
Structure prediction by ZEFSAII (Michael W. Deem and Ramdas Pophale) SiO2 
 PCOD8110855
Probable space group: C 2/M
;
_chemical_formula_sum "Si O2"
_cell_formula_units_Z 48
_cell_length_a 9.735289
_cell_length_b 28.304936
_cell_length_c 13.273469
_cell_angle_alpha 90.000000
_cell_angle_beta 140.059736
_cell_angle_gamma 90.000000
_cell_volume 2348.133450
_symmetry_space_group_name_H-M "C 2/M"
_symmetry_group_IT_number 12
_symmetry_cell_setting 'monoclinic'
loop_
_space_group_symop_operation_xyz
x,y,z
-x,y,-z
-x,-y,-z
x,-y,z
1/2+x,1/2+y,z
1/2-x,1/2+y,-z
1/2-x,1/2-y,-z
1/2+x,1/2-y,z
loop_
_atom_site_type_symbol
_atom_site_label
_atom_site_fract_x
_atom_site_fract_y
_atom_site_fract_z
Si Si1 0.753275 0.394247 0.393371
Si Si2 0.693779 0.708745 0.318732
Si Si3 0.495276 0.786029 0.674233
Si Si4 0.762579 0.875803 0.396121
Si Si5 0.550446 0.444445 0.920853
Si Si6 0.509385 0.946360 0.123606
O O1 0.628350 0.345114 0.304262
O O2 0.733341 0.407216 0.499703
O O3 0.635419 0.434096 0.263631
O O4 0.000000 0.388622 0.500000
O O5 0.499852 0.744733 0.237358
O O6 0.866172 0.725490 0.499320
O O7 0.766572 0.710301 0.241471
O O8 0.403021 0.832849 0.677456
O O9 0.688598 0.910839 0.265910
O O10 0.000000 0.856864 0.500000
O O11 0.567064 0.500000 0.936974
O O12 0.500000 0.421356 0.000000
O O13 0.781932 0.424164 0.025563
O O14 0.549283 0.000000 0.186685
O O15 0.500000 0.947176 0.000000
#
# Coordination Sequence:
#
# PCOD8110855 Si02
#       6
#     8   8   8   8   8   8
#     4  11  20  35  55  86 117 139 184 237 280 312
#     4   9  17  31  50  78 114 148 174 222 274 324
#     4   9  18  30  50  79 114 144 179 220 273 330
#     4  11  22  33  57  89 111 141 186 238 279 316
#     4  10  22  38  59  81 108 153 189 218 276 345
#     4  10  22  42  59  77 111 152 190 224 276 344
#
# _framework density 20.441766999999999
#
# number of rings (size 3 to 8) (size 9 to 14) (size 15 to 20)
#    0.000    2.000    3.333    2.000    7.000    1.333 
#    0.000    0.000    0.000    2.000    0.000    0.000 
#    0.000    0.000    0.000    0.000    0.000    0.000 
#
# Total GULP energy -297325.096326 kJ/mol
# GULP energy per Si atom -12388.545680 kJ/mol
# Density = 2.039524 g / cm^3
# Si number density = 20.441767 Si / 1000 Ang^3
#
#
#
# Elastic Constant Matrix: (Units=GPa)
#
#
# Indices 1 2 3 4 5 6 
#
# 1 122.7834 30.0332 18.9233 0.0000 5.1872 0.0000
# 2 30.0332 58.3256 24.7402 0.0000 4.6654 0.0000
# 3 18.9233 24.7402 47.6139 0.0000 -1.7135 0.0000
# 4 0.0000 0.0000 0.0000 4.7875 0.0000 0.3677
# 5 5.1872 4.6654 -1.7135 0.0000 19.6325 0.0000
# 6 0.0000 0.0000 0.0000 0.3677 0.0000 33.6350
#
#
#
# Elastic Compliance Matrix: (Units=1/GPa)
#
#
# Indices 1 2 3 4 5 6 
#
# 1 0.009463 -0.003996 -0.001746 0.000000 -0.001703 0.000000
# 2 -0.003996 0.024470 -0.011333 0.000000 -0.005748 0.000000
# 3 -0.001746 -0.011333 0.027786 0.000000 0.005580 0.000000
# 4 0.000000 0.000000 0.000000 0.209052 0.000000 -0.002285
# 5 -0.001703 -0.005748 0.005580 0.000000 0.053239 0.000000
# 6 0.000000 0.000000 0.000000 -0.002285 0.000000 0.029756
#
#
# Mechanical properties :
#
#
# Convention : Reuss Voigt Hill
#
# Bulk Modulus (GPa) = 36.27354 41.79069 39.03212
# Shear Modulus (GPa) = 12.59113 21.94607 17.26860
#
# Velocity S-wave (km/s) = 2.48453 3.28012 2.90965
# Velocity P-wave (km/s) = 5.10038 5.90201 5.51578
#
# Compressibility (1/GPa) = 0.02756830
#
# Stress axis : x y z
#
# Youngs Moduli (GPa) = 105.67644 40.86675 35.98970
#
# Poissons Ratio (x) = 0.16330 0.06283
# Poissons Ratio (y) = 0.42227 0.40788
# Poissons Ratio (z) = 0.18450 0.46315
#
# Static dielectric constant tensor:
#      x y z
#    x 4.383990 0.000000 0.049390 
#    y 0.000000 3.606870 0.000000 
#    z 0.049390 0.000000 3.190080 
# 
# 
# High freq. dielectric constant tensor:
#      x y z
#    x 1.826220 0.000000 -0.000160 
#    y 0.000000 1.787600 0.000000 
#    z -0.000160 0.000000 1.744340 
# 
# From -- ./inp_files/201046.got.cif
#   From: 2010.06.25/outbox.cif.g09.slc.cpg/sg12_101_cif.got.tgz:201046.got - 2010.06.28 00:19:55.
