data_PCOD8110415
_publ_section_title
;
Structure prediction by ZEFSAII (Michael W. Deem and Ramdas Pophale) SiO2 
 PCOD8110415
Probable space group: C 2/M
;
_chemical_formula_sum "Si O2"
_cell_formula_units_Z 44
_cell_length_a 16.046054
_cell_length_b 16.133973
_cell_length_c 10.681447
_cell_angle_alpha 90.000000
_cell_angle_beta 48.292837
_cell_angle_gamma 90.000000
_cell_volume 2064.436267
_symmetry_space_group_name_H-M "C 2/M"
_symmetry_group_IT_number 12
_symmetry_cell_setting 'monoclinic'
loop_
_space_group_symop_operation_xyz
x,y,z
-x,y,-z
-x,-y,-z
x,-y,z
1/2+x,1/2+y,z
1/2-x,1/2+y,-z
1/2-x,1/2-y,-z
1/2+x,1/2-y,z
loop_
_atom_site_type_symbol
_atom_site_label
_atom_site_fract_x
_atom_site_fract_y
_atom_site_fract_z
Si Si1 0.628994 0.595977 0.397418
Si Si2 0.803028 0.298074 0.066073
Si Si3 0.117617 0.096936 0.694732
Si Si4 0.433284 0.097814 0.754841
Si Si5 0.154635 0.597830 0.415868
Si Si6 0.000000 0.203166 0.000000
O O1 0.500000 0.611045 0.500000
O O2 0.662492 0.500000 0.337476
O O3 0.703276 0.657688 0.240857
O O4 0.643857 0.620372 0.526655
O O5 0.750000 0.250000 0.000000
O O6 0.885480 0.367724 0.930342
O O7 0.885153 0.251008 0.081215
O O8 0.225298 0.126662 0.662766
O O9 0.016747 0.147239 0.858305
O O10 0.089935 0.000000 0.735402
O O11 0.560617 0.129256 0.607530
O O12 0.363534 0.133253 0.705537
O O13 0.425399 0.000000 0.770476
O O14 0.142603 0.500000 0.422032
#
# Coordination Sequence:
#
# PCOD8110415 Si02
#       6
#     8   8   8   8   8   4
#     4  10  23  45  70  92 120 170 225 265 310 375
#     4  12  26  43  59  95 135 170 208 259 333 384
#     4  10  21  42  68  90 119 164 219 271 308 368
#     4   9  18  37  62  88 122 164 211 258 305 376
#     4   8  16  33  62  93 113 151 213 262 307 355
#     4  12  27  42  61 100 134 168 212 256 335 400
#
# _framework density 21.313324000000001
#
# number of rings (size 3 to 8) (size 9 to 14) (size 15 to 20)
#    0.000    2.000    0.000    4.091    2.545    0.727 
#   13.091    8.182    0.000    0.000    0.000    0.000 
#    0.000    0.000    0.000    0.000    0.000    0.000 
#
# Total GULP energy -272645.722829 kJ/mol
# GULP energy per Si atom -12392.987401 kJ/mol
# Density = 2.126481 g / cm^3
# Si number density = 21.313324 Si / 1000 Ang^3
#
#
#
# Elastic Constant Matrix: (Units=GPa)
#
#
# Indices 1 2 3 4 5 6 
#
# 1 52.6196 43.5019 24.2614 0.0000 7.0449 0.0000
# 2 43.5019 72.4629 71.7256 0.0000 7.3391 0.0000
# 3 24.2614 71.7256 153.6913 0.0000 15.2767 0.0000
# 4 0.0000 0.0000 0.0000 33.0902 0.0000 19.6963
# 5 7.0449 7.3391 15.2767 0.0000 24.0402 0.0000
# 6 0.0000 0.0000 0.0000 19.6963 0.0000 -4.2226
#
#
#
# Elastic Compliance Matrix: (Units=1/GPa)
#
#
# Indices 1 2 3 4 5 6 
#
# 1 0.046844 -0.038612 0.011547 0.000000 -0.009278 0.000000
# 2 -0.038612 0.057476 -0.021464 0.000000 0.007408 0.000000
# 3 0.011547 -0.021464 0.015356 0.000000 -0.006589 0.000000
# 4 0.000000 0.000000 0.000000 0.008002 0.000000 0.037327
# 5 -0.009278 0.007408 -0.006589 0.000000 0.046241 0.000000
# 6 0.000000 0.000000 0.000000 0.037327 0.000000 -0.062710
#
#
# Mechanical properties :
#
#
# Convention : Reuss Voigt Hill
#
# Bulk Modulus (GPa) = 44.21415 61.97242 53.09329
# Shear Modulus (GPa) = 23.16887 19.86721 21.51804
#
# Velocity S-wave (km/s) = 3.30064 3.05642 3.18088
# Velocity P-wave (km/s) = 5.94268 6.44947 6.20125
#
# Compressibility (1/GPa) = 0.02261719
#
# Stress axis : x y z
#
# Youngs Moduli (GPa) = 21.34752 17.39858 65.12186
#
# Poissons Ratio (x) = 0.67179 -0.75197
# Poissons Ratio (y) = 0.82427 1.39780
# Poissons Ratio (z) = -0.24650 0.37345
#
# Static dielectric constant tensor:
#      x y z
#    x 3.656150 0.000000 -0.212780 
#    y 0.000000 3.722510 0.000000 
#    z -0.212780 0.000000 3.924650 
# 
# 
# High freq. dielectric constant tensor:
#      x y z
#    x 1.839050 0.000000 -0.002440 
#    y 0.000000 1.825060 0.000000 
#    z -0.002440 0.000000 1.849150 
# 
# From -- ./inp_files/158154.got.cif
#   From: 2010.06.25/outbox.cif.g09.slc.cpg/sg12_80_cif.got.tgz:158154.got - 2010.06.28 00:19:55.
