data_PCOD8110041
_publ_section_title
;
Structure prediction by ZEFSAII (Michael W. Deem and Ramdas Pophale) SiO2 
 PCOD8110041
Probable space group: C 2/M
;
_chemical_formula_sum "Si O2"
_cell_formula_units_Z 44
_cell_length_a 17.684684
_cell_length_b 20.184585
_cell_length_c 8.498675
_cell_angle_alpha 90.000000
_cell_angle_beta 134.088393
_cell_angle_gamma 90.000000
_cell_volume 2178.985910
_symmetry_space_group_name_H-M "C 2/M"
_symmetry_group_IT_number 12
_symmetry_cell_setting 'monoclinic'
loop_
_space_group_symop_operation_xyz
x,y,z
-x,y,-z
-x,-y,-z
x,-y,z
1/2+x,1/2+y,z
1/2-x,1/2+y,-z
1/2-x,1/2-y,-z
1/2+x,1/2-y,z
loop_
_atom_site_type_symbol
_atom_site_label
_atom_site_fract_x
_atom_site_fract_y
_atom_site_fract_z
Si Si1 0.500000 0.381496 0.500000
Si Si2 0.769979 0.926456 0.119803
Si Si3 0.250138 0.194102 0.127186
Si Si4 0.847224 0.707337 0.578809
Si Si5 0.875900 0.424959 0.795189
Si Si6 0.978901 0.190367 0.133951
O O1 0.392497 0.423115 0.350248
O O2 0.497333 0.341827 0.661833
O O3 0.690079 0.909377 0.143728
O O4 0.748481 0.000000 0.025896
O O5 0.743746 0.878336 0.938846
O O6 0.345181 0.204702 0.385657
O O7 0.250000 0.250000 0.000000
O O8 0.142753 0.205806 0.064635
O O9 0.750000 0.750000 0.500000
O O10 0.839329 0.630854 0.620235
O O11 0.956676 0.740958 0.785862
O O12 0.849247 0.500000 0.696900
O O13 0.000000 0.418562 0.000000
O O14 0.000000 0.148908 0.000000
#
# Coordination Sequence:
#
# PCOD8110041 Si02
#       6
#     4   8   8   8   8   8
#     4  10  21  40  66  94 131 164 216 260 339 378
#     4  10  22  41  64  89 125 167 211 262 325 385
#     4  11  24  39  60  91 126 161 210 264 323 375
#     4  12  22  37  64  92 124 162 214 265 316 372
#     4  10  23  42  63  90 128 174 215 258 318 396
#     4  11  22  38  61  93 129 161 206 267 319 382
#
# _framework density 20.192879000000001
#
# number of rings (size 3 to 8) (size 9 to 14) (size 15 to 20)
#    0.000    1.273    1.818    5.182    2.545    0.727 
#    0.000    0.000    0.000    6.000    0.000    0.000 
#    0.000    0.000    0.000    0.000    0.000    0.000 
#
# Total GULP energy -272578.213119 kJ/mol
# GULP energy per Si atom -12389.918778 kJ/mol
# Density = 2.014692 g / cm^3
# Si number density = 20.192879 Si / 1000 Ang^3
#
#
#
# Elastic Constant Matrix: (Units=GPa)
#
#
# Indices 1 2 3 4 5 6 
#
# 1 136.4503 40.6762 39.6413 0.0000 -6.6785 0.0000
# 2 40.6762 123.4553 41.5192 0.0000 -16.3397 0.0000
# 3 39.6413 41.5192 94.2764 0.0000 -26.5559 0.0000
# 4 0.0000 0.0000 0.0000 28.8486 0.0000 1.1590
# 5 -6.6785 -16.3397 -26.5559 0.0000 39.2658 0.0000
# 6 0.0000 0.0000 0.0000 1.1590 0.0000 28.9387
#
#
#
# Elastic Compliance Matrix: (Units=1/GPa)
#
#
# Indices 1 2 3 4 5 6 
#
# 1 0.008796 -0.002010 -0.003246 0.000000 -0.001535 0.000000
# 2 -0.002010 0.010029 -0.003079 0.000000 0.001749 0.000000
# 3 -0.003246 -0.003079 0.015827 0.000000 0.008870 0.000000
# 4 0.000000 0.000000 0.000000 0.034720 0.000000 -0.001391
# 5 -0.001535 0.001749 0.008870 0.000000 0.031933 0.000000
# 6 0.000000 0.000000 0.000000 -0.001391 0.000000 0.034612
#
#
# Mechanical properties :
#
#
# Convention : Reuss Voigt Hill
#
# Bulk Modulus (GPa) = 55.61050 66.42837 61.01944
# Shear Modulus (GPa) = 31.53001 34.90030 33.21516
#
# Velocity S-wave (km/s) = 3.95580 4.16185 4.06013
# Velocity P-wave (km/s) = 6.96160 7.48752 7.22935
#
# Compressibility (1/GPa) = 0.01798222
#
# Stress axis : x y z
#
# Youngs Moduli (GPa) = 113.69366 99.70797 63.18493
#
# Poissons Ratio (x) = 0.20037 0.20509
# Poissons Ratio (y) = 0.22848 0.19456
# Poissons Ratio (z) = 0.36903 0.30702
#
# Static dielectric constant tensor:
#      x y z
#    x 3.999020 0.000000 0.062040 
#    y 0.000000 3.701990 0.000000 
#    z 0.062040 0.000000 3.784810 
# 
# 
# High freq. dielectric constant tensor:
#      x y z
#    x 1.810840 0.000000 0.001870 
#    y 0.000000 1.780250 0.000000 
#    z 0.001870 0.000000 1.788900 
# 
# From -- ./inp_files/76110.got.cif
#   From: 2010.06.25/outbox.cif.g09.slc.cpg/sg12_39_cif.got.tgz:76110.got - 2010.06.28 00:19:55.
