data_PCOD8110920
_publ_section_title
;
Structure prediction by ZEFSAII (Michael W. Deem and Ramdas Pophale) SiO2 
 PCOD8110920
Probable space group: C 2/M
;
_chemical_formula_sum "Si O2"
_cell_formula_units_Z 64
_cell_length_a 15.748078
_cell_length_b 18.476317
_cell_length_c 15.094938
_cell_angle_alpha 90.000000
_cell_angle_beta 133.650219
_cell_angle_gamma 90.000000
_cell_volume 3177.994431
_symmetry_space_group_name_H-M "C 2/M"
_symmetry_group_IT_number 12
_symmetry_cell_setting 'monoclinic'
loop_
_space_group_symop_operation_xyz
x,y,z
-x,y,-z
-x,-y,-z
x,-y,z
1/2+x,1/2+y,z
1/2-x,1/2+y,-z
1/2-x,1/2-y,-z
1/2+x,1/2-y,z
loop_
_atom_site_type_symbol
_atom_site_label
_atom_site_fract_x
_atom_site_fract_y
_atom_site_fract_z
Si Si1 0.243397 0.082800 0.318467
Si Si2 0.837462 0.309561 0.696057
Si Si3 0.960244 0.832046 0.738531
Si Si4 0.573595 0.870444 0.410923
Si Si5 0.922190 0.782984 0.522456
Si Si6 0.797061 0.085743 0.072007
Si Si7 0.676304 0.082130 0.807900
Si Si8 0.634503 0.081797 0.122884
O O1 0.127848 0.116434 0.274817
O O2 0.357115 0.087715 0.462969
O O3 0.270494 0.119846 0.242172
O O4 0.214278 0.000000 0.282195
O O5 0.941368 0.249183 0.765319
O O6 0.840650 0.358719 0.610655
O O7 0.711671 0.269685 0.604926
O O8 0.843581 0.359982 0.785503
O O9 0.930061 0.835366 0.612580
O O10 0.090093 0.862623 0.844734
O O11 0.524772 0.794697 0.413751
O O12 0.464186 0.915630 0.296399
O O13 0.000000 0.817637 0.500000
O O14 0.716645 0.101485 0.099163
O O15 0.829446 0.000000 0.090949
O O16 0.725654 0.114921 0.934838
O O17 0.716652 0.000000 0.837088
O O18 0.662611 0.000000 0.176444
O O19 0.500000 0.087176 0.000000
#
# Coordination Sequence:
#
# PCOD8110920 Si02
#       8
#     8   8   8   8   8   8   8   8
#     4  11  21  36  60  89 122 159 205 254 306 366
#     4  11  22  40  61  93 126 161 206 251 319 380
#     4  11  22  41  59  90 129 165 203 251 312 377
#     4  11  20  37  59  89 122 157 201 257 310 362
#     4  11  21  38  62  86 123 163 201 252 314 371
#     4  10  22  43  65  89 126 169 214 259 308 368
#     4  10  22  38  61  89 118 161 212 259 305 358
#     4  10  22  43  68  93 123 163 214 266 311 362
#
# _framework density 20.138487000000001
#
# number of rings (size 3 to 8) (size 9 to 14) (size 15 to 20)
#    0.000    1.375    2.500    4.125    0.000    3.500 
#    2.250    5.000    0.000    2.625    0.000    0.000 
#    0.000    0.000    0.000    0.000    0.000    0.000 
#
# Total GULP energy -396721.973277 kJ/mol
# GULP energy per Si atom -12397.561665 kJ/mol
# Density = 2.009265 g / cm^3
# Si number density = 20.138487 Si / 1000 Ang^3
#
#
#
# Elastic Constant Matrix: (Units=GPa)
#
#
# Indices 1 2 3 4 5 6 
#
# 1 159.4533 51.2855 71.4853 0.0000 -10.2185 0.0000
# 2 51.2855 68.1617 51.0936 0.0000 -11.5250 0.0000
# 3 71.4853 51.0936 126.6542 0.0000 -8.7492 0.0000
# 4 0.0000 0.0000 0.0000 27.7254 0.0000 6.5230
# 5 -10.2185 -11.5250 -8.7492 0.0000 40.0071 0.0000
# 6 0.0000 0.0000 0.0000 6.5230 0.0000 21.5774
#
#
#
# Elastic Compliance Matrix: (Units=1/GPa)
#
#
# Indices 1 2 3 4 5 6 
#
# 1 0.009221 -0.004292 -0.003448 0.000000 0.000365 0.000000
# 2 -0.004292 0.023771 -0.006874 0.000000 0.004248 0.000000
# 3 -0.003448 -0.006874 0.012607 0.000000 -0.000104 0.000000
# 4 0.000000 0.000000 0.000000 0.038830 0.000000 -0.011738
# 5 0.000365 0.004248 -0.000104 0.000000 0.026290 0.000000
# 6 0.000000 0.000000 0.000000 -0.011738 0.000000 0.049893
#
#
# Mechanical properties :
#
#
# Convention : Reuss Voigt Hill
#
# Bulk Modulus (GPa) = 61.07762 77.99980 69.53871
# Shear Modulus (GPa) = 25.60216 29.88898 27.74557
#
# Velocity S-wave (km/s) = 3.56940 3.85668 3.71582
# Velocity P-wave (km/s) = 6.88347 7.65818 7.28114
#
# Compressibility (1/GPa) = 0.01637261
#
# Stress axis : x y z
#
# Youngs Moduli (GPa) = 108.44933 42.06824 79.31923
#
# Poissons Ratio (x) = 0.18054 0.27348
# Poissons Ratio (y) = 0.46543 0.54521
# Poissons Ratio (z) = 0.37392 0.28916
#
# Static dielectric constant tensor:
#      x y z
#    x 3.865930 0.000000 -0.237340 
#    y 0.000000 3.570380 0.000000 
#    z -0.237340 0.000000 3.712750 
# 
# 
# High freq. dielectric constant tensor:
#      x y z
#    x 1.805780 0.000000 -0.009470 
#    y 0.000000 1.772030 0.000000 
#    z -0.009470 0.000000 1.781720 
# 
# From -- ./inp_files/216849.got.cif
#   From: 2010.06.25/outbox.cif.g09.slc.cpg/sg12_109_cif.got.tgz:216849.got - 2010.06.28 00:19:55.
