data_PCOD8110169
_publ_section_title
;
Structure prediction by ZEFSAII (Michael W. Deem and Ramdas Pophale) SiO2 
 PCOD8110169
Probable space group: C 2/M
;
_chemical_formula_sum "Si O2"
_cell_formula_units_Z 40
_cell_length_a 15.604820
_cell_length_b 8.623717
_cell_length_c 30.999576
_cell_angle_alpha 90.000000
_cell_angle_beta 151.465532
_cell_angle_gamma 90.000000
_cell_volume 1992.749718
_symmetry_space_group_name_H-M "C 2/M"
_symmetry_group_IT_number 12
_symmetry_cell_setting 'monoclinic'
loop_
_space_group_symop_operation_xyz
x,y,z
-x,y,-z
-x,-y,-z
x,-y,z
1/2+x,1/2+y,z
1/2-x,1/2+y,-z
1/2-x,1/2-y,-z
1/2+x,1/2-y,z
loop_
_atom_site_type_symbol
_atom_site_label
_atom_site_fract_x
_atom_site_fract_y
_atom_site_fract_z
Si Si1 0.387578 0.676954 0.093989
Si Si2 0.470424 0.176350 0.714162
Si Si3 0.215279 0.683969 0.280561
Si Si4 0.792849 0.824707 0.910879
Si Si5 0.427554 0.815132 0.599605
O O1 0.425611 0.500000 0.098401
O O2 0.578244 0.764822 0.181839
O O3 0.290346 0.691881 0.096600
O O4 0.250000 0.750000 0.000000
O O5 0.355865 0.245922 0.703932
O O6 0.685702 0.188238 0.818307
O O7 0.435453 0.254512 0.652095
O O8 0.408707 0.000000 0.682829
O O9 0.229303 0.500000 0.286513
O O10 0.407236 0.757475 0.356134
O O11 0.763258 0.000000 0.916537
O O12 0.000000 0.786601 0.000000
O O13 0.250000 0.750000 0.500000
O O14 0.428205 0.000000 0.600018
#
# Coordination Sequence:
#
# PCOD8110169 Si02
#       5
#     8   8   8   8   8
#     4  11  22  36  55  84 119 158 199 242 291 352
#     4   8  18  37  59  83 117 158 196 236 298 366
#     4  10  21  41  63  87 117 155 198 249 304 364
#     4   9  18  34  57  84 114 153 196 239 295 361
#     4  11  23  40  62  90 119 157 202 249 301 360
#
# _framework density 20.072765
#
# number of rings (size 3 to 8) (size 9 to 14) (size 15 to 20)
#    0.000    2.200    0.000    4.200    2.800    1.200 
#    0.000   14.000    0.000    0.000    0.000    0.000 
#    0.000    0.000    0.000    0.000    0.000    0.000 
#
# Total GULP energy -247817.100070 kJ/mol
# GULP energy per Si atom -12390.855003 kJ/mol
# Density = 2.002708 g / cm^3
# Si number density = 20.072765 Si / 1000 Ang^3
#
#
#
# Elastic Constant Matrix: (Units=GPa)
#
#
# Indices 1 2 3 4 5 6 
#
# 1 106.5125 28.4464 82.7697 0.0000 4.2941 0.0000
# 2 28.4464 76.6148 39.7143 0.0001 2.4226 -0.0001
# 3 82.7697 39.7143 183.3697 0.0000 10.6033 0.0000
# 4 0.0000 0.0001 0.0000 34.5652 0.0000 3.6189
# 5 4.2941 2.4226 10.6033 0.0000 37.8385 0.0000
# 6 0.0000 -0.0001 0.0000 3.6189 0.0000 27.3942
#
#
#
# Elastic Compliance Matrix: (Units=1/GPa)
#
#
# Indices 1 2 3 4 5 6 
#
# 1 0.014811 -0.002291 -0.006201 0.000000 0.000204 0.000000
# 2 -0.002291 0.015058 -0.002222 0.000000 -0.000081 0.000000
# 3 -0.006201 -0.002222 0.008828 0.000000 -0.001628 0.000000
# 4 0.000000 0.000000 0.000000 0.029337 0.000000 -0.003876
# 5 0.000204 -0.000081 -0.001628 0.000000 0.026866 0.000000
# 6 0.000000 0.000000 0.000000 -0.003876 0.000000 0.037016
#
#
# Mechanical properties :
#
#
# Convention : Reuss Voigt Hill
#
# Bulk Modulus (GPa) = 57.91224 74.26199 66.08712
# Shear Modulus (GPa) = 31.42676 34.33069 32.87873
#
# Velocity S-wave (km/s) = 3.96111 4.14008 4.05158
# Velocity P-wave (km/s) = 7.05934 7.74147 7.40826
#
# Compressibility (1/GPa) = 0.01726751
#
# Stress axis : x y z
#
# Youngs Moduli (GPa) = 67.51753 66.41189 113.27761
#
# Poissons Ratio (x) = 0.15217 0.70243
# Poissons Ratio (y) = 0.15470 0.25173
# Poissons Ratio (z) = 0.41867 0.14758
#
# Static dielectric constant tensor:
#      x y z
#    x 7.063240 0.000080 -0.116700 
#    y 0.000080 2.082630 0.000000 
#    z -0.116700 0.000000 4.036180 
# 
# 
# High freq. dielectric constant tensor:
#      x y z
#    x 1.775420 0.000000 -0.000630 
#    y 0.000000 1.763470 0.000000 
#    z -0.000630 0.000000 1.796220 
# 
# From -- ./inp_files/211235.got.cif
#   From: 2010.06.25/outbox.cif.g09.slc.cpg/sg12_106_cif.got.tgz:211235.got - 2010.06.28 00:19:55.
