data_PCOD8110423
_publ_section_title
;
Structure prediction by ZEFSAII (Michael W. Deem and Ramdas Pophale) SiO2 
 PCOD8110423
Probable space group: C 2/M
;
_chemical_formula_sum "Si O2"
_cell_formula_units_Z 40
_cell_length_a 8.684512
_cell_length_b 27.391206
_cell_length_c 10.787545
_cell_angle_alpha 90.000000
_cell_angle_beta 47.287691
_cell_angle_gamma 90.000000
_cell_volume 1885.514830
_symmetry_space_group_name_H-M "C 2/M"
_symmetry_group_IT_number 12
_symmetry_cell_setting 'monoclinic'
loop_
_space_group_symop_operation_xyz
x,y,z
-x,y,-z
-x,-y,-z
x,-y,z
1/2+x,1/2+y,z
1/2-x,1/2+y,-z
1/2-x,1/2-y,-z
1/2+x,1/2-y,z
loop_
_atom_site_type_symbol
_atom_site_label
_atom_site_fract_x
_atom_site_fract_y
_atom_site_fract_z
Si Si1 0.160595 0.055492 0.302426
Si Si2 0.389514 0.303843 0.189323
Si Si3 0.557539 0.596441 0.100418
Si Si4 0.505081 0.139293 0.860598
Si Si5 0.038917 0.727719 0.670127
O O1 0.063919 0.060927 0.215898
O O2 0.355811 0.090649 0.212903
O O3 0.000000 0.068019 0.500000
O O4 0.239349 0.000000 0.272671
O O5 0.391661 0.360864 0.227189
O O6 0.535369 0.271400 0.199585
O O7 0.148397 0.284151 0.323651
O O8 0.500000 0.297307 0.000000
O O9 0.500000 0.569715 0.000000
O O10 0.773582 0.623573 0.948955
O O11 0.595218 0.178458 0.714990
O O12 0.500000 0.163131 0.000000
O O13 0.250000 0.750000 0.500000
#
# Coordination Sequence:
#
# PCOD8110423 Si02
#       5
#     8   8   8   8   8
#     4  10  24  44  70 100 132 170 216 274 344 404
#     4  11  23  40  60  86 129 174 224 263 321 391
#     4  10  21  42  68  96 127 174 222 278 323 387
#     4  10  22  41  67  91 129 175 225 268 326 397
#     4  12  25  38  59  96 130 174 221 274 329 389
#
# _framework density 21.214365000000001
#
# number of rings (size 3 to 8) (size 9 to 14) (size 15 to 20)
#    0.000    1.400    4.000    1.800    8.400    4.000 
#    0.000    1.000    0.000    2.400    0.000    0.000 
#    0.000    0.000    0.000    0.000    0.000    0.000 
#
# Total GULP energy -247832.679609 kJ/mol
# GULP energy per Si atom -12391.633980 kJ/mol
# Density = 2.116608 g / cm^3
# Si number density = 21.214365 Si / 1000 Ang^3
#
#
#
# Elastic Constant Matrix: (Units=GPa)
#
#
# Indices 1 2 3 4 5 6 
#
# 1 104.0295 26.5153 31.0192 0.0000 1.3764 0.0000
# 2 26.5153 87.8129 34.6985 0.0000 3.8252 0.0000
# 3 31.0192 34.6985 95.9163 0.0000 -1.9260 0.0000
# 4 0.0000 0.0000 0.0000 30.5003 0.0000 9.4776
# 5 1.3764 3.8252 -1.9260 0.0000 34.2051 0.0000
# 6 0.0000 0.0000 0.0000 9.4776 0.0000 29.7383
#
#
#
# Elastic Compliance Matrix: (Units=1/GPa)
#
#
# Indices 1 2 3 4 5 6 
#
# 1 0.011006 -0.002216 -0.002765 0.000000 -0.000351 0.000000
# 2 -0.002216 0.013840 -0.004324 0.000000 -0.001702 0.000000
# 3 -0.002765 -0.004324 0.012911 0.000000 0.001322 0.000000
# 4 0.000000 0.000000 0.000000 0.036390 0.000000 -0.011598
# 5 -0.000351 -0.001702 0.001322 0.000000 0.029514 0.000000
# 6 0.000000 0.000000 0.000000 -0.011598 0.000000 0.037323
#
#
# Mechanical properties :
#
#
# Convention : Reuss Voigt Hill
#
# Bulk Modulus (GPa) = 52.22679 52.46939 52.34809
# Shear Modulus (GPa) = 30.12468 31.92377 31.02423
#
# Velocity S-wave (km/s) = 3.77239 3.88341 3.82830
# Velocity P-wave (km/s) = 6.60656 6.70033 6.65361
#
# Compressibility (1/GPa) = 0.01914726
#
# Stress axis : x y z
#
# Youngs Moduli (GPa) = 90.85560 72.25596 77.45428
#
# Poissons Ratio (x) = 0.16009 0.21416
# Poissons Ratio (y) = 0.20130 0.33493
# Poissons Ratio (z) = 0.25122 0.31245
#
# Static dielectric constant tensor:
#      x y z
#    x 3.849290 0.000000 -0.072510 
#    y 0.000000 4.132810 0.000000 
#    z -0.072510 0.000000 3.737100 
# 
# 
# High freq. dielectric constant tensor:
#      x y z
#    x 1.843140 0.000000 0.012140 
#    y 0.000000 1.820930 0.000000 
#    z 0.012140 0.000000 1.831310 
# 
# From -- ./inp_files/123414.got.cif
#   From: 2010.06.25/outbox.cif.g09.slc.cpg/sg12_62_cif.got.tgz:123414.got - 2010.06.28 00:19:55.
