data_PCOD8110580
_publ_section_title
;
Structure prediction by ZEFSAII (Michael W. Deem and Ramdas Pophale) SiO2 
 PCOD8110580
Probable space group: C 2/M
;
_chemical_formula_sum "Si O2"
_cell_formula_units_Z 36
_cell_length_a 26.183887
_cell_length_b 14.852392
_cell_length_c 11.656960
_cell_angle_alpha 90.000000
_cell_angle_beta 156.417650
_cell_angle_gamma 90.000000
_cell_volume 1813.628204
_symmetry_space_group_name_H-M "C 2/M"
_symmetry_group_IT_number 12
_symmetry_cell_setting 'monoclinic'
loop_
_space_group_symop_operation_xyz
x,y,z
-x,y,-z
-x,-y,-z
x,-y,z
1/2+x,1/2+y,z
1/2-x,1/2+y,-z
1/2-x,1/2-y,-z
1/2+x,1/2-y,z
loop_
_atom_site_type_symbol
_atom_site_label
_atom_site_fract_x
_atom_site_fract_y
_atom_site_fract_z
Si Si1 0.832001 0.500000 0.547186
Si Si2 0.012170 0.103053 0.654858
Si Si3 0.500000 0.342102 0.000000
Si Si4 0.813347 0.865235 0.427398
Si Si5 0.109103 0.500000 0.067792
Si Si6 0.187621 0.817151 0.197637
O O1 0.876448 0.500000 0.767769
O O2 0.749435 0.411965 0.355404
O O3 0.958738 0.500000 0.727132
O O4 0.873773 0.109773 0.429722
O O5 0.000000 0.137514 0.500000
O O6 0.061907 0.000000 0.760431
O O7 0.109432 0.169762 0.919274
O O8 0.590500 0.400057 0.272899
O O9 0.593515 0.285004 0.108255
O O10 0.795641 0.757813 0.402791
O O11 0.676043 0.911974 0.152306
#
# Coordination Sequence:
#
# PCOD8110580 Si02
#       6
#     4   8   4   8   4   8
#     4  11  24  36  56  89 131 159 187 233 300 361
#     4  10  22  42  67  87 110 153 207 255 293 338
#     4  10  22  35  62  89 122 150 202 235 294 341
#     4  11  23  38  62  88 122 156 196 243 293 356
#     4  11  24  36  56  89 131 159 187 233 300 361
#     4  11  23  38  62  88 122 156 196 243 293 356
#
# _framework density 19.849713999999999
#
# number of rings (size 3 to 8) (size 9 to 14) (size 15 to 20)
#    0.000    1.333    4.444    0.667    6.222    1.778 
#    0.000    0.000    0.000    1.333    0.000    0.000 
#    0.000    0.000    0.000    0.000    0.000    0.000 
#
# Total GULP energy -223137.057476 kJ/mol
# GULP energy per Si atom -12396.503193 kJ/mol
# Density = 1.980454 g / cm^3
# Si number density = 19.849714 Si / 1000 Ang^3
#
#
#
# Elastic Constant Matrix: (Units=GPa)
#
#
# Indices 1 2 3 4 5 6 
#
# 1 144.8556 24.7462 55.4265 0.0000 -10.1721 0.0000
# 2 24.7462 100.2008 28.3471 0.0000 1.1927 0.0000
# 3 55.4265 28.3471 90.2197 0.0000 8.8842 0.0000
# 4 0.0000 0.0000 0.0000 18.8819 0.0000 7.8507
# 5 -10.1721 1.1927 8.8842 0.0000 30.6750 0.0000
# 6 0.0000 0.0000 0.0000 7.8507 0.0000 22.7505
#
#
#
# Elastic Compliance Matrix: (Units=1/GPa)
#
#
# Indices 1 2 3 4 5 6 
#
# 1 0.009790 -0.000697 -0.006298 0.000000 0.005097 0.000000
# 2 -0.000697 0.011014 -0.003055 0.000000 0.000225 0.000000
# 3 -0.006298 -0.003055 0.016579 0.000000 -0.006771 0.000000
# 4 0.000000 0.000000 0.000000 0.061832 0.000000 -0.021337
# 5 0.005097 0.000225 -0.006771 0.000000 0.036243 0.000000
# 6 0.000000 0.000000 0.000000 -0.021337 0.000000 0.051318
#
#
# Mechanical properties :
#
#
# Convention : Reuss Voigt Hill
#
# Bulk Modulus (GPa) = 57.85299 61.36839 59.61069
# Shear Modulus (GPa) = 23.51440 29.57855 26.54648
#
# Velocity S-wave (km/s) = 3.44557 3.86440 3.66098
# Velocity P-wave (km/s) = 6.71104 7.13408 6.92579
#
# Compressibility (1/GPa) = 0.01728519
#
# Stress axis : x y z
#
# Youngs Moduli (GPa) = 102.14426 90.79749 60.31557
#
# Poissons Ratio (x) = 0.06328 0.37984
# Poissons Ratio (y) = 0.07118 0.18423
# Poissons Ratio (z) = 0.64326 0.27734
#
# Static dielectric constant tensor:
#      x y z
#    x 3.696110 0.000000 0.245480 
#    y 0.000000 3.339960 0.000000 
#    z 0.245480 0.000000 3.816140 
# 
# 
# High freq. dielectric constant tensor:
#      x y z
#    x 1.769130 0.000000 0.017300 
#    y 0.000000 1.757830 0.000000 
#    z 0.017300 0.000000 1.770770 
# 
# From -- ./inp_files/184410.got.cif
#   From: 2010.06.25/outbox.cif.g09.slc.cpg/sg12_93_cif.got.tgz:184410.got - 2010.06.28 00:19:55.
