data_PCOD8110307
_publ_section_title
;
Structure prediction by ZEFSAII (Michael W. Deem and Ramdas Pophale) SiO2 
 PCOD8110307
Probable space group: C 2/M
;
_chemical_formula_sum "Si O2"
_cell_formula_units_Z 48
_cell_length_a 9.961973
_cell_length_b 28.022252
_cell_length_c 12.134953
_cell_angle_alpha 90.000000
_cell_angle_beta 38.300192
_cell_angle_gamma 90.000000
_cell_volume 2099.545134
_symmetry_space_group_name_H-M "C 2/M"
_symmetry_group_IT_number 12
_symmetry_cell_setting 'monoclinic'
loop_
_space_group_symop_operation_xyz
x,y,z
-x,y,-z
-x,-y,-z
x,-y,z
1/2+x,1/2+y,z
1/2-x,1/2+y,-z
1/2-x,1/2-y,-z
1/2+x,1/2-y,z
loop_
_atom_site_type_symbol
_atom_site_label
_atom_site_fract_x
_atom_site_fract_y
_atom_site_fract_z
Si Si1 0.852282 0.206200 0.808470
Si Si2 0.194073 0.554772 0.291821
Si Si3 0.080953 0.555341 0.112962
Si Si4 0.221032 0.115634 0.411750
Si Si5 0.570883 0.209352 0.776477
Si Si6 0.508098 0.398299 0.237191
O O1 0.756180 0.217887 0.749564
O O2 0.979380 0.156833 0.737200
O O3 0.035090 0.245515 0.719629
O O4 0.660712 0.200945 0.019079
O O5 0.273024 0.500000 0.251342
O O6 0.134536 0.566892 0.205472
O O7 0.394908 0.589162 0.193918
O O8 0.000000 0.565434 0.500000
O O9 0.056689 0.500000 0.102272
O O10 0.851187 0.581592 0.242030
O O11 0.256962 0.576894 0.915513
O O12 0.365492 0.163398 0.338412
O O13 0.000000 0.133294 0.500000
O O14 0.158479 0.083746 0.559943
#
# Coordination Sequence:
#
# PCOD8110307 Si02
#       6
#     8   8   8   8   8   8
#     4  10  22  42  72  96 138 177 231 278 347 409
#     4  10  21  41  67  98 136 174 221 282 344 406
#     4  11  25  45  69  99 137 178 230 289 344 409
#     4  12  25  43  69  95 139 182 228 282 342 404
#     4  10  22  45  66 100 136 182 223 288 338 410
#     4  12  23  41  70 101 130 184 221 280 347 413
#
# _framework density 22.862093999999999
#
# number of rings (size 3 to 8) (size 9 to 14) (size 15 to 20)
#    0.000    1.167    5.000    1.000    0.000    5.000 
#    6.000    0.833    0.000    0.000    0.000    0.000 
#    0.000    0.000    0.000    0.000    0.000    0.000 
#
# Total GULP energy -297461.535572 kJ/mol
# GULP energy per Si atom -12394.230649 kJ/mol
# Density = 2.281006 g / cm^3
# Si number density = 22.862094 Si / 1000 Ang^3
#
#
#
# Elastic Constant Matrix: (Units=GPa)
#
#
# Indices 1 2 3 4 5 6 
#
# 1 77.3811 35.8091 24.1030 0.0000 -6.9481 0.0000
# 2 35.8091 134.6532 63.6249 0.0000 -14.9167 0.0000
# 3 24.1030 63.6249 138.6979 0.0000 -1.8890 0.0000
# 4 0.0000 0.0000 0.0000 29.7045 0.0000 -8.3282
# 5 -6.9481 -14.9167 -1.8890 0.0000 32.0777 0.0000
# 6 0.0000 0.0000 0.0000 -8.3282 0.0000 34.3441
#
#
#
# Elastic Compliance Matrix: (Units=1/GPa)
#
#
# Indices 1 2 3 4 5 6 
#
# 1 0.014921 -0.003283 -0.001065 0.000000 0.001643 0.000000
# 2 -0.003283 0.010792 -0.004325 0.000000 0.004053 0.000000
# 3 -0.001065 -0.004325 0.009356 0.000000 -0.001691 0.000000
# 4 0.000000 0.000000 0.000000 0.036121 0.000000 0.008759
# 5 0.001643 0.004053 -0.001691 0.000000 0.033315 0.000000
# 6 0.000000 0.000000 0.000000 0.008759 0.000000 0.031241
#
#
# Mechanical properties :
#
#
# Convention : Reuss Voigt Hill
#
# Bulk Modulus (GPa) = 56.42039 66.42289 61.42164
# Shear Modulus (GPa) = 31.44658 34.37159 32.90909
#
# Velocity S-wave (km/s) = 3.71278 3.88162 3.79814
# Velocity P-wave (km/s) = 6.56596 7.01470 6.79404
#
# Compressibility (1/GPa) = 0.01772409
#
# Stress axis : x y z
#
# Youngs Moduli (GPa) = 67.01755 92.66027 106.88477
#
# Poissons Ratio (x) = 0.30422 0.11379
# Poissons Ratio (y) = 0.22003 0.46227
# Poissons Ratio (z) = 0.07135 0.40075
#
# Static dielectric constant tensor:
#      x y z
#    x 4.145760 0.000000 0.127690 
#    y 0.000000 4.014290 0.000000 
#    z 0.127690 0.000000 4.525940 
# 
# 
# High freq. dielectric constant tensor:
#      x y z
#    x 1.891830 0.000000 -0.002290 
#    y 0.000000 1.890700 0.000000 
#    z -0.002290 0.000000 1.928080 
# 
# From -- ./inp_files/209788.got.cif
#   From: 2010.06.25/outbox.cif.g09.slc.cpg/sg12_105_cif.got.tgz:209788.got - 2010.06.28 00:19:55.
