data_PCOD8110621
_publ_section_title
;
Structure prediction by ZEFSAII (Michael W. Deem and Ramdas Pophale) SiO2 
 PCOD8110621
Probable space group: C 2/M
;
_chemical_formula_sum "Si O2"
_cell_formula_units_Z 56
_cell_length_a 17.860950
_cell_length_b 14.093130
_cell_length_c 21.154294
_cell_angle_alpha 90.000000
_cell_angle_beta 32.353395
_cell_angle_gamma 90.000000
_cell_volume 2849.560138
_symmetry_space_group_name_H-M "C 2/M"
_symmetry_group_IT_number 12
_symmetry_cell_setting 'monoclinic'
loop_
_space_group_symop_operation_xyz
x,y,z
-x,y,-z
-x,-y,-z
x,-y,z
1/2+x,1/2+y,z
1/2-x,1/2+y,-z
1/2-x,1/2-y,-z
1/2+x,1/2-y,z
loop_
_atom_site_type_symbol
_atom_site_label
_atom_site_fract_x
_atom_site_fract_y
_atom_site_fract_z
Si Si1 0.351822 0.390918 0.273210
Si Si2 0.704135 0.392246 0.542119
Si Si3 0.525931 0.784211 0.655939
Si Si4 0.411185 0.750845 0.870235
Si Si5 0.226495 0.394945 0.812611
Si Si6 0.378257 0.773758 0.637944
Si Si7 0.567286 0.896380 0.043497
O O1 0.368301 0.500000 0.239428
O O2 0.284946 0.383842 0.390059
O O3 0.506099 0.344059 0.166796
O O4 0.248189 0.337441 0.298667
O O5 0.671966 0.500000 0.543311
O O6 0.587433 0.321464 0.596945
O O7 0.853767 0.358011 0.409577
O O8 0.423956 0.774710 0.787685
O O9 0.444122 0.824080 0.653039
O O10 0.472904 0.834847 0.867696
O O11 0.250000 0.750000 0.000000
O O12 0.296603 0.500000 0.763996
O O13 0.322843 0.327121 0.702148
O O14 0.074001 0.403941 0.893738
O O15 0.196172 0.357956 0.906656
O O16 0.500000 0.757803 0.500000
O O17 0.613937 0.000000 0.034201
#
# Coordination Sequence:
#
# PCOD8110621 Si02
#       7
#     8   8   8   8   8   8   8
#     4  10  22  41  63  87 120 164 210 252 299 361
#     4   9  19  39  61  82 116 160 202 250 302 358
#     4  10  22  36  57  91 121 152 206 250 305 366
#     4  11  22  39  62  89 119 160 202 255 307 363
#     4   9  19  35  58  88 118 153 196 240 301 368
#     4  12  22  37  61  91 126 162 201 254 306 365
#     4   9  18  36  61  84 113 155 198 242 298 362
#
# _framework density 19.652156000000002
#
# number of rings (size 3 to 8) (size 9 to 14) (size 15 to 20)
#    0.000    2.000    2.857    1.714    0.000    2.857 
#    0.000    4.286    0.000    6.000    0.000    0.000 
#    0.000    0.000    0.000    0.000    0.000    0.000 
#
# Total GULP energy -346956.797279 kJ/mol
# GULP energy per Si atom -12391.314189 kJ/mol
# Density = 1.960743 g / cm^3
# Si number density = 19.652156 Si / 1000 Ang^3
#
#
#
# Elastic Constant Matrix: (Units=GPa)
#
#
# Indices 1 2 3 4 5 6 
#
# 1 75.8226 17.0406 35.4046 0.0000 3.4417 -0.0001
# 2 17.0406 93.3591 40.6019 -0.0020 -0.6664 -0.0005
# 3 35.4046 40.6019 126.9224 -0.0018 -1.9175 -0.0005
# 4 0.0000 -0.0020 -0.0018 29.4548 0.0007 10.3007
# 5 3.4417 -0.6664 -1.9175 0.0007 20.1894 0.0002
# 6 -0.0001 -0.0005 -0.0005 10.3007 0.0002 28.4133
#
#
#
# Elastic Compliance Matrix: (Units=1/GPa)
#
#
# Indices 1 2 3 4 5 6 
#
# 1 0.015443 -0.001100 -0.004002 0.000000 -0.003049 0.000000
# 2 -0.001100 0.012521 -0.003695 0.000001 0.000250 0.000000
# 3 -0.004002 -0.003695 0.010200 0.000000 0.001529 0.000000
# 4 0.000000 0.000001 0.000000 0.038879 -0.000001 -0.014095
# 5 -0.003049 0.000250 0.001529 -0.000001 0.050204 0.000000
# 6 0.000000 0.000000 0.000000 -0.014095 0.000000 0.040305
#
#
# Mechanical properties :
#
#
# Convention : Reuss Voigt Hill
#
# Bulk Modulus (GPa) = 48.61336 53.57760 51.09548
# Shear Modulus (GPa) = 26.04134 29.14862 27.59498
#
# Velocity S-wave (km/s) = 3.64416 3.85545 3.75129
# Velocity P-wave (km/s) = 6.51898 6.86596 6.69472
#
# Compressibility (1/GPa) = 0.02057048
#
# Stress axis : x y z
#
# Youngs Moduli (GPa) = 64.75432 79.86756 98.03761
#
# Poissons Ratio (x) = 0.08786 0.39234
# Poissons Ratio (y) = 0.07124 0.36222
# Poissons Ratio (z) = 0.25914 0.29509
#
# Static dielectric constant tensor:
#      x y z
#    x 3.135470 -0.000010 -0.306350 
#    y -0.000010 4.541690 0.000000 
#    z -0.306350 0.000000 3.323600 
# 
# 
# High freq. dielectric constant tensor:
#      x y z
#    x 1.765530 0.000000 -0.003200 
#    y 0.000000 1.756120 0.000000 
#    z -0.003200 0.000000 1.766540 
# 
# From -- ./inp_files/316716.got.cif
#   From: 2010.06.25/outbox.cif.g09.slc.cpg/sg12_159_cif.got.tgz:316716.got - 2010.06.28 00:19:55.
