data_PCOD8110676
_publ_section_title
;
Structure prediction by ZEFSAII (Michael W. Deem and Ramdas Pophale) SiO2 
 PCOD8110676
Probable space group: C 2/M
;
_chemical_formula_sum "Si O2"
_cell_formula_units_Z 48
_cell_length_a 24.504058
_cell_length_b 8.864271
_cell_length_c 11.457956
_cell_angle_alpha 90.000000
_cell_angle_beta 104.877719
_cell_angle_gamma 90.000000
_cell_volume 2405.355435
_symmetry_space_group_name_H-M "C 2/M"
_symmetry_group_IT_number 12
_symmetry_cell_setting 'monoclinic'
loop_
_space_group_symop_operation_xyz
x,y,z
-x,y,-z
-x,-y,-z
x,-y,z
1/2+x,1/2+y,z
1/2-x,1/2+y,-z
1/2-x,1/2-y,-z
1/2+x,1/2-y,z
loop_
_atom_site_type_symbol
_atom_site_label
_atom_site_fract_x
_atom_site_fract_y
_atom_site_fract_z
Si Si1 0.653602 0.323918 0.740530
Si Si2 0.435366 0.820929 0.465045
Si Si3 0.165298 0.671982 0.988306
Si Si4 0.556893 0.171756 0.075054
Si Si5 0.725485 0.177738 0.250515
Si Si6 0.121305 0.319821 0.331257
O O1 0.640541 0.500000 0.727277
O O2 0.598213 0.236150 0.666797
O O3 0.708829 0.281565 0.691415
O O4 0.670416 0.279493 0.880238
O O5 0.500000 0.760919 0.500000
O O6 0.401605 0.755501 0.558816
O O7 0.435498 0.000000 0.463329
O O8 0.181458 0.500000 0.963395
O O9 0.101025 0.679724 0.994880
O O10 0.205150 0.739725 0.112773
O O11 0.580827 0.245498 0.207076
O O12 0.541868 0.000000 0.098905
O O13 0.500000 0.255838 0.000000
O O14 0.685348 0.236821 0.334738
O O15 0.715806 0.000000 0.235587
O O16 0.119712 0.500000 0.333464
#
# Coordination Sequence:
#
# PCOD8110676 Si02
#       6
#     8   8   8   8   8   8
#     4  11  22  34  51  75 108 145 175 205 256 314
#     4  10  22  37  55  78 102 132 176 223 259 299
#     4   9  17  31  53  80 107 132 171 217 256 302
#     4   8  14  24  47  79 102 125 161 211 262 299
#     4   8  16  32  53  79 106 135 170 213 261 309
#     4   8  15  30  50  74 104 131 164 216 263 299
#
# _framework density 19.955470999999999
#
# number of rings (size 3 to 8) (size 9 to 14) (size 15 to 20)
#    0.000    3.000    0.000    3.000    2.333    1.000 
#    0.000    0.833    0.000    5.500    0.000    0.000 
#    0.000    0.000    0.000    0.000    0.000    0.000 
#
# Total GULP energy -297389.271618 kJ/mol
# GULP energy per Si atom -12391.219651 kJ/mol
# Density = 1.991005 g / cm^3
# Si number density = 19.955471 Si / 1000 Ang^3
#
#
#
# Elastic Constant Matrix: (Units=GPa)
#
#
# Indices 1 2 3 4 5 6 
#
# 1 118.8215 22.7833 48.5809 0.0000 11.8925 0.0000
# 2 22.7833 16.9541 12.8807 0.0000 1.3060 0.0000
# 3 48.5809 12.8807 65.7040 0.0000 -7.8081 0.0000
# 4 0.0000 0.0000 0.0000 15.5832 0.0000 1.1297
# 5 11.8925 1.3060 -7.8081 0.0000 34.0194 0.0000
# 6 0.0000 0.0000 0.0000 1.1297 0.0000 14.5473
#
#
#
# Elastic Compliance Matrix: (Units=1/GPa)
#
#
# Indices 1 2 3 4 5 6 
#
# 1 0.015687 -0.012988 -0.009916 0.000000 -0.007261 0.000000
# 2 -0.012988 0.081247 -0.006328 0.000000 -0.000031 0.000000
# 3 -0.009916 -0.006328 0.024912 0.000000 0.009427 0.000000
# 4 0.000000 0.000000 0.000000 0.064535 0.000000 -0.005012
# 5 -0.007261 -0.000031 0.009427 0.000000 0.034098 0.000000
# 6 0.000000 0.000000 0.000000 -0.005012 0.000000 0.069130
#
#
# Mechanical properties :
#
#
# Convention : Reuss Voigt Hill
#
# Bulk Modulus (GPa) = 15.77729 41.10770 28.44249
# Shear Modulus (GPa) = 13.54277 20.64563 17.09420
#
# Velocity S-wave (km/s) = 2.60792 3.21999 2.92998
# Velocity P-wave (km/s) = 4.12210 5.87102 5.07250
#
# Compressibility (1/GPa) = 0.06338225
#
# Stress axis : x y z
#
# Youngs Moduli (GPa) = 63.74631 12.30819 40.14108
#
# Poissons Ratio (x) = 0.15986 0.39802
# Poissons Ratio (y) = 0.82795 0.25402
# Poissons Ratio (z) = 0.63208 0.07789
#
# Static dielectric constant tensor:
#      x y z
#    x 4.013260 0.000000 -0.009910 
#    y 0.000000 2.957520 0.000000 
#    z -0.009910 0.000000 3.624090 
# 
# 
# High freq. dielectric constant tensor:
#      x y z
#    x 1.796060 0.000000 0.002820 
#    y 0.000000 1.711540 0.000000 
#    z 0.002820 0.000000 1.773270 
# 
# From -- ./inp_files/173029.got.cif
#   From: 2010.06.25/outbox.cif.g09.slc.cpg/sg12_87_cif.got.tgz:173029.got - 2010.06.28 00:19:55.
