data_PCOD8110798
_publ_section_title
;
Structure prediction by ZEFSAII (Michael W. Deem and Ramdas Pophale) SiO2 
 PCOD8110798
Probable space group: C 2/M
;
_chemical_formula_sum "Si O2"
_cell_formula_units_Z 28
_cell_length_a 25.839616
_cell_length_b 7.538394
_cell_length_c 13.283678
_cell_angle_alpha 90.000000
_cell_angle_beta 38.961799
_cell_angle_gamma 90.000000
_cell_volume 1627.036188
_symmetry_space_group_name_H-M "C 2/M"
_symmetry_group_IT_number 12
_symmetry_cell_setting 'monoclinic'
loop_
_space_group_symop_operation_xyz
x,y,z
-x,y,-z
-x,-y,-z
x,-y,z
1/2+x,1/2+y,z
1/2-x,1/2+y,-z
1/2-x,1/2-y,-z
1/2+x,1/2-y,z
loop_
_atom_site_type_symbol
_atom_site_label
_atom_site_fract_x
_atom_site_fract_y
_atom_site_fract_z
Si Si1 0.089962 0.000000 0.407288
Si Si2 0.212729 0.298327 0.162816
Si Si3 0.697554 0.804274 0.778803
Si Si4 0.156826 0.000000 0.516239
Si Si5 0.904390 0.000000 0.168813
O O1 0.134892 0.175123 0.300255
O O2 0.088809 0.000000 0.530564
O O3 0.000000 0.000000 0.500000
O O4 0.181696 0.500000 0.211419
O O5 0.283495 0.270689 0.139289
O O6 0.250000 0.250000 0.000000
O O7 0.635969 0.675937 0.814770
O O8 0.656128 0.000000 0.852265
O O9 0.783864 0.826003 0.586016
O O10 0.107641 0.000000 0.693678
O O11 0.000000 0.000000 0.000000
#
# Coordination Sequence:
#
# PCOD8110798 Si02
#       5
#     4   8   8   4   4
#     4  10  22  38  56  87 122 145 186 243 284 332
#     4  11  19  35  61  85 111 151 195 230 281 345
#     4   9  20  37  57  78 111 150 193 220 275 346
#     4   8  20  40  55  78 110 154 190 214 279 344
#     4  12  22  34  58  87 112 143 188 245 284 316
#
# _framework density 17.209205999999998
#
# number of rings (size 3 to 8) (size 9 to 14) (size 15 to 20)
#    0.857    1.143    4.286    0.857    0.000    3.429 
#    0.000    0.000    0.000    0.000    0.000    0.000 
#    0.000    0.000    0.000    0.000    0.000    0.000 
#
# Total GULP energy -173524.151094 kJ/mol
# GULP energy per Si atom -12394.582221 kJ/mol
# Density = 1.717004 g / cm^3
# Si number density = 17.209206 Si / 1000 Ang^3
#
#
#
# Elastic Constant Matrix: (Units=GPa)
#
#
# Indices 1 2 3 4 5 6 
#
# 1 152.2514 65.8468 89.3737 0.0000 1.7909 0.0000
# 2 65.8468 159.4152 50.7339 0.0012 -0.2191 -0.0004
# 3 89.3737 50.7339 119.4830 0.0005 17.9902 -0.0002
# 4 0.0000 0.0012 0.0005 12.3473 -0.0001 4.3584
# 5 1.7909 -0.2191 17.9902 -0.0001 33.2254 0.0000
# 6 0.0000 -0.0004 -0.0002 4.3584 0.0000 27.8691
#
#
#
# Elastic Compliance Matrix: (Units=1/GPa)
#
#
# Indices 1 2 3 4 5 6 
#
# 1 0.013093 -0.002399 -0.009435 0.000001 0.004387 0.000000
# 2 -0.002399 0.007801 -0.001682 -0.000001 0.001092 0.000000
# 3 -0.009435 -0.001682 0.017492 -0.000001 -0.008974 0.000000
# 4 0.000001 -0.000001 -0.000001 0.085722 0.000001 -0.013406
# 5 0.004387 0.001092 -0.008974 0.000001 0.034727 0.000000
# 6 0.000000 0.000000 0.000000 -0.013406 0.000000 0.037979
#
#
# Mechanical properties :
#
#
# Convention : Reuss Voigt Hill
#
# Bulk Modulus (GPa) = 88.08325 93.67315 90.87820
# Shear Modulus (GPa) = 21.96543 29.70136 25.83340
#
# Velocity S-wave (km/s) = 3.57652 4.15890 3.87866
# Velocity P-wave (km/s) = 8.26742 8.80977 8.54290
#
# Compressibility (1/GPa) = 0.01135290
#
# Stress axis : x y z
#
# Youngs Moduli (GPa) = 76.37834 128.19328 57.16773
#
# Poissons Ratio (x) = 0.30756 0.53939
# Poissons Ratio (y) = 0.18325 0.09616
# Poissons Ratio (z) = 0.72065 0.21563
#
# Static dielectric constant tensor:
#      x y z
#    x 3.255490 0.000000 0.247790 
#    y 0.000000 3.282370 0.000000 
#    z 0.247790 0.000000 2.993720 
# 
# 
# High freq. dielectric constant tensor:
#      x y z
#    x 1.668070 0.000000 0.022360 
#    y 0.000000 1.675010 0.000000 
#    z 0.022360 0.000000 1.642690 
# 
# From -- ./inp_files/161768.got.cif
#   From: 2010.06.25/outbox.cif.g09.slc.cpg/sg12_81_cif.got.tgz:161768.got - 2010.06.28 00:19:55.
