data_PCOD8110261
_publ_section_title
;
Structure prediction by ZEFSAII (Michael W. Deem and Ramdas Pophale) SiO2 
 PCOD8110261
Probable space group: C 2/M
;
_chemical_formula_sum "Si O2"
_cell_formula_units_Z 64
_cell_length_a 25.933055
_cell_length_b 8.560618
_cell_length_c 14.058446
_cell_angle_alpha 90.000000
_cell_angle_beta 86.555588
_cell_angle_gamma 90.000000
_cell_volume 3115.378933
_symmetry_space_group_name_H-M "C 2/M"
_symmetry_group_IT_number 12
_symmetry_cell_setting 'monoclinic'
loop_
_space_group_symop_operation_xyz
x,y,z
-x,y,-z
-x,-y,-z
x,-y,z
1/2+x,1/2+y,z
1/2-x,1/2+y,-z
1/2-x,1/2-y,-z
1/2+x,1/2-y,z
loop_
_atom_site_type_symbol
_atom_site_label
_atom_site_fract_x
_atom_site_fract_y
_atom_site_fract_z
Si Si1 0.647872 0.316636 0.395307
Si Si2 0.889195 0.818639 0.900284
Si Si3 0.443156 0.817832 0.718364
Si Si4 0.947327 0.682569 0.056263
Si Si5 0.279497 0.820384 0.908063
Si Si6 0.950755 0.816210 0.264389
Si Si7 0.648650 0.685087 0.610773
Si Si8 0.250667 0.179926 0.703190
O O1 0.636810 0.500000 0.391863
O O2 0.600970 0.229345 0.350123
O O3 0.650655 0.253567 0.502727
O O4 0.701415 0.281074 0.337743
O O5 0.926787 0.720987 0.827818
O O6 0.830625 0.778054 0.882875
O O7 0.898612 0.000000 0.879658
O O8 0.901203 0.774137 0.008026
O O9 0.496025 0.726703 0.687969
O O10 0.454247 0.000000 0.709364
O O11 0.937389 0.500000 0.046633
O O12 0.947735 0.727658 0.165460
O O13 0.000000 0.735582 0.000000
O O14 0.244345 0.805239 0.817783
O O15 0.293856 0.000000 0.927044
O O16 0.250000 0.750000 0.000000
O O17 0.903554 0.754238 0.333960
O O18 0.947392 0.000000 0.246897
O O19 0.649676 0.500000 0.612704
O O20 0.698687 0.748613 0.661722
O O21 0.260293 0.000000 0.672924
#
# Coordination Sequence:
#
# PCOD8110261 Si02
#       8
#     8   8   8   8   8   8   8   8
#     4  11  22  40  67  95 122 160 212 264 316 378
#     4  12  24  40  64  91 122 164 215 259 310 375
#     4  12  24  41  63  91 128 165 209 265 320 375
#     4  11  23  39  61  90 127 163 202 252 308 366
#     4  11  24  40  62  93 133 169 206 253 313 373
#     4  11  23  41  65  93 126 167 214 260 313 377
#     4   9  22  42  64  93 127 163 207 262 319 374
#     4  10  21  41  66  92 127 168 206 256 316 374
#
# _framework density 20.543247999999998
#
# number of rings (size 3 to 8) (size 9 to 14) (size 15 to 20)
#    0.000    1.125    2.500    4.125    1.750    1.500 
#    0.000    6.875    0.000    0.000    0.000    0.000 
#    0.000    0.000    0.000    0.000    0.000    0.000 
#
# Total GULP energy -396984.691972 kJ/mol
# GULP energy per Si atom -12405.771624 kJ/mol
# Density = 2.049649 g / cm^3
# Si number density = 20.543248 Si / 1000 Ang^3
#
#
#
# Elastic Constant Matrix: (Units=GPa)
#
#
# Indices 1 2 3 4 5 6 
#
# 1 128.6799 14.0678 53.2376 0.0000 8.3448 0.0000
# 2 14.0678 62.4731 21.8293 0.0000 1.0274 0.0000
# 3 53.2376 21.8293 126.4602 0.0000 -0.0310 0.0000
# 4 0.0000 0.0000 0.0000 25.0627 0.0000 1.5673
# 5 8.3448 1.0274 -0.0310 0.0000 34.5531 0.0000
# 6 0.0000 0.0000 0.0000 1.5673 0.0000 31.4870
#
#
#
# Elastic Compliance Matrix: (Units=1/GPa)
#
#
# Indices 1 2 3 4 5 6 
#
# 1 0.009626 -0.000759 -0.003922 0.000000 -0.002306 0.000000
# 2 -0.000759 0.017103 -0.002633 0.000000 -0.000328 0.000000
# 3 -0.003922 -0.002633 0.010013 0.000000 0.001034 0.000000
# 4 0.000000 0.000000 0.000000 0.040024 0.000000 -0.001992
# 5 -0.002306 -0.000328 0.001034 0.000000 0.029509 0.000000
# 6 0.000000 0.000000 0.000000 -0.001992 0.000000 0.031858
#
#
# Mechanical properties :
#
#
# Convention : Reuss Voigt Hill
#
# Bulk Modulus (GPa) = 45.21851 55.09805 50.15828
# Shear Modulus (GPa) = 31.22382 33.45246 32.33814
#
# Velocity S-wave (km/s) = 3.90283 4.03971 3.97186
# Velocity P-wave (km/s) = 6.50911 6.97408 6.74560
#
# Compressibility (1/GPa) = 0.02211484
#
# Stress axis : x y z
#
# Youngs Moduli (GPa) = 103.88104 58.46860 99.86565
#
# Poissons Ratio (x) = 0.04440 0.39168
# Poissons Ratio (y) = 0.07888 0.26292
# Poissons Ratio (z) = 0.40743 0.15393
#
# Static dielectric constant tensor:
#      x y z
#    x 3.892980 0.000000 0.110910 
#    y 0.000000 3.611040 0.000000 
#    z 0.110910 0.000000 3.830240 
# 
# 
# High freq. dielectric constant tensor:
#      x y z
#    x 1.811430 0.000000 0.010210 
#    y 0.000000 1.799060 0.000000 
#    z 0.010210 0.000000 1.808970 
# 
# From -- ./inp_files/238660.got.cif
#   From: 2010.06.25/outbox.cif.g09.slc.cpg/sg12_120_cif.got.tgz:238660.got - 2010.06.28 00:19:55.
