data_PCOD8110882
_publ_section_title
;
Structure prediction by ZEFSAII (Michael W. Deem and Ramdas Pophale) SiO2 
 PCOD8110882
Probable space group: C 2/M
;
_chemical_formula_sum "Si O2"
_cell_formula_units_Z 36
_cell_length_a 14.189467
_cell_length_b 9.363102
_cell_length_c 11.175820
_cell_angle_alpha 90.000000
_cell_angle_beta 93.687117
_cell_angle_gamma 90.000000
_cell_volume 1481.717325
_symmetry_space_group_name_H-M "C 2/M"
_symmetry_group_IT_number 12
_symmetry_cell_setting 'monoclinic'
loop_
_space_group_symop_operation_xyz
x,y,z
-x,y,-z
-x,-y,-z
x,-y,z
1/2+x,1/2+y,z
1/2-x,1/2+y,-z
1/2-x,1/2-y,-z
1/2+x,1/2-y,z
loop_
_atom_site_type_symbol
_atom_site_label
_atom_site_fract_x
_atom_site_fract_y
_atom_site_fract_z
Si Si1 0.893229 0.838842 0.037184
Si Si2 0.152822 0.339548 0.181593
Si Si3 0.000000 0.232753 0.500000
Si Si4 0.810674 0.840963 0.594506
Si Si5 0.059744 0.345095 0.749210
O O1 0.832735 0.735087 0.945973
O O2 0.852581 0.000000 0.033840
O O3 0.884118 0.777398 0.172360
O O4 0.000000 0.841163 0.000000
O O5 0.196518 0.500000 0.183295
O O6 0.204271 0.238616 0.281392
O O7 0.044257 0.349584 0.206069
O O8 0.920304 0.142741 0.563068
O O9 0.943826 0.322578 0.394472
O O10 0.750000 0.750000 0.500000
O O11 0.769014 0.000000 0.602641
O O12 0.107241 0.500000 0.775005
#
# Coordination Sequence:
#
# PCOD8110882 Si02
#       5
#     8   8   4   8   8
#     4   9  16  26  44  73 108 145 187 234 283 337
#     4   9  17  31  51  76 108 146 189 236 284 336
#     4  10  22  38  60  86 118 154 194 238 286 340
#     4  11  23  39  60  87 118 153 193 237 287 342
#     4   9  17  29  49  77 109 147 190 235 283 337
#
# _framework density 24.296133000000001
#
# number of rings (size 3 to 8) (size 9 to 14) (size 15 to 20)
#    0.000    2.444    0.000    2.667    0.000   11.556 
#    0.000    0.000    0.000    1.333    0.000    0.000 
#    0.000    0.000    0.000    0.000    0.000    0.000 
#
# Total GULP energy -223086.773884 kJ/mol
# GULP energy per Si atom -12393.709660 kJ/mol
# Density = 2.424083 g / cm^3
# Si number density = 24.296133 Si / 1000 Ang^3
#
#
#
# Elastic Constant Matrix: (Units=GPa)
#
#
# Indices 1 2 3 4 5 6 
#
# 1 36.4002 -0.6446 7.3981 0.0000 -17.7425 0.0000
# 2 -0.6446 258.5227 112.6527 0.0000 18.5287 0.0000
# 3 7.3981 112.6527 211.9165 0.0000 10.4722 0.0000
# 4 0.0000 0.0000 0.0000 40.4469 0.0000 18.2662
# 5 -17.7425 18.5287 10.4722 0.0000 32.6971 0.0000
# 6 0.0000 0.0000 0.0000 18.2662 0.0000 3.0363
#
#
#
# Elastic Compliance Matrix: (Units=1/GPa)
#
#
# Indices 1 2 3 4 5 6 
#
# 1 0.038589 -0.000542 -0.002143 0.000000 0.021933 0.000000
# 2 -0.000542 0.005178 -0.002615 0.000000 -0.002391 0.000000
# 3 -0.002143 -0.002615 0.006267 0.000000 -0.001688 0.000000
# 4 0.000000 0.000000 0.000000 -0.014400 0.000000 0.086633
# 5 0.021933 -0.002391 -0.001688 0.000000 0.044381 0.000000
# 6 0.000000 0.000000 0.000000 0.086633 0.000000 -0.191831
#
#
# Mechanical properties :
#
#
# Convention : Reuss Voigt Hill
#
# Bulk Modulus (GPa) = 25.35904 82.85021 54.10462
# Shear Modulus (GPa) = -56.77176 41.06496 -7.85340
#
# Velocity S-wave (km/s) = -4.83914 4.11565 -1.79983
# Velocity P-wave (km/s) = 4.55664 7.53385 4.24240
#
# Compressibility (1/GPa) = 0.03943367
#
# Stress axis : x y z
#
# Youngs Moduli (GPa) = 25.91408 193.13243 159.55602
#
# Poissons Ratio (x) = 0.10467 0.34192
# Poissons Ratio (y) = 0.01404 0.41730
# Poissons Ratio (z) = 0.05553 0.50512
#
# Static dielectric constant tensor:
#      x y z
#    x 4.278070 0.000000 -0.018320 
#    y 0.000000 4.588460 0.000000 
#    z -0.018320 0.000000 4.650200 
# 
# 
# High freq. dielectric constant tensor:
#      x y z
#    x 1.951850 0.000000 -0.007920 
#    y 0.000000 1.967150 0.000000 
#    z -0.007920 0.000000 1.969990 
# 
# From -- ./inp_files/152072.got.cif
#   From: 2010.06.25/outbox.cif.g09.slc.cpg/sg12_77_cif.got.tgz:152072.got - 2010.06.28 00:19:55.
