data_PCOD8110191
_publ_section_title
;
Structure prediction by ZEFSAII (Michael W. Deem and Ramdas Pophale) SiO2 
 PCOD8110191
Probable space group: C 2/M
;
_chemical_formula_sum "Si O2"
_cell_formula_units_Z 64
_cell_length_a 14.281394
_cell_length_b 27.059323
_cell_length_c 8.762256
_cell_angle_alpha 90.000000
_cell_angle_beta 71.872843
_cell_angle_gamma 90.000000
_cell_volume 3218.069647
_symmetry_space_group_name_H-M "C 2/M"
_symmetry_group_IT_number 12
_symmetry_cell_setting 'monoclinic'
loop_
_space_group_symop_operation_xyz
x,y,z
-x,y,-z
-x,-y,-z
x,-y,z
1/2+x,1/2+y,z
1/2-x,1/2+y,-z
1/2-x,1/2-y,-z
1/2+x,1/2-y,z
loop_
_atom_site_type_symbol
_atom_site_label
_atom_site_fract_x
_atom_site_fract_y
_atom_site_fract_z
Si Si1 0.525860 0.317332 0.164291
Si Si2 0.985203 0.715310 0.685823
Si Si3 0.819731 0.365451 0.841754
Si Si4 0.221245 0.943585 0.454401
Si Si5 0.894549 0.444362 0.584652
Si Si6 0.785976 0.135672 0.804479
Si Si7 0.708230 0.200475 0.596862
Si Si8 0.327538 0.361907 0.322887
O O1 0.555765 0.262952 0.204021
O O2 0.609548 0.356941 0.164616
O O3 0.426324 0.331732 0.305838
O O4 0.500000 0.319657 0.000000
O O5 0.092735 0.701217 0.695234
O O6 0.000000 0.726449 0.500000
O O7 0.904698 0.673600 0.759040
O O8 0.844445 0.417412 0.752165
O O9 0.710286 0.352645 0.830404
O O10 0.803608 0.371376 0.030273
O O11 0.333524 0.942891 0.457831
O O12 0.210246 0.913088 0.302740
O O13 0.156217 0.918202 0.624257
O O14 0.184891 0.000000 0.446546
O O15 0.909252 0.500000 0.634977
O O16 0.000000 0.418992 0.500000
O O17 0.764477 0.186695 0.724485
O O18 0.750000 0.250000 0.500000
O O19 0.732632 0.156411 0.468506
#
# Coordination Sequence:
#
# PCOD8110191 Si02
#       8
#     8   8   8   8   8   8   8   8
#     4  12  26  42  61  87 125 166 213 254 318 365
#     4  12  25  38  63  91 122 171 213 253 295 375
#     4  11  23  38  61  92 129 161 204 255 309 362
#     4   9  21  42  68  94 122 158 205 258 314 371
#     4   9  19  39  67  93 121 163 207 246 301 375
#     4  11  26  40  61  92 127 163 203 264 310 367
#     4  11  22  40  60  88 122 160 210 251 303 362
#     4  10  21  41  64  86 121 164 202 261 305 365
#
# _framework density 19.887698
#
# number of rings (size 3 to 8) (size 9 to 14) (size 15 to 20)
#    0.000    1.375    3.750    1.125    7.000    1.000 
#    0.000    1.250    0.000    3.000    0.000    0.000 
#    0.000    0.000    0.000    0.000    0.000    0.000 
#
# Total GULP energy -396592.226717 kJ/mol
# GULP energy per Si atom -12393.507085 kJ/mol
# Density = 1.984243 g / cm^3
# Si number density = 19.887698 Si / 1000 Ang^3
#
#
#
# Elastic Constant Matrix: (Units=GPa)
#
#
# Indices 1 2 3 4 5 6 
#
# 1 91.2903 44.4070 35.2958 0.0000 -1.3932 0.0000
# 2 44.4070 119.0071 46.9892 0.0000 5.5670 0.0000
# 3 35.2958 46.9892 97.2608 0.0000 11.6647 0.0000
# 4 0.0000 0.0000 0.0000 21.4258 0.0000 5.1014
# 5 -1.3932 5.5670 11.6647 0.0000 29.1149 0.0000
# 6 0.0000 0.0000 0.0000 5.1014 0.0000 25.5343
#
#
#
# Elastic Compliance Matrix: (Units=1/GPa)
#
#
# Indices 1 2 3 4 5 6 
#
# 1 0.014372 -0.004080 -0.003593 0.000000 0.002907 0.000000
# 2 -0.004080 0.011542 -0.004000 0.000000 -0.000800 0.000000
# 3 -0.003593 -0.004000 0.014126 0.000000 -0.005066 0.000000
# 4 0.000000 0.000000 0.000000 0.049004 0.000000 -0.009790
# 5 0.002907 -0.000800 -0.005066 0.000000 0.036669 0.000000
# 6 0.000000 0.000000 0.000000 -0.009790 0.000000 0.041119
#
#
# Mechanical properties :
#
#
# Convention : Reuss Voigt Hill
#
# Bulk Modulus (GPa) = 59.90200 62.32689 61.11445
# Shear Modulus (GPa) = 25.54381 27.27274 26.40828
#
# Velocity S-wave (km/s) = 3.58774 3.70717 3.64795
# Velocity P-wave (km/s) = 6.88099 7.05207 6.96705
#
# Compressibility (1/GPa) = 0.01669393
#
# Stress axis : x y z
#
# Youngs Moduli (GPa) = 69.57744 86.63984 70.79382
#
# Poissons Ratio (x) = 0.35352 0.25437
# Poissons Ratio (y) = 0.28390 0.28315
# Poissons Ratio (z) = 0.25000 0.34653
#
# Static dielectric constant tensor:
#      x y z
#    x 3.789730 0.000000 0.027530 
#    y 0.000000 3.789330 0.000000 
#    z 0.027530 0.000000 3.564430 
# 
# 
# High freq. dielectric constant tensor:
#      x y z
#    x 1.782160 0.000000 0.004380 
#    y 0.000000 1.772540 0.000000 
#    z 0.004380 0.000000 1.767810 
# 
# From -- ./inp_files/66903.got.cif
#   From: 2010.06.25/outbox.cif.g09.slc.cpg/sg12_34_cif.got.tgz:66903.got - 2010.06.28 00:19:55.
