data_PCOD8110497
_publ_section_title
;
Structure prediction by ZEFSAII (Michael W. Deem and Ramdas Pophale) SiO2 
 PCOD8110497
Probable space group: C 2/M
;
_chemical_formula_sum "Si O2"
_cell_formula_units_Z 36
_cell_length_a 18.458746
_cell_length_b 17.285763
_cell_length_c 9.584428
_cell_angle_alpha 90.000000
_cell_angle_beta 30.727070
_cell_angle_gamma 90.000000
_cell_volume 1562.552406
_symmetry_space_group_name_H-M "C 2/M"
_symmetry_group_IT_number 12
_symmetry_cell_setting 'monoclinic'
loop_
_space_group_symop_operation_xyz
x,y,z
-x,y,-z
-x,-y,-z
x,-y,z
1/2+x,1/2+y,z
1/2-x,1/2+y,-z
1/2-x,1/2-y,-z
1/2+x,1/2-y,z
loop_
_atom_site_type_symbol
_atom_site_label
_atom_site_fract_x
_atom_site_fract_y
_atom_site_fract_z
Si Si1 0.659702 0.622988 0.262526
Si Si2 0.334722 0.000000 0.460155
Si Si3 0.331859 0.769284 0.142048
Si Si4 0.369742 0.500000 0.458375
Si Si5 0.810123 0.000000 0.016135
Si Si6 0.867867 0.330580 0.373000
O O1 0.500000 0.650374 0.500000
O O2 0.756195 0.698164 0.128626
O O3 0.674536 0.574061 0.378883
O O4 0.713343 0.575668 0.040122
O O5 0.200275 0.000000 0.578779
O O6 0.422408 0.080021 0.293073
O O7 0.302433 0.000000 0.676304
O O8 0.256899 0.686683 0.305586
O O9 0.302260 0.821580 0.327857
O O10 0.500730 0.769379 0.829167
O O11 0.537979 0.500000 0.161112
#
# Coordination Sequence:
#
# PCOD8110497 Si02
#       6
#     8   4   8   4   4   8
#     4   9  18  37  63  89 129 178 217 258 330 402
#     4  12  21  39  62 106 126 171 219 281 320 379
#     4  10  21  44  63  96 128 179 214 278 322 394
#     4   9  17  34  59  93 131 170 219 265 323 387
#     4   9  21  34  56  97 136 172 213 272 322 400
#     4  10  24  40  69  95 134 166 228 271 328 380
#
# _framework density 23.039228000000001
#
# number of rings (size 3 to 8) (size 9 to 14) (size 15 to 20)
#    0.000    2.222    2.222    1.667    0.000    7.111 
#    8.000    6.667    0.000    1.333    0.000    0.000 
#    0.000    0.000    0.000    0.000    0.000    0.000 
#
# Total GULP energy -222988.118366 kJ/mol
# GULP energy per Si atom -12388.228798 kJ/mol
# Density = 2.298679 g / cm^3
# Si number density = 23.039228 Si / 1000 Ang^3
#
#
#
# Elastic Constant Matrix: (Units=GPa)
#
#
# Indices 1 2 3 4 5 6 
#
# 1 114.3407 19.6421 27.5760 0.0005 0.8955 -0.0008
# 2 19.6421 81.2676 22.3346 0.0005 -9.7660 -0.0010
# 3 27.5760 22.3346 75.9366 0.0007 -0.6045 -0.0014
# 4 0.0005 0.0005 0.0007 19.1315 -0.0006 -2.1819
# 5 0.8955 -9.7660 -0.6045 -0.0006 31.0868 0.0012
# 6 -0.0008 -0.0010 -0.0014 -2.1819 0.0012 33.8335
#
#
#
# Elastic Compliance Matrix: (Units=1/GPa)
#
#
# Indices 1 2 3 4 5 6 
#
# 1 0.009773 -0.001618 -0.003080 0.000000 -0.000850 0.000000
# 2 -0.001618 0.014207 -0.003556 0.000000 0.004441 0.000000
# 3 -0.003080 -0.003556 0.015327 0.000000 -0.000730 0.000000
# 4 0.000000 0.000000 0.000000 0.052657 0.000001 0.003396
# 5 -0.000850 0.004441 -0.000730 0.000001 0.033573 -0.000001
# 6 0.000000 0.000000 0.000000 0.003396 -0.000001 0.029775
#
#
# Mechanical properties :
#
#
# Convention : Reuss Voigt Hill
#
# Bulk Modulus (GPa) = 43.85885 45.62779 44.74332
# Shear Modulus (GPa) = 27.86752 30.27653 29.07203
#
# Velocity S-wave (km/s) = 3.48166 3.62903 3.55611
# Velocity P-wave (km/s) = 5.93637 6.11614 6.02693
#
# Compressibility (1/GPa) = 0.02280041
#
# Stress axis : x y z
#
# Youngs Moduli (GPa) = 102.32093 70.38850 65.24278
#
# Poissons Ratio (x) = 0.11387 0.20095
# Poissons Ratio (y) = 0.16553 0.23198
# Poissons Ratio (z) = 0.31515 0.25028
#
# Static dielectric constant tensor:
#      x y z
#    x 4.027500 0.000000 0.078690 
#    y 0.000000 4.091270 0.000000 
#    z 0.078690 0.000000 3.762780 
# 
# 
# High freq. dielectric constant tensor:
#      x y z
#    x 1.913020 0.000000 0.008220 
#    y 0.000000 1.895210 0.000000 
#    z 0.008220 0.000000 1.884600 
# 
# From -- ./inp_files/74930.got.cif
#   From: 2010.06.25/outbox.cif.g09.slc.cpg/sg12_38_cif.got.tgz:74930.got - 2010.06.28 00:19:55.
