data_PCOD8110034
_publ_section_title
;
Structure prediction by ZEFSAII (Michael W. Deem and Ramdas Pophale) SiO2 
 PCOD8110034
Probable space group: C 2/M
;
_chemical_formula_sum "Si O2"
_cell_formula_units_Z 40
_cell_length_a 5.060710
_cell_length_b 29.303646
_cell_length_c 13.397365
_cell_angle_alpha 90.000000
_cell_angle_beta 111.883457
_cell_angle_gamma 90.000000
_cell_volume 1843.631946
_symmetry_space_group_name_H-M "C 2/M"
_symmetry_group_IT_number 12
_symmetry_cell_setting 'monoclinic'
loop_
_space_group_symop_operation_xyz
x,y,z
-x,y,-z
-x,-y,-z
x,-y,z
1/2+x,1/2+y,z
1/2-x,1/2+y,-z
1/2-x,1/2-y,-z
1/2+x,1/2-y,z
loop_
_atom_site_type_symbol
_atom_site_label
_atom_site_fract_x
_atom_site_fract_y
_atom_site_fract_z
Si Si1 0.186426 0.000000 0.423792
Si Si2 0.615581 0.220377 0.125284
Si Si3 0.185560 0.348215 0.308275
Si Si4 0.311212 0.449226 0.069910
Si Si5 0.857554 0.091350 0.707889
Si Si6 0.000000 0.781561 0.500000
O O1 0.500000 0.000000 0.500000
O O2 0.167582 0.043227 0.349226
O O3 0.000000 0.000000 0.500000
O O4 0.431498 0.259483 0.154927
O O5 0.609315 0.174828 0.191201
O O6 0.500000 0.206854 0.000000
O O7 0.447630 0.381670 0.339459
O O8 0.314226 0.310089 0.396661
O O9 0.926685 0.378695 0.314936
O O10 0.271665 0.500000 0.112191
O O11 0.475681 0.415010 0.165198
O O12 0.500000 0.453562 0.000000
O O13 0.000000 0.428896 0.000000
O O14 0.250000 0.750000 0.500000
#
# Coordination Sequence:
#
# PCOD8110034 Si02
#       6
#     4   8   8   8   8   4
#     4  12  28  48  72  92 136 196 236 290 362 411
#     4  10  21  41  67  97 135 179 222 272 346 425
#     4  12  26  41  71 102 140 173 235 294 344 409
#     4  10  21  40  66  93 132 181 226 272 337 410
#     4  12  26  45  67 105 137 180 237 292 341 418
#     4  12  26  48  72  97 138 183 226 282 356 430
#
# _framework density 21.696306
#
# number of rings (size 3 to 8) (size 9 to 14) (size 15 to 20)
#    0.000    0.800    1.000    6.000    4.200    2.400 
#    0.000    0.000    0.000    0.000    0.000    0.000 
#    0.000    0.000    0.000    0.000    0.000    0.000 
#
# Total GULP energy -247778.224611 kJ/mol
# GULP energy per Si atom -12388.911231 kJ/mol
# Density = 2.164692 g / cm^3
# Si number density = 21.696306 Si / 1000 Ang^3
#
#
#
# Elastic Constant Matrix: (Units=GPa)
#
#
# Indices 1 2 3 4 5 6 
#
# 1 197.9685 80.5464 60.9863 0.0000 3.0266 0.0000
# 2 80.5464 155.9090 72.7854 0.0000 -2.4985 0.0000
# 3 60.9863 72.7854 114.7996 0.0000 6.6554 0.0000
# 4 0.0000 0.0000 0.0000 25.3985 0.0000 11.2452
# 5 3.0266 -2.4985 6.6554 0.0000 40.3667 0.0000
# 6 0.0000 0.0000 0.0000 11.2452 0.0000 47.7779
#
#
#
# Elastic Compliance Matrix: (Units=1/GPa)
#
#
# Indices 1 2 3 4 5 6 
#
# 1 0.006690 -0.002574 -0.001902 0.000000 -0.000347 0.000000
# 2 -0.002574 0.010196 -0.005194 0.000000 0.001680 0.000000
# 3 -0.001902 -0.005194 0.013151 0.000000 -0.002347 0.000000
# 4 0.000000 0.000000 0.000000 0.043953 0.000000 -0.010345
# 5 -0.000347 0.001680 -0.002347 0.000000 0.025290 0.000000
# 6 0.000000 0.000000 0.000000 -0.010345 0.000000 0.023365
#
#
# Mechanical properties :
#
#
# Convention : Reuss Voigt Hill
#
# Bulk Modulus (GPa) = 93.49401 99.70149 96.59775
# Shear Modulus (GPa) = 34.35285 39.66591 37.00938
#
# Velocity S-wave (km/s) = 3.98345 4.28042 4.13460
# Velocity P-wave (km/s) = 8.02140 8.39538 8.21052
#
# Compressibility (1/GPa) = 0.01069587
#
# Stress axis : x y z
#
# Youngs Moduli (GPa) = 149.48400 98.08230 76.04224
#
# Poissons Ratio (x) = 0.25244 0.14463
# Poissons Ratio (y) = 0.38473 0.39499
# Poissons Ratio (z) = 0.28430 0.50947
#
# Static dielectric constant tensor:
#      x y z
#    x 4.189730 0.000000 0.031950 
#    y 0.000000 5.454830 0.000000 
#    z 0.031950 0.000000 4.022930 
# 
# 
# High freq. dielectric constant tensor:
#      x y z
#    x 1.873000 0.000000 0.002880 
#    y 0.000000 1.866670 0.000000 
#    z 0.002880 0.000000 1.860240 
# 
# From -- ./inp_files/116196.got.cif
#   From: 2010.06.25/outbox.cif.g09.slc.cpg/sg12_59_cif.got.tgz:116196.got - 2010.06.28 00:19:55.
