data_PCOD8110431
_publ_section_title
;
Structure prediction by ZEFSAII (Michael W. Deem and Ramdas Pophale) SiO2 
 PCOD8110431
Probable space group: C 2/M
;
_chemical_formula_sum "Si O2"
_cell_formula_units_Z 36
_cell_length_a 16.304837
_cell_length_b 14.058833
_cell_length_c 8.962185
_cell_angle_alpha 90.000000
_cell_angle_beta 46.989547
_cell_angle_gamma 90.000000
_cell_volume 1502.218836
_symmetry_space_group_name_H-M "C 2/M"
_symmetry_group_IT_number 12
_symmetry_cell_setting 'monoclinic'
loop_
_space_group_symop_operation_xyz
x,y,z
-x,y,-z
-x,-y,-z
x,-y,z
1/2+x,1/2+y,z
1/2-x,1/2+y,-z
1/2-x,1/2-y,-z
1/2+x,1/2-y,z
loop_
_atom_site_type_symbol
_atom_site_label
_atom_site_fract_x
_atom_site_fract_y
_atom_site_fract_z
Si Si1 0.392963 0.352342 0.215914
Si Si2 0.332075 0.893805 0.664674
Si Si3 0.189967 0.605872 0.961491
Si Si4 0.392698 0.692399 0.544150
Si Si5 0.500000 0.829197 0.000000
O O1 0.286377 0.397422 0.270788
O O2 0.389639 0.370161 0.397276
O O3 0.500000 0.400005 0.000000
O O4 0.401593 0.237472 0.191342
O O5 0.404788 0.807638 0.502886
O O6 0.386920 0.000000 0.575883
O O7 0.318265 0.868577 0.855179
O O8 0.237134 0.500000 0.881207
O O9 0.278259 0.677576 0.777802
O O10 0.064980 0.609713 0.043882
O O11 0.500000 0.654471 0.500000
#
# Coordination Sequence:
#
# PCOD8110431 Si02
#       5
#     8   8   8   8   4
#     4  10  22  41  65  95 126 172 215 259 326 376
#     4  11  24  42  64  95 132 170 214 265 321 383
#     4  11  24  42  67  98 130 170 214 264 324 380
#     4  12  23  42  70  94 131 171 216 266 316 386
#     4  10  21  42  69  90 128 168 215 264 321 378
#
# _framework density 23.964552000000001
#
# number of rings (size 3 to 8) (size 9 to 14) (size 15 to 20)
#    0.667    0.444    2.222    4.333    0.000    2.222 
#    0.000    1.111    0.000    0.000    0.000    0.000 
#    0.000    0.000    0.000    0.000    0.000    0.000 
#
# Total GULP energy -223059.382866 kJ/mol
# GULP energy per Si atom -12392.187937 kJ/mol
# Density = 2.391001 g / cm^3
# Si number density = 23.964552 Si / 1000 Ang^3
#
#
#
# Elastic Constant Matrix: (Units=GPa)
#
#
# Indices 1 2 3 4 5 6 
#
# 1 200.9232 11.5982 46.8829 0.0000 23.9339 0.0000
# 2 11.5982 86.4797 16.6236 0.0000 6.4493 0.0000
# 3 46.8829 16.6236 64.7972 0.0000 22.0342 0.0000
# 4 0.0000 0.0000 0.0000 18.4529 0.0000 11.0818
# 5 23.9339 6.4493 22.0342 0.0000 38.8019 0.0000
# 6 0.0000 0.0000 0.0000 11.0818 0.0000 32.3595
#
#
#
# Elastic Compliance Matrix: (Units=1/GPa)
#
#
# Indices 1 2 3 4 5 6 
#
# 1 0.006062 0.000047 -0.003872 0.000000 -0.001549 0.000000
# 2 0.000047 0.012167 -0.003046 0.000000 -0.000321 0.000000
# 3 -0.003872 -0.003046 0.022346 0.000000 -0.009795 0.000000
# 4 0.000000 0.000000 0.000000 0.068223 0.000000 -0.023364
# 5 -0.001549 -0.000321 -0.009795 0.000000 0.032343 0.000000
# 6 0.000000 0.000000 0.000000 -0.023364 0.000000 0.038904
#
#
# Mechanical properties :
#
#
# Convention : Reuss Voigt Hill
#
# Bulk Modulus (GPa) = 37.26666 55.82327 46.54496
# Shear Modulus (GPa) = 24.66322 36.39587 30.52954
#
# Velocity S-wave (km/s) = 3.21152 3.90133 3.57311
# Velocity P-wave (km/s) = 5.41630 6.60594 6.04048
#
# Compressibility (1/GPa) = 0.02683364
#
# Stress axis : x y z
#
# Youngs Moduli (GPa) = 164.95732 82.19218 44.75019
#
# Poissons Ratio (x) = -0.00384 0.17325
# Poissons Ratio (y) = -0.00770 0.13630
# Poissons Ratio (z) = 0.63865 0.25034
#
# Static dielectric constant tensor:
#      x y z
#    x 4.321570 0.000000 0.167750 
#    y 0.000000 4.114860 0.000000 
#    z 0.167750 0.000000 3.885930 
# 
# 
# High freq. dielectric constant tensor:
#      x y z
#    x 1.969060 0.000000 0.010920 
#    y 0.000000 1.941870 0.000000 
#    z 0.010920 0.000000 1.928790 
# 
# From -- ./inp_files/72782.got.cif
#   From: 2010.06.25/outbox.cif.g09.slc.cpg/sg12_37_cif.got.tgz:72782.got - 2010.06.28 00:19:55.
