data_PCOD8110973
_publ_section_title
;
Structure prediction by ZEFSAII (Michael W. Deem and Ramdas Pophale) SiO2 
 PCOD8110973
Probable space group: C 2/M
;
_chemical_formula_sum "Si O2"
_cell_formula_units_Z 52
_cell_length_a 22.207496
_cell_length_b 20.286898
_cell_length_c 5.344026
_cell_angle_alpha 90.000000
_cell_angle_beta 96.927031
_cell_angle_gamma 90.000000
_cell_volume 2390.022913
_symmetry_space_group_name_H-M "C 2/M"
_symmetry_group_IT_number 12
_symmetry_cell_setting 'monoclinic'
loop_
_space_group_symop_operation_xyz
x,y,z
-x,y,-z
-x,-y,-z
x,-y,z
1/2+x,1/2+y,z
1/2-x,1/2+y,-z
1/2-x,1/2-y,-z
1/2+x,1/2-y,z
loop_
_atom_site_type_symbol
_atom_site_label
_atom_site_fract_x
_atom_site_fract_y
_atom_site_fract_z
Si Si1 0.074286 0.731732 0.633119
Si Si2 0.764792 0.000000 0.879811
Si Si3 0.617109 0.866133 0.274373
Si Si4 0.638856 0.388121 0.093966
Si Si5 0.818337 0.252199 0.946295
Si Si6 0.186711 0.500000 0.340683
Si Si7 0.000000 0.326950 0.000000
Si Si8 0.932224 0.123497 0.463367
O O1 0.081386 0.663887 0.488881
O O2 0.064761 0.798529 0.471133
O O3 0.138038 0.740626 0.799523
O O4 0.013879 0.722625 0.774845
O O5 0.804677 0.064815 0.928091
O O6 0.733471 0.000000 0.592519
O O7 0.716935 0.000000 0.082883
O O8 0.670826 0.815269 0.227085
O O9 0.644051 0.936739 0.346915
O O10 0.561570 0.870864 0.046518
O O11 0.665516 0.316511 0.178969
O O12 0.602982 0.411957 0.324401
O O13 0.597509 0.389483 0.823815
O O14 0.750000 0.250000 0.000000
O O15 0.000000 0.093793 0.500000
#
# Coordination Sequence:
#
# PCOD8110973 Si02
#       8
#     8   4   8   8   8   4   4   8
#     4  10  22  38  64 101 140 175 221 277 351 392
#     4  12  28  54  67  94 141 180 230 280 347 414
#     4  11  23  43  64 102 131 180 228 276 344 402
#     4  11  24  43  68  99 130 187 218 280 346 399
#     4  10  22  38  64  97 133 171 232 286 328 398
#     4  12  30  45  75  93 137 190 224 280 341 406
#     4  10  22  39  68  94 144 175 222 284 336 409
#     4  11  22  40  68 105 137 171 224 276 344 406
#
# _framework density 21.757114999999999
#
# number of rings (size 3 to 8) (size 9 to 14) (size 15 to 20)
#    0.000    1.231    1.538    3.692   10.769    2.154 
#    0.000    3.846    0.000    0.000    0.000    0.000 
#    0.000    0.000    0.000    0.000    0.000    0.000 
#
# Total GULP energy -322250.058726 kJ/mol
# GULP energy per Si atom -12394.233028 kJ/mol
# Density = 2.170759 g / cm^3
# Si number density = 21.757115 Si / 1000 Ang^3
#
#
#
# Elastic Constant Matrix: (Units=GPa)
#
#
# Indices 1 2 3 4 5 6 
#
# 1 151.9673 34.2924 34.4745 0.0000 -1.3629 0.0000
# 2 34.2924 100.5033 21.3257 0.0000 16.5900 0.0000
# 3 34.4745 21.3257 90.6321 0.0000 -16.7054 0.0000
# 4 0.0000 0.0000 0.0000 23.0786 0.0000 1.0572
# 5 -1.3629 16.5900 -16.7054 0.0000 39.0786 0.0000
# 6 0.0000 0.0000 0.0000 1.0572 0.0000 25.9819
#
#
#
# Elastic Compliance Matrix: (Units=1/GPa)
#
#
# Indices 1 2 3 4 5 6 
#
# 1 0.007595 -0.002115 -0.002363 0.000000 0.000153 0.000000
# 2 -0.002115 0.012524 -0.003404 0.000000 -0.006846 0.000000
# 3 -0.002363 -0.003404 0.014095 0.000000 0.007388 0.000000
# 4 0.000000 0.000000 0.000000 0.043411 0.000000 -0.001766
# 5 0.000153 -0.006846 0.007388 0.000000 0.031659 0.000000
# 6 0.000000 0.000000 0.000000 -0.001766 0.000000 0.038560
#
#
# Mechanical properties :
#
#
# Convention : Reuss Voigt Hill
#
# Bulk Modulus (GPa) = 54.20243 58.14310 56.17277
# Shear Modulus (GPa) = 29.45334 34.49516 31.97425
#
# Velocity S-wave (km/s) = 3.68330 3.98611 3.83769
# Velocity P-wave (km/s) = 6.56167 6.92583 6.74621
#
# Compressibility (1/GPa) = 0.01844936
#
# Stress axis : x y z
#
# Youngs Moduli (GPa) = 131.66285 79.84665 70.94556
#
# Poissons Ratio (x) = 0.16890 0.16766
# Poissons Ratio (y) = 0.27850 0.24151
# Poissons Ratio (z) = 0.31114 0.27181
#
# Static dielectric constant tensor:
#      x y z
#    x 4.102230 0.000000 0.130140 
#    y 0.000000 3.794760 0.000000 
#    z 0.130140 0.000000 4.106390 
# 
# 
# High freq. dielectric constant tensor:
#      x y z
#    x 1.875540 0.000000 0.002570 
#    y 0.000000 1.834820 0.000000 
#    z 0.002570 0.000000 1.861840 
# 
# From -- ./inp_files/21275.got.cif
#   From: 2010.06.25/outbox.cif.g09.slc.cpg/sg12_11_cif.got.tgz:21275.got - 2010.06.28 00:19:55.
