data_PCOD8110981
_publ_section_title
;
Structure prediction by ZEFSAII (Michael W. Deem and Ramdas Pophale) SiO2 
 PCOD8110981
Probable space group: C 2/M
;
_chemical_formula_sum "Si O2"
_cell_formula_units_Z 56
_cell_length_a 19.244482
_cell_length_b 14.143323
_cell_length_c 22.870650
_cell_angle_alpha 90.000000
_cell_angle_beta 154.136441
_cell_angle_gamma 90.000000
_cell_volume 2715.509283
_symmetry_space_group_name_H-M "C 2/M"
_symmetry_group_IT_number 12
_symmetry_cell_setting 'monoclinic'
loop_
_space_group_symop_operation_xyz
x,y,z
-x,y,-z
-x,-y,-z
x,-y,z
1/2+x,1/2+y,z
1/2-x,1/2+y,-z
1/2-x,1/2-y,-z
1/2+x,1/2-y,z
loop_
_atom_site_type_symbol
_atom_site_label
_atom_site_fract_x
_atom_site_fract_y
_atom_site_fract_z
Si Si1 0.311439 0.609935 0.949612
Si Si2 0.159838 0.893993 0.821373
Si Si3 0.197488 0.108382 0.469979
Si Si4 0.715914 0.235606 0.773526
Si Si5 0.103348 0.231322 0.207195
Si Si6 0.646218 0.220745 0.508971
Si Si7 0.102342 0.608643 0.898216
O O1 0.349000 0.500000 0.972904
O O2 0.277562 0.648397 0.859219
O O3 0.155476 0.629442 0.871736
O O4 0.463450 0.655527 0.096348
O O5 0.224253 0.828976 0.818752
O O6 0.972391 0.881056 0.690882
O O7 0.199657 0.000000 0.831553
O O8 0.245370 0.867016 0.946276
O O9 0.329658 0.145994 0.525216
O O10 0.196295 0.173071 0.527014
O O11 0.235349 0.000000 0.516524
O O12 0.834827 0.254179 0.810586
O O13 0.539410 0.216544 0.614940
O O14 0.248919 0.190380 0.355908
O O15 0.044439 0.326844 0.193963
O O16 0.049145 0.500000 0.865189
#
# Coordination Sequence:
#
# PCOD8110981 Si02
#       7
#     8   8   8   8   8   8   8
#     4  11  25  43  65  91 123 163 208 256 303 358
#     4   9  18  36  61  91 124 159 200 252 311 365
#     4   9  19  37  62  90 120 158 203 253 306 355
#     4  11  24  41  60  89 128 167 202 251 304 365
#     4  12  24  40  63  91 126 165 203 248 310 369
#     4  10  23  38  61  89 123 161 203 251 299 364
#     4  10  22  38  64  96 123 154 205 263 310 357
#
# _framework density 20.622282999999999
#
# number of rings (size 3 to 8) (size 9 to 14) (size 15 to 20)
#    0.000    1.714    1.429    2.143    6.000    4.571 
#    0.000    1.429    0.000    6.857    0.000    0.000 
#    0.000    0.000    0.000    0.000    0.000    0.000 
#
# Total GULP energy -347290.134168 kJ/mol
# GULP energy per Si atom -12403.219077 kJ/mol
# Density = 2.057535 g / cm^3
# Si number density = 20.622283 Si / 1000 Ang^3
#
#
#
# Elastic Constant Matrix: (Units=GPa)
#
#
# Indices 1 2 3 4 5 6 
#
# 1 72.0254 14.3262 27.0288 0.0130 10.5469 0.0133
# 2 14.3262 88.7699 36.2564 0.0241 9.7600 0.0157
# 3 27.0288 36.2564 84.3855 0.0098 -7.6469 0.0040
# 4 0.0130 0.0241 0.0098 17.4811 0.0080 -4.5672
# 5 10.5469 9.7600 -7.6469 0.0080 26.1872 0.0087
# 6 0.0133 0.0157 0.0040 -4.5672 0.0087 12.0684
#
#
#
# Elastic Compliance Matrix: (Units=1/GPa)
#
#
# Indices 1 2 3 4 5 6 
#
# 1 0.017696 0.001047 -0.006984 -0.000010 -0.009557 -0.000016
# 2 0.001047 0.015096 -0.007570 -0.000019 -0.008258 -0.000019
# 3 -0.006984 -0.007570 0.018335 0.000001 0.010988 0.000004
# 4 -0.000010 -0.000019 0.000001 0.063481 -0.000016 0.024024
# 5 -0.009557 -0.008258 0.010988 -0.000016 0.048322 -0.000023
# 6 -0.000016 -0.000019 0.000004 0.024024 -0.000023 0.091953
#
#
# Mechanical properties :
#
#
# Convention : Reuss Voigt Hill
#
# Bulk Modulus (GPa) = 41.46914 44.48928 42.97921
# Shear Modulus (GPa) = 17.24527 22.31863 19.78195
#
# Velocity S-wave (km/s) = 2.89493 3.29334 3.10054
# Velocity P-wave (km/s) = 5.59702 6.00680 5.80553
#
# Compressibility (1/GPa) = 0.02411432
#
# Stress axis : x y z
#
# Youngs Moduli (GPa) = 56.50999 66.24366 54.53907
#
# Poissons Ratio (x) = -0.06938 0.38091
# Poissons Ratio (y) = -0.05919 0.41285
# Poissons Ratio (z) = 0.39467 0.50145
#
# Static dielectric constant tensor:
#      x y z
#    x 3.560680 -0.000010 0.004640 
#    y -0.000010 3.742740 -0.000020 
#    z 0.004640 -0.000020 3.808560 
# 
# 
# High freq. dielectric constant tensor:
#      x y z
#    x 1.793810 0.000000 -0.000090 
#    y 0.000000 1.806680 0.000000 
#    z -0.000090 0.000000 1.816700 
# 
# From -- ./inp_files/316747.got.cif
#   From: 2010.06.25/outbox.cif.g09.slc.cpg/sg12_159_cif.got.tgz:316747.got - 2010.06.28 00:19:55.
