data_PCOD8110537
_publ_section_title
;
Structure prediction by ZEFSAII (Michael W. Deem and Ramdas Pophale) SiO2 
 PCOD8110537
Probable space group: C 2/M
;
_chemical_formula_sum "Si O2"
_cell_formula_units_Z 44
_cell_length_a 12.386183
_cell_length_b 21.066695
_cell_length_c 12.532691
_cell_angle_alpha 90.000000
_cell_angle_beta 47.194243
_cell_angle_gamma 90.000000
_cell_volume 2399.241780
_symmetry_space_group_name_H-M "C 2/M"
_symmetry_group_IT_number 12
_symmetry_cell_setting 'monoclinic'
loop_
_space_group_symop_operation_xyz
x,y,z
-x,y,-z
-x,-y,-z
x,-y,z
1/2+x,1/2+y,z
1/2-x,1/2+y,-z
1/2-x,1/2-y,-z
1/2+x,1/2-y,z
loop_
_atom_site_type_symbol
_atom_site_label
_atom_site_fract_x
_atom_site_fract_y
_atom_site_fract_z
Si Si1 0.463920 0.172139 0.689173
Si Si2 0.500000 0.803606 0.000000
Si Si3 0.719324 0.867110 0.380214
Si Si4 0.810231 0.000000 0.237023
Si Si5 0.219085 0.369212 0.995278
Si Si6 0.001049 0.786465 0.804898
Si Si7 0.652661 0.500000 0.038496
O O1 0.351608 0.174267 0.666373
O O2 0.618391 0.139337 0.553001
O O3 0.489350 0.245076 0.705594
O O4 0.397798 0.131355 0.830295
O O5 0.362872 0.848577 0.058653
O O6 0.450759 0.759088 0.130761
O O7 0.881494 0.841452 0.294742
O O8 0.725476 0.939875 0.340772
O O9 0.798059 0.000000 0.117521
O O10 0.977507 0.000000 0.163675
O O11 0.346049 0.318635 0.937841
O O12 0.285349 0.439283 0.940056
#
# Coordination Sequence:
#
# PCOD8110537 Si02
#       7
#     8   4   8   4   8   8   4
#     4  10  22  34  53  86 116 142 181 231 286 329
#     4  10  22  33  58  83 110 144 190 238 282 312
#     4  11  21  36  56  83 115 148 182 225 287 338
#     4  11  22  36  59  85 114 147 188 237 279 339
#     4  11  21  38  57  84 112 148 191 233 276 332
#     4  11  20  37  58  82 114 148 187 230 276 340
#     4  11  22  36  60  84 111 149 194 233 277 333
#
# _framework density 18.339127000000001
#
# number of rings (size 3 to 8) (size 9 to 14) (size 15 to 20)
#    0.000    1.273    3.636    4.909    0.000    2.545 
#    0.000    0.000    0.000    0.000    0.000    5.091 
#    0.000    0.000    0.000    0.000    0.000    0.000 
#
# Total GULP energy -272864.922905 kJ/mol
# GULP energy per Si atom -12402.951041 kJ/mol
# Density = 1.829739 g / cm^3
# Si number density = 18.339127 Si / 1000 Ang^3
#
#
#
# Elastic Constant Matrix: (Units=GPa)
#
#
# Indices 1 2 3 4 5 6 
#
# 1 102.0627 53.7605 41.3562 0.0000 -8.3487 0.0000
# 2 53.7605 125.1386 44.1980 0.0000 -0.0439 0.0000
# 3 41.3562 44.1980 107.5400 0.0000 -4.6326 0.0000
# 4 0.0000 0.0000 0.0000 20.3133 0.0000 2.6391
# 5 -8.3487 -0.0439 -4.6326 0.0000 21.7561 0.0000
# 6 0.0000 0.0000 0.0000 2.6391 0.0000 28.1558
#
#
#
# Elastic Compliance Matrix: (Units=1/GPa)
#
#
# Indices 1 2 3 4 5 6 
#
# 1 0.014062 -0.004915 -0.003185 0.000000 0.004708 0.000000
# 2 -0.004915 0.011080 -0.002769 0.000000 -0.002453 0.000000
# 3 -0.003185 -0.002769 0.011717 0.000000 0.001267 0.000000
# 4 0.000000 0.000000 0.000000 0.049836 0.000000 -0.004671
# 5 0.004708 -0.002453 0.001267 0.000000 0.048036 0.000000
# 6 0.000000 0.000000 0.000000 -0.004671 0.000000 0.035954
#
#
# Mechanical properties :
#
#
# Convention : Reuss Voigt Hill
#
# Bulk Modulus (GPa) = 66.13647 68.15230 67.14438
# Shear Modulus (GPa) = 25.32118 27.07349 26.19733
#
# Velocity S-wave (km/s) = 3.71983 3.84639 3.78364
# Velocity P-wave (km/s) = 7.38856 7.54780 7.46860
#
# Compressibility (1/GPa) = 0.01512025
#
# Stress axis : x y z
#
# Youngs Moduli (GPa) = 71.11134 90.25443 85.34934
#
# Poissons Ratio (x) = 0.44357 0.27186
# Poissons Ratio (y) = 0.34949 0.23636
# Poissons Ratio (z) = 0.22651 0.24995
#
# Static dielectric constant tensor:
#      x y z
#    x 3.434980 0.000000 -0.091650 
#    y 0.000000 3.378220 0.000000 
#    z -0.091650 0.000000 3.359360 
# 
# 
# High freq. dielectric constant tensor:
#      x y z
#    x 1.705960 0.000000 -0.016030 
#    y 0.000000 1.712410 0.000000 
#    z -0.016030 0.000000 1.707140 
# 
# From -- ./inp_files/79216.got.cif
#   From: 2010.06.25/outbox.cif.g09.slc.cpg/sg12_40_cif.got.tgz:79216.got - 2010.06.28 00:19:55.
