data_PCOD8110035
_publ_section_title
;
Structure prediction by ZEFSAII (Michael W. Deem and Ramdas Pophale) SiO2 
 PCOD8110035
Probable space group: C 2/M
;
_chemical_formula_sum "Si O2"
_cell_formula_units_Z 56
_cell_length_a 22.594510
_cell_length_b 14.165083
_cell_length_c 19.563503
_cell_angle_alpha 90.000000
_cell_angle_beta 25.476102
_cell_angle_gamma 90.000000
_cell_volume 2693.227516
_symmetry_space_group_name_H-M "C 2/M"
_symmetry_group_IT_number 12
_symmetry_cell_setting 'monoclinic'
loop_
_space_group_symop_operation_xyz
x,y,z
-x,y,-z
-x,-y,-z
x,-y,z
1/2+x,1/2+y,z
1/2-x,1/2+y,-z
1/2-x,1/2-y,-z
1/2+x,1/2-y,z
loop_
_atom_site_type_symbol
_atom_site_label
_atom_site_fract_x
_atom_site_fract_y
_atom_site_fract_z
Si Si1 0.597151 0.892891 0.962046
Si Si2 0.555553 0.108143 0.737647
Si Si3 0.981029 0.106945 0.142364
Si Si4 0.252399 0.216032 0.822296
Si Si5 0.503832 0.782374 0.329880
Si Si6 0.202245 0.390385 0.358449
Si Si7 0.372628 0.608950 0.406058
O O1 0.510502 0.873843 0.120367
O O2 0.652556 0.000000 0.900898
O O3 0.500000 0.869801 0.000000
O O4 0.728757 0.823858 0.822432
O O5 0.475679 0.171298 0.765807
O O6 0.714014 0.138779 0.576290
O O7 0.543208 0.000000 0.727148
O O8 0.862141 0.122702 0.210488
O O9 0.921422 0.129920 0.278685
O O10 0.036055 0.000000 0.081399
O O11 0.105431 0.175123 0.996133
O O12 0.350087 0.214401 0.785716
O O13 0.324577 0.156751 0.687012
O O14 0.390218 0.841298 0.488548
O O15 0.457304 0.673484 0.370632
O O16 0.161360 0.500000 0.397698
O O17 0.395276 0.500000 0.403398
#
# Coordination Sequence:
#
# PCOD8110035 Si02
#       7
#     8   8   8   8   8   8   8
#     4  10  23  42  66  93 123 164 214 261 308 368
#     4  10  21  40  67  94 120 161 213 262 308 365
#     4  10  21  40  66  94 122 159 210 260 307 366
#     4  12  26  39  59  96 133 167 203 255 320 369
#     4  12  25  39  63  95 129 168 206 253 314 376
#     4  11  24  44  66  90 125 170 214 253 303 373
#     4  10  22  40  65  93 121 161 213 262 308 364
#
# _framework density 20.792897
#
# number of rings (size 3 to 8) (size 9 to 14) (size 15 to 20)
#    0.000    1.286    1.429    3.857    4.000    6.857 
#    0.000    2.857    0.000    1.714    0.000    0.000 
#    0.000    0.000    0.000    0.000    0.000    0.000 
#
# Total GULP energy -347378.375501 kJ/mol
# GULP energy per Si atom -12406.370554 kJ/mol
# Density = 2.074557 g / cm^3
# Si number density = 20.792897 Si / 1000 Ang^3
#
#
#
# Elastic Constant Matrix: (Units=GPa)
#
#
# Indices 1 2 3 4 5 6 
#
# 1 133.1069 64.9085 26.2358 -0.0010 -0.8993 0.0006
# 2 64.9085 124.6671 32.7124 -0.0008 3.3311 0.0006
# 3 26.2358 32.7124 34.3613 -0.0014 2.5751 0.0008
# 4 -0.0010 -0.0008 -0.0014 17.4413 0.0009 11.1215
# 5 -0.8993 3.3311 2.5751 0.0009 22.5022 -0.0005
# 6 0.0006 0.0006 0.0008 11.1215 -0.0005 28.7702
#
#
#
# Elastic Compliance Matrix: (Units=1/GPa)
#
#
# Indices 1 2 3 4 5 6 
#
# 1 0.010465 -0.004483 -0.003837 0.000000 0.001521 0.000000
# 2 -0.004483 0.012616 -0.008508 0.000000 -0.001073 0.000000
# 3 -0.003837 -0.008508 0.040395 0.000004 -0.003517 -0.000003
# 4 0.000000 0.000000 0.000004 0.076091 -0.000004 -0.029414
# 5 0.001521 -0.001073 -0.003517 -0.000004 0.045062 0.000002
# 6 0.000000 0.000000 -0.000003 -0.029414 0.000002 0.046129
#
#
# Mechanical properties :
#
#
# Convention : Reuss Voigt Hill
#
# Bulk Modulus (GPa) = 33.53234 59.98319 46.75777
# Shear Modulus (GPa) = 18.22457 24.96130 21.59293
#
# Velocity S-wave (km/s) = 2.96375 3.46854 3.22604
# Velocity P-wave (km/s) = 5.27955 6.70460 6.03429
#
# Compressibility (1/GPa) = 0.02982196
#
# Stress axis : x y z
#
# Youngs Moduli (GPa) = 95.55469 79.26191 24.75527
#
# Poissons Ratio (x) = 0.35530 0.09499
# Poissons Ratio (y) = 0.42833 0.21062
# Poissons Ratio (z) = 0.36664 0.67436
#
# Static dielectric constant tensor:
#      x y z
#    x 3.790650 0.000000 0.143210 
#    y 0.000000 4.106800 0.000000 
#    z 0.143210 0.000000 3.613330 
# 
# 
# High freq. dielectric constant tensor:
#      x y z
#    x 1.812580 0.000000 0.013850 
#    y 0.000000 1.834150 0.000000 
#    z 0.013850 0.000000 1.805520 
# 
# From -- ./inp_files/284528.got.cif
#   From: 2010.06.25/outbox.cif.g09.slc.cpg/sg12_143_cif.got.tgz:284528.got - 2010.06.28 00:19:55.
