data_PCOD8110090
_publ_section_title
;
Structure prediction by ZEFSAII (Michael W. Deem and Ramdas Pophale) SiO2 
 PCOD8110090
Probable space group: C 2/M
;
_chemical_formula_sum "Si O2"
_cell_formula_units_Z 56
_cell_length_a 19.720105
_cell_length_b 18.460259
_cell_length_c 16.793834
_cell_angle_alpha 90.000000
_cell_angle_beta 157.924348
_cell_angle_gamma 90.000000
_cell_volume 2297.676534
_symmetry_space_group_name_H-M "C 2/M"
_symmetry_group_IT_number 12
_symmetry_cell_setting 'monoclinic'
loop_
_space_group_symop_operation_xyz
x,y,z
-x,y,-z
-x,-y,-z
x,-y,z
1/2+x,1/2+y,z
1/2-x,1/2+y,-z
1/2-x,1/2-y,-z
1/2+x,1/2-y,z
loop_
_atom_site_type_symbol
_atom_site_label
_atom_site_fract_x
_atom_site_fract_y
_atom_site_fract_z
Si Si1 0.299824 0.167686 0.220978
Si Si2 0.374931 0.799257 0.532662
Si Si3 0.299814 0.581966 0.749815
Si Si4 0.816564 0.863065 0.456903
Si Si5 0.155143 0.080041 0.920938
Si Si6 0.961878 0.376337 0.151607
Si Si7 0.311946 0.182928 0.837498
O O1 0.484895 0.199446 0.388227
O O2 0.330338 0.102593 0.317430
O O3 0.215815 0.231288 0.183726
O O4 0.171615 0.137473 0.010545
O O5 0.233851 0.865467 0.363321
O O6 0.278581 0.721928 0.434965
O O7 0.477437 0.809507 0.727269
O O8 0.259576 0.500000 0.678367
O O9 0.500000 0.592423 0.000000
O O10 0.643671 0.907159 0.305903
O O11 0.827501 0.861804 0.371711
O O12 0.000708 0.893212 0.692628
O O13 0.105422 0.000000 0.899874
O O14 0.347575 0.070151 0.084164
O O15 0.812644 0.350791 0.925835
O O16 0.500000 0.170418 0.000000
#
# Coordination Sequence:
#
# PCOD8110090 Si02
#       7
#     8   8   8   8   8   8   8
#     4  11  22  40  66  95 138 177 217 275 331 411
#     4  11  23  39  64  97 132 178 226 279 338 399
#     4  11  25  40  60  96 139 186 226 266 333 413
#     4  11  23  41  69 101 131 175 231 289 346 395
#     4  11  26  45  67  99 137 183 232 279 343 413
#     4  10  24  42  65  94 132 176 224 287 334 400
#     4  10  21  40  68 101 133 168 221 284 342 400
#
# _framework density 24.372447000000001
#
# number of rings (size 3 to 8) (size 9 to 14) (size 15 to 20)
#    0.000    1.286    1.429    3.429    4.000    8.000 
#    0.000    1.429    0.000    2.571    0.000    0.000 
#    0.000    0.000    0.000    0.000    0.000    0.000 
#
# Total GULP energy -346909.498032 kJ/mol
# GULP energy per Si atom -12389.624930 kJ/mol
# Density = 2.431697 g / cm^3
# Si number density = 24.372447 Si / 1000 Ang^3
#
#
#
# Elastic Constant Matrix: (Units=GPa)
#
#
# Indices 1 2 3 4 5 6 
#
# 1 83.1137 1.0229 17.6380 0.0345 -7.5021 -0.0004
# 2 1.0229 69.3740 18.6443 0.0444 2.7329 0.0007
# 3 17.6380 18.6443 103.2895 0.0657 -17.7404 0.0094
# 4 0.0345 0.0444 0.0657 25.4354 0.0228 -2.6262
# 5 -7.5021 2.7329 -17.7404 0.0228 40.9509 0.0012
# 6 -0.0004 0.0007 0.0094 -2.6262 0.0012 19.7816
#
#
#
# Elastic Compliance Matrix: (Units=1/GPa)
#
#
# Indices 1 2 3 4 5 6 
#
# 1 0.012572 0.000282 -0.001951 -0.000014 0.001439 -0.000001
# 2 0.000282 0.015372 -0.003231 -0.000017 -0.002374 -0.000001
# 3 -0.001951 -0.003231 0.011423 -0.000026 0.004807 -0.000009
# 4 -0.000014 -0.000017 -0.000026 0.039862 -0.000035 0.005292
# 5 0.001439 -0.002374 0.004807 -0.000035 0.026924 -0.000008
# 6 -0.000001 -0.000001 -0.000009 0.005292 -0.000008 0.051255
#
#
# Mechanical properties :
#
#
# Convention : Reuss Voigt Hill
#
# Bulk Modulus (GPa) = 33.81848 36.70974 35.26411
# Shear Modulus (GPa) = 28.23855 31.79837 30.01846
#
# Velocity S-wave (km/s) = 3.40755 3.61596 3.51330
# Velocity P-wave (km/s) = 5.42104 5.70335 5.56399
#
# Compressibility (1/GPa) = 0.02956963
#
# Stress axis : x y z
#
# Youngs Moduli (GPa) = 79.54117 65.05244 87.53958
#
# Poissons Ratio (x) = -0.01835 0.17075
# Poissons Ratio (y) = -0.02244 0.28281
# Poissons Ratio (z) = 0.15515 0.21016
#
# Static dielectric constant tensor:
#      x y z
#    x 4.755340 0.000000 -0.350700 
#    y 0.000000 3.963020 -0.000020 
#    z -0.350700 -0.000020 4.652290 
# 
# 
# High freq. dielectric constant tensor:
#      x y z
#    x 1.982860 0.000000 -0.012460 
#    y 0.000000 1.927030 0.000000 
#    z -0.012460 0.000000 1.981580 
# 
# From -- ./inp_files/286071.got.cif
#   From: 2010.06.25/outbox.cif.g09.slc.cpg/sg12_144_cif.got.tgz:286071.got - 2010.06.28 00:19:55.
