data_PCOD8110824
_publ_section_title
;
Structure prediction by ZEFSAII (Michael W. Deem and Ramdas Pophale) SiO2 
 PCOD8110824
Probable space group: C 2/M
;
_chemical_formula_sum "Si O2"
_cell_formula_units_Z 48
_cell_length_a 19.045157
_cell_length_b 14.794356
_cell_length_c 12.355007
_cell_angle_alpha 90.000000
_cell_angle_beta 135.719275
_cell_angle_gamma 90.000000
_cell_volume 2430.455014
_symmetry_space_group_name_H-M "C 2/M"
_symmetry_group_IT_number 12
_symmetry_cell_setting 'monoclinic'
loop_
_space_group_symop_operation_xyz
x,y,z
-x,y,-z
-x,-y,-z
x,-y,z
1/2+x,1/2+y,z
1/2-x,1/2+y,-z
1/2-x,1/2-y,-z
1/2+x,1/2-y,z
loop_
_atom_site_type_symbol
_atom_site_label
_atom_site_fract_x
_atom_site_fract_y
_atom_site_fract_z
Si Si1 0.296954 0.104223 0.225297
Si Si2 0.405790 0.181940 0.152010
Si Si3 0.845933 0.500000 0.735641
Si Si4 0.107557 0.200896 0.072559
Si Si5 0.075926 0.276891 0.495448
Si Si6 0.735839 0.809265 0.377465
Si Si7 0.418485 0.000000 0.045881
O O1 0.322556 0.176303 0.156757
O O2 0.183628 0.116704 0.145337
O O3 0.372750 0.130118 0.406164
O O4 0.313567 0.000000 0.210251
O O5 0.517781 0.196439 0.322147
O O6 0.391319 0.086639 0.082473
O O7 0.393025 0.259285 0.049086
O O8 0.789509 0.413013 0.622453
O O9 0.963685 0.500000 0.845003
O O10 0.841243 0.500000 0.860066
O O11 0.146021 0.274038 0.201913
O O12 0.000000 0.167540 0.000000
O O13 0.158207 0.198444 0.568181
O O14 0.000000 0.235727 0.500000
O O15 0.750000 0.750000 0.500000
#
# Coordination Sequence:
#
# PCOD8110824 Si02
#       7
#     8   8   4   8   8   8   4
#     4  10  22  38  57  90 121 155 199 243 294 354
#     4  11  20  37  62  86 118 152 197 246 297 341
#     4  11  22  36  59  88 119 150 199 246 299 352
#     4  11  22  38  61  84 118 160 197 240 295 355
#     4   9  21  37  60  84 118 157 192 239 293 347
#     4  11  22  40  58  87 119 152 196 244 298 353
#     4  11  20  32  59  92 113 144 195 256 294 332
#
# _framework density 19.749388
#
# number of rings (size 3 to 8) (size 9 to 14) (size 15 to 20)
#    0.000    1.500    2.500    3.500    1.167    1.333 
#    6.000    0.417    5.500    0.000    0.000    0.000 
#    0.000    0.000    0.000    0.000    0.000    0.000 
#
# Total GULP energy -297454.754216 kJ/mol
# GULP energy per Si atom -12393.948092 kJ/mol
# Density = 1.970444 g / cm^3
# Si number density = 19.749388 Si / 1000 Ang^3
#
#
#
# Elastic Constant Matrix: (Units=GPa)
#
#
# Indices 1 2 3 4 5 6 
#
# 1 103.5895 27.9180 42.3373 0.0000 19.5451 0.0000
# 2 27.9180 82.4942 30.0304 0.0000 1.8570 0.0000
# 3 42.3373 30.0304 109.9623 0.0000 -6.1400 0.0000
# 4 0.0000 0.0000 0.0000 15.5624 0.0000 -3.2304
# 5 19.5451 1.8570 -6.1400 0.0000 35.8642 0.0000
# 6 0.0000 0.0000 0.0000 -3.2304 0.0000 32.4926
#
#
#
# Elastic Compliance Matrix: (Units=1/GPa)
#
#
# Indices 1 2 3 4 5 6 
#
# 1 0.014073 -0.002698 -0.005151 0.000000 -0.008412 0.000000
# 2 -0.002698 0.014042 -0.002781 0.000000 0.000267 0.000000
# 3 -0.005151 -0.002781 0.012117 0.000000 0.005026 0.000000
# 4 0.000000 0.000000 0.000000 0.065611 0.000000 0.006523
# 5 -0.008412 0.000267 0.005026 0.000000 0.033314 0.000000
# 6 0.000000 0.000000 0.000000 0.006523 0.000000 0.031425
#
#
# Mechanical properties :
#
#
# Convention : Reuss Voigt Hill
#
# Bulk Modulus (GPa) = 52.71081 55.17973 53.94527
# Shear Modulus (GPa) = 25.23135 29.83453 27.53294
#
# Velocity S-wave (km/s) = 3.57820 3.89093 3.73784
# Velocity P-wave (km/s) = 6.61960 6.94164 6.78253
#
# Compressibility (1/GPa) = 0.01897144
#
# Stress axis : x y z
#
# Youngs Moduli (GPa) = 71.05778 71.21742 82.52579
#
# Poissons Ratio (x) = 0.19215 0.42511
# Poissons Ratio (y) = 0.19172 0.22950
# Poissons Ratio (z) = 0.36603 0.19805
#
# Static dielectric constant tensor:
#      x y z
#    x 3.802620 0.000000 -0.084750 
#    y 0.000000 3.211290 0.000000 
#    z -0.084750 0.000000 3.790810 
# 
# 
# High freq. dielectric constant tensor:
#      x y z
#    x 1.784850 0.000000 -0.005810 
#    y 0.000000 1.736600 0.000000 
#    z -0.005810 0.000000 1.779180 
# 
# From -- ./inp_files/167676.got.cif
#   From: 2010.06.25/outbox.cif.g09.slc.cpg/sg12_84_cif.got.tgz:167676.got - 2010.06.28 00:19:55.
