data_PCOD8110914
_publ_section_title
;
Structure prediction by ZEFSAII (Michael W. Deem and Ramdas Pophale) SiO2 
 PCOD8110914
Probable space group: C 2/M
;
_chemical_formula_sum "Si O2"
_cell_formula_units_Z 48
_cell_length_a 12.649305
_cell_length_b 20.630921
_cell_length_c 8.558260
_cell_angle_alpha 90.000000
_cell_angle_beta 66.831494
_cell_angle_gamma 90.000000
_cell_volume 2053.300245
_symmetry_space_group_name_H-M "C 2/M"
_symmetry_group_IT_number 12
_symmetry_cell_setting 'monoclinic'
loop_
_space_group_symop_operation_xyz
x,y,z
-x,y,-z
-x,-y,-z
x,-y,z
1/2+x,1/2+y,z
1/2-x,1/2+y,-z
1/2-x,1/2-y,-z
1/2+x,1/2-y,z
loop_
_atom_site_type_symbol
_atom_site_label
_atom_site_fract_x
_atom_site_fract_y
_atom_site_fract_z
Si Si1 0.474520 0.649940 0.695277
Si Si2 0.815354 0.735062 0.766662
Si Si3 0.110137 0.330732 0.854600
Si Si4 0.674602 0.428773 0.715419
Si Si5 0.759821 0.117815 0.995195
Si Si6 0.610389 0.126854 0.517197
O O1 0.500000 0.632607 0.500000
O O2 0.433536 0.724839 0.740024
O O3 0.585869 0.630131 0.734520
O O4 0.372968 0.606238 0.825080
O O5 0.718039 0.783775 0.760854
O O6 0.848278 0.689479 0.603614
O O7 0.762147 0.693906 0.942051
O O8 0.151246 0.392201 0.941456
O O9 0.067763 0.355969 0.713536
O O10 0.000000 0.296622 0.000000
O O11 0.617952 0.500000 0.725332
O O12 0.782756 0.422750 0.536149
O O13 0.728856 0.425816 0.858511
O O14 0.500000 0.094145 0.500000
#
# Coordination Sequence:
#
# PCOD8110914 Si02
#       6
#     8   8   8   8   8   8
#     4  11  22  39  63  94 130 166 207 259 319 378
#     4  10  22  38  60  94 131 170 209 256 316 378
#     4  11  21  37  61  92 130 166 208 259 319 382
#     4  11  25  45  68  91 122 170 221 267 314 371
#     4  10  23  39  59  92 128 165 211 260 316 377
#     4  11  24  41  62  91 126 166 213 262 317 379
#
# _framework density 23.376999999999999
#
# number of rings (size 3 to 8) (size 9 to 14) (size 15 to 20)
#    0.000    1.333    0.000    7.500    0.000   12.667 
#    0.000    2.500    0.000    2.000    0.000    0.000 
#    0.000    0.000    0.000    0.000    0.000    0.000 
#
# Total GULP energy -297340.725934 kJ/mol
# GULP energy per Si atom -12389.196914 kJ/mol
# Density = 2.332379 g / cm^3
# Si number density = 23.377000 Si / 1000 Ang^3
#
#
#
# Elastic Constant Matrix: (Units=GPa)
#
#
# Indices 1 2 3 4 5 6 
#
# 1 130.3173 31.6778 36.9081 0.0000 -3.7198 0.0000
# 2 31.6778 79.5807 18.5624 0.0000 -2.0213 0.0000
# 3 36.9081 18.5624 134.5267 0.0000 -5.4189 0.0000
# 4 0.0000 0.0000 0.0000 10.5960 0.0000 -2.2367
# 5 -3.7198 -2.0213 -5.4189 0.0000 48.0374 0.0000
# 6 0.0000 0.0000 0.0000 -2.2367 0.0000 21.2231
#
#
#
# Elastic Compliance Matrix: (Units=1/GPa)
#
#
# Indices 1 2 3 4 5 6 
#
# 1 0.009013 -0.003106 -0.002031 0.000000 0.000338 0.000000
# 2 -0.003106 0.014059 -0.001079 0.000000 0.000229 0.000000
# 3 -0.002031 -0.001079 0.008168 0.000000 0.000719 0.000000
# 4 0.000000 0.000000 0.000000 0.096522 0.000000 0.010173
# 5 0.000338 0.000229 0.000719 0.000000 0.020934 0.000000
# 6 0.000000 0.000000 0.000000 0.010173 0.000000 0.048191
#
#
# Mechanical properties :
#
#
# Convention : Reuss Voigt Hill
#
# Bulk Modulus (GPa) = 53.15972 57.63571 55.39771
# Shear Modulus (GPa) = 23.19231 33.12306 28.15769
#
# Velocity S-wave (km/s) = 3.15318 3.76827 3.47436
# Velocity P-wave (km/s) = 6.00385 6.60617 6.31220
#
# Compressibility (1/GPa) = 0.01881124
#
# Stress axis : x y z
#
# Youngs Moduli (GPa) = 110.94760 71.12635 122.42301
#
# Poissons Ratio (x) = 0.22089 0.24860
# Poissons Ratio (y) = 0.34455 0.13206
# Poissons Ratio (z) = 0.22530 0.07672
#
# Static dielectric constant tensor:
#      x y z
#    x 4.395700 0.000000 -0.049620 
#    y 0.000000 3.687010 0.000000 
#    z -0.049620 0.000000 4.432680 
# 
# 
# High freq. dielectric constant tensor:
#      x y z
#    x 1.936320 0.000000 -0.006090 
#    y 0.000000 1.862200 0.000000 
#    z -0.006090 0.000000 1.949880 
# 
# From -- ./inp_files/51346.got.cif
#   From: 2010.06.25/outbox.cif.g09.slc.cpg/sg12_26_cif.got.tgz:51346.got - 2010.06.28 00:19:55.
