data_PCOD8110010
_publ_section_title
;
Structure prediction by ZEFSAII (Michael W. Deem and Ramdas Pophale) SiO2 
 PCOD8110010
Probable space group: C 2/M
;
_chemical_formula_sum "Si O2"
_cell_formula_units_Z 48
_cell_length_a 18.282750
_cell_length_b 13.666893
_cell_length_c 18.413778
_cell_angle_alpha 90.000000
_cell_angle_beta 148.775647
_cell_angle_gamma 90.000000
_cell_volume 2385.125713
_symmetry_space_group_name_H-M "C 2/M"
_symmetry_group_IT_number 12
_symmetry_cell_setting 'monoclinic'
loop_
_space_group_symop_operation_xyz
x,y,z
-x,y,-z
-x,-y,-z
x,-y,z
1/2+x,1/2+y,z
1/2-x,1/2+y,-z
1/2-x,1/2-y,-z
1/2+x,1/2-y,z
loop_
_atom_site_type_symbol
_atom_site_label
_atom_site_fract_x
_atom_site_fract_y
_atom_site_fract_z
Si Si1 0.572416 0.111078 0.768545
Si Si2 0.219191 0.777961 0.815866
Si Si3 0.236695 0.614397 0.549782
Si Si4 0.253605 0.275854 0.328133
Si Si5 0.532931 0.887605 0.902851
Si Si6 0.441630 0.386119 0.592455
O O1 0.693975 0.176639 0.836457
O O2 0.418346 0.144873 0.610033
O O3 0.585567 0.122529 0.865589
O O4 0.600514 0.000000 0.768505
O O5 0.211439 0.751841 0.724848
O O6 0.103451 0.857143 0.743393
O O7 0.371381 0.821598 0.963741
O O8 0.245358 0.500000 0.575931
O O9 0.276843 0.674005 0.656147
O O10 0.347753 0.643583 0.581993
O O11 0.388890 0.328539 0.477219
O O12 0.125704 0.350982 0.225930
O O13 0.537999 0.000000 0.933132
O O14 0.430061 0.500000 0.566579
#
# Coordination Sequence:
#
# PCOD8110010 Si02
#       6
#     8   8   8   8   8   8
#     4  10  21  41  66  89 118 160 207 250 297 354
#     4  12  25  38  59  94 126 156 196 253 306 354
#     4  10  21  40  66  91 118 158 206 252 297 354
#     4  12  23  39  62  89 124 161 198 245 308 362
#     4  11  24  43  64  86 121 168 205 240 297 366
#     4  11  22  38  61  88 119 158 206 252 293 349
#
# _framework density 20.124727
#
# number of rings (size 3 to 8) (size 9 to 14) (size 15 to 20)
#    0.000    1.000    3.333    4.000    0.000    4.667 
#    0.000    4.167    0.000    2.000    0.000    0.000 
#    0.000    0.000    0.000    0.000    0.000    0.000 
#
# Total GULP energy -297770.069322 kJ/mol
# GULP energy per Si atom -12407.086222 kJ/mol
# Density = 2.007892 g / cm^3
# Si number density = 20.124727 Si / 1000 Ang^3
#
#
#
# Elastic Constant Matrix: (Units=GPa)
#
#
# Indices 1 2 3 4 5 6 
#
# 1 60.9365 34.0348 10.9157 -0.0009 -19.1734 -0.0002
# 2 34.0348 82.1382 24.7184 0.0001 -8.6109 -0.0002
# 3 10.9157 24.7184 66.6523 0.0010 -3.2675 -0.0003
# 4 -0.0009 0.0001 0.0010 36.5931 0.0002 1.1035
# 5 -19.1734 -8.6109 -3.2675 0.0002 24.4539 -0.0002
# 6 -0.0002 -0.0002 -0.0003 1.1035 -0.0002 10.6871
#
#
#
# Elastic Compliance Matrix: (Units=1/GPa)
#
#
# Indices 1 2 3 4 5 6 
#
# 1 0.027403 -0.009420 -0.000104 0.000001 0.018155 0.000001
# 2 -0.009420 0.017379 -0.004997 0.000000 -0.001934 0.000000
# 3 -0.000104 -0.004997 0.016894 0.000000 0.000416 0.000000
# 4 0.000001 0.000000 0.000000 0.027413 0.000000 -0.002830
# 5 0.018155 -0.001934 0.000416 0.000000 0.054502 0.000001
# 6 0.000001 0.000000 0.000000 -0.002830 0.000001 0.093863
#
#
# Mechanical properties :
#
#
# Convention : Reuss Voigt Hill
#
# Bulk Modulus (GPa) = 30.64408 38.78499 34.71453
# Shear Modulus (GPa) = 18.02617 23.68402 20.85509
#
# Velocity S-wave (km/s) = 2.99611 3.43426 3.22264
# Velocity P-wave (km/s) = 5.21814 5.91943 5.57982
#
# Compressibility (1/GPa) = 0.03263273
#
# Stress axis : x y z
#
# Youngs Moduli (GPa) = 36.49249 57.54078 59.19277
#
# Poissons Ratio (x) = 0.54204 0.00617
# Poissons Ratio (y) = 0.34376 0.29580
# Poissons Ratio (z) = 0.00381 0.28754
#
# Static dielectric constant tensor:
#      x y z
#    x 3.609690 0.000000 -0.037190 
#    y 0.000000 3.745570 0.000000 
#    z -0.037190 0.000000 3.603960 
# 
# 
# High freq. dielectric constant tensor:
#      x y z
#    x 1.785760 0.000000 -0.000410 
#    y 0.000000 1.797810 0.000000 
#    z -0.000410 0.000000 1.781220 
# 
# From -- ./inp_files/104920.got.cif
#   From: 2010.06.25/outbox.cif.g09.slc.cpg/sg12_53_cif.got.tgz:104920.got - 2010.06.28 00:19:55.
