data_PCOD8110764
_publ_section_title
;
Structure prediction by ZEFSAII (Michael W. Deem and Ramdas Pophale) SiO2 
 PCOD8110764
Probable space group: C 2/M
;
_chemical_formula_sum "Si O2"
_cell_formula_units_Z 56
_cell_length_a 19.062390
_cell_length_b 9.206956
_cell_length_c 18.780822
_cell_angle_alpha 90.000000
_cell_angle_beta 64.692700
_cell_angle_gamma 90.000000
_cell_volume 2979.819387
_symmetry_space_group_name_H-M "C 2/M"
_symmetry_group_IT_number 12
_symmetry_cell_setting 'monoclinic'
loop_
_space_group_symop_operation_xyz
x,y,z
-x,y,-z
-x,-y,-z
x,-y,z
1/2+x,1/2+y,z
1/2-x,1/2+y,-z
1/2-x,1/2-y,-z
1/2+x,1/2-y,z
loop_
_atom_site_type_symbol
_atom_site_label
_atom_site_fract_x
_atom_site_fract_y
_atom_site_fract_z
Si Si1 0.664627 0.671901 0.266579
Si Si2 0.940325 0.829106 0.811433
Si Si3 0.172832 0.335837 0.518891
Si Si4 0.177109 0.833368 0.773220
Si Si5 0.090799 0.833180 0.668724
Si Si6 0.923434 0.665847 0.574531
Si Si7 0.982145 0.172851 0.085172
O O1 0.666901 0.500000 0.277795
O O2 0.638841 0.710881 0.195928
O O3 0.749542 0.735621 0.239850
O O4 0.599670 0.736406 0.347990
O O5 0.011891 0.769108 0.734702
O O6 0.950812 0.770595 0.888217
O O7 0.951699 0.000000 0.810805
O O8 0.185982 0.500000 0.538097
O O9 0.250000 0.250000 0.500000
O O10 0.104570 0.265694 0.594462
O O11 0.150078 0.328001 0.446264
O O12 0.159340 0.817935 0.697173
O O13 0.103199 0.778852 0.851297
O O14 0.197061 0.000000 0.783173
O O15 0.083665 0.000000 0.647170
O O16 0.938412 0.500000 0.593247
O O17 0.000000 0.724669 0.500000
O O18 0.984241 0.000000 0.080022
O O19 0.000000 0.241623 0.000000
#
# Coordination Sequence:
#
# PCOD8110764 Si02
#       7
#     8   8   8   8   8   8   8
#     4  11  21  32  49  73 102 133 163 200 246 297
#     4   8  16  30  48  72  98 124 158 199 240 281
#     4  11  22  33  47  68  93 122 159 205 250 289
#     4   9  18  32  51  75 101 129 163 204 245 286
#     4   9  17  32  51  67  89 123 162 204 244 283
#     4  10  22  38  52  68  95 131 169 210 252 290
#     4   8  14  29  55  80  99 126 166 204 236 281
#
# _framework density 18.793085999999999
#
# number of rings (size 3 to 8) (size 9 to 14) (size 15 to 20)
#    0.000    2.571    0.000    4.286    0.000    5.429 
#    0.000    1.429    0.000    2.143    0.000    0.000 
#    0.000    0.000    0.000    0.000    0.000    0.000 
#
# Total GULP energy -347015.056744 kJ/mol
# GULP energy per Si atom -12393.394884 kJ/mol
# Density = 1.875031 g / cm^3
# Si number density = 18.793086 Si / 1000 Ang^3
#
#
#
# Elastic Constant Matrix: (Units=GPa)
#
#
# Indices 1 2 3 4 5 6 
#
# 1 84.9119 29.0857 17.8850 0.0000 8.8339 -0.0001
# 2 29.0857 67.4249 27.3429 0.0000 7.0132 -0.0001
# 3 17.8850 27.3429 84.7471 0.0000 13.0355 0.0000
# 4 0.0000 0.0000 0.0000 14.9269 0.0000 0.5744
# 5 8.8339 7.0132 13.0355 0.0000 24.1506 0.0000
# 6 -0.0001 -0.0001 0.0000 0.5744 0.0000 22.5979
#
#
#
# Elastic Compliance Matrix: (Units=1/GPa)
#
#
# Indices 1 2 3 4 5 6 
#
# 1 0.014136 -0.005471 -0.000727 0.000000 -0.003189 0.000000
# 2 -0.005471 0.019286 -0.004923 0.000000 -0.000942 0.000000
# 3 -0.000727 -0.004923 0.014483 0.000000 -0.006122 0.000000
# 4 0.000000 0.000000 0.000000 0.067059 0.000000 -0.001704
# 5 -0.003189 -0.000942 -0.006122 0.000000 0.046151 0.000000
# 6 0.000000 0.000000 0.000000 -0.001704 0.000000 0.044295
#
#
# Mechanical properties :
#
#
# Convention : Reuss Voigt Hill
#
# Bulk Modulus (GPa) = 38.96800 42.85678 40.91239
# Shear Modulus (GPa) = 21.16783 23.18644 22.17714
#
# Velocity S-wave (km/s) = 3.35977 3.51632 3.43894
# Velocity P-wave (km/s) = 5.98591 6.27217 6.13071
#
# Compressibility (1/GPa) = 0.02566208
#
# Stress axis : x y z
#
# Youngs Moduli (GPa) = 70.74115 51.85150 69.04504
#
# Poissons Ratio (x) = 0.28369 0.05023
# Poissons Ratio (y) = 0.38704 0.33990
# Poissons Ratio (z) = 0.05146 0.25526
#
# Static dielectric constant tensor:
#      x y z
#    x 3.549000 0.000000 0.197560 
#    y 0.000000 3.167850 0.000000 
#    z 0.197560 0.000000 3.708140 
# 
# 
# High freq. dielectric constant tensor:
#      x y z
#    x 1.739520 0.000000 0.011130 
#    y 0.000000 1.697940 0.000000 
#    z 0.011130 0.000000 1.717530 
# 
# From -- ./inp_files/275049.got.cif
#   From: 2010.06.25/outbox.cif.g09.slc.cpg/sg12_138_cif.got.tgz:275049.got - 2010.06.28 00:19:55.
