data_PCOD8110382
_publ_section_title
;
Structure prediction by ZEFSAII (Michael W. Deem and Ramdas Pophale) SiO2 
 PCOD8110382
Probable space group: C 2/M
;
_chemical_formula_sum "Si O2"
_cell_formula_units_Z 32
_cell_length_a 16.994633
_cell_length_b 13.807318
_cell_length_c 12.603317
_cell_angle_alpha 90.000000
_cell_angle_beta 148.060970
_cell_angle_gamma 90.000000
_cell_volume 1564.498758
_symmetry_space_group_name_H-M "C 2/M"
_symmetry_group_IT_number 12
_symmetry_cell_setting 'monoclinic'
loop_
_space_group_symop_operation_xyz
x,y,z
-x,y,-z
-x,-y,-z
x,-y,z
1/2+x,1/2+y,z
1/2-x,1/2+y,-z
1/2-x,1/2-y,-z
1/2+x,1/2-y,z
loop_
_atom_site_type_symbol
_atom_site_label
_atom_site_fract_x
_atom_site_fract_y
_atom_site_fract_z
Si Si1 0.566981 0.194361 0.185692
Si Si2 0.914260 0.500000 0.085926
Si Si3 0.905458 0.000000 0.218617
Si Si4 0.500000 0.836450 0.500000
Si Si5 0.675068 0.000000 0.789665
Si Si6 0.085570 0.808128 0.415772
O O1 0.740641 0.171881 0.374200
O O2 0.539726 0.273852 0.245596
O O3 0.500000 0.237445 0.000000
O O4 0.483849 0.094456 0.113701
O O5 0.734915 0.500000 0.860903
O O6 0.942001 0.500000 0.244786
O O7 0.002833 0.906126 0.351087
O O8 0.843951 0.000000 0.026417
O O9 0.467492 0.773791 0.565267
O O10 0.644452 0.903877 0.685800
#
# Coordination Sequence:
#
# PCOD8110382 Si02
#       6
#     8   4   4   4   4   8
#     4  11  25  43  64  94 137 178 209 270 335 392
#     4  10  21  42  63  92 132 169 219 260 334 384
#     4  10  24  42  68  98 131 166 227 277 307 391
#     4  11  22  43  70  98 130 169 226 271 318 394
#     4   9  22  39  70  97 127 170 214 276 327 368
#     4  11  25  42  68  98 130 172 227 265 324 390
#
# _framework density 20.453834000000001
#
# number of rings (size 3 to 8) (size 9 to 14) (size 15 to 20)
#    0.750    0.750    2.500    1.125    7.000    2.500 
#    0.000    0.625    0.000    0.000    0.000    0.000 
#    0.000    0.000    0.000    0.000    0.000    0.000 
#
# Total GULP energy -198395.142059 kJ/mol
# GULP energy per Si atom -12399.696379 kJ/mol
# Density = 2.040728 g / cm^3
# Si number density = 20.453834 Si / 1000 Ang^3
#
#
#
# Elastic Constant Matrix: (Units=GPa)
#
#
# Indices 1 2 3 4 5 6 
#
# 1 79.2973 62.1689 68.6644 0.0000 3.8015 0.0000
# 2 62.1689 143.5506 53.2633 0.0000 9.5818 0.0000
# 3 68.6644 53.2633 107.7162 0.0000 -10.7079 0.0000
# 4 0.0000 0.0000 0.0000 21.8714 0.0000 7.1185
# 5 3.8015 9.5818 -10.7079 0.0000 41.8814 0.0000
# 6 0.0000 0.0000 0.0000 7.1185 0.0000 -13.0215
#
#
#
# Elastic Compliance Matrix: (Units=1/GPa)
#
#
# Indices 1 2 3 4 5 6 
#
# 1 0.036418 -0.007930 -0.019949 0.000000 -0.006592 0.000000
# 2 -0.007930 0.010672 -0.000403 0.000000 -0.001825 0.000000
# 3 -0.019949 -0.000403 0.022973 0.000000 0.007776 0.000000
# 4 0.000000 0.000000 0.000000 0.038816 0.000000 0.021219
# 5 -0.006592 -0.001825 0.007776 0.000000 0.026881 0.000000
# 6 0.000000 0.000000 0.000000 0.021219 0.000000 -0.065196
#
#
# Mechanical properties :
#
#
# Convention : Reuss Voigt Hill
#
# Bulk Modulus (GPa) = 74.08526 77.63971 75.86248
# Shear Modulus (GPa) = 37.98618 19.91076 28.94847
#
# Velocity S-wave (km/s) = 4.31416 3.12340 3.76614
# Velocity P-wave (km/s) = 7.81763 7.14482 7.48878
#
# Compressibility (1/GPa) = 0.01349796
#
# Stress axis : x y z
#
# Youngs Moduli (GPa) = 27.45920 93.70294 43.53003
#
# Poissons Ratio (x) = 0.74306 0.86837
# Poissons Ratio (y) = 0.21775 0.01756
# Poissons Ratio (z) = 0.54778 0.03781
#
# Static dielectric constant tensor:
#      x y z
#    x 3.702690 0.000000 -0.108950 
#    y 0.000000 3.578960 0.000000 
#    z -0.108950 0.000000 3.832550 
# 
# 
# High freq. dielectric constant tensor:
#      x y z
#    x 1.793170 0.000000 -0.008730 
#    y 0.000000 1.805170 0.000000 
#    z -0.008730 0.000000 1.807140 
# 
# From -- ./inp_files/156814.got.cif
#   From: 2010.06.25/outbox.cif.g09.slc.cpg/sg12_79_cif.got.tgz:156814.got - 2010.06.28 00:19:55.
