data_PCOD8110137
_publ_section_title
;
Structure prediction by ZEFSAII (Michael W. Deem and Ramdas Pophale) SiO2 
 PCOD8110137
Probable space group: C 2/M
;
_chemical_formula_sum "Si O2"
_cell_formula_units_Z 56
_cell_length_a 19.775501
_cell_length_b 14.436192
_cell_length_c 17.530207
_cell_angle_alpha 90.000000
_cell_angle_beta 33.712879
_cell_angle_gamma 90.000000
_cell_volume 2777.696288
_symmetry_space_group_name_H-M "C 2/M"
_symmetry_group_IT_number 12
_symmetry_cell_setting 'monoclinic'
loop_
_space_group_symop_operation_xyz
x,y,z
-x,y,-z
-x,-y,-z
x,-y,z
1/2+x,1/2+y,z
1/2-x,1/2+y,-z
1/2-x,1/2-y,-z
1/2+x,1/2-y,z
loop_
_atom_site_type_symbol
_atom_site_label
_atom_site_fract_x
_atom_site_fract_y
_atom_site_fract_z
Si Si1 0.045181 0.389198 0.788543
Si Si2 0.111212 0.783869 0.345994
Si Si3 0.460267 0.771182 0.351412
Si Si4 0.582773 0.604945 0.155321
Si Si5 0.784067 0.606299 0.078063
Si Si6 0.268841 0.257152 0.335288
Si Si7 0.468975 0.605707 0.111281
O O1 0.062083 0.500000 0.776302
O O2 0.033001 0.358374 0.711626
O O3 0.156768 0.339700 0.727537
O O4 0.920718 0.352390 0.946623
O O5 0.197306 0.859798 0.227010
O O6 0.198151 0.729305 0.322033
O O7 0.000000 0.829505 0.500000
O O8 0.053892 0.716260 0.334931
O O9 0.487632 0.675021 0.282780
O O10 0.322124 0.763178 0.508822
O O11 0.543857 0.500000 0.215211
O O12 0.719198 0.625942 0.057223
O O13 0.582955 0.614699 0.062928
O O14 0.802430 0.500000 0.076951
O O15 0.358850 0.343229 0.256142
O O16 0.428965 0.500000 0.136305
O O17 0.500000 0.650930 0.000000
#
# Coordination Sequence:
#
# PCOD8110137 Si02
#       7
#     8   8   8   8   8   8   8
#     4  11  24  38  58  90 123 157 196 242 299 357
#     4   9  21  38  61  85 117 155 199 241 288 351
#     4  10  21  41  60  87 114 158 204 238 290 353
#     4   9  18  36  62  86 112 146 196 249 286 339
#     4   9  20  37  57  85 116 152 197 238 290 352
#     4  11  23  39  59  88 121 155 195 244 299 354
#     4  10  22  37  57  87 116 148 193 243 296 343
#
# _framework density 20.160591
#
# number of rings (size 3 to 8) (size 9 to 14) (size 15 to 20)
#    0.000    2.143    1.429    0.429    2.000    5.429 
#    0.000    6.429    0.000    2.571    0.000    0.000 
#    0.000    0.000    0.000    0.000    0.000    0.000 
#
# Total GULP energy -346984.607784 kJ/mol
# GULP energy per Si atom -12392.307421 kJ/mol
# Density = 2.011470 g / cm^3
# Si number density = 20.160591 Si / 1000 Ang^3
#
#
#
# Elastic Constant Matrix: (Units=GPa)
#
#
# Indices 1 2 3 4 5 6 
#
# 1 100.6722 12.5511 20.1816 0.0000 8.0338 0.0000
# 2 12.5511 61.2608 21.6357 0.0000 -1.9111 0.0000
# 3 20.1816 21.6357 100.5169 0.0000 -6.6962 0.0000
# 4 0.0000 0.0000 0.0000 22.7630 0.0000 2.6117
# 5 8.0338 -1.9111 -6.6962 0.0000 27.1719 0.0000
# 6 0.0000 0.0000 0.0000 2.6117 0.0000 22.5027
#
#
#
# Elastic Compliance Matrix: (Units=1/GPa)
#
#
# Indices 1 2 3 4 5 6 
#
# 1 0.010859 -0.001606 -0.002090 0.000000 -0.003839 0.000000
# 2 -0.001606 0.017907 -0.003473 0.000000 0.000878 0.000000
# 3 -0.002090 -0.003473 0.011327 0.000000 0.003165 0.000000
# 4 0.000000 0.000000 0.000000 0.044524 0.000000 -0.005168
# 5 -0.003839 0.000878 0.003165 0.000000 0.038779 0.000000
# 6 0.000000 0.000000 0.000000 -0.005168 0.000000 0.045039
#
#
# Mechanical properties :
#
#
# Convention : Reuss Voigt Hill
#
# Bulk Modulus (GPa) = 38.83082 41.24297 40.03689
# Shear Modulus (GPa) = 26.12895 28.35961 27.24428
#
# Velocity S-wave (km/s) = 3.60396 3.75465 3.68008
# Velocity P-wave (km/s) = 6.05150 6.26882 6.16112
#
# Compressibility (1/GPa) = 0.02575274
#
# Stress axis : x y z
#
# Youngs Moduli (GPa) = 92.09083 55.84460 88.28696
#
# Poissons Ratio (x) = 0.08970 0.18454
# Poissons Ratio (y) = 0.14793 0.30665
# Poissons Ratio (z) = 0.19249 0.19397
#
# Static dielectric constant tensor:
#      x y z
#    x 4.133690 0.000000 0.058420 
#    y 0.000000 3.420770 0.000000 
#    z 0.058420 0.000000 3.834030 
# 
# 
# High freq. dielectric constant tensor:
#      x y z
#    x 1.807720 0.000000 -0.000970 
#    y 0.000000 1.763530 0.000000 
#    z -0.000970 0.000000 1.785590 
# 
# From -- ./inp_files/284474.got.cif
#   From: 2010.06.25/outbox.cif.g09.slc.cpg/sg12_143_cif.got.tgz:284474.got - 2010.06.28 00:19:55.
