data_PCOD8110383
_publ_section_title
;
Structure prediction by ZEFSAII (Michael W. Deem and Ramdas Pophale) SiO2 
 PCOD8110383
Probable space group: C 2/M
;
_chemical_formula_sum "Si O2"
_cell_formula_units_Z 48
_cell_length_a 17.085819
_cell_length_b 15.153767
_cell_length_c 17.198919
_cell_angle_alpha 90.000000
_cell_angle_beta 146.415893
_cell_angle_gamma 90.000000
_cell_volume 2463.251233
_symmetry_space_group_name_H-M "C 2/M"
_symmetry_group_IT_number 12
_symmetry_cell_setting 'monoclinic'
loop_
_space_group_symop_operation_xyz
x,y,z
-x,y,-z
-x,-y,-z
x,-y,z
1/2+x,1/2+y,z
1/2-x,1/2+y,-z
1/2-x,1/2-y,-z
1/2+x,1/2-y,z
loop_
_atom_site_type_symbol
_atom_site_label
_atom_site_fract_x
_atom_site_fract_y
_atom_site_fract_z
Si Si1 0.588196 0.667321 0.918187
Si Si2 0.152486 0.602073 0.159753
Si Si3 0.804587 0.805076 0.154590
Si Si4 0.442878 0.818242 0.611755
Si Si5 0.860862 0.000000 0.936750
Si Si6 0.958058 0.500000 0.375958
Si Si7 0.824201 0.729606 0.678304
O O1 0.626834 0.643661 0.861302
O O2 0.421443 0.688140 0.786267
O O3 0.663741 0.756231 0.009240
O O4 0.635484 0.586147 0.008184
O O5 0.161039 0.500000 0.189388
O O6 0.268150 0.623296 0.189654
O O7 0.188889 0.656657 0.266427
O O8 0.000000 0.628073 0.000000
O O9 0.911846 0.734118 0.278607
O O10 0.471967 0.917317 0.609363
O O11 0.328853 0.770713 0.462881
O O12 0.390419 0.817792 0.657453
O O13 0.713156 0.000000 0.768216
O O14 0.000000 0.000000 0.000000
O O15 0.000000 0.500000 0.500000
#
# Coordination Sequence:
#
# PCOD8110383 Si02
#       7
#     8   8   8   8   4   4   8
#     4  10  22  40  65  89 128 166 206 258 310 375
#     4  11  24  38  66  98 123 159 210 268 313 368
#     4  10  21  42  63  94 122 166 209 255 319 368
#     4  10  24  44  67  91 128 174 208 257 316 383
#     4  12  28  40  64  99 131 168 214 267 318 369
#     4  12  28  42  64  97 129 170 218 261 316 385
#     4  10  23  44  67  94 125 168 212 257 324 374
#
# _framework density 19.486440000000002
#
# number of rings (size 3 to 8) (size 9 to 14) (size 15 to 20)
#    0.000    1.500    3.333    0.000    9.333    0.000 
#    0.000    1.667    0.000    0.000    0.000    0.000 
#    0.000    0.000    0.000    0.000    0.000    0.000 
#
# Total GULP energy -297669.866182 kJ/mol
# GULP energy per Si atom -12402.911091 kJ/mol
# Density = 1.944209 g / cm^3
# Si number density = 19.486440 Si / 1000 Ang^3
#
#
#
# Elastic Constant Matrix: (Units=GPa)
#
#
# Indices 1 2 3 4 5 6 
#
# 1 96.6211 50.0304 50.2630 0.0003 0.4013 -0.0002
# 2 50.0304 88.8053 47.7819 0.0005 -6.6494 -0.0005
# 3 50.2630 47.7819 126.1145 0.0010 -9.2255 -0.0005
# 4 0.0003 0.0005 0.0010 28.4789 0.0007 3.2070
# 5 0.4013 -6.6494 -9.2255 0.0007 23.3592 -0.0003
# 6 -0.0002 -0.0005 -0.0005 3.2070 -0.0003 6.8986
#
#
#
# Elastic Compliance Matrix: (Units=1/GPa)
#
#
# Indices 1 2 3 4 5 6 
#
# 1 0.016211 -0.007280 -0.003990 0.000000 -0.003927 -0.000001
# 2 -0.007280 0.017502 -0.003456 0.000000 0.003742 0.000001
# 3 -0.003990 -0.003456 0.011082 0.000000 0.003462 0.000001
# 4 0.000000 0.000000 0.000000 0.037053 -0.000002 -0.017225
# 5 -0.003927 0.003742 0.003462 -0.000002 0.045310 0.000003
# 6 -0.000001 0.000001 0.000001 -0.017225 0.000003 0.152966
#
#
# Mechanical properties :
#
#
# Convention : Reuss Voigt Hill
#
# Bulk Modulus (GPa) = 65.17535 67.52128 66.34831
# Shear Modulus (GPa) = 15.88867 22.64503 19.26685
#
# Velocity S-wave (km/s) = 2.85857 3.41265 3.14782
# Velocity P-wave (km/s) = 6.66441 7.08899 6.87998
#
# Compressibility (1/GPa) = 0.01534322
#
# Stress axis : x y z
#
# Youngs Moduli (GPa) = 61.68526 57.13762 90.23638
#
# Poissons Ratio (x) = 0.41597 0.36004
# Poissons Ratio (y) = 0.44908 0.31183
# Poissons Ratio (z) = 0.24612 0.19745
#
# Static dielectric constant tensor:
#      x y z
#    x 3.647620 0.000000 0.025290 
#    y 0.000000 3.355710 0.000000 
#    z 0.025290 0.000000 3.762940 
# 
# 
# High freq. dielectric constant tensor:
#      x y z
#    x 1.766990 0.000000 -0.000520 
#    y 0.000000 1.751210 0.000000 
#    z -0.000520 0.000000 1.772020 
# 
# From -- ./inp_files/278274.got.cif
#   From: 2010.06.25/outbox.cif.g09.slc.cpg/sg12_140_cif.got.tgz:278274.got - 2010.06.28 00:19:55.
