data_PCOD8110597
_publ_section_title
;
Structure prediction by ZEFSAII (Michael W. Deem and Ramdas Pophale) SiO2 
 PCOD8110597
Probable space group: C 2/M
;
_chemical_formula_sum "Si O2"
_cell_formula_units_Z 32
_cell_length_a 13.775727
_cell_length_b 19.644823
_cell_length_c 9.081547
_cell_angle_alpha 90.000000
_cell_angle_beta 142.090067
_cell_angle_gamma 90.000000
_cell_volume 1510.042716
_symmetry_space_group_name_H-M "C 2/M"
_symmetry_group_IT_number 12
_symmetry_cell_setting 'monoclinic'
loop_
_space_group_symop_operation_xyz
x,y,z
-x,y,-z
-x,-y,-z
x,-y,z
1/2+x,1/2+y,z
1/2-x,1/2+y,-z
1/2-x,1/2-y,-z
1/2+x,1/2-y,z
loop_
_atom_site_type_symbol
_atom_site_label
_atom_site_fract_x
_atom_site_fract_y
_atom_site_fract_z
Si Si1 0.100719 0.321684 0.755427
Si Si2 0.256924 0.074831 0.863974
Si Si3 0.573278 0.423980 0.365066
Si Si4 0.453893 0.292545 0.100738
O O1 0.008524 0.256713 0.715174
O O2 0.000000 0.352471 0.500000
O O3 0.119485 0.374455 0.912514
O O4 0.266891 0.303118 0.882054
O O5 0.221885 0.091760 0.650593
O O6 0.089389 0.077415 0.742105
O O7 0.332403 0.000000 0.967549
O O8 0.594643 0.500000 0.318887
O O9 0.558494 0.362335 0.231313
O O10 0.500000 0.258362 0.000000
#
# Coordination Sequence:
#
# PCOD8110597 Si02
#       4
#     8   8   8   8
#     4  10  22  36  54  81 113 144 176 222 273 323
#     4   8  15  31  55  79 104 141 181 218 265 317
#     4   8  15  30  55  80 104 137 181 226 262 309
#     4  10  22  36  55  82 110 143 182 223 267 319
#
# _framework density 21.191454
#
# number of rings (size 3 to 8) (size 9 to 14) (size 15 to 20)
#    0.000    3.000    0.000    1.500   10.500    2.000 
#    0.000    0.000    0.000    0.750    0.000    0.000 
#    0.000    0.000    0.000    0.000    0.000    0.000 
#
# Total GULP energy -198219.547422 kJ/mol
# GULP energy per Si atom -12388.721714 kJ/mol
# Density = 2.114322 g / cm^3
# Si number density = 21.191454 Si / 1000 Ang^3
#
#
#
# Elastic Constant Matrix: (Units=GPa)
#
#
# Indices 1 2 3 4 5 6 
#
# 1 57.1852 24.0002 17.7418 0.0000 -16.7925 0.0000
# 2 24.0002 116.7712 64.9086 0.0000 -6.5900 0.0000
# 3 17.7418 64.9086 126.1469 0.0000 -17.2381 0.0000
# 4 0.0000 0.0000 0.0000 35.7664 0.0000 -10.9310
# 5 -16.7925 -6.5900 -17.2381 0.0000 11.7717 0.0000
# 6 0.0000 0.0000 0.0000 -10.9310 0.0000 6.0552
#
#
#
# Elastic Compliance Matrix: (Units=1/GPa)
#
#
# Indices 1 2 3 4 5 6 
#
# 1 0.034843 -0.007720 0.006593 0.000000 0.055037 0.000000
# 2 -0.007720 0.013785 -0.008073 0.000000 -0.015118 0.000000
# 3 0.006593 -0.008073 0.014779 0.000000 0.026527 0.000000
# 4 0.000000 0.000000 0.000000 0.062369 0.000000 0.112590
# 5 0.055037 -0.015118 0.026527 0.000000 0.193843 0.000000
# 6 0.000000 0.000000 0.000000 0.112590 0.000000 0.368394
#
#
# Mechanical properties :
#
#
# Convention : Reuss Voigt Hill
#
# Bulk Modulus (GPa) = 22.21905 57.04492 39.63199
# Shear Modulus (GPa) = 6.93081 23.61550 15.27316
#
# Velocity S-wave (km/s) = 1.81043 3.34187 2.68754
# Velocity P-wave (km/s) = 3.85719 6.47055 5.32663
#
# Compressibility (1/GPa) = 0.04500642
#
# Stress axis : x y z
#
# Youngs Moduli (GPa) = 28.69992 72.54399 67.66388
#
# Poissons Ratio (x) = 0.56004 -0.44609
# Poissons Ratio (y) = 0.22156 0.54625
# Poissons Ratio (z) = -0.18921 0.58565
#
# Static dielectric constant tensor:
#      x y z
#    x 3.271550 0.000000 -0.207990 
#    y 0.000000 4.269620 0.000000 
#    z -0.207990 0.000000 3.855390 
# 
# 
# High freq. dielectric constant tensor:
#      x y z
#    x 1.784950 0.000000 -0.013830 
#    y 0.000000 1.832150 0.000000 
#    z -0.013830 0.000000 1.823000 
# 
# From -- ./inp_files/46726.got.cif
#   From: 2010.06.25/outbox.cif.g09.slc.cpg/sg12_24_cif.got.tgz:46726.got - 2010.06.28 00:19:55.
