data_PCOD8110911
_publ_section_title
;
Structure prediction by ZEFSAII (Michael W. Deem and Ramdas Pophale) SiO2 
 PCOD8110911
Probable space group: C 2/M
;
_chemical_formula_sum "Si O2"
_cell_formula_units_Z 56
_cell_length_a 25.892249
_cell_length_b 17.039459
_cell_length_c 9.495650
_cell_angle_alpha 90.000000
_cell_angle_beta 44.029649
_cell_angle_gamma 90.000000
_cell_volume 2911.750432
_symmetry_space_group_name_H-M "C 2/M"
_symmetry_group_IT_number 12
_symmetry_cell_setting 'monoclinic'
loop_
_space_group_symop_operation_xyz
x,y,z
-x,y,-z
-x,-y,-z
x,-y,z
1/2+x,1/2+y,z
1/2-x,1/2+y,-z
1/2-x,1/2-y,-z
1/2+x,1/2-y,z
loop_
_atom_site_type_symbol
_atom_site_label
_atom_site_fract_x
_atom_site_fract_y
_atom_site_fract_z
Si Si1 0.582833 0.089490 0.811305
Si Si2 0.599331 0.787867 0.546532
Si Si3 0.805576 0.410509 0.167508
Si Si4 0.537099 0.305626 0.279884
Si Si5 0.827362 0.288959 0.885114
Si Si6 0.929338 0.091344 0.039056
Si Si7 0.692971 0.683570 0.554155
O O1 0.613622 0.141212 0.624855
O O2 0.621618 0.105947 0.883269
O O3 0.591262 0.000000 0.746318
O O4 0.500000 0.115927 0.000000
O O5 0.513844 0.761333 0.694000
O O6 0.632009 0.818007 0.335262
O O7 0.644876 0.714989 0.518362
O O8 0.797321 0.500000 0.138520
O O9 0.736890 0.388647 0.401443
O O10 0.810781 0.363272 0.013723
O O11 0.500000 0.332301 0.500000
O O12 0.619651 0.272176 0.138886
O O13 0.545267 0.382157 0.166240
O O14 0.750000 0.250000 0.000000
O O15 0.861105 0.147859 0.220189
O O16 0.904617 0.000000 0.084483
O O17 0.000000 0.103707 0.000000
O O18 0.750000 0.750000 0.500000
#
# Coordination Sequence:
#
# PCOD8110911 Si02
#       7
#     8   8   8   8   8   8   8
#     4  10  22  38  60  92 122 153 195 249 307 363
#     4  11  22  38  63  87 118 160 203 247 300 363
#     4  11  23  40  61  89 126 162 198 254 319 368
#     4  10  23  41  62  90 123 162 208 251 306 369
#     4  11  23  40  61  89 118 159 211 249 298 367
#     4  11  24  41  65  95 125 161 209 262 315 373
#     4  12  22  38  64  94 121 161 206 259 307 366
#
# _framework density 19.232417000000002
#
# number of rings (size 3 to 8) (size 9 to 14) (size 15 to 20)
#    0.000    1.143    4.286    2.143    2.000    0.857 
#    0.000    0.714    0.000    5.143    0.000    0.000 
#    0.000    0.000    0.000    0.000    0.000    0.000 
#
# Total GULP energy -347222.107062 kJ/mol
# GULP energy per Si atom -12400.789538 kJ/mol
# Density = 1.918864 g / cm^3
# Si number density = 19.232417 Si / 1000 Ang^3
#
#
#
# Elastic Constant Matrix: (Units=GPa)
#
#
# Indices 1 2 3 4 5 6 
#
# 1 74.8829 55.7509 42.3336 0.0000 -12.9133 0.0000
# 2 55.7509 113.4798 71.2172 0.0000 8.2518 0.0000
# 3 42.3336 71.2172 101.8974 0.0000 2.5772 0.0000
# 4 0.0000 0.0000 0.0000 25.5980 0.0000 1.1152
# 5 -12.9133 8.2518 2.5772 0.0000 39.5474 0.0000
# 6 0.0000 0.0000 0.0000 1.1152 0.0000 32.5892
#
#
#
# Elastic Compliance Matrix: (Units=1/GPa)
#
#
# Indices 1 2 3 4 5 6 
#
# 1 0.025365 -0.011517 -0.002763 0.000000 0.010865 0.000000
# 2 -0.011517 0.021191 -0.009835 0.000000 -0.007541 0.000000
# 3 -0.002763 -0.009835 0.017836 0.000000 -0.000012 0.000000
# 4 0.000000 0.000000 0.000000 0.039124 0.000000 -0.001339
# 5 0.010865 -0.007541 -0.000012 0.000000 0.030408 0.000000
# 6 0.000000 0.000000 0.000000 -0.001339 0.000000 0.030731
#
#
# Mechanical properties :
#
#
# Convention : Reuss Voigt Hill
#
# Bulk Modulus (GPa) = 61.87835 69.87374 65.87604
# Shear Modulus (GPa) = 22.90719 27.61083 25.25901
#
# Velocity S-wave (km/s) = 3.45493 3.79309 3.62796
# Velocity P-wave (km/s) = 6.93969 7.45611 7.20253
#
# Compressibility (1/GPa) = 0.01616074
#
# Stress axis : x y z
#
# Youngs Moduli (GPa) = 39.42490 47.18985 56.06702
#
# Poissons Ratio (x) = 0.54350 0.15492
# Poissons Ratio (y) = 0.45407 0.55142
# Poissons Ratio (z) = 0.10893 0.46411
#
# Static dielectric constant tensor:
#      x y z
#    x 4.493510 0.000000 0.742810 
#    y 0.000000 3.477240 0.000000 
#    z 0.742810 0.000000 4.498840 
# 
# 
# High freq. dielectric constant tensor:
#      x y z
#    x 1.764480 0.000000 -0.003950 
#    y 0.000000 1.738190 0.000000 
#    z -0.003950 0.000000 1.757170 
# 
# From -- ./inp_files/98074.got.cif
#   From: 2010.06.25/outbox.cif.g09.slc.cpg/sg12_50_cif.got.tgz:98074.got - 2010.06.28 00:19:55.
