data_PCOD8110479
_publ_section_title
;
Structure prediction by ZEFSAII (Michael W. Deem and Ramdas Pophale) SiO2 
 PCOD8110479
Probable space group: C 2/M
;
_chemical_formula_sum "Si O2"
_cell_formula_units_Z 40
_cell_length_a 9.271103
_cell_length_b 17.926542
_cell_length_c 11.295840
_cell_angle_alpha 90.000000
_cell_angle_beta 99.266526
_cell_angle_gamma 90.000000
_cell_volume 1852.855691
_symmetry_space_group_name_H-M "C 2/M"
_symmetry_group_IT_number 12
_symmetry_cell_setting 'monoclinic'
loop_
_space_group_symop_operation_xyz
x,y,z
-x,y,-z
-x,-y,-z
x,-y,z
1/2+x,1/2+y,z
1/2-x,1/2+y,-z
1/2-x,1/2-y,-z
1/2+x,1/2-y,z
loop_
_atom_site_type_symbol
_atom_site_label
_atom_site_fract_x
_atom_site_fract_y
_atom_site_fract_z
Si Si1 0.657420 0.154962 0.537632
Si Si2 0.354804 0.587293 0.927021
Si Si3 0.332290 0.184347 0.949374
Si Si4 0.805298 0.801011 0.325008
Si Si5 0.926363 0.086597 0.676921
O O1 0.500000 0.114664 0.500000
O O2 0.691173 0.190210 0.415375
O O3 0.639338 0.216310 0.642276
O O4 0.787073 0.095264 0.573414
O O5 0.361820 0.500000 0.934728
O O6 0.356827 0.613518 0.791858
O O7 0.500000 0.624416 0.000000
O O8 0.216529 0.609772 0.988163
O O9 0.289596 0.186080 0.805963
O O10 0.500000 0.194754 0.000000
O O11 0.250000 0.250000 0.000000
O O12 0.941119 0.859363 0.344029
O O13 0.979862 0.000000 0.683630
#
# Coordination Sequence:
#
# PCOD8110479 Si02
#       5
#     8   8   8   8   8
#     4  11  25  42  67  95 133 176 224 282 337 389
#     4  10  21  43  69  96 133 174 215 271 342 404
#     4  12  27  40  67 102 135 172 224 281 329 402
#     4  11  24  43  67  96 133 180 223 272 335 407
#     4  11  24  45  72  99 134 178 226 275 333 407
#
# _framework density 21.588297000000001
#
# number of rings (size 3 to 8) (size 9 to 14) (size 15 to 20)
#    0.000    1.000    2.000    4.800    8.400    2.400 
#    0.000    0.000    0.000    0.000    0.000    0.000 
#    0.000    0.000    0.000    0.000    0.000    0.000 
#
# Total GULP energy -247776.277773 kJ/mol
# GULP energy per Si atom -12388.813889 kJ/mol
# Density = 2.153916 g / cm^3
# Si number density = 21.588297 Si / 1000 Ang^3
#
#
#
# Elastic Constant Matrix: (Units=GPa)
#
#
# Indices 1 2 3 4 5 6 
#
# 1 168.5176 33.6502 49.0783 0.0000 21.2013 0.0000
# 2 33.6502 54.8655 18.6553 0.0000 -5.6838 0.0000
# 3 49.0783 18.6553 115.0511 0.0000 1.1654 0.0000
# 4 0.0000 0.0000 0.0000 29.3895 0.0000 -8.9423
# 5 21.2013 -5.6838 1.1654 0.0000 35.5717 0.0000
# 6 0.0000 0.0000 0.0000 -8.9423 0.0000 31.3826
#
#
#
# Elastic Compliance Matrix: (Units=1/GPa)
#
#
# Indices 1 2 3 4 5 6 
#
# 1 0.008413 -0.004814 -0.002750 0.000000 -0.005693 0.000000
# 2 -0.004814 0.022413 -0.001646 0.000000 0.006505 0.000000
# 3 -0.002750 -0.001646 0.010121 0.000000 0.001045 0.000000
# 4 0.000000 0.000000 0.000000 0.037256 0.000000 0.010616
# 5 -0.005693 0.006505 0.001045 0.000000 0.032511 0.000000
# 6 0.000000 0.000000 0.000000 0.010616 0.000000 0.034890
#
#
# Mechanical properties :
#
#
# Convention : Reuss Voigt Hill
#
# Bulk Modulus (GPa) = 44.39564 60.13354 52.26459
# Shear Modulus (GPa) = 29.14884 35.07213 32.11048
#
# Velocity S-wave (km/s) = 3.67851 4.03499 3.86087
# Velocity P-wave (km/s) = 6.21701 7.04439 6.64359
#
# Compressibility (1/GPa) = 0.02252474
#
# Stress axis : x y z
#
# Youngs Moduli (GPa) = 118.86755 44.61743 98.80034
#
# Poissons Ratio (x) = 0.21480 0.27174
# Poissons Ratio (y) = 0.57227 0.16266
# Poissons Ratio (z) = 0.32693 0.07346
#
# Static dielectric constant tensor:
#      x y z
#    x 3.523970 0.000000 0.534150 
#    y 0.000000 3.631170 0.000000 
#    z 0.534150 0.000000 3.811360 
# 
# 
# High freq. dielectric constant tensor:
#      x y z
#    x 1.852810 0.000000 0.000200 
#    y 0.000000 1.832800 0.000000 
#    z 0.000200 0.000000 1.866630 
# 
# From -- ./inp_files/119068.got.cif
#   From: 2010.06.25/outbox.cif.g09.slc.cpg/sg12_60_cif.got.tgz:119068.got - 2010.06.28 00:19:55.
