data_PCOD8110689
_publ_section_title
;
Structure prediction by ZEFSAII (Michael W. Deem and Ramdas Pophale) SiO2 
 PCOD8110689
Probable space group: C 2/M
;
_chemical_formula_sum "Si O2"
_cell_formula_units_Z 52
_cell_length_a 8.168714
_cell_length_b 19.674947
_cell_length_c 16.046153
_cell_angle_alpha 90.000000
_cell_angle_beta 86.003664
_cell_angle_gamma 90.000000
_cell_volume 2572.651280
_symmetry_space_group_name_H-M "C 2/M"
_symmetry_group_IT_number 12
_symmetry_cell_setting 'monoclinic'
loop_
_space_group_symop_operation_xyz
x,y,z
-x,y,-z
-x,-y,-z
x,-y,z
1/2+x,1/2+y,z
1/2-x,1/2+y,-z
1/2-x,1/2-y,-z
1/2+x,1/2-y,z
loop_
_atom_site_type_symbol
_atom_site_label
_atom_site_fract_x
_atom_site_fract_y
_atom_site_fract_z
Si Si1 0.933059 0.813763 0.679881
Si Si2 0.711058 0.576030 0.855925
Si Si3 0.201182 0.667376 0.285651
Si Si4 0.335481 0.922750 0.558357
Si Si5 0.155243 0.076802 0.197319
Si Si6 0.179721 0.419867 0.973232
Si Si7 0.000000 0.863664 0.500000
O O1 0.878209 0.740842 0.713260
O O2 0.819837 0.874231 0.722827
O O3 0.107395 0.824217 0.713035
O O4 0.940721 0.816795 0.579096
O O5 0.788717 0.500000 0.849541
O O6 0.830168 0.626161 0.798994
O O7 0.531622 0.574291 0.824711
O O8 0.704854 0.600379 0.952563
O O9 0.131184 0.624632 0.364490
O O10 0.500000 0.911302 0.500000
O O11 0.161457 0.907168 0.518667
O O12 0.321756 0.000000 0.589429
O O13 0.256563 0.109949 0.116826
O O14 0.211306 0.000000 0.219989
O O15 0.179797 0.500000 0.960122
O O16 0.000000 0.391109 0.000000
#
# Coordination Sequence:
#
# PCOD8110689 Si02
#       7
#     8   8   8   8   8   8   4
#     4  10  23  37  58  83 110 154 191 233 290 338
#     4   9  17  33  57  80 106 148 186 228 282 333
#     4  10  22  37  56  81 115 147 191 235 279 345
#     4  10  22  39  61  89 116 148 193 243 292 341
#     4   9  18  35  56  81 109 142 190 233 276 341
#     4   9  17  30  51  82 114 141 176 227 286 338
#     4  10  23  40  62  84 117 158 194 244 289 346
#
# _framework density 20.212610999999999
#
# number of rings (size 3 to 8) (size 9 to 14) (size 15 to 20)
#    0.000    2.462    0.000    1.154    3.231    8.615 
#    0.000    0.769    0.000    0.000    0.000    0.000 
#    0.000    0.000    0.000    0.000    0.000    0.000 
#
# Total GULP energy -322195.388964 kJ/mol
# GULP energy per Si atom -12392.130345 kJ/mol
# Density = 2.016661 g / cm^3
# Si number density = 20.212611 Si / 1000 Ang^3
#
#
#
# Elastic Constant Matrix: (Units=GPa)
#
#
# Indices 1 2 3 4 5 6 
#
# 1 44.5699 21.6759 24.8003 0.0000 -17.5662 0.0000
# 2 21.6759 111.9755 65.1887 0.0000 -27.6128 0.0000
# 3 24.8003 65.1887 142.8546 0.0000 -26.8678 0.0000
# 4 0.0000 0.0000 0.0000 22.1626 0.0000 -6.2150
# 5 -17.5662 -27.6128 -26.8678 0.0000 27.0580 0.0000
# 6 0.0000 0.0000 0.0000 -6.2150 0.0000 30.4834
#
#
#
# Elastic Compliance Matrix: (Units=1/GPa)
#
#
# Indices 1 2 3 4 5 6 
#
# 1 0.030605 -0.000581 -0.001749 0.000000 0.017539 0.000000
# 2 -0.000581 0.013994 -0.004513 0.000000 0.009422 0.000000
# 3 -0.001749 -0.004513 0.010186 0.000000 0.004373 0.000000
# 4 0.000000 0.000000 0.000000 0.047857 0.000000 0.009757
# 5 0.017539 0.009422 0.004373 0.000000 0.062302 0.000000
# 6 0.000000 0.000000 0.000000 0.009757 0.000000 0.034794
#
#
# Mechanical properties :
#
#
# Convention : Reuss Voigt Hill
#
# Bulk Modulus (GPa) = 24.33182 58.08109 41.20646
# Shear Modulus (GPa) = 22.01446 28.45648 25.23547
#
# Velocity S-wave (km/s) = 3.30380 3.75621 3.53725
# Velocity P-wave (km/s) = 5.15922 6.89997 6.09209
#
# Compressibility (1/GPa) = 0.04109845
#
# Stress axis : x y z
#
# Youngs Moduli (GPa) = 32.67407 71.46076 98.17805
#
# Poissons Ratio (x) = 0.04151 0.17176
# Poissons Ratio (y) = 0.01898 0.44305
# Poissons Ratio (z) = 0.05716 0.32248
#
# Static dielectric constant tensor:
#      x y z
#    x 3.660940 0.000000 -0.220880 
#    y 0.000000 3.256040 0.000000 
#    z -0.220880 0.000000 3.933110 
# 
# 
# High freq. dielectric constant tensor:
#      x y z
#    x 1.784330 0.000000 -0.012480 
#    y 0.000000 1.767720 0.000000 
#    z -0.012480 0.000000 1.799020 
# 
# From -- ./inp_files/197068.got.cif
#   From: 2010.06.25/outbox.cif.g09.slc.cpg/sg12_99_cif.got.tgz:197068.got - 2010.06.28 00:19:55.
