data_PCOD8110767
_publ_section_title
;
Structure prediction by ZEFSAII (Michael W. Deem and Ramdas Pophale) SiO2 
 PCOD8110767
Probable space group: C 2/M
;
_chemical_formula_sum "Si O2"
_cell_formula_units_Z 64
_cell_length_a 17.189001
_cell_length_b 27.788310
_cell_length_c 14.389669
_cell_angle_alpha 90.000000
_cell_angle_beta 32.498828
_cell_angle_gamma 90.000000
_cell_volume 3692.888162
_symmetry_space_group_name_H-M "C 2/M"
_symmetry_group_IT_number 12
_symmetry_cell_setting 'monoclinic'
loop_
_space_group_symop_operation_xyz
x,y,z
-x,y,-z
-x,-y,-z
x,-y,z
1/2+x,1/2+y,z
1/2-x,1/2+y,-z
1/2-x,1/2-y,-z
1/2+x,1/2-y,z
loop_
_atom_site_type_symbol
_atom_site_label
_atom_site_fract_x
_atom_site_fract_y
_atom_site_fract_z
Si Si1 0.610551 0.646113 0.465428
Si Si2 0.060688 0.554277 0.091477
Si Si3 0.929394 0.211927 0.986008
Si Si4 0.906939 0.186955 0.803385
Si Si5 0.100060 0.718492 0.308155
Si Si6 0.277148 0.054037 0.261238
Si Si7 0.581028 0.812616 0.830658
Si Si8 0.599792 0.148775 0.145088
O O1 0.500000 0.667041 0.500000
O O2 0.521552 0.648340 0.650690
O O3 0.647220 0.590680 0.410334
O O4 0.747678 0.681423 0.327730
O O5 0.062218 0.500000 0.130099
O O6 0.103270 0.590392 0.133335
O O7 0.904631 0.566797 0.204908
O O8 0.175629 0.559388 0.892869
O O9 0.936207 0.184312 0.883121
O O10 0.036557 0.257314 0.872093
O O11 0.764398 0.226019 0.176122
O O12 0.000000 0.180712 0.000000
O O13 0.938214 0.239008 0.726009
O O14 0.741016 0.171830 0.952986
O O15 0.082900 0.668037 0.267863
O O16 0.000000 0.717632 0.500000
O O17 0.221322 0.000000 0.335862
O O18 0.538376 0.836458 0.776499
O O19 0.500000 0.838333 0.000000
#
# Coordination Sequence:
#
# PCOD8110767 Si02
#       8
#     8   8   8   8   8   8   8   8
#     4  12  24  31  48  79 108 144 180 219 251 309
#     4   9  17  31  56  80 100 136 178 214 259 317
#     4  10  22  38  53  72 104 144 177 215 262 307
#     4  11  22  37  51  78 109 140 179 214 258 309
#     4  11  23  37  54  79 109 137 175 223 260 305
#     4   9  18  33  50  76 111 139 171 214 261 312
#     4  11  20  32  51  74 101 139 179 212 256 302
#     4  11  19  38  57  74 107 140 174 216 262 311
#
# _framework density 17.330608999999999
#
# number of rings (size 3 to 8) (size 9 to 14) (size 15 to 20)
#    0.000    1.500    3.750    4.125    5.250    1.750 
#    0.000    0.625    0.000    0.375    0.000    0.000 
#    0.000    3.000    0.000    0.000    0.000    0.000 
#
# Total GULP energy -396628.425584 kJ/mol
# GULP energy per Si atom -12394.638299 kJ/mol
# Density = 1.729116 g / cm^3
# Si number density = 17.330609 Si / 1000 Ang^3
#
#
#
# Elastic Constant Matrix: (Units=GPa)
#
#
# Indices 1 2 3 4 5 6 
#
# 1 100.2117 37.7256 46.5232 -0.0066 -4.6474 0.0059
# 2 37.7256 79.8931 27.5578 0.0019 -0.6450 -0.0020
# 3 46.5232 27.5578 112.5535 -0.0104 -3.8176 0.0197
# 4 -0.0066 0.0019 -0.0104 26.7236 0.0061 -0.1140
# 5 -4.6474 -0.6450 -3.8176 0.0061 26.7902 -0.0052
# 6 0.0059 -0.0020 0.0197 -0.1140 -0.0052 20.3552
#
#
#
# Elastic Compliance Matrix: (Units=1/GPa)
#
#
# Indices 1 2 3 4 5 6 
#
# 1 0.014060 -0.005069 -0.004514 0.000002 0.001674 0.000000
# 2 -0.005069 0.015499 -0.001725 -0.000003 -0.000752 0.000004
# 3 -0.004514 -0.001725 0.011199 0.000003 0.000771 -0.000010
# 4 0.000002 -0.000003 0.000003 0.037421 -0.000008 0.000210
# 5 0.001674 -0.000752 0.000771 -0.000008 0.037709 0.000008
# 6 0.000000 0.000004 -0.000010 0.000210 0.000008 0.049129
#
#
# Mechanical properties :
#
#
# Convention : Reuss Voigt Hill
#
# Bulk Modulus (GPa) = 55.11847 57.36349 56.24098
# Shear Modulus (GPa) = 25.81569 26.83058 26.32314
#
# Velocity S-wave (km/s) = 3.86372 3.93894 3.90151
# Velocity P-wave (km/s) = 7.19567 7.33882 7.26760
#
# Compressibility (1/GPa) = 0.01814274
#
# Stress axis : x y z
#
# Youngs Moduli (GPa) = 71.12245 64.51938 89.29350
#
# Poissons Ratio (x) = 0.32703 0.40306
# Poissons Ratio (y) = 0.36050 0.15405
# Poissons Ratio (z) = 0.32104 0.11131
#
# Static dielectric constant tensor:
#      x y z
#    x 3.512950 -0.000030 -0.071050 
#    y -0.000030 3.159500 0.000030 
#    z -0.071050 0.000030 3.228280 
# 
# 
# High freq. dielectric constant tensor:
#      x y z
#    x 1.663670 0.000000 -0.014330 
#    y 0.000000 1.647490 0.000000 
#    z -0.014330 0.000000 1.660250 
# 
# From -- ./inp_files/228499.got.cif
#   From: 2010.06.25/outbox.cif.g09.slc.cpg/sg12_115_cif.got.tgz:228499.got - 2010.06.28 00:19:55.
