data_PCOD8110645
_publ_section_title
;
Structure prediction by ZEFSAII (Michael W. Deem and Ramdas Pophale) SiO2 
 PCOD8110645
Probable space group: C 2/M
;
_chemical_formula_sum "Si O2"
_cell_formula_units_Z 56
_cell_length_a 28.824334
_cell_length_b 13.833396
_cell_length_c 12.289502
_cell_angle_alpha 90.000000
_cell_angle_beta 143.479904
_cell_angle_gamma 90.000000
_cell_volume 2916.189573
_symmetry_space_group_name_H-M "C 2/M"
_symmetry_group_IT_number 12
_symmetry_cell_setting 'monoclinic'
loop_
_space_group_symop_operation_xyz
x,y,z
-x,y,-z
-x,-y,-z
x,-y,z
1/2+x,1/2+y,z
1/2-x,1/2+y,-z
1/2-x,1/2-y,-z
1/2+x,1/2-y,z
loop_
_atom_site_type_symbol
_atom_site_label
_atom_site_fract_x
_atom_site_fract_y
_atom_site_fract_z
Si Si1 0.541857 0.110594 0.693860
Si Si2 0.256440 0.226953 0.334996
Si Si3 0.042760 0.107359 0.184515
Si Si4 0.075031 0.753884 0.423428
Si Si5 0.409576 0.392165 0.351284
Si Si6 0.180991 0.243121 0.957283
Si Si7 0.777221 0.106091 0.529111
O O1 0.500000 0.113886 0.500000
O O2 0.482834 0.165721 0.662430
O O3 0.626080 0.162075 0.846498
O O4 0.554125 0.000000 0.756080
O O5 0.348911 0.213159 0.492992
O O6 0.230071 0.136833 0.358557
O O7 0.234606 0.322796 0.363565
O O8 0.211730 0.230021 0.136975
O O9 0.024726 0.174197 0.253541
O O10 0.133432 0.102570 0.333862
O O11 0.009402 0.000000 0.145797
O O12 0.000000 0.153358 0.000000
O O13 0.107607 0.814992 0.586878
O O14 0.500000 0.396684 0.500000
O O15 0.378187 0.500000 0.321785
O O16 0.368028 0.353131 0.164122
O O17 0.250000 0.250000 0.000000
O O18 0.739510 0.000000 0.445043
#
# Coordination Sequence:
#
# PCOD8110645 Si02
#       7
#     8   8   8   8   8   8   8
#     4  11  23  40  60  82 115 162 203 237 286 352
#     4  10  22  36  63  86 115 162 195 243 303 351
#     4   9  19  33  57  88 114 147 191 242 303 358
#     4  11  19  40  59  82 119 156 195 244 299 355
#     4  11  22  37  59  88 120 155 193 239 300 361
#     4  12  22  40  60  89 126 154 198 247 296 354
#     4   9  20  39  57  84 118 153 198 245 296 352
#
# _framework density 19.203140999999999
#
# number of rings (size 3 to 8) (size 9 to 14) (size 15 to 20)
#    0.000    1.571    4.286    0.429    2.000    2.857 
#    0.000    0.000    0.000    0.429    0.000    0.000 
#    0.000    0.000    0.000    0.000    0.000    0.000 
#
# Total GULP energy -347150.689767 kJ/mol
# GULP energy per Si atom -12398.238920 kJ/mol
# Density = 1.915943 g / cm^3
# Si number density = 19.203141 Si / 1000 Ang^3
#
#
#
# Elastic Constant Matrix: (Units=GPa)
#
#
# Indices 1 2 3 4 5 6 
#
# 1 89.5463 58.6182 30.8612 0.0000 -12.6551 0.0000
# 2 58.6182 137.3281 40.1715 0.0000 0.6237 0.0000
# 3 30.8612 40.1715 101.0220 0.0000 -20.8120 0.0000
# 4 0.0000 0.0000 0.0000 18.8563 0.0000 -5.1769
# 5 -12.6551 0.6237 -20.8120 0.0000 33.3922 0.0000
# 6 0.0000 0.0000 0.0000 -5.1769 0.0000 15.2402
#
#
#
# Elastic Compliance Matrix: (Units=1/GPa)
#
#
# Indices 1 2 3 4 5 6 
#
# 1 0.016916 -0.006883 -0.001243 0.000000 0.005765 0.000000
# 2 -0.006883 0.011230 -0.003377 0.000000 -0.004923 0.000000
# 3 -0.001243 -0.003377 0.013237 0.000000 0.007842 0.000000
# 4 0.000000 0.000000 0.000000 0.058487 0.000000 0.019867
# 5 0.005765 -0.004923 0.007842 0.000000 0.037112 0.000000
# 6 0.000000 0.000000 0.000000 0.019867 0.000000 0.072365
#
#
# Mechanical properties :
#
#
# Convention : Reuss Voigt Hill
#
# Bulk Modulus (GPa) = 54.41658 65.24424 59.83041
# Shear Modulus (GPa) = 20.96614 26.71410 23.84012
#
# Velocity S-wave (km/s) = 3.30784 3.73383 3.52727
# Velocity P-wave (km/s) = 6.55651 7.25522 6.91470
#
# Compressibility (1/GPa) = 0.01837675
#
# Stress axis : x y z
#
# Youngs Moduli (GPa) = 59.11418 89.04546 75.54522
#
# Poissons Ratio (x) = 0.61293 0.09390
# Poissons Ratio (y) = 0.40690 0.25513
# Poissons Ratio (z) = 0.07348 0.30072
#
# Static dielectric constant tensor:
#      x y z
#    x 3.580140 0.000000 -0.158160 
#    y 0.000000 4.064240 0.000000 
#    z -0.158160 0.000000 3.616720 
# 
# 
# High freq. dielectric constant tensor:
#      x y z
#    x 1.748870 0.000000 -0.004990 
#    y 0.000000 1.746560 0.000000 
#    z -0.004990 0.000000 1.743050 
# 
# From -- ./inp_files/183553.got.cif
#   From: 2010.06.25/outbox.cif.g09.slc.cpg/sg12_92_cif.got.tgz:183553.got - 2010.06.28 00:19:55.
