data_PCOD8110118
_publ_section_title
;
Structure prediction by ZEFSAII (Michael W. Deem and Ramdas Pophale) SiO2 
 PCOD8110118
Probable space group: C 2/M
;
_chemical_formula_sum "Si O2"
_cell_formula_units_Z 48
_cell_length_a 19.652085
_cell_length_b 15.575077
_cell_length_c 10.863752
_cell_angle_alpha 90.000000
_cell_angle_beta 136.759648
_cell_angle_gamma 90.000000
_cell_volume 2277.967371
_symmetry_space_group_name_H-M "C 2/M"
_symmetry_group_IT_number 12
_symmetry_cell_setting 'monoclinic'
loop_
_space_group_symop_operation_xyz
x,y,z
-x,y,-z
-x,-y,-z
x,-y,z
1/2+x,1/2+y,z
1/2-x,1/2+y,-z
1/2-x,1/2-y,-z
1/2+x,1/2-y,z
loop_
_atom_site_type_symbol
_atom_site_label
_atom_site_fract_x
_atom_site_fract_y
_atom_site_fract_z
Si Si1 0.104586 0.399455 0.086115
Si Si2 0.894874 0.735775 0.358100
Si Si3 0.206188 0.810095 0.543025
Si Si4 0.026379 0.901527 0.167966
Si Si5 0.666799 0.905884 0.900443
Si Si6 0.104704 0.907018 0.780833
O O1 0.107316 0.500000 0.114358
O O2 0.202941 0.363813 0.281342
O O3 0.106149 0.378351 0.942487
O O4 0.000000 0.360875 0.000000
O O5 0.841951 0.748716 0.417718
O O6 0.829174 0.672283 0.189914
O O7 0.926078 0.827900 0.343515
O O8 0.000000 0.685569 0.500000
O O9 0.250000 0.750000 0.500000
O O10 0.121750 0.866038 0.366125
O O11 0.928647 0.888134 0.122942
O O12 0.052011 0.000000 0.176698
O O13 0.000000 0.857925 0.000000
O O14 0.628392 0.000000 0.800589
O O15 0.779522 0.917610 0.085264
O O16 0.057023 0.000000 0.677790
#
# Coordination Sequence:
#
# PCOD8110118 Si02
#       6
#     8   8   8   8   8   8
#     4  10  23  44  68  93 127 174 222 267 318 385
#     4  12  25  42  64  98 132 166 217 273 327 390
#     4  12  27  41  62  97 132 173 213 267 330 391
#     4  10  23  43  67  95 130 170 214 269 331 391
#     4  10  23  43  68  94 126 173 222 269 321 380
#     4  10  21  40  69  98 124 164 213 270 331 387
#
# _framework density 21.071417
#
# number of rings (size 3 to 8) (size 9 to 14) (size 15 to 20)
#    0.000    1.333    3.333    1.000    4.667    2.000 
#    0.000    0.833    0.000    0.000    0.000    0.000 
#    0.000    0.000    0.000    0.000    0.000    0.000 
#
# Total GULP energy -297345.580166 kJ/mol
# GULP energy per Si atom -12389.399174 kJ/mol
# Density = 2.102346 g / cm^3
# Si number density = 21.071417 Si / 1000 Ang^3
#
#
#
# Elastic Constant Matrix: (Units=GPa)
#
#
# Indices 1 2 3 4 5 6 
#
# 1 174.4146 40.0216 48.8632 0.0000 -9.3332 0.0000
# 2 40.0216 85.9695 36.0761 0.0000 -18.4262 0.0000
# 3 48.8632 36.0761 100.8946 0.0000 -3.2329 0.0000
# 4 0.0000 0.0000 0.0000 -76.1831 0.0000 7.5253
# 5 -9.3332 -18.4262 -3.2329 0.0000 37.5137 0.0000
# 6 0.0000 0.0000 0.0000 7.5253 0.0000 27.1046
#
#
#
# Elastic Compliance Matrix: (Units=1/GPa)
#
#
# Indices 1 2 3 4 5 6 
#
# 1 0.006963 -0.002029 -0.002631 0.000000 0.000509 0.000000
# 2 -0.002029 0.015953 -0.004499 0.000000 0.006943 0.000000
# 3 -0.002631 -0.004499 0.012737 0.000000 -0.001767 0.000000
# 4 0.000000 0.000000 0.000000 -0.012776 0.000000 0.003547
# 5 0.000509 0.006943 -0.001767 0.000000 0.030042 0.000000
# 6 0.000000 0.000000 0.000000 0.003547 0.000000 0.035909
#
#
# Mechanical properties :
#
#
# Convention : Reuss Voigt Hill
#
# Bulk Modulus (GPa) = 57.68134 67.91118 62.79626
# Shear Modulus (GPa) = 44.27763 13.44157 28.85960
#
# Velocity S-wave (km/s) = 4.58898 2.52842 3.70484
# Velocity P-wave (km/s) = 7.45064 6.38928 6.94028
#
# Compressibility (1/GPa) = 0.01733663
#
# Stress axis : x y z
#
# Youngs Moduli (GPa) = 143.61273 62.68586 78.50862
#
# Poissons Ratio (x) = 0.12716 0.20653
# Poissons Ratio (y) = 0.29132 0.35322
# Poissons Ratio (z) = 0.37779 0.28203
#
# Static dielectric constant tensor:
#      x y z
#    x 4.061610 0.000000 -0.097780 
#    y 0.000000 4.061390 0.000000 
#    z -0.097780 0.000000 3.092680 
# 
# 
# High freq. dielectric constant tensor:
#      x y z
#    x 1.844340 0.000000 0.007240 
#    y 0.000000 1.827720 0.000000 
#    z 0.007240 0.000000 1.817650 
# 
# From -- ./inp_files/167638.got.cif
#   From: 2010.06.25/outbox.cif.g09.slc.cpg/sg12_84_cif.got.tgz:167638.got - 2010.06.28 00:19:55.
