data_PCOD8110339
_publ_section_title
;
Structure prediction by ZEFSAII (Michael W. Deem and Ramdas Pophale) SiO2 
 PCOD8110339
Probable space group: C 2/M
;
_chemical_formula_sum "Si O2"
_cell_formula_units_Z 64
_cell_length_a 18.173701
_cell_length_b 30.331152
_cell_length_c 12.518848
_cell_angle_alpha 90.000000
_cell_angle_beta 27.436687
_cell_angle_gamma 90.000000
_cell_volume 3179.648534
_symmetry_space_group_name_H-M "C 2/M"
_symmetry_group_IT_number 12
_symmetry_cell_setting 'monoclinic'
loop_
_space_group_symop_operation_xyz
x,y,z
-x,y,-z
-x,-y,-z
x,-y,z
1/2+x,1/2+y,z
1/2-x,1/2+y,-z
1/2-x,1/2-y,-z
1/2+x,1/2-y,z
loop_
_atom_site_type_symbol
_atom_site_label
_atom_site_fract_x
_atom_site_fract_y
_atom_site_fract_z
Si Si1 0.126952 0.590724 0.623285
Si Si2 0.173877 0.126470 0.824720
Si Si3 0.687208 0.950647 0.945797
Si Si4 0.804904 0.109061 0.596997
Si Si5 0.337471 0.394707 0.921340
Si Si6 0.899714 0.668405 0.879797
Si Si7 0.178444 0.702085 0.804730
Si Si8 0.119467 0.286463 0.442211
O O1 0.221952 0.595672 0.389023
O O2 0.248846 0.583177 0.563499
O O3 0.013491 0.632708 0.789800
O O4 0.003881 0.549761 0.786239
O O5 0.262315 0.172607 0.733734
O O6 0.153273 0.099941 0.962513
O O7 0.000000 0.136280 0.000000
O O8 0.743438 0.916052 0.782083
O O9 0.768266 0.938574 0.954721
O O10 0.738072 0.000000 0.846699
O O11 0.737796 0.158259 0.669323
O O12 0.994160 0.113325 0.352240
O O13 0.221601 0.353598 0.047239
O O14 0.009137 0.704275 0.684450
O O15 0.800830 0.694145 0.096031
O O16 0.284898 0.744093 0.641378
O O17 0.000000 0.713478 0.000000
O O18 0.000000 0.276418 0.500000
#
# Coordination Sequence:
#
# PCOD8110339 Si02
#       8
#     8   8   8   8   8   8   8   8
#     4  10  21  41  69  91 126 169 215 257 317 384
#     4  11  22  44  66  93 125 174 219 266 316 378
#     4  11  25  43  68 101 131 164 206 261 327 393
#     4  12  22  40  67  98 128 171 212 263 327 385
#     4  11  23  40  69  94 130 166 214 264 324 385
#     4  10  22  41  58  87 126 169 216 266 317 379
#     4  12  24  40  59  89 132 172 216 272 320 373
#     4  11  25  38  61  91 124 172 224 269 315 369
#
# _framework density 20.12801
#
# number of rings (size 3 to 8) (size 9 to 14) (size 15 to 20)
#    0.000    1.000    6.250    1.125    1.750    4.000 
#    0.000    1.250    0.000    0.750    0.000    0.000 
#    0.000    0.000    0.000    0.000    0.000    0.000 
#
# Total GULP energy -396726.384404 kJ/mol
# GULP energy per Si atom -12397.699513 kJ/mol
# Density = 2.008220 g / cm^3
# Si number density = 20.128010 Si / 1000 Ang^3
#
#
#
# Elastic Constant Matrix: (Units=GPa)
#
#
# Indices 1 2 3 4 5 6 
#
# 1 114.0761 30.9074 34.1905 0.0053 -5.6168 -0.0140
# 2 30.9074 91.3056 36.7298 0.0011 -3.6191 -0.0036
# 3 34.1905 36.7298 118.9213 0.0120 -6.3579 -0.0362
# 4 0.0053 0.0011 0.0120 13.9861 -0.0050 18.9400
# 5 -5.6168 -3.6191 -6.3579 -0.0050 41.1820 0.0140
# 6 -0.0140 -0.0036 -0.0362 18.9400 0.0140 -52.3866
#
#
#
# Elastic Compliance Matrix: (Units=1/GPa)
#
#
# Indices 1 2 3 4 5 6 
#
# 1 0.010122 -0.002559 -0.002075 0.000000 0.000835 -0.000001
# 2 -0.002559 0.013163 -0.003314 0.000000 0.000296 0.000002
# 3 -0.002075 -0.003314 0.010082 0.000001 0.000982 -0.000006
# 4 0.000000 0.000000 0.000001 0.047999 0.000000 0.017354
# 5 0.000835 0.000296 0.000982 0.000000 0.024574 0.000006
# 6 -0.000001 0.000002 -0.000006 0.017354 0.000006 -0.012815
#
#
# Mechanical properties :
#
#
# Convention : Reuss Voigt Hill
#
# Bulk Modulus (GPa) = 57.23673 58.66205 57.94939
# Shear Modulus (GPa) = 43.53670 15.38798 29.46234
#
# Velocity S-wave (km/s) = 4.65584 2.76797 3.83005
# Velocity P-wave (km/s) = 7.57632 6.27880 6.95787
#
# Compressibility (1/GPa) = 0.01747130
#
# Stress axis : x y z
#
# Youngs Moduli (GPa) = 98.79052 75.96916 99.18941
#
# Poissons Ratio (x) = 0.19437 0.20586
# Poissons Ratio (y) = 0.25276 0.32873
# Poissons Ratio (z) = 0.20503 0.25177
#
# Static dielectric constant tensor:
#      x y z
#    x 3.718510 0.000000 0.071920 
#    y 0.000000 3.363790 0.000000 
#    z 0.071920 0.000000 4.581360 
# 
# 
# High freq. dielectric constant tensor:
#      x y z
#    x 1.798890 0.000000 -0.006350 
#    y 0.000000 1.755040 0.000000 
#    z -0.006350 0.000000 1.798590 
# 
# From -- ./inp_files/161179.got.cif
#   From: 2010.06.25/outbox.cif.g09.slc.cpg/sg12_81_cif.got.tgz:161179.got - 2010.06.28 00:19:55.
