data_PCOD8110908
_publ_section_title
;
Structure prediction by ZEFSAII (Michael W. Deem and Ramdas Pophale) SiO2 
 PCOD8110908
Probable space group: C 2/M
;
_chemical_formula_sum "Si O2"
_cell_formula_units_Z 56
_cell_length_a 9.132529
_cell_length_b 14.324432
_cell_length_c 24.307869
_cell_angle_alpha 90.000000
_cell_angle_beta 57.668865
_cell_angle_gamma 90.000000
_cell_volume 2686.936076
_symmetry_space_group_name_H-M "C 2/M"
_symmetry_group_IT_number 12
_symmetry_cell_setting 'monoclinic'
loop_
_space_group_symop_operation_xyz
x,y,z
-x,y,-z
-x,-y,-z
x,-y,z
1/2+x,1/2+y,z
1/2-x,1/2+y,-z
1/2-x,1/2-y,-z
1/2+x,1/2-y,z
loop_
_atom_site_type_symbol
_atom_site_label
_atom_site_fract_x
_atom_site_fract_y
_atom_site_fract_z
Si Si1 0.447892 0.728365 0.453584
Si Si2 0.317419 0.213806 0.044898
Si Si3 0.057800 0.785987 0.871786
Si Si4 0.983510 0.893775 0.666183
Si Si5 0.131472 0.608803 0.792660
Si Si6 0.856287 0.392732 0.755364
Si Si7 0.859093 0.606059 0.631981
O O1 0.500000 0.677700 0.500000
O O2 0.250000 0.750000 0.500000
O O3 0.501115 0.664273 0.392465
O O4 0.546128 0.827404 0.429983
O O5 0.379664 0.293533 0.076685
O O6 0.135186 0.168878 0.102210
O O7 0.500000 0.154031 0.000000
O O8 0.250000 0.250000 0.000000
O O9 0.064470 0.674596 0.855759
O O10 0.183824 0.839253 0.806381
O O11 0.152963 0.882349 0.669068
O O12 0.824943 0.860628 0.736378
O O13 0.951086 0.000000 0.654238
O O14 0.119975 0.500000 0.813466
O O15 0.014762 0.629633 0.763093
O O16 0.802803 0.500000 0.767252
O O17 0.914598 0.363751 0.682421
O O18 0.915640 0.500000 0.607463
#
# Coordination Sequence:
#
# PCOD8110908 Si02
#       7
#     8   8   8   8   8   8   8
#     4  12  25  40  61  87 113 152 203 244 280 349
#     4   9  20  36  58  86 119 160 203 232 282 342
#     4  11  19  36  64  86 114 161 193 242 292 339
#     4  10  23  42  60  84 120 153 187 243 302 347
#     4  10  22  38  60  91 121 148 191 246 297 350
#     4  10  22  38  60  91 119 150 193 240 297 357
#     4  10  23  42  61  83 119 156 188 239 301 352
#
# _framework density 20.841583
#
# number of rings (size 3 to 8) (size 9 to 14) (size 15 to 20)
#    0.000    1.714    2.857    0.857    4.000    3.429 
#    0.000    0.000    0.000   17.143    0.000    0.000 
#    0.000    0.000    0.000    0.000    0.000    0.000 
#
# Total GULP energy -346903.261230 kJ/mol
# GULP energy per Si atom -12389.402187 kJ/mol
# Density = 2.079415 g / cm^3
# Si number density = 20.841583 Si / 1000 Ang^3
#
#
#
# Elastic Constant Matrix: (Units=GPa)
#
#
# Indices 1 2 3 4 5 6 
#
# 1 115.1772 20.7462 33.8668 0.0000 -13.0325 0.0000
# 2 20.7462 51.3273 37.9095 0.0000 -2.4804 0.0000
# 3 33.8668 37.9095 82.8936 -0.0001 -6.6939 0.0001
# 4 0.0000 0.0000 -0.0001 8.1999 0.0000 -2.1950
# 5 -13.0325 -2.4804 -6.6939 0.0000 53.6488 0.0000
# 6 0.0000 0.0000 0.0001 -2.1950 0.0000 23.2365
#
#
#
# Elastic Compliance Matrix: (Units=1/GPa)
#
#
# Indices 1 2 3 4 5 6 
#
# 1 0.010153 -0.001604 -0.003254 0.000000 0.001986 0.000000
# 2 -0.001604 0.029679 -0.012969 0.000000 -0.000636 0.000000
# 3 -0.003254 -0.012969 0.019407 0.000000 0.001031 0.000000
# 4 0.000000 0.000000 0.000000 0.125116 0.000000 0.011819
# 5 0.001986 -0.000636 0.001031 0.000000 0.019222 0.000000
# 6 0.000000 0.000000 0.000000 0.011819 0.000000 0.044152
#
#
# Mechanical properties :
#
#
# Convention : Reuss Voigt Hill
#
# Bulk Modulus (GPa) = 42.40002 48.27147 45.33574
# Shear Modulus (GPa) = 17.16766 27.47541 22.32154
#
# Velocity S-wave (km/s) = 2.87317 3.63478 3.27618
# Velocity P-wave (km/s) = 5.60312 6.38959 6.00923
#
# Compressibility (1/GPa) = 0.02358489
#
# Stress axis : x y z
#
# Youngs Moduli (GPa) = 98.49526 33.69350 51.52671
#
# Poissons Ratio (x) = 0.05406 0.16766
# Poissons Ratio (y) = 0.15803 0.66825
# Poissons Ratio (z) = 0.32049 0.43697
#
# Static dielectric constant tensor:
#      x y z
#    x 4.228440 0.000000 -0.277530 
#    y 0.000000 3.618310 0.000000 
#    z -0.277530 0.000000 3.919880 
# 
# 
# High freq. dielectric constant tensor:
#      x y z
#    x 1.840090 0.000000 -0.003620 
#    y 0.000000 1.778560 0.000000 
#    z -0.003620 0.000000 1.829560 
# 
# From -- ./inp_files/332811.got.cif
#   From: 2010.06.25/outbox.cif.g09.slc.cpg/sg12_167_cif.got.tgz:332811.got - 2010.06.28 00:19:55.
