data_PCOD8110457
_publ_section_title
;
Structure prediction by ZEFSAII (Michael W. Deem and Ramdas Pophale) SiO2 
 PCOD8110457
Probable space group: C 2/M
;
_chemical_formula_sum "Si O2"
_cell_formula_units_Z 48
_cell_length_a 9.305519
_cell_length_b 18.385437
_cell_length_c 27.113522
_cell_angle_alpha 90.000000
_cell_angle_beta 149.967638
_cell_angle_gamma 90.000000
_cell_volume 2321.641143
_symmetry_space_group_name_H-M "C 2/M"
_symmetry_group_IT_number 12
_symmetry_cell_setting 'monoclinic'
loop_
_space_group_symop_operation_xyz
x,y,z
-x,y,-z
-x,-y,-z
x,-y,z
1/2+x,1/2+y,z
1/2-x,1/2+y,-z
1/2-x,1/2-y,-z
1/2+x,1/2-y,z
loop_
_atom_site_type_symbol
_atom_site_label
_atom_site_fract_x
_atom_site_fract_y
_atom_site_fract_z
Si Si1 0.148103 0.185371 0.260727
Si Si2 0.246464 0.585886 0.197716
Si Si3 0.821766 0.673671 0.205152
Si Si4 0.283162 0.676037 0.481660
Si Si5 0.160717 0.085550 0.662770
Si Si6 0.620240 0.579635 0.983367
O O1 0.152959 0.196605 0.203808
O O2 0.464648 0.159628 0.369648
O O3 0.963730 0.116747 0.222316
O O4 0.012319 0.258385 0.243073
O O5 0.268899 0.500000 0.205213
O O6 0.315710 0.615283 0.273718
O O7 0.938410 0.611320 0.085873
O O8 0.569176 0.644203 0.095465
O O9 0.050915 0.608784 0.280662
O O10 0.500000 0.681541 0.500000
O O11 0.250000 0.750000 0.500000
O O12 0.385662 0.616974 0.552358
O O13 0.132579 0.000000 0.653376
O O14 0.618704 0.500000 0.954322
O O15 0.500000 0.559794 0.000000
#
# Coordination Sequence:
#
# PCOD8110457 Si02
#       6
#     8   8   8   8   8   8
#     4  12  26  44  67  99 134 176 222 276 338 386
#     4  10  24  45  69 100 136 173 219 274 330 393
#     4  12  24  43  67  97 134 177 220 275 330 395
#     4  12  25  44  68  94 129 180 221 272 332 396
#     4  11  23  42  69  99 130 174 224 270 327 395
#     4  10  21  42  72  98 130 178 221 267 331 397
#
# _framework density 20.675028000000001
#
# number of rings (size 3 to 8) (size 9 to 14) (size 15 to 20)
#    0.000    0.833    5.000    1.500    2.333    3.667 
#    0.000    3.333    0.000    0.000    0.000    0.000 
#    0.000    0.000    0.000    0.000    0.000    0.000 
#
# Total GULP energy -297421.713677 kJ/mol
# GULP energy per Si atom -12392.571403 kJ/mol
# Density = 2.062797 g / cm^3
# Si number density = 20.675028 Si / 1000 Ang^3
#
#
#
# Elastic Constant Matrix: (Units=GPa)
#
#
# Indices 1 2 3 4 5 6 
#
# 1 133.0872 44.9248 58.9852 -0.0062 12.0330 0.0040
# 2 44.9248 67.0269 56.8142 -0.0130 -3.3938 -0.0022
# 3 58.9852 56.8142 164.4098 -0.0244 11.7076 0.0009
# 4 -0.0062 -0.0130 -0.0244 53.0459 0.0054 5.2382
# 5 12.0330 -3.3938 11.7076 0.0054 34.3334 0.0083
# 6 0.0040 -0.0022 0.0009 5.2382 0.0083 35.0808
#
#
#
# Elastic Compliance Matrix: (Units=1/GPa)
#
#
# Indices 1 2 3 4 5 6 
#
# 1 0.010527 -0.006048 -0.001416 0.000000 -0.003805 -0.000001
# 2 -0.006048 0.025337 -0.007087 0.000001 0.007041 0.000001
# 3 -0.001416 -0.007087 0.009279 0.000003 -0.003369 0.000000
# 4 0.000000 0.000001 0.000003 0.019134 -0.000003 -0.002857
# 5 -0.003805 0.007041 -0.003369 -0.000003 0.032304 -0.000006
# 6 -0.000001 0.000001 0.000000 -0.002857 -0.000006 0.028932
#
#
# Mechanical properties :
#
#
# Convention : Reuss Voigt Hill
#
# Bulk Modulus (GPa) = 62.34027 76.21915 69.27971
# Shear Modulus (GPa) = 31.25734 38.07867 34.66800
#
# Velocity S-wave (km/s) = 3.89246 4.29624 4.09932
# Velocity P-wave (km/s) = 7.10067 7.84574 7.48248
#
# Compressibility (1/GPa) = 0.01604100
#
# Stress axis : x y z
#
# Youngs Moduli (GPa) = 94.99386 39.46806 107.76808
#
# Poissons Ratio (x) = 0.23871 0.15257
# Poissons Ratio (y) = 0.57455 0.76375
# Poissons Ratio (z) = 0.13449 0.27971
#
# Static dielectric constant tensor:
#      x y z
#    x 4.011350 0.000030 -0.032530 
#    y 0.000030 3.573890 -0.000020 
#    z -0.032530 -0.000020 3.631810 
# 
# 
# High freq. dielectric constant tensor:
#      x y z
#    x 1.808000 0.000000 0.005860 
#    y 0.000000 1.811860 0.000000 
#    z 0.005860 0.000000 1.821570 
# 
# From -- ./inp_files/258297.got.cif
#   From: 2010.06.25/outbox.cif.g09.slc.cpg/sg12_130_cif.got.tgz:258297.got - 2010.06.28 00:19:55.
