data_PCOD8110758
_publ_section_title
;
Structure prediction by ZEFSAII (Michael W. Deem and Ramdas Pophale) SiO2 
 PCOD8110758
Probable space group: C 2/M
;
_chemical_formula_sum "Si O2"
_cell_formula_units_Z 64
_cell_length_a 23.516104
_cell_length_b 18.029777
_cell_length_c 14.136883
_cell_angle_alpha 90.000000
_cell_angle_beta 147.608720
_cell_angle_gamma 90.000000
_cell_volume 3210.921216
_symmetry_space_group_name_H-M "C 2/M"
_symmetry_group_IT_number 12
_symmetry_cell_setting 'monoclinic'
loop_
_space_group_symop_operation_xyz
x,y,z
-x,y,-z
-x,-y,-z
x,-y,z
1/2+x,1/2+y,z
1/2-x,1/2+y,-z
1/2-x,1/2-y,-z
1/2+x,1/2-y,z
loop_
_atom_site_type_symbol
_atom_site_label
_atom_site_fract_x
_atom_site_fract_y
_atom_site_fract_z
Si Si1 0.137635 0.781797 0.568749
Si Si2 0.124105 0.079470 0.678188
Si Si3 0.342646 0.918156 0.536372
Si Si4 0.759697 0.135764 0.788738
Si Si5 0.972776 0.208766 0.066541
Si Si6 0.712916 0.084443 0.933357
Si Si7 0.803571 0.825553 0.545890
Si Si8 0.966846 0.689609 0.229493
O O1 0.144749 0.845066 0.654976
O O2 0.204361 0.715017 0.704275
O O3 0.197240 0.823243 0.567627
O O4 0.019333 0.751201 0.374428
O O5 0.000000 0.068127 0.500000
O O6 0.171177 0.000000 0.704174
O O7 0.175901 0.091347 0.854626
O O8 0.287209 0.918692 0.356116
O O9 0.261904 0.894202 0.505424
O O10 0.442680 0.865413 0.677282
O O11 0.382212 0.000000 0.616131
O O12 0.738973 0.101244 0.861675
O O13 0.883508 0.145258 0.938060
O O14 0.930025 0.271442 0.080088
O O15 0.076872 0.168318 0.250307
O O16 0.000000 0.241538 0.000000
O O17 0.627693 0.144327 0.853169
O O18 0.667177 0.000000 0.876661
O O19 0.750000 0.750000 0.500000
#
# Coordination Sequence:
#
# PCOD8110758 Si02
#       8
#     8   8   8   8   8   8   8   8
#     4  10  22  37  65  90 125 156 210 257 307 377
#     4  10  24  43  61  83 122 166 202 251 311 368
#     4  11  22  40  63  92 130 167 205 250 319 384
#     4  11  23  38  63  98 123 166 209 258 314 366
#     4  11  20  36  65  94 122 159 212 265 311 359
#     4  11  25  44  62  90 133 168 209 262 312 371
#     4  11  19  40  59  89 125 163 205 256 311 364
#     4  10  23  39  66  96 123 165 212 263 311 366
#
# _framework density 19.931974
#
# number of rings (size 3 to 8) (size 9 to 14) (size 15 to 20)
#    0.000    1.375    5.000    1.500    5.250    3.000 
#    0.000    5.000    0.000    0.750    0.000    0.000 
#    0.000    0.000    0.000    0.000    0.000    0.000 
#
# Total GULP energy -396490.881727 kJ/mol
# GULP energy per Si atom -12390.340054 kJ/mol
# Density = 1.988661 g / cm^3
# Si number density = 19.931974 Si / 1000 Ang^3
#
#
#
# Elastic Constant Matrix: (Units=GPa)
#
#
# Indices 1 2 3 4 5 6 
#
# 1 94.3131 23.9611 21.7157 0.0000 -9.7894 0.0000
# 2 23.9611 69.4680 12.5410 0.0000 -13.6534 0.0000
# 3 21.7157 12.5410 69.5332 0.0000 0.9911 0.0000
# 4 0.0000 0.0000 0.0000 20.3231 0.0000 -4.3236
# 5 -9.7894 -13.6534 0.9911 0.0000 33.9912 0.0000
# 6 0.0000 0.0000 0.0000 -4.3236 0.0000 27.6735
#
#
#
# Elastic Compliance Matrix: (Units=1/GPa)
#
#
# Indices 1 2 3 4 5 6 
#
# 1 0.012437 -0.003218 -0.003338 0.000000 0.002386 0.000000
# 2 -0.003218 0.017073 -0.002160 0.000000 0.005994 0.000000
# 3 -0.003338 -0.002160 0.015846 0.000000 -0.002291 0.000000
# 4 0.000000 0.000000 0.000000 0.050897 0.000000 0.007952
# 5 0.002386 0.005994 -0.002291 0.000000 0.032581 0.000000
# 6 0.000000 0.000000 0.000000 0.007952 0.000000 0.037378
#
#
# Mechanical properties :
#
#
# Convention : Reuss Voigt Hill
#
# Bulk Modulus (GPa) = 35.81017 38.86108 37.33563
# Shear Modulus (GPa) = 25.91329 28.07067 26.99198
#
# Velocity S-wave (km/s) = 3.60958 3.75684 3.68394
# Velocity P-wave (km/s) = 5.94788 6.19335 6.07186
#
# Compressibility (1/GPa) = 0.02792503
#
# Stress axis : x y z
#
# Youngs Moduli (GPa) = 80.40662 58.57175 63.10678
#
# Poissons Ratio (x) = 0.18849 0.21063
# Poissons Ratio (y) = 0.25876 0.13629
# Poissons Ratio (z) = 0.26837 0.12650
#
# Static dielectric constant tensor:
#      x y z
#    x 5.911050 0.000000 1.041220 
#    y 0.000000 3.199580 0.000000 
#    z 1.041220 0.000000 4.442240 
# 
# 
# High freq. dielectric constant tensor:
#      x y z
#    x 1.773850 0.000000 -0.005000 
#    y 0.000000 1.775530 0.000000 
#    z -0.005000 0.000000 1.788250 
# 
# From -- ./inp_files/241497.got.cif
#   From: 2010.06.25/outbox.cif.g09.slc.cpg/sg12_121_cif.got.tgz:241497.got - 2010.06.28 00:19:55.
