data_PCOD8110005
_publ_section_title
;
Structure prediction by ZEFSAII (Michael W. Deem and Ramdas Pophale) SiO2 
 PCOD8110005
Probable space group: C 2/M
;
_chemical_formula_sum "Si O2"
_cell_formula_units_Z 56
_cell_length_a 26.739457
_cell_length_b 15.605258
_cell_length_c 11.184272
_cell_angle_alpha 90.000000
_cell_angle_beta 37.193240
_cell_angle_gamma 90.000000
_cell_volume 2821.182948
_symmetry_space_group_name_H-M "C 2/M"
_symmetry_group_IT_number 12
_symmetry_cell_setting 'monoclinic'
loop_
_space_group_symop_operation_xyz
x,y,z
-x,y,-z
-x,-y,-z
x,-y,z
1/2+x,1/2+y,z
1/2-x,1/2+y,-z
1/2-x,1/2-y,-z
1/2+x,1/2-y,z
loop_
_atom_site_type_symbol
_atom_site_label
_atom_site_fract_x
_atom_site_fract_y
_atom_site_fract_z
Si Si1 0.541852 0.362327 0.543070
Si Si2 0.500864 0.500000 0.191115
Si Si3 0.380080 0.900945 0.790351
Si Si4 0.043336 0.667642 0.583405
Si Si5 0.360710 0.500000 0.263844
Si Si6 0.575223 0.099366 0.777018
Si Si7 0.253950 0.847716 0.449427
Si Si8 0.273320 0.399541 0.760891
O O1 0.500000 0.390851 0.500000
O O2 0.500470 0.415632 0.727106
O O3 0.519249 0.265934 0.618277
O O4 0.639438 0.379496 0.343999
O O5 0.418658 0.500000 0.268635
O O6 0.585639 0.500000 0.957586
O O7 0.388454 0.852555 0.647993
O O8 0.460359 0.887328 0.720857
O O9 0.371045 0.000000 0.777545
O O10 0.298383 0.867453 0.013167
O O11 0.081233 0.649861 0.640944
O O12 0.307856 0.412170 0.363628
O O13 0.655339 0.115351 0.703433
O O14 0.563296 0.000000 0.769614
O O15 0.500000 0.134677 0.000000
O O16 0.250000 0.750000 0.500000
O O17 0.233790 0.846728 0.347676
O O18 0.263773 0.500000 0.749238
#
# Coordination Sequence:
#
# PCOD8110005 Si02
#       8
#     8   4   8   8   4   8   8   8
#     4  12  23  44  65  93 127 168 216 273 321 381
#     4  11  25  44  74  90 129 176 220 269 328 382
#     4  10  21  40  66  89 123 175 209 258 323 387
#     4  11  22  41  59  97 134 161 211 266 320 386
#     4  11  24  48  67 100 132 172 220 272 324 393
#     4  11  23  39  66  97 131 171 211 265 324 394
#     4  12  23  43  66  96 135 172 214 272 329 386
#     4  11  22  42  68  90 123 171 219 260 322 393
#
# _framework density 19.849830000000001
#
# number of rings (size 3 to 8) (size 9 to 14) (size 15 to 20)
#    0.000    0.857    5.000    3.643    0.000    5.143 
#    2.571    0.000    0.000    0.000    0.000    0.000 
#    0.000    0.000    0.000    0.000    0.000    0.000 
#
# Total GULP energy -347349.217113 kJ/mol
# GULP energy per Si atom -12405.329183 kJ/mol
# Density = 1.980465 g / cm^3
# Si number density = 19.849830 Si / 1000 Ang^3
#
#
#
# Elastic Constant Matrix: (Units=GPa)
#
#
# Indices 1 2 3 4 5 6 
#
# 1 124.5828 23.7082 73.1373 0.0000 0.7711 0.0000
# 2 23.7082 108.4479 58.3730 0.0000 12.1326 0.0000
# 3 73.1373 58.3730 151.5508 0.0000 -0.3763 0.0000
# 4 0.0000 0.0000 0.0000 14.9075 0.0000 -0.3152
# 5 0.7711 12.1326 -0.3763 0.0000 30.1667 0.0000
# 6 0.0000 0.0000 0.0000 -0.3152 0.0000 32.5112
#
#
#
# Elastic Compliance Matrix: (Units=1/GPa)
#
#
# Indices 1 2 3 4 5 6 
#
# 1 0.011240 0.000673 -0.005685 0.000000 -0.000629 0.000000
# 2 0.000673 0.012391 -0.005110 0.000000 -0.005064 0.000000
# 3 -0.005685 -0.005110 0.011316 0.000000 0.002342 0.000000
# 4 0.000000 0.000000 0.000000 0.067094 0.000000 0.000651
# 5 -0.000629 -0.005064 0.002342 0.000000 0.035231 0.000000
# 6 0.000000 0.000000 0.000000 0.000651 0.000000 0.030765
#
#
# Mechanical properties :
#
#
# Convention : Reuss Voigt Hill
#
# Bulk Modulus (GPa) = 68.01319 77.22428 72.61873
# Shear Modulus (GPa) = 25.88216 30.80794 28.34505
#
# Velocity S-wave (km/s) = 3.61487 3.94388 3.78295
# Velocity P-wave (km/s) = 7.19453 7.72837 7.46622
#
# Compressibility (1/GPa) = 0.01470303
#
# Stress axis : x y z
#
# Youngs Moduli (GPa) = 88.96667 80.70380 88.36861
#
# Poissons Ratio (x) = -0.05434 0.50240
# Poissons Ratio (y) = -0.05990 0.45158
# Poissons Ratio (z) = 0.50580 0.41241
#
# Static dielectric constant tensor:
#      x y z
#    x 3.611740 0.000000 -0.008880 
#    y 0.000000 3.666590 0.000000 
#    z -0.008880 0.000000 3.746930 
# 
# 
# High freq. dielectric constant tensor:
#      x y z
#    x 1.778870 0.000000 0.000660 
#    y 0.000000 1.780030 0.000000 
#    z 0.000660 0.000000 1.780460 
# 
# From -- ./inp_files/183507.got.cif
#   From: 2010.06.25/outbox.cif.g09.slc.cpg/sg12_92_cif.got.tgz:183507.got - 2010.06.28 00:19:55.
