data_PCOD8110312
_publ_section_title
;
Structure prediction by ZEFSAII (Michael W. Deem and Ramdas Pophale) SiO2 
 PCOD8110312
Probable space group: C 2/M
;
_chemical_formula_sum "Si O2"
_cell_formula_units_Z 40
_cell_length_a 9.969035
_cell_length_b 23.554112
_cell_length_c 9.366515
_cell_angle_alpha 90.000000
_cell_angle_beta 59.677871
_cell_angle_gamma 90.000000
_cell_volume 1898.495779
_symmetry_space_group_name_H-M "C 2/M"
_symmetry_group_IT_number 12
_symmetry_cell_setting 'monoclinic'
loop_
_space_group_symop_operation_xyz
x,y,z
-x,y,-z
-x,-y,-z
x,-y,z
1/2+x,1/2+y,z
1/2-x,1/2+y,-z
1/2-x,1/2-y,-z
1/2+x,1/2-y,z
loop_
_atom_site_type_symbol
_atom_site_label
_atom_site_fract_x
_atom_site_fract_y
_atom_site_fract_z
Si Si1 0.153967 0.500000 0.006613
Si Si2 0.277898 0.897240 0.507398
Si Si3 0.290216 0.773598 0.827676
Si Si4 0.620216 0.897886 0.242307
Si Si5 0.614433 0.717364 0.647171
Si Si6 0.176545 0.000000 0.372144
O O1 0.293986 0.500000 0.815427
O O2 0.153054 0.444208 0.104025
O O3 0.000000 0.500000 0.000000
O O4 0.444458 0.876063 0.362216
O O5 0.302910 0.922322 0.653353
O O6 0.143624 0.848909 0.588808
O O7 0.242564 0.944529 0.410515
O O8 0.302328 0.840228 0.848551
O O9 0.445090 0.739924 0.688770
O O10 0.145416 0.767995 0.797102
O O11 0.250000 0.750000 0.000000
O O12 0.750000 0.750000 0.500000
O O13 0.000000 0.000000 0.500000
#
# Coordination Sequence:
#
# PCOD8110312 Si02
#       6
#     4   8   8   8   8   4
#     4  12  23  39  67  97 122 156 217 270 320 361
#     4  10  21  42  66  89 126 171 216 254 321 390
#     4  11  24  40  62  96 132 167 215 265 318 377
#     4  10  21  41  68  92 122 171 218 259 309 394
#     4  11  22  40  64  91 124 172 213 258 317 383
#     4  12  27  43  61  99 132 161 207 274 329 374
#
# _framework density 21.069312
#
# number of rings (size 3 to 8) (size 9 to 14) (size 15 to 20)
#    0.000    1.200    4.000    1.800    0.000    8.000 
#    0.000    4.000    0.000    0.000    0.000    0.000 
#    0.000    0.000    0.000    0.000    0.000    0.000 
#
# Total GULP energy -247763.260887 kJ/mol
# GULP energy per Si atom -12388.163044 kJ/mol
# Density = 2.102136 g / cm^3
# Si number density = 21.069312 Si / 1000 Ang^3
#
#
#
# Elastic Constant Matrix: (Units=GPa)
#
#
# Indices 1 2 3 4 5 6 
#
# 1 42.4317 12.7362 -2.2079 0.0000 0.3639 0.0000
# 2 12.7362 90.2448 34.1399 0.0000 16.6362 0.0000
# 3 -2.2079 34.1399 121.5263 0.0000 9.6039 0.0000
# 4 0.0000 0.0000 0.0000 40.4931 0.0000 6.6913
# 5 0.3639 16.6362 9.6039 0.0000 34.7167 0.0000
# 6 0.0000 0.0000 0.0000 6.6913 0.0000 22.4416
#
#
#
# Elastic Compliance Matrix: (Units=1/GPa)
#
#
# Indices 1 2 3 4 5 6 
#
# 1 0.024950 -0.004374 0.001571 0.000000 0.001400 0.000000
# 2 -0.004374 0.014112 -0.003592 0.000000 -0.005723 0.000000
# 3 0.001571 -0.003592 0.009336 0.000000 -0.000878 0.000000
# 4 0.000000 0.000000 0.000000 0.025975 0.000000 -0.007745
# 5 0.001400 -0.005723 -0.000878 0.000000 0.031775 0.000000
# 6 0.000000 0.000000 0.000000 -0.007745 0.000000 0.046869
#
#
# Mechanical properties :
#
#
# Convention : Reuss Voigt Hill
#
# Bulk Modulus (GPa) = 28.08233 38.17103 33.12668
# Shear Modulus (GPa) = 28.14130 33.49927 30.82028
#
# Velocity S-wave (km/s) = 3.65862 3.99175 3.82881
# Velocity P-wave (km/s) = 5.58613 6.27707 5.94165
#
# Compressibility (1/GPa) = 0.03560958
#
# Stress axis : x y z
#
# Youngs Moduli (GPa) = 40.08045 70.86203 107.11710
#
# Poissons Ratio (x) = 0.30992 -0.16832
# Poissons Ratio (y) = 0.17530 0.38472
# Poissons Ratio (z) = -0.06298 0.25451
#
# Static dielectric constant tensor:
#      x y z
#    x 1.973150 0.000000 -0.423690 
#    y 0.000000 2.777040 0.000000 
#    z -0.423690 0.000000 3.989940 
# 
# 
# High freq. dielectric constant tensor:
#      x y z
#    x 1.822560 0.000000 0.010970 
#    y 0.000000 1.830410 0.000000 
#    z 0.010970 0.000000 1.835660 
# 
# From -- ./inp_files/50451.got.cif
#   From: 2010.06.25/outbox.cif.g09.slc.cpg/sg12_26_cif.got.tgz:50451.got - 2010.06.28 00:19:55.
