data_PCOD8110163
_publ_section_title
;
Structure prediction by ZEFSAII (Michael W. Deem and Ramdas Pophale) SiO2 
 PCOD8110163
Probable space group: C 2/M
;
_chemical_formula_sum "Si O2"
_cell_formula_units_Z 40
_cell_length_a 14.446090
_cell_length_b 22.408941
_cell_length_c 8.981347
_cell_angle_alpha 90.000000
_cell_angle_beta 42.065404
_cell_angle_gamma 90.000000
_cell_volume 1947.932840
_symmetry_space_group_name_H-M "C 2/M"
_symmetry_group_IT_number 12
_symmetry_cell_setting 'monoclinic'
loop_
_space_group_symop_operation_xyz
x,y,z
-x,y,-z
-x,-y,-z
x,-y,z
1/2+x,1/2+y,z
1/2-x,1/2+y,-z
1/2-x,1/2-y,-z
1/2+x,1/2-y,z
loop_
_atom_site_type_symbol
_atom_site_label
_atom_site_fract_x
_atom_site_fract_y
_atom_site_fract_z
Si Si1 0.682902 0.808503 0.507158
Si Si2 0.606996 0.767408 0.090651
Si Si3 0.374882 0.431146 0.749548
Si Si4 0.612412 0.354678 0.972802
Si Si5 0.151178 0.375459 0.826818
O O1 0.750000 0.750000 0.500000
O O2 0.518770 0.797887 0.667103
O O3 0.748169 0.832701 0.275932
O O4 0.705340 0.863300 0.595741
O O5 0.750000 0.750000 0.000000
O O6 0.538356 0.705743 0.116922
O O7 0.648846 0.810434 0.906406
O O8 0.500000 0.405106 0.500000
O O9 0.399566 0.500000 0.758498
O O10 0.240713 0.423281 0.808532
O O11 0.352011 0.396975 0.931602
O O12 0.500000 0.387039 0.000000
O O13 0.000000 0.404312 0.000000
#
# Coordination Sequence:
#
# PCOD8110163 Si02
#       5
#     8   8   8   8   8
#     4  11  21  36  61  97 135 163 203 249 323 397
#     4  11  21  36  60  99 131 168 204 252 321 397
#     4  11  26  45  66  90 120 170 228 268 311 371
#     4  12  22  39  65  95 131 170 204 267 323 380
#     4  10  21  41  62  91 129 165 207 257 318 387
#
# _framework density 20.534589
#
# number of rings (size 3 to 8) (size 9 to 14) (size 15 to 20)
#    0.000    1.000    6.000    1.800    0.000    1.600 
#    0.000    1.000    0.000    6.000    0.000    0.000 
#    0.000    0.000    0.000    0.000    0.000    0.000 
#
# Total GULP energy -247857.663249 kJ/mol
# GULP energy per Si atom -12392.883162 kJ/mol
# Density = 2.048785 g / cm^3
# Si number density = 20.534589 Si / 1000 Ang^3
#
#
#
# Elastic Constant Matrix: (Units=GPa)
#
#
# Indices 1 2 3 4 5 6 
#
# 1 128.7632 18.5925 61.9241 0.0000 -15.2960 0.0000
# 2 18.5925 57.0198 44.4563 0.0000 8.1159 0.0000
# 3 61.9241 44.4563 150.0285 0.0000 6.1238 0.0000
# 4 0.0000 0.0000 0.0000 24.1538 0.0000 0.0847
# 5 -15.2960 8.1159 6.1238 0.0000 32.2964 0.0000
# 6 0.0000 0.0000 0.0000 0.0847 0.0000 17.9496
#
#
#
# Elastic Compliance Matrix: (Units=1/GPa)
#
#
# Indices 1 2 3 4 5 6 
#
# 1 0.010757 -0.000946 -0.004411 0.000000 0.006169 0.000000
# 2 -0.000946 0.023553 -0.006378 0.000000 -0.005158 0.000000
# 3 -0.004411 -0.006378 0.010477 0.000000 -0.002473 0.000000
# 4 0.000000 0.000000 0.000000 0.041402 0.000000 -0.000195
# 5 0.006169 -0.005158 -0.002473 0.000000 0.035650 0.000000
# 6 0.000000 0.000000 0.000000 -0.000195 0.000000 0.055713
#
#
# Mechanical properties :
#
#
# Convention : Reuss Voigt Hill
#
# Bulk Modulus (GPa) = 46.91342 65.08413 55.99878
# Shear Modulus (GPa) = 24.02354 28.93586 26.47970
#
# Velocity S-wave (km/s) = 3.42410 3.75791 3.59488
# Velocity P-wave (km/s) = 6.20711 7.11286 6.67537
#
# Compressibility (1/GPa) = 0.02131586
#
# Stress axis : x y z
#
# Youngs Moduli (GPa) = 92.96131 42.45693 95.44590
#
# Poissons Ratio (x) = 0.04017 0.42105
# Poissons Ratio (y) = 0.08796 0.60877
# Poissons Ratio (z) = 0.41009 0.27080
#
# Static dielectric constant tensor:
#      x y z
#    x 4.309200 0.000000 -0.268100 
#    y 0.000000 3.350700 0.000000 
#    z -0.268100 0.000000 4.014410 
# 
# 
# High freq. dielectric constant tensor:
#      x y z
#    x 1.813050 0.000000 -0.006860 
#    y 0.000000 1.763340 0.000000 
#    z -0.006860 0.000000 1.813980 
# 
# From -- ./inp_files/50951.got.cif
#   From: 2010.06.25/outbox.cif.g09.slc.cpg/sg12_26_cif.got.tgz:50951.got - 2010.06.28 00:19:55.
