data_PCOD8110416
_publ_section_title
;
Structure prediction by ZEFSAII (Michael W. Deem and Ramdas Pophale) SiO2 
 PCOD8110416
Probable space group: C 2/M
;
_chemical_formula_sum "Si O2"
_cell_formula_units_Z 48
_cell_length_a 13.848383
_cell_length_b 10.900227
_cell_length_c 25.986685
_cell_angle_alpha 90.000000
_cell_angle_beta 144.793422
_cell_angle_gamma 90.000000
_cell_volume 2261.541096
_symmetry_space_group_name_H-M "C 2/M"
_symmetry_group_IT_number 12
_symmetry_cell_setting 'monoclinic'
loop_
_space_group_symop_operation_xyz
x,y,z
-x,y,-z
-x,-y,-z
x,-y,z
1/2+x,1/2+y,z
1/2-x,1/2+y,-z
1/2-x,1/2-y,-z
1/2+x,1/2-y,z
loop_
_atom_site_type_symbol
_atom_site_label
_atom_site_fract_x
_atom_site_fract_y
_atom_site_fract_z
Si Si1 0.435015 0.361067 0.898335
Si Si2 0.752684 0.500000 0.786915
Si Si3 0.457790 0.736352 0.421608
Si Si4 0.439316 0.000000 0.532164
Si Si5 0.115090 0.715473 0.217721
Si Si6 0.079808 0.000000 0.418987
Si Si7 0.695184 0.000000 0.076040
Si Si8 0.250797 0.735034 0.913941
O O1 0.392152 0.500000 0.893629
O O2 0.392518 0.339684 0.819611
O O3 0.323010 0.277536 0.887604
O O4 0.632405 0.335815 0.994376
O O5 0.858319 0.615863 0.814831
O O6 0.570058 0.500000 0.684891
O O7 0.713846 0.500000 0.829716
O O8 0.500000 0.738929 0.500000
O O9 0.260983 0.713072 0.324324
O O10 0.571033 0.625561 0.448600
O O11 0.496987 0.871694 0.414406
O O12 0.500000 0.000000 0.500000
O O13 0.240754 0.000000 0.452689
O O14 0.939543 0.686335 0.169102
O O15 0.750882 0.121676 0.069975
O O16 0.500000 0.000000 0.000000
#
# Coordination Sequence:
#
# PCOD8110416 Si02
#       8
#     8   4   8   4   8   4   4   8
#     4  11  24  42  60  91 130 162 210 257 315 376
#     4  10  22  41  64  90 122 160 215 261 297 378
#     4  10  23  43  65  96 129 165 215 263 316 380
#     4  10  22  41  65  94 130 163 207 260 318 379
#     4  11  24  42  64  94 125 165 213 257 313 372
#     4  10  21  42  68  91 126 169 211 263 320 367
#     4  12  20  38  59  84 124 159 212 257 305 371
#     4  11  23  40  63  90 123 171 204 261 313 365
#
# _framework density 21.224464000000001
#
# number of rings (size 3 to 8) (size 9 to 14) (size 15 to 20)
#    0.000    1.333    3.333    2.250    4.667    2.667 
#    3.000    0.000    0.000    0.000    0.000    0.000 
#    0.000    0.000    0.000    0.000    0.000    0.000 
#
# Total GULP energy -297486.178582 kJ/mol
# GULP energy per Si atom -12395.257441 kJ/mol
# Density = 2.117616 g / cm^3
# Si number density = 21.224464 Si / 1000 Ang^3
#
#
#
# Elastic Constant Matrix: (Units=GPa)
#
#
# Indices 1 2 3 4 5 6 
#
# 1 87.0235 22.3205 53.4606 0.0000 20.7592 0.0000
# 2 22.3205 134.5488 12.8498 0.0000 7.2958 0.0000
# 3 53.4606 12.8498 99.8968 0.0001 4.2399 0.0000
# 4 0.0000 0.0000 0.0001 27.7297 0.0000 3.4770
# 5 20.7592 7.2958 4.2399 0.0000 44.7757 0.0000
# 6 0.0000 0.0000 0.0000 3.4770 0.0000 34.5263
#
#
#
# Elastic Compliance Matrix: (Units=1/GPa)
#
#
# Indices 1 2 3 4 5 6 
#
# 1 0.020188 -0.001936 -0.010212 0.000000 -0.008077 0.000000
# 2 -0.001936 0.007769 0.000052 0.000000 -0.000373 0.000000
# 3 -0.010212 0.000052 0.015330 0.000000 0.003274 0.000000
# 4 0.000000 0.000000 0.000000 0.036524 0.000000 -0.003678
# 5 -0.008077 -0.000373 0.003274 0.000000 0.025829 0.000000
# 6 0.000000 0.000000 0.000000 -0.003678 0.000000 0.029334
#
#
# Mechanical properties :
#
#
# Convention : Reuss Voigt Hill
#
# Bulk Modulus (GPa) = 52.36763 55.41454 53.89109
# Shear Modulus (GPa) = 30.20640 36.92891 33.56766
#
# Velocity S-wave (km/s) = 3.77661 4.17576 3.98119
# Velocity P-wave (km/s) = 6.61391 7.02957 6.82490
#
# Compressibility (1/GPa) = 0.01909576
#
# Stress axis : x y z
#
# Youngs Moduli (GPa) = 49.53489 128.72333 65.23350
#
# Poissons Ratio (x) = 0.24918 0.66615
# Poissons Ratio (y) = 0.09589 -0.00342
# Poissons Ratio (z) = 0.50584 -0.00676
#
# Static dielectric constant tensor:
#      x y z
#    x 2.949480 0.000000 0.365090 
#    y 0.000000 3.262750 0.000000 
#    z 0.365090 0.000000 3.533190 
# 
# 
# High freq. dielectric constant tensor:
#      x y z
#    x 1.819240 0.000000 0.004940 
#    y 0.000000 1.852230 0.000000 
#    z 0.004940 0.000000 1.823690 
# 
# From -- ./inp_files/361115.got.cif
#   From: 2010.06.25/outbox.cif.g09.slc.cpg/sg12_181_cif.got.tgz:361115.got - 2010.06.28 00:19:55.
