data_PCOD8110247
_publ_section_title
;
Structure prediction by ZEFSAII (Michael W. Deem and Ramdas Pophale) SiO2 
 PCOD8110247
Probable space group: C 2/M
;
_chemical_formula_sum "Si O2"
_cell_formula_units_Z 48
_cell_length_a 15.384623
_cell_length_b 9.157786
_cell_length_c 28.063016
_cell_angle_alpha 90.000000
_cell_angle_beta 37.811609
_cell_angle_gamma 90.000000
_cell_volume 2423.928085
_symmetry_space_group_name_H-M "C 2/M"
_symmetry_group_IT_number 12
_symmetry_cell_setting 'monoclinic'
loop_
_space_group_symop_operation_xyz
x,y,z
-x,y,-z
-x,-y,-z
x,-y,z
1/2+x,1/2+y,z
1/2-x,1/2+y,-z
1/2-x,1/2-y,-z
1/2+x,1/2-y,z
loop_
_atom_site_type_symbol
_atom_site_label
_atom_site_fract_x
_atom_site_fract_y
_atom_site_fract_z
Si Si1 0.588005 0.663036 0.670071
Si Si2 0.917945 0.670614 0.819631
Si Si3 0.370971 0.171435 0.192099
Si Si4 0.862753 0.673357 0.088502
Si Si5 0.840634 0.669279 0.500100
Si Si6 0.578995 0.333635 0.356197
O O1 0.563689 0.500000 0.701491
O O2 0.533462 0.782735 0.730501
O O3 0.756123 0.688553 0.586767
O O4 0.501349 0.678608 0.658998
O O5 0.887267 0.500000 0.826706
O O6 0.773461 0.758933 0.877894
O O7 0.983735 0.706605 0.843093
O O8 0.377870 0.236016 0.135673
O O9 0.236108 0.233868 0.279916
O O10 0.345464 0.000000 0.198546
O O11 0.845570 0.500000 0.095182
O O12 0.000000 0.724381 0.000000
O O13 0.853050 0.500000 0.481125
O O14 0.750000 0.750000 0.500000
O O15 0.997915 0.739859 0.432139
O O16 0.584846 0.500000 0.371782
#
# Coordination Sequence:
#
# PCOD8110247 Si02
#       6
#     8   8   8   8   8   8
#     4   9  17  32  53  75 107 151 190 227 271 327
#     4  11  22  35  57  86 116 145 180 232 279 322
#     4   9  19  37  57  82 115 149 182 222 279 333
#     4  10  21  41  66  84 107 148 186 217 270 344
#     4   9  17  28  46  75 108 143 186 233 275 319
#     4   9  16  31  54  74 104 148 188 229 270 322
#
# _framework density 19.802568000000001
#
# number of rings (size 3 to 8) (size 9 to 14) (size 15 to 20)
#    0.000    2.500    1.667    2.000    0.000    4.333 
#    0.000    4.167    0.000    5.000    0.000    0.000 
#    0.000    0.000    0.000    0.000    0.000    0.000 
#
# Total GULP energy -297489.281685 kJ/mol
# GULP energy per Si atom -12395.386737 kJ/mol
# Density = 1.975750 g / cm^3
# Si number density = 19.802568 Si / 1000 Ang^3
#
#
#
# Elastic Constant Matrix: (Units=GPa)
#
#
# Indices 1 2 3 4 5 6 
#
# 1 82.4159 24.8757 56.0630 0.0000 -17.5512 -0.0002
# 2 24.8757 63.5277 47.8293 -0.0001 -6.8587 -0.0004
# 3 56.0630 47.8293 156.1452 0.0000 -22.9683 0.0000
# 4 0.0000 -0.0001 0.0000 29.1552 0.0000 -6.5276
# 5 -17.5512 -6.8587 -22.9683 0.0000 11.0247 0.0000
# 6 -0.0002 -0.0004 0.0000 -6.5276 0.0000 21.5187
#
#
#
# Elastic Compliance Matrix: (Units=1/GPa)
#
#
# Indices 1 2 3 4 5 6 
#
# 1 0.020128 -0.003261 -0.002614 0.000000 0.024570 0.000000
# 2 -0.003261 0.020990 -0.005914 0.000000 -0.004454 0.000000
# 3 -0.002614 -0.005914 0.011536 0.000000 0.016194 0.000000
# 4 0.000000 0.000000 0.000000 0.036798 0.000000 0.011163
# 5 0.024570 -0.004454 0.016194 0.000000 0.160786 0.000000
# 6 0.000000 0.000000 0.000000 0.011163 0.000000 0.049857
#
#
# Mechanical properties :
#
#
# Convention : Reuss Voigt Hill
#
# Bulk Modulus (GPa) = 34.39163 62.18053 48.28608
# Shear Modulus (GPa) = 14.99855 23.89444 19.44649
#
# Velocity S-wave (km/s) = 2.75508 3.47743 3.13712
# Velocity P-wave (km/s) = 5.24649 6.89868 6.12851
#
# Compressibility (1/GPa) = 0.02907684
#
# Stress axis : x y z
#
# Youngs Moduli (GPa) = 49.68123 47.64266 86.68318
#
# Poissons Ratio (x) = 0.15536 0.22659
# Poissons Ratio (y) = 0.16201 0.51261
# Poissons Ratio (z) = 0.12987 0.28174
#
# Static dielectric constant tensor:
#      x y z
#    x 3.407730 0.000000 -0.129460 
#    y 0.000000 3.512200 0.000000 
#    z -0.129460 0.000000 4.133940 
# 
# 
# High freq. dielectric constant tensor:
#      x y z
#    x 1.753320 0.000000 -0.011870 
#    y 0.000000 1.751580 0.000000 
#    z -0.011870 0.000000 1.779710 
# 
# From -- ./inp_files/360235.got.cif
#   From: 2010.06.25/outbox.cif.g09.slc.cpg/sg12_181_cif.got.tgz:360235.got - 2010.06.28 00:19:55.
