data_PCOD8110620
_publ_section_title
;
Structure prediction by ZEFSAII (Michael W. Deem and Ramdas Pophale) SiO2 
 PCOD8110620
Probable space group: C 2/M
;
_chemical_formula_sum "Si O2"
_cell_formula_units_Z 64
_cell_length_a 16.598355
_cell_length_b 29.093673
_cell_length_c 11.063768
_cell_angle_alpha 90.000000
_cell_angle_beta 149.543977
_cell_angle_gamma 90.000000
_cell_volume 2708.127711
_symmetry_space_group_name_H-M "C 2/M"
_symmetry_group_IT_number 12
_symmetry_cell_setting 'monoclinic'
loop_
_space_group_symop_operation_xyz
x,y,z
-x,y,-z
-x,-y,-z
x,-y,z
1/2+x,1/2+y,z
1/2-x,1/2+y,-z
1/2-x,1/2-y,-z
1/2+x,1/2-y,z
loop_
_atom_site_type_symbol
_atom_site_label
_atom_site_fract_x
_atom_site_fract_y
_atom_site_fract_z
Si Si1 0.995500 0.251299 0.631298
Si Si2 0.268416 0.606409 0.555942
Si Si3 0.274487 0.319716 0.968351
Si Si4 0.184919 0.447955 0.219138
Si Si5 0.860886 0.093844 0.233456
Si Si6 0.451370 0.450120 0.112515
Si Si7 0.684422 0.304609 0.246967
Si Si8 0.618330 0.948338 0.555420
O O1 0.066254 0.210965 0.805889
O O2 0.000000 0.233470 0.500000
O O3 0.811805 0.262909 0.430000
O O4 0.111508 0.295060 0.797183
O O5 0.254435 0.591387 0.398221
O O6 0.438105 0.585786 0.815693
O O7 0.283056 0.660848 0.598896
O O8 0.123760 0.583700 0.444144
O O9 0.280477 0.365375 0.054324
O O10 0.271453 0.330881 0.821238
O O11 0.250201 0.500000 0.328113
O O12 0.226427 0.432345 0.136818
O O13 0.000000 0.448035 0.000000
O O14 0.937918 0.058397 0.238994
O O15 0.000000 0.112853 0.500000
O O16 0.531312 0.500000 0.199104
O O17 0.283589 0.448840 0.834856
O O18 0.500000 0.287048 0.000000
O O19 0.500000 0.926172 0.500000
O O20 0.563771 0.000000 0.447545
#
# Coordination Sequence:
#
# PCOD8110620 Si02
#       8
#     8   8   8   8   8   8   8   8
#     4   9  21  44  71  99 133 175 217 274 350 425
#     4  12  23  41  64  91 135 181 224 279 337 403
#     4  10  22  43  72  99 132 174 224 279 346 410
#     4  11  27  45  64  95 140 190 232 285 347 401
#     4  12  24  40  67  98 128 175 232 289 331 414
#     4  11  23  40  62  89 126 174 226 280 337 399
#     4  11  24  40  68 104 139 174 224 281 344 412
#     4  10  22  36  57  87 120 166 222 281 338 394
#
# _framework density 23.632563999999999
#
# number of rings (size 3 to 8) (size 9 to 14) (size 15 to 20)
#    0.000    1.250    1.250    4.500    3.500    3.500 
#    0.000    0.000    2.750    0.000    0.000    0.000 
#    0.000    0.000    0.000    0.000    0.000    0.000 
#
# Total GULP energy -396696.003597 kJ/mol
# GULP energy per Si atom -12396.750112 kJ/mol
# Density = 2.357878 g / cm^3
# Si number density = 23.632564 Si / 1000 Ang^3
#
#
#
# Elastic Constant Matrix: (Units=GPa)
#
#
# Indices 1 2 3 4 5 6 
#
# 1 114.3498 24.5581 11.2516 0.0000 13.6019 0.0000
# 2 24.5581 71.2406 24.7910 0.0000 2.5717 0.0000
# 3 11.2516 24.7910 74.7894 0.0000 8.7499 0.0000
# 4 0.0000 0.0000 0.0000 101.0799 0.0000 0.8543
# 5 13.6019 2.5717 8.7499 0.0000 46.2785 0.0000
# 6 0.0000 0.0000 0.0000 0.8543 0.0000 31.1413
#
#
#
# Elastic Compliance Matrix: (Units=1/GPa)
#
#
# Indices 1 2 3 4 5 6 
#
# 1 0.009768 -0.003242 -0.000082 0.000000 -0.002675 0.000000
# 2 -0.003242 0.016944 -0.005246 0.000000 0.001003 0.000000
# 3 -0.000082 -0.005246 0.015426 0.000000 -0.002601 0.000000
# 4 0.000000 0.000000 0.000000 0.009895 0.000000 -0.000271
# 5 -0.002675 0.001003 -0.002601 0.000000 0.022831 0.000000
# 6 0.000000 0.000000 0.000000 -0.000271 0.000000 0.032119
#
#
# Mechanical properties :
#
#
# Convention : Reuss Voigt Hill
#
# Bulk Modulus (GPa) = 40.00320 42.39789 41.20054
# Shear Modulus (GPa) = 37.74836 49.01853 43.38345
#
# Velocity S-wave (km/s) = 4.00096 4.55927 4.28921
# Velocity P-wave (km/s) = 6.18931 6.75983 6.48085
#
# Compressibility (1/GPa) = 0.02499800
#
# Stress axis : x y z
#
# Youngs Moduli (GPa) = 102.37886 59.01813 64.82359
#
# Poissons Ratio (x) = 0.19134 0.00530
# Poissons Ratio (y) = 0.33192 0.34007
# Poissons Ratio (z) = 0.00838 0.30962
#
# Static dielectric constant tensor:
#      x y z
#    x 4.718870 0.000000 0.045890 
#    y 0.000000 4.106000 0.000000 
#    z 0.045890 0.000000 4.372020 
# 
# 
# High freq. dielectric constant tensor:
#      x y z
#    x 1.946320 0.000000 0.005150 
#    y 0.000000 1.911460 0.000000 
#    z 0.005150 0.000000 1.943000 
# 
# From -- ./inp_files/161219.got.cif
#   From: 2010.06.25/outbox.cif.g09.slc.cpg/sg12_81_cif.got.tgz:161219.got - 2010.06.28 00:19:55.
