data_PCOD8110875
_publ_section_title
;
Structure prediction by ZEFSAII (Michael W. Deem and Ramdas Pophale) SiO2 
 PCOD8110875
Probable space group: C 2/M
;
_chemical_formula_sum "Si O2"
_cell_formula_units_Z 64
_cell_length_a 14.000425
_cell_length_b 24.006534
_cell_length_c 11.415660
_cell_angle_alpha 90.000000
_cell_angle_beta 49.280011
_cell_angle_gamma 90.000000
_cell_volume 2907.953817
_symmetry_space_group_name_H-M "C 2/M"
_symmetry_group_IT_number 12
_symmetry_cell_setting 'monoclinic'
loop_
_space_group_symop_operation_xyz
x,y,z
-x,y,-z
-x,-y,-z
x,-y,z
1/2+x,1/2+y,z
1/2-x,1/2+y,-z
1/2-x,1/2-y,-z
1/2+x,1/2-y,z
loop_
_atom_site_type_symbol
_atom_site_label
_atom_site_fract_x
_atom_site_fract_y
_atom_site_fract_z
Si Si1 0.190962 0.259852 0.422085
Si Si2 0.776047 0.618570 0.558389
Si Si3 0.513172 0.937992 0.291888
Si Si4 0.715622 0.437367 0.826943
Si Si5 0.871743 0.235584 0.059001
Si Si6 0.439418 0.348018 0.433945
Si Si7 0.156897 0.862324 0.079050
Si Si8 0.416689 0.142516 0.960407
O O1 0.250000 0.250000 0.500000
O O2 0.154038 0.324995 0.452630
O O3 0.282554 0.247376 0.238663
O O4 0.076387 0.216080 0.509474
O O5 0.880337 0.570375 0.463058
O O6 0.682387 0.598106 0.737278
O O7 0.694166 0.626623 0.503853
O O8 0.632883 0.934290 0.280976
O O9 0.516837 0.885643 0.202600
O O10 0.512280 0.000000 0.234035
O O11 0.666442 0.500000 0.852015
O O12 0.643323 0.412547 0.997647
O O13 0.803496 0.193899 0.023282
O O14 0.919753 0.290594 0.952260
O O15 0.000000 0.205103 0.000000
O O16 0.500000 0.379411 0.500000
O O17 0.530188 0.351939 0.250506
O O18 0.269712 0.876309 0.080404
O O19 0.500000 0.119379 0.000000
#
# Coordination Sequence:
#
# PCOD8110875 Si02
#       8
#     8   8   8   8   8   8   8   8
#     4  10  22  38  59  96 133 175 213 257 322 396
#     4  11  22  40  68  96 133 170 219 269 333 394
#     4  10  23  41  66  97 127 164 218 280 336 383
#     4  10  22  44  70  98 125 164 222 288 338 380
#     4  11  21  37  65  98 134 169 215 265 324 387
#     4  11  26  40  63  92 142 183 217 257 326 400
#     4  11  23  42  65  97 133 174 213 274 324 393
#     4  10  24  38  65  91 127 170 222 265 321 383
#
# _framework density 22.008600999999999
#
# number of rings (size 3 to 8) (size 9 to 14) (size 15 to 20)
#    0.000    1.500    1.250    3.375   10.500    2.250 
#    0.000    1.875    0.000    1.875    0.000    0.000 
#    0.000    0.000    0.000    0.000    0.000    0.000 
#
# Total GULP energy -396533.274212 kJ/mol
# GULP energy per Si atom -12391.664819 kJ/mol
# Density = 2.195851 g / cm^3
# Si number density = 22.008601 Si / 1000 Ang^3
#
#
#
# Elastic Constant Matrix: (Units=GPa)
#
#
# Indices 1 2 3 4 5 6 
#
# 1 81.8482 26.7732 33.8950 0.0000 12.7093 0.0000
# 2 26.7732 126.0416 42.4059 0.0000 14.2212 0.0000
# 3 33.8950 42.4059 113.2837 0.0000 0.3492 0.0000
# 4 0.0000 0.0000 0.0000 30.5375 0.0000 3.6806
# 5 12.7093 14.2212 0.3492 0.0000 29.7400 0.0000
# 6 0.0000 0.0000 0.0000 3.6806 0.0000 21.2568
#
#
#
# Elastic Compliance Matrix: (Units=1/GPa)
#
#
# Indices 1 2 3 4 5 6 
#
# 1 0.015214 -0.001193 -0.004088 0.000000 -0.005883 0.000000
# 2 -0.001193 0.009756 -0.003283 0.000000 -0.004117 0.000000
# 3 -0.004088 -0.003283 0.011269 0.000000 0.003184 0.000000
# 4 0.000000 0.000000 0.000000 0.033445 0.000000 -0.005791
# 5 -0.005883 -0.004117 0.003184 0.000000 0.038070 0.000000
# 6 0.000000 0.000000 0.000000 -0.005791 0.000000 0.048047
#
#
# Mechanical properties :
#
#
# Convention : Reuss Voigt Hill
#
# Bulk Modulus (GPa) = 52.31715 58.59129 55.45422
# Shear Modulus (GPa) = 27.88655 30.84683 29.36669
#
# Velocity S-wave (km/s) = 3.56346 3.74783 3.65681
# Velocity P-wave (km/s) = 6.38387 6.73855 6.56361
#
# Compressibility (1/GPa) = 0.01911419
#
# Stress axis : x y z
#
# Youngs Moduli (GPa) = 65.72810 102.49964 88.73630
#
# Poissons Ratio (x) = 0.12225 0.36271
# Poissons Ratio (y) = 0.07839 0.29128
# Poissons Ratio (z) = 0.26867 0.33646
#
# Static dielectric constant tensor:
#      x y z
#    x 3.458540 0.000000 0.316830 
#    y 0.000000 4.075140 0.000000 
#    z 0.316830 0.000000 3.643580 
# 
# 
# High freq. dielectric constant tensor:
#      x y z
#    x 1.873610 0.000000 0.003010 
#    y 0.000000 1.849810 0.000000 
#    z 0.003010 0.000000 1.857510 
# 
# From -- ./inp_files/149739.got.cif
#   From: 2010.06.25/outbox.cif.g09.slc.cpg/sg12_75_cif.got.tgz:149739.got - 2010.06.28 00:19:55.
