data_PCOD8110703
_publ_section_title
;
Structure prediction by ZEFSAII (Michael W. Deem and Ramdas Pophale) SiO2 
 PCOD8110703
Probable space group: C 2/M
;
_chemical_formula_sum "Si O2"
_cell_formula_units_Z 52
_cell_length_a 15.131917
_cell_length_b 26.178367
_cell_length_c 11.947890
_cell_angle_alpha 90.000000
_cell_angle_beta 30.320069
_cell_angle_gamma 90.000000
_cell_volume 2389.312118
_symmetry_space_group_name_H-M "C 2/M"
_symmetry_group_IT_number 12
_symmetry_cell_setting 'monoclinic'
loop_
_space_group_symop_operation_xyz
x,y,z
-x,y,-z
-x,-y,-z
x,-y,z
1/2+x,1/2+y,z
1/2-x,1/2+y,-z
1/2-x,1/2-y,-z
1/2+x,1/2-y,z
loop_
_atom_site_type_symbol
_atom_site_label
_atom_site_fract_x
_atom_site_fract_y
_atom_site_fract_z
Si Si1 0.301857 0.906145 0.986854
Si Si2 0.708552 0.942661 0.766786
Si Si3 0.785939 0.500000 0.606739
Si Si4 0.500000 0.240028 0.000000
Si Si5 0.779335 0.403037 0.476495
Si Si6 0.134688 0.296882 0.090572
Si Si7 0.203902 0.500000 0.153243
Si Si8 0.771675 0.294068 0.566184
O O1 0.511435 0.904862 0.755585
O O2 0.245265 0.847505 0.025450
O O3 0.228256 0.947877 0.979868
O O4 0.218759 0.920692 0.196908
O O5 0.786404 0.909899 0.579053
O O6 0.775475 0.000000 0.676776
O O7 0.500000 0.941473 0.000000
O O8 0.711151 0.449515 0.628110
O O9 0.717798 0.500000 0.808274
O O10 0.995122 0.500000 0.376867
O O11 0.444426 0.206498 0.951189
O O12 0.666632 0.276465 0.791192
O O13 0.699625 0.349560 0.606549
O O14 0.980475 0.299760 0.352464
O O15 0.250000 0.250000 0.000000
O O16 0.750000 0.250000 0.500000
#
# Coordination Sequence:
#
# PCOD8110703 Si02
#       8
#     8   8   4   4   8   8   4   8
#     4   9  17  27  46  74 110 147 181 230 286 338
#     4   9  14  22  43  74 108 138 178 230 286 338
#     4   9  16  25  41  68 103 145 183 229 277 335
#     4  10  22  40  60  78 114 158 194 244 290 340
#     4   9  16  27  46  75 105 142 187 231 284 339
#     4  10  22  37  57  87 118 150 196 240 291 349
#     4   9  16  27  39  65 109 148 181 219 279 341
#     4   9  20  36  56  83 114 151 195 237 290 343
#
# _framework density 21.763586
#
# number of rings (size 3 to 8) (size 9 to 14) (size 15 to 20)
#    0.000    2.769    1.538    0.000    7.538    1.846 
#    0.000    3.077    0.000    0.462    0.000    4.308 
#    0.000    6.154    0.000    0.000    0.000    0.000 
#
# Total GULP energy -322138.190119 kJ/mol
# GULP energy per Si atom -12389.930389 kJ/mol
# Density = 2.171405 g / cm^3
# Si number density = 21.763586 Si / 1000 Ang^3
#
#
#
# Elastic Constant Matrix: (Units=GPa)
#
#
# Indices 1 2 3 4 5 6 
#
# 1 62.3217 38.5324 26.0547 -0.0032 26.6408 0.0033
# 2 38.5324 203.6174 42.1300 0.0000 25.3747 -0.0002
# 3 26.0547 42.1300 78.2908 -0.0045 28.7314 0.0043
# 4 -0.0032 0.0000 -0.0045 24.4415 0.0033 9.4013
# 5 26.6408 25.3747 28.7314 0.0033 29.3391 -0.0034
# 6 0.0033 -0.0002 0.0043 9.4013 -0.0034 27.6369
#
#
#
# Elastic Compliance Matrix: (Units=1/GPa)
#
#
# Indices 1 2 3 4 5 6 
#
# 1 0.027201 -0.002400 0.000845 0.000011 -0.023452 -0.000010
# 2 -0.002400 0.005903 -0.002035 -0.000001 -0.000933 0.000001
# 3 0.000845 -0.002035 0.020640 0.000010 -0.019220 -0.000009
# 4 0.000011 -0.000001 0.000010 0.047073 -0.000026 -0.016013
# 5 -0.023452 -0.000933 -0.019220 -0.000026 0.075008 0.000024
# 6 -0.000010 0.000001 -0.000009 -0.016013 0.000024 0.041631
#
#
# Mechanical properties :
#
#
# Convention : Reuss Voigt Hill
#
# Bulk Modulus (GPa) = 21.47568 61.96268 41.71918
# Shear Modulus (GPa) = 20.81974 32.11771 26.46873
#
# Velocity S-wave (km/s) = 3.09630 3.84572 3.49118
# Velocity P-wave (km/s) = 4.76150 6.94637 5.95500
#
# Compressibility (1/GPa) = 0.04656430
#
# Stress axis : x y z
#
# Youngs Moduli (GPa) = 36.76319 169.41406 48.44914
#
# Poissons Ratio (x) = 0.40658 -0.04096
# Poissons Ratio (y) = 0.08823 0.09861
# Poissons Ratio (z) = -0.03108 0.34483
#
# Static dielectric constant tensor:
#      x y z
#    x 3.571160 0.000000 0.363870 
#    y 0.000000 4.323890 -0.000030 
#    z 0.363870 -0.000030 4.112300 
# 
# 
# High freq. dielectric constant tensor:
#      x y z
#    x 1.812380 0.000000 0.025180 
#    y 0.000000 1.872700 0.000000 
#    z 0.025180 0.000000 1.838200 
# 
# From -- ./inp_files/160808.got.cif
#   From: 2010.06.25/outbox.cif.g09.slc.cpg/sg12_81_cif.got.tgz:160808.got - 2010.06.28 00:19:55.
