data_PCOD8110256
_publ_section_title
;
Structure prediction by ZEFSAII (Michael W. Deem and Ramdas Pophale) SiO2 
 PCOD8110256
Probable space group: C 2/M
;
_chemical_formula_sum "Si O2"
_cell_formula_units_Z 32
_cell_length_a 11.824922
_cell_length_b 17.679555
_cell_length_c 8.782703
_cell_angle_alpha 90.000000
_cell_angle_beta 124.208799
_cell_angle_gamma 90.000000
_cell_volume 1518.449308
_symmetry_space_group_name_H-M "C 2/M"
_symmetry_group_IT_number 12
_symmetry_cell_setting 'monoclinic'
loop_
_space_group_symop_operation_xyz
x,y,z
-x,y,-z
-x,-y,-z
x,-y,z
1/2+x,1/2+y,z
1/2-x,1/2+y,-z
1/2-x,1/2-y,-z
1/2+x,1/2-y,z
loop_
_atom_site_type_symbol
_atom_site_label
_atom_site_fract_x
_atom_site_fract_y
_atom_site_fract_z
Si Si1 0.418028 0.586953 0.580003
Si Si2 0.873829 0.413261 0.554192
Si Si3 0.928702 0.191459 0.097494
Si Si4 0.635508 0.161898 0.773768
O O1 0.500000 0.621590 0.500000
O O2 0.456229 0.500000 0.630611
O O3 0.255208 0.598753 0.431800
O O4 0.465016 0.628537 0.767638
O O5 0.876280 0.500000 0.496348
O O6 0.858730 0.354132 0.402832
O O7 0.015973 0.393823 0.749608
O O8 0.908668 0.253078 0.215203
O O9 0.785002 0.148451 0.957538
O O10 0.000000 0.227008 0.000000
#
# Coordination Sequence:
#
# PCOD8110256 Si02
#       4
#     8   8   8   8
#     4  10  23  41  63  91 122 162 209 254 303 362
#     4  10  21  41  66  92 122 163 209 251 307 364
#     4  11  23  40  59  92 129 163 202 248 310 369
#     4  10  22  37  61  93 123 157 204 253 301 367
#
# _framework density 21.074131999999999
#
# number of rings (size 3 to 8) (size 9 to 14) (size 15 to 20)
#    0.000    1.750    2.500    1.500    3.500    7.500 
#    0.000    0.000    0.000    7.500    0.000    0.000 
#    0.000    0.000    0.000    0.000    0.000    0.000 
#
# Total GULP energy -198240.971149 kJ/mol
# GULP energy per Si atom -12390.060697 kJ/mol
# Density = 2.102617 g / cm^3
# Si number density = 21.074132 Si / 1000 Ang^3
#
#
#
# Elastic Constant Matrix: (Units=GPa)
#
#
# Indices 1 2 3 4 5 6 
#
# 1 167.0786 47.4838 48.8990 0.0000 25.8312 0.0000
# 2 47.4838 74.1143 47.5025 0.0000 2.1282 0.0000
# 3 48.8990 47.5025 72.1794 0.0000 22.2461 0.0000
# 4 0.0000 0.0000 0.0000 25.6680 0.0000 6.8090
# 5 25.8312 2.1282 22.2461 0.0000 42.1926 0.0000
# 6 0.0000 0.0000 0.0000 6.8090 0.0000 29.3212
#
#
#
# Elastic Compliance Matrix: (Units=1/GPa)
#
#
# Indices 1 2 3 4 5 6 
#
# 1 0.008253 -0.004105 -0.001667 0.000000 -0.003967 0.000000
# 2 -0.004105 0.028069 -0.019140 0.000000 0.011189 0.000000
# 3 -0.001667 -0.019140 0.032201 0.000000 -0.014992 0.000000
# 4 0.000000 0.000000 0.000000 0.041517 0.000000 -0.009641
# 5 -0.003967 0.011189 -0.014992 0.000000 0.033470 0.000000
# 6 0.000000 0.000000 0.000000 -0.009641 0.000000 0.036344
#
#
# Mechanical properties :
#
#
# Convention : Reuss Voigt Hill
#
# Bulk Modulus (GPa) = 53.48082 66.79367 60.13724
# Shear Modulus (GPa) = 21.19447 30.73550 25.96498
#
# Velocity S-wave (km/s) = 3.17473 3.82310 3.51391
# Velocity P-wave (km/s) = 6.23467 7.15902 6.71278
#
# Compressibility (1/GPa) = 0.01869829
#
# Stress axis : x y z
#
# Youngs Moduli (GPa) = 121.16706 35.62602 31.05527
#
# Poissons Ratio (x) = 0.14626 0.05176
# Poissons Ratio (y) = 0.49745 0.59441
# Poissons Ratio (z) = 0.20195 0.68189
#
# Static dielectric constant tensor:
#      x y z
#    x 4.291980 0.000000 0.384840 
#    y 0.000000 3.619270 0.000000 
#    z 0.384840 0.000000 3.717540 
# 
# 
# High freq. dielectric constant tensor:
#      x y z
#    x 1.852480 0.000000 0.027920 
#    y 0.000000 1.812800 0.000000 
#    z 0.027920 0.000000 1.799180 
# 
# From -- ./inp_files/46443.got.cif
#   From: 2010.06.25/outbox.cif.g09.slc.cpg/sg12_24_cif.got.tgz:46443.got - 2010.06.28 00:19:55.
