data_PCOD8110443
_publ_section_title
;
Structure prediction by ZEFSAII (Michael W. Deem and Ramdas Pophale) SiO2 
 PCOD8110443
Probable space group: C 2/M
;
_chemical_formula_sum "Si O2"
_cell_formula_units_Z 64
_cell_length_a 11.748370
_cell_length_b 22.379602
_cell_length_c 11.929339
_cell_angle_alpha 90.000000
_cell_angle_beta 70.417642
_cell_angle_gamma 90.000000
_cell_volume 2955.094259
_symmetry_space_group_name_H-M "C 2/M"
_symmetry_group_IT_number 12
_symmetry_cell_setting 'monoclinic'
loop_
_space_group_symop_operation_xyz
x,y,z
-x,y,-z
-x,-y,-z
x,-y,z
1/2+x,1/2+y,z
1/2-x,1/2+y,-z
1/2-x,1/2-y,-z
1/2+x,1/2-y,z
loop_
_atom_site_type_symbol
_atom_site_label
_atom_site_fract_x
_atom_site_fract_y
_atom_site_fract_z
Si Si1 0.894527 0.327428 0.612649
Si Si2 0.667882 0.666381 0.542520
Si Si3 0.976558 0.568453 0.719411
Si Si4 0.002857 0.243977 0.736024
Si Si5 0.683600 0.156911 0.726235
Si Si6 0.636043 0.634987 0.139208
Si Si7 0.225742 0.068036 0.897928
Si Si8 0.088941 0.068322 0.718074
O O1 0.773511 0.311927 0.589204
O O2 0.000000 0.303276 0.500000
O O3 0.919497 0.397561 0.630609
O O4 0.899236 0.289192 0.726230
O O5 0.556620 0.709737 0.608801
O O6 0.709608 0.667514 0.400090
O O7 0.632764 0.599428 0.589419
O O8 0.007893 0.500000 0.676849
O O9 0.098387 0.601498 0.719131
O O10 0.871749 0.569772 0.848686
O O11 0.105114 0.282737 0.765654
O O12 0.941296 0.196639 0.840954
O O13 0.745873 0.141980 0.822860
O O14 0.551269 0.582499 0.214069
O O15 0.678580 0.615954 0.002403
O O16 0.170228 0.089130 0.797292
O O17 0.182223 0.000000 0.939635
O O18 0.107570 0.000000 0.687542
#
# Coordination Sequence:
#
# PCOD8110443 Si02
#       8
#     8   8   8   8   8   8   8   8
#     4  11  20  36  61  90 121 161 207 251 301 361
#     4  11  21  36  62  91 123 161 200 255 305 367
#     4  10  22  39  63  93 123 158 205 257 306 366
#     4  10  23  37  61  88 121 164 212 250 301 363
#     4  11  24  40  59  95 130 163 200 244 317 378
#     4  11  24  40  64  89 124 165 209 257 303 366
#     4  10  21  42  70  90 115 161 216 260 300 356
#     4  10  22  40  66  95 121 158 212 258 303 361
#
# _framework density 21.657516999999999
#
# number of rings (size 3 to 8) (size 9 to 14) (size 15 to 20)
#    0.000    1.500    3.750    1.875    1.750    4.750 
#    0.000    4.375   11.000    0.000    0.000    0.000 
#    0.000    0.000    0.000    0.000    0.000    0.000 
#
# Total GULP energy -396690.127490 kJ/mol
# GULP energy per Si atom -12396.566484 kJ/mol
# Density = 2.160822 g / cm^3
# Si number density = 21.657517 Si / 1000 Ang^3
#
#
#
# Elastic Constant Matrix: (Units=GPa)
#
#
# Indices 1 2 3 4 5 6 
#
# 1 62.6653 8.4402 2.0356 0.0000 0.8087 0.0000
# 2 8.4402 101.3260 31.0718 0.0000 5.8223 0.0000
# 3 2.0356 31.0718 57.9077 0.0000 -4.7361 0.0000
# 4 0.0000 0.0000 0.0000 47.3147 0.0000 -4.0692
# 5 0.8087 5.8223 -4.7361 0.0000 25.3906 0.0000
# 6 0.0000 0.0000 0.0000 -4.0692 0.0000 23.7118
#
#
#
# Elastic Compliance Matrix: (Units=1/GPa)
#
#
# Indices 1 2 3 4 5 6 
#
# 1 0.016141 -0.001385 0.000162 0.000000 -0.000166 0.000000
# 2 -0.001385 0.012335 -0.006903 0.000000 -0.004072 0.000000
# 3 0.000162 -0.006903 0.021423 0.000000 0.005574 0.000000
# 4 0.000000 0.000000 0.000000 0.021452 0.000000 0.003681
# 5 -0.000166 -0.004072 0.005574 0.000000 0.041364 0.000000
# 6 0.000000 0.000000 0.000000 0.003681 0.000000 0.042805
#
#
# Mechanical properties :
#
#
# Convention : Reuss Voigt Hill
#
# Bulk Modulus (GPa) = 29.71956 33.88824 31.80390
# Shear Modulus (GPa) = 27.32427 31.30684 29.31556
#
# Velocity S-wave (km/s) = 3.55583 3.80615 3.68312
# Velocity P-wave (km/s) = 5.53271 5.91583 5.72747
#
# Compressibility (1/GPa) = 0.03364788
#
# Stress axis : x y z
#
# Youngs Moduli (GPa) = 61.95339 81.06783 46.67846
#
# Poissons Ratio (x) = 0.11225 -0.00756
# Poissons Ratio (y) = 0.08578 0.32223
# Poissons Ratio (z) = -0.01003 0.55963
#
# Static dielectric constant tensor:
#      x y z
#    x 3.483640 0.000000 0.277160 
#    y 0.000000 4.061660 0.000000 
#    z 0.277160 0.000000 3.207090 
# 
# 
# High freq. dielectric constant tensor:
#      x y z
#    x 1.856530 0.000000 -0.014540 
#    y 0.000000 1.864210 0.000000 
#    z -0.014540 0.000000 1.818800 
# 
# From -- ./inp_files/135941.got.cif
#   From: 2010.06.25/outbox.cif.g09.slc.cpg/sg12_68_cif.got.tgz:135941.got - 2010.06.28 00:19:55.
