data_PCOD8110794
_publ_section_title
;
Structure prediction by ZEFSAII (Michael W. Deem and Ramdas Pophale) SiO2 
 PCOD8110794
Probable space group: C 2/M
;
_chemical_formula_sum "Si O2"
_cell_formula_units_Z 56
_cell_length_a 20.045606
_cell_length_b 17.526603
_cell_length_c 9.715197
_cell_angle_alpha 90.000000
_cell_angle_beta 57.002035
_cell_angle_gamma 90.000000
_cell_volume 2862.661320
_symmetry_space_group_name_H-M "C 2/M"
_symmetry_group_IT_number 12
_symmetry_cell_setting 'monoclinic'
loop_
_space_group_symop_operation_xyz
x,y,z
-x,y,-z
-x,-y,-z
x,-y,z
1/2+x,1/2+y,z
1/2-x,1/2+y,-z
1/2-x,1/2-y,-z
1/2+x,1/2-y,z
loop_
_atom_site_type_symbol
_atom_site_label
_atom_site_fract_x
_atom_site_fract_y
_atom_site_fract_z
Si Si1 0.000851 0.865363 0.837392
Si Si2 0.684536 0.316108 0.342765
Si Si3 0.262704 0.153778 0.761697
Si Si4 0.322362 0.412176 0.404702
Si Si5 0.425407 0.082785 0.487498
Si Si6 0.843710 0.086366 0.888009
Si Si7 0.964774 0.736353 0.386276
O O1 0.081650 0.905855 0.696955
O O2 0.984579 0.782994 0.782510
O O3 0.926964 0.917608 0.876105
O O4 0.000000 0.851978 0.000000
O O5 0.739986 0.246667 0.228318
O O6 0.722010 0.375720 0.411020
O O7 0.647625 0.363494 0.258798
O O8 0.619046 0.277454 0.512578
O O9 0.209006 0.129545 0.694716
O O10 0.350993 0.118073 0.655276
O O11 0.225798 0.122658 0.943221
O O12 0.297477 0.500000 0.426333
O O13 0.500000 0.067898 0.500000
O O14 0.451874 0.148498 0.348598
O O15 0.402725 0.000000 0.445988
O O16 0.820126 0.000000 0.875294
O O17 0.000000 0.735642 0.500000
#
# Coordination Sequence:
#
# PCOD8110794 Si02
#       7
#     8   8   8   8   8   8   8
#     4  11  22  36  56  85 123 157 190 226 279 342
#     4  10  22  38  56  82 116 155 192 235 285 336
#     4  11  22  38  60  83 115 153 195 235 287 349
#     4  11  22  37  59  88 120 153 193 234 281 342
#     4   9  18  34  59  84 106 139 193 251 291 326
#     4  12  23  37  59  87 120 154 191 236 286 340
#     4   9  17  34  56  79 109 148 191 231 273 337
#
# _framework density 19.562214999999998
#
# number of rings (size 3 to 8) (size 9 to 14) (size 15 to 20)
#    0.000    1.571    2.857    3.000    0.000    0.571 
#    0.000    2.143    0.000    0.429    0.000    0.000 
#    0.000    0.000    0.000    0.000    0.000    0.000 
#
# Total GULP energy -346938.696075 kJ/mol
# GULP energy per Si atom -12390.667717 kJ/mol
# Density = 1.951769 g / cm^3
# Si number density = 19.562215 Si / 1000 Ang^3
#
#
#
# Elastic Constant Matrix: (Units=GPa)
#
#
# Indices 1 2 3 4 5 6 
#
# 1 54.9077 21.5155 12.3053 0.0000 -2.8007 0.0000
# 2 21.5155 160.2350 47.4516 0.0000 14.2601 0.0000
# 3 12.3053 47.4516 48.6582 0.0000 11.1869 0.0000
# 4 0.0000 0.0000 0.0000 -15.3258 0.0000 -69.7001
# 5 -2.8007 14.2601 11.1869 0.0000 33.6783 0.0000
# 6 0.0000 0.0000 0.0000 -69.7001 0.0000 -113.0431
#
#
#
# Elastic Compliance Matrix: (Units=1/GPa)
#
#
# Indices 1 2 3 4 5 6 
#
# 1 0.020050 -0.001786 -0.004207 0.000000 0.003821 0.000000
# 2 -0.001786 0.008962 -0.007992 0.000000 -0.001289 0.000000
# 3 -0.004207 -0.007992 0.031085 0.000000 -0.007292 0.000000
# 4 0.000000 0.000000 0.000000 0.036167 0.000000 -0.022300
# 5 0.003821 -0.001289 -0.007292 0.000000 0.032978 0.000000
# 6 0.000000 0.000000 0.000000 -0.022300 0.000000 0.004903
#
#
# Mechanical properties :
#
#
# Convention : Reuss Voigt Hill
#
# Bulk Modulus (GPa) = 31.12614 47.37173 39.24893
# Shear Modulus (GPa) = 28.93101 -6.76956 11.08073
#
# Velocity S-wave (km/s) = 3.84985 -1.86227 2.38257
# Velocity P-wave (km/s) = 5.97559 4.43221 5.26080
#
# Compressibility (1/GPa) = 0.03212734
#
# Stress axis : x y z
#
# Youngs Moduli (GPa) = 49.87495 111.58161 32.16944
#
# Poissons Ratio (x) = 0.19934 0.13533
# Poissons Ratio (y) = 0.08910 0.25709
# Poissons Ratio (z) = 0.20982 0.89173
#
# Static dielectric constant tensor:
#      x y z
#    x 3.469620 0.000000 -0.074630 
#    y 0.000000 4.156450 0.000000 
#    z -0.074630 0.000000 3.462890 
# 
# 
# High freq. dielectric constant tensor:
#      x y z
#    x 1.754290 0.000000 -0.001870 
#    y 0.000000 1.786680 0.000000 
#    z -0.001870 0.000000 1.732980 
# 
# From -- ./inp_files/75995.got.cif
#   From: 2010.06.25/outbox.cif.g09.slc.cpg/sg12_38_cif.got.tgz:75995.got - 2010.06.28 00:19:55.
