data_PCOD8110829
_publ_section_title
;
Structure prediction by ZEFSAII (Michael W. Deem and Ramdas Pophale) SiO2 
 PCOD8110829
Probable space group: C 2/M
;
_chemical_formula_sum "Si O2"
_cell_formula_units_Z 64
_cell_length_a 21.493187
_cell_length_b 27.551214
_cell_length_c 14.974615
_cell_angle_alpha 90.000000
_cell_angle_beta 22.993416
_cell_angle_gamma 90.000000
_cell_volume 3463.838578
_symmetry_space_group_name_H-M "C 2/M"
_symmetry_group_IT_number 12
_symmetry_cell_setting 'monoclinic'
loop_
_space_group_symop_operation_xyz
x,y,z
-x,y,-z
-x,-y,-z
x,-y,z
1/2+x,1/2+y,z
1/2-x,1/2+y,-z
1/2-x,1/2-y,-z
1/2+x,1/2-y,z
loop_
_atom_site_type_symbol
_atom_site_label
_atom_site_fract_x
_atom_site_fract_y
_atom_site_fract_z
Si Si1 0.152635 0.702117 0.119751
Si Si2 0.093718 0.445184 0.622348
Si Si3 0.750935 0.944938 0.005386
Si Si4 0.669820 0.129060 0.251893
Si Si5 0.169938 0.126968 0.238094
Si Si6 0.986762 0.622873 0.914631
Si Si7 0.657088 0.203479 0.583628
Si Si8 0.183665 0.130621 0.755490
O O1 0.129694 0.676357 0.245223
O O2 0.983440 0.716391 0.299961
O O3 0.250000 0.750000 0.000000
O O4 0.258214 0.666865 0.921353
O O5 0.148052 0.500000 0.567944
O O6 0.227215 0.418727 0.388158
O O7 0.933469 0.441907 0.777176
O O8 0.070773 0.419759 0.748023
O O9 0.774533 0.912018 0.062574
O O10 0.807305 0.000000 0.949310
O O11 0.852399 0.923008 0.788654
O O12 0.500000 0.105104 0.500000
O O13 0.763062 0.147167 0.216156
O O14 0.000000 0.143629 0.500000
O O15 0.296973 0.122197 0.149542
O O16 0.075544 0.673367 0.772275
O O17 0.000000 0.611244 0.000000
O O18 0.750000 0.250000 0.500000
O O19 0.784567 0.172182 0.359793
O O20 0.000000 0.118384 0.000000
#
# Coordination Sequence:
#
# PCOD8110829 Si02
#       8
#     8   8   8   8   8   8   8   8
#     4  10  22  38  58  83 111 143 186 233 276 328
#     4   9  18  36  59  82 112 148 186 227 274 331
#     4   9  18  34  60  86 109 145 188 227 272 332
#     4  11  19  38  60  82 113 146 186 229 272 334
#     4   9  19  37  55  80 114 143 180 233 282 320
#     4   9  19  37  57  78 108 148 188 227 271 328
#     4  10  22  40  56  81 113 146 186 229 277 332
#     4  11  23  38  57  83 117 150 179 227 285 329
#
# _framework density 18.476611999999999
#
# number of rings (size 3 to 8) (size 9 to 14) (size 15 to 20)
#    0.000    2.250    2.500    1.500    1.750    3.500 
#    9.000    0.000    0.000    0.000    0.000    0.000 
#    0.000    0.000    0.000    0.000    0.000    0.000 
#
# Total GULP energy -396720.458574 kJ/mol
# GULP energy per Si atom -12397.514330 kJ/mol
# Density = 1.843456 g / cm^3
# Si number density = 18.476612 Si / 1000 Ang^3
#
#
#
# Elastic Constant Matrix: (Units=GPa)
#
#
# Indices 1 2 3 4 5 6 
#
# 1 116.6062 37.9787 35.6624 0.0063 7.3059 0.0582
# 2 37.9787 108.4357 18.4543 0.0342 -4.6688 0.0180
# 3 35.6624 18.4543 96.4389 0.1449 -6.0392 0.0636
# 4 0.0063 0.0342 0.1449 17.2149 -0.0548 -7.8725
# 5 7.3059 -4.6688 -6.0392 -0.0548 20.4953 -0.0644
# 6 0.0582 0.0180 0.0636 -7.8725 -0.0644 17.6728
#
#
#
# Elastic Compliance Matrix: (Units=1/GPa)
#
#
# Indices 1 2 3 4 5 6 
#
# 1 0.011291 -0.003553 -0.003869 -0.000003 -0.005975 -0.000043
# 2 -0.003553 0.010707 -0.000512 0.000003 0.003555 0.000017
# 3 -0.003869 -0.000512 0.012203 -0.000114 0.004858 -0.000064
# 4 -0.000003 0.000003 -0.000114 0.072953 0.000265 0.032499
# 5 -0.005975 0.003555 0.004858 0.000265 0.053164 0.000310
# 6 -0.000043 0.000017 -0.000064 0.032499 0.000310 0.071063
#
#
# Mechanical properties :
#
#
# Convention : Reuss Voigt Hill
#
# Bulk Modulus (GPa) = 54.55437 56.18573 55.37005
# Shear Modulus (GPa) = 19.73474 26.36895 23.05185
#
# Velocity S-wave (km/s) = 3.27171 3.78187 3.53600
# Velocity P-wave (km/s) = 6.62287 7.03883 6.83402
#
# Compressibility (1/GPa) = 0.01833034
#
# Stress axis : x y z
#
# Youngs Moduli (GPa) = 88.56645 93.39870 81.94967
#
# Poissons Ratio (x) = 0.33187 0.31710
# Poissons Ratio (y) = 0.31470 0.04198
# Poissons Ratio (z) = 0.34271 0.04785
#
# Static dielectric constant tensor:
#      x y z
#    x 3.392250 0.001550 0.109190 
#    y 0.001550 3.311360 -0.000460 
#    z 0.109190 -0.000460 3.291770 
# 
# 
# High freq. dielectric constant tensor:
#      x y z
#    x 1.716030 -0.000020 0.010090 
#    y -0.000020 1.711860 0.000040 
#    z 0.010090 0.000040 1.711300 
# 
# From -- ./inp_files/235969.got.cif
#   From: 2010.06.25/outbox.cif.g09.slc.cpg/sg12_118_cif.got.tgz:235969.got - 2010.06.28 00:19:55.
