data_PCOD8110253
_publ_section_title
;
Structure prediction by ZEFSAII (Michael W. Deem and Ramdas Pophale) SiO2 
 PCOD8110253
Probable space group: C 2/M
;
_chemical_formula_sum "Si O2"
_cell_formula_units_Z 48
_cell_length_a 8.803733
_cell_length_b 21.464060
_cell_length_c 12.548125
_cell_angle_alpha 90.000000
_cell_angle_beta 104.159700
_cell_angle_gamma 90.000000
_cell_volume 2299.101188
_symmetry_space_group_name_H-M "C 2/M"
_symmetry_group_IT_number 12
_symmetry_cell_setting 'monoclinic'
loop_
_space_group_symop_operation_xyz
x,y,z
-x,y,-z
-x,-y,-z
x,-y,z
1/2+x,1/2+y,z
1/2-x,1/2+y,-z
1/2-x,1/2-y,-z
1/2+x,1/2-y,z
loop_
_atom_site_type_symbol
_atom_site_label
_atom_site_fract_x
_atom_site_fract_y
_atom_site_fract_z
Si Si1 0.700386 0.622630 0.812008
Si Si2 0.854442 0.734136 0.919004
Si Si3 0.939202 0.689842 0.374038
Si Si4 0.838106 0.567813 0.033195
Si Si5 0.023809 0.572233 0.264799
Si Si6 0.082441 0.803115 0.267121
O O1 0.776035 0.691166 0.815961
O O2 0.800492 0.575487 0.756411
O O3 0.522603 0.633134 0.739164
O O4 0.713204 0.606804 0.941437
O O5 0.907328 0.794185 0.859736
O O6 0.750000 0.750000 0.000000
O O7 0.000000 0.698703 0.000000
O O8 0.009528 0.621390 0.358199
O O9 0.996325 0.742920 0.302676
O O10 0.000000 0.709014 0.500000
O O11 0.750892 0.685440 0.347828
O O12 0.760950 0.500000 0.035079
O O13 0.886308 0.593957 0.158319
O O14 0.000000 0.560720 0.000000
O O15 0.000727 0.500000 0.297126
#
# Coordination Sequence:
#
# PCOD8110253 Si02
#       6
#     8   8   8   8   8   8
#     4  11  20  34  61  90 128 162 198 237 291 383
#     4  12  21  32  53  90 129 161 189 234 295 371
#     4  12  25  44  65  86 120 160 213 274 321 366
#     4   8  16  31  55  85 118 158 196 231 279 355
#     4  10  21  41  66  91 121 167 213 252 305 366
#     4  12  24  40  60  93 126 163 204 250 322 374
#
# _framework density 20.877723
#
# number of rings (size 3 to 8) (size 9 to 14) (size 15 to 20)
#    0.000    1.167    5.000    3.500    2.333    0.333 
#    0.000    1.667    0.000    3.000    0.000    0.000 
#    0.000    0.000    0.000    0.000    0.000    0.000 
#
# Total GULP energy -297325.240451 kJ/mol
# GULP energy per Si atom -12388.551685 kJ/mol
# Density = 2.083020 g / cm^3
# Si number density = 20.877723 Si / 1000 Ang^3
#
#
#
# Elastic Constant Matrix: (Units=GPa)
#
#
# Indices 1 2 3 4 5 6 
#
# 1 101.9723 29.4076 42.5702 0.0000 23.0671 0.0000
# 2 29.4076 79.3533 19.5026 0.0000 -1.2216 0.0000
# 3 42.5702 19.5026 83.3592 0.0000 10.3831 0.0000
# 4 0.0000 0.0000 0.0000 19.5980 0.0000 -1.1089
# 5 23.0671 -1.2216 10.3831 0.0000 31.9049 0.0000
# 6 0.0000 0.0000 0.0000 -1.1089 0.0000 18.9008
#
#
#
# Elastic Compliance Matrix: (Units=1/GPa)
#
#
# Indices 1 2 3 4 5 6 
#
# 1 0.015706 -0.004556 -0.005752 0.000000 -0.009658 0.000000
# 2 -0.004556 0.014770 -0.001678 0.000000 0.004405 0.000000
# 3 -0.005752 -0.001678 0.015442 0.000000 -0.000931 0.000000
# 4 0.000000 0.000000 0.000000 0.051195 0.000000 0.003004
# 5 -0.009658 0.004405 -0.000931 0.000000 0.038798 0.000000
# 6 0.000000 0.000000 0.000000 0.003004 0.000000 0.053084
#
#
# Mechanical properties :
#
#
# Convention : Reuss Voigt Hill
#
# Bulk Modulus (GPa) = 45.56281 49.73839 47.65060
# Shear Modulus (GPa) = 22.69801 25.62771 24.16286
#
# Velocity S-wave (km/s) = 3.30083 3.50739 3.40568
# Velocity P-wave (km/s) = 6.03310 6.34648 6.19177
#
# Compressibility (1/GPa) = 0.02194773
#
# Stress axis : x y z
#
# Youngs Moduli (GPa) = 63.66792 67.70328 64.75696
#
# Poissons Ratio (x) = 0.30843 0.37250
# Poissons Ratio (y) = 0.29005 0.10865
# Poissons Ratio (z) = 0.36623 0.11360
#
# Static dielectric constant tensor:
#      x y z
#    x 3.745600 0.000000 0.042710 
#    y 0.000000 3.821710 0.000000 
#    z 0.042710 0.000000 3.582970 
# 
# 
# High freq. dielectric constant tensor:
#      x y z
#    x 1.803940 0.000000 0.007070 
#    y 0.000000 1.807080 0.000000 
#    z 0.007070 0.000000 1.793290 
# 
# From -- ./inp_files/122041.got.cif
#   From: 2010.06.25/outbox.cif.g09.slc.cpg/sg12_62_cif.got.tgz:122041.got - 2010.06.28 00:19:55.
