data_PCOD8110462
_publ_section_title
;
Structure prediction by ZEFSAII (Michael W. Deem and Ramdas Pophale) SiO2 
 PCOD8110462
Probable space group: C 2/M
;
_chemical_formula_sum "Si O2"
_cell_formula_units_Z 48
_cell_length_a 14.755647
_cell_length_b 21.381089
_cell_length_c 15.013607
_cell_angle_alpha 90.000000
_cell_angle_beta 149.114780
_cell_angle_gamma 90.000000
_cell_volume 2431.426879
_symmetry_space_group_name_H-M "C 2/M"
_symmetry_group_IT_number 12
_symmetry_cell_setting 'monoclinic'
loop_
_space_group_symop_operation_xyz
x,y,z
-x,y,-z
-x,-y,-z
x,-y,z
1/2+x,1/2+y,z
1/2-x,1/2+y,-z
1/2-x,1/2-y,-z
1/2+x,1/2-y,z
loop_
_atom_site_type_symbol
_atom_site_label
_atom_site_fract_x
_atom_site_fract_y
_atom_site_fract_z
Si Si1 0.459817 0.929937 0.221921
Si Si2 0.746052 0.832858 0.849352
Si Si3 0.166247 0.882033 0.444276
Si Si4 0.563864 0.257838 0.455802
Si Si5 0.122469 0.828397 0.230779
Si Si6 0.001975 0.000000 0.396385
Si Si7 0.390210 0.000000 0.997057
O O1 0.295714 0.895906 0.131015
O O2 0.622693 0.883799 0.374966
O O3 0.485326 0.000000 0.285200
O O4 0.428785 0.937920 0.088971
O O5 0.586154 0.783609 0.719289
O O6 0.780369 0.853294 0.775945
O O7 0.925985 0.802774 0.041853
O O8 0.084738 0.820130 0.417473
O O9 0.107908 0.884346 0.291065
O O10 0.103490 0.940246 0.447681
O O11 0.500000 0.276252 0.500000
O O12 0.755505 0.224792 0.620826
O O13 0.000000 0.000000 0.500000
O O14 0.810543 0.000000 0.196194
O O15 0.500000 0.000000 0.000000
#
# Coordination Sequence:
#
# PCOD8110462 Si02
#       7
#     8   8   8   8   8   4   4
#     4  10  22  40  62  89 126 162 202 257 311 363
#     4  10  21  43  61  93 126 164 203 257 317 367
#     4  12  22  40  63  93 117 170 208 255 316 370
#     4  10  22  40  64  89 126 161 206 259 313 372
#     4  10  22  39  65  90 126 160 206 260 308 375
#     4  12  24  42  63  86 127 162 212 260 311 374
#     4  10  22  42  61  88 123 164 204 260 305 360
#
# _framework density 19.741496000000001
#
# number of rings (size 3 to 8) (size 9 to 14) (size 15 to 20)
#    0.500    1.000    2.500    3.000    0.000    0.667 
#    4.500    1.667    3.667    0.000    0.000    0.000 
#    0.000    0.000    0.000    0.000    0.000    0.000 
#
# Total GULP energy -297496.536581 kJ/mol
# GULP energy per Si atom -12395.689024 kJ/mol
# Density = 1.969656 g / cm^3
# Si number density = 19.741496 Si / 1000 Ang^3
#
#
#
# Elastic Constant Matrix: (Units=GPa)
#
#
# Indices 1 2 3 4 5 6 
#
# 1 116.6259 74.6807 49.0205 0.0000 -7.5060 0.0000
# 2 74.6807 103.5058 43.4406 0.0000 -1.5907 0.0000
# 3 49.0205 43.4406 140.1984 0.0000 3.0440 0.0000
# 4 0.0000 0.0000 0.0000 23.4267 0.0000 3.2727
# 5 -7.5060 -1.5907 3.0440 0.0000 37.6423 0.0000
# 6 0.0000 0.0000 0.0000 3.2727 0.0000 36.5218
#
#
#
# Elastic Compliance Matrix: (Units=1/GPa)
#
#
# Indices 1 2 3 4 5 6 
#
# 1 0.016974 -0.011127 -0.002555 0.000000 0.003121 0.000000
# 2 -0.011127 0.018420 -0.001789 0.000000 -0.001296 0.000000
# 3 -0.002555 -0.001789 0.008608 0.000000 -0.001281 0.000000
# 4 0.000000 0.000000 0.000000 0.043228 0.000000 -0.003874
# 5 0.003121 -0.001296 -0.001281 0.000000 0.027237 0.000000
# 6 0.000000 0.000000 0.000000 -0.003874 0.000000 0.027728
#
#
# Mechanical properties :
#
#
# Convention : Reuss Voigt Hill
#
# Bulk Modulus (GPa) = 76.56349 77.17931 76.87140
# Shear Modulus (GPa) = 28.17044 32.39737 30.28391
#
# Velocity S-wave (km/s) = 3.78162 4.05542 3.92091
# Velocity P-wave (km/s) = 7.61149 7.81719 7.71502
#
# Compressibility (1/GPa) = 0.01306106
#
# Stress axis : x y z
#
# Youngs Moduli (GPa) = 58.91265 54.28796 116.16709
#
# Poissons Ratio (x) = 0.60405 0.29683
# Poissons Ratio (y) = 0.65551 0.20781
# Poissons Ratio (z) = 0.15053 0.09712
#
# Static dielectric constant tensor:
#      x y z
#    x 3.794530 0.000000 -0.023480 
#    y 0.000000 3.354220 0.000000 
#    z -0.023480 0.000000 3.810040 
# 
# 
# High freq. dielectric constant tensor:
#      x y z
#    x 1.789750 0.000000 0.004510 
#    y 0.000000 1.742390 0.000000 
#    z 0.004510 0.000000 1.782990 
# 
# From -- ./inp_files/218566.got.cif
#   From: 2010.06.25/outbox.cif.g09.slc.cpg/sg12_110_cif.got.tgz:218566.got - 2010.06.28 00:19:55.
