data_PCOD8110463
_publ_section_title
;
Structure prediction by ZEFSAII (Michael W. Deem and Ramdas Pophale) SiO2 
 PCOD8110463
Probable space group: C 2/M
;
_chemical_formula_sum "Si O2"
_cell_formula_units_Z 36
_cell_length_a 9.509083
_cell_length_b 29.020712
_cell_length_c 8.861753
_cell_angle_alpha 90.000000
_cell_angle_beta 44.464820
_cell_angle_gamma 90.000000
_cell_volume 1712.997074
_symmetry_space_group_name_H-M "C 2/M"
_symmetry_group_IT_number 12
_symmetry_cell_setting 'monoclinic'
loop_
_space_group_symop_operation_xyz
x,y,z
-x,y,-z
-x,-y,-z
x,-y,z
1/2+x,1/2+y,z
1/2-x,1/2+y,-z
1/2-x,1/2-y,-z
1/2+x,1/2-y,z
loop_
_atom_site_type_symbol
_atom_site_label
_atom_site_fract_x
_atom_site_fract_y
_atom_site_fract_z
Si Si1 0.809352 0.947322 0.044285
Si Si2 0.184830 0.866446 0.182180
Si Si3 0.000000 0.594730 0.500000
Si Si4 0.575153 0.214458 0.101739
Si Si5 0.741263 0.155748 0.540869
O O1 0.611571 0.937122 0.293109
O O2 0.805176 0.000000 0.993478
O O3 0.826904 0.917314 0.878420
O O4 0.000000 0.936109 0.000000
O O5 0.268524 0.870205 0.288797
O O6 0.977383 0.837145 0.329801
O O7 0.337817 0.837316 0.964149
O O8 0.159292 0.625682 0.466745
O O9 0.380054 0.205430 0.359937
O O10 0.500000 0.232266 0.000000
O O11 0.750000 0.250000 0.000000
#
# Coordination Sequence:
#
# PCOD8110463 Si02
#       5
#     8   8   4   8   8
#     4  11  23  39  62  95 128 165 210 263 312 367
#     4  10  21  43  62  85 130 168 204 253 314 374
#     4  12  21  38  64  94 120 162 212 262 309 366
#     4  10  22  39  63  91 124 158 207 256 308 373
#     4  10  22  38  64  90 121 166 205 251 312 371
#
# _framework density 21.015799000000001
#
# number of rings (size 3 to 8) (size 9 to 14) (size 15 to 20)
#    0.000    1.556    4.444    0.333    0.000    3.556 
#    0.000    7.778    0.000    0.000    0.000    0.000 
#    0.000    0.000    0.000    0.000    0.000    0.000 
#
# Total GULP energy -223025.150793 kJ/mol
# GULP energy per Si atom -12390.286155 kJ/mol
# Density = 2.096797 g / cm^3
# Si number density = 21.015799 Si / 1000 Ang^3
#
#
#
# Elastic Constant Matrix: (Units=GPa)
#
#
# Indices 1 2 3 4 5 6 
#
# 1 117.6020 57.0152 21.9977 0.0000 -7.4732 0.0000
# 2 57.0152 83.8124 21.4356 0.0000 -2.5389 0.0000
# 3 21.9977 21.4356 82.3012 0.0000 -14.8910 0.0000
# 4 0.0000 0.0000 0.0000 23.7147 0.0000 -9.8674
# 5 -7.4732 -2.5389 -14.8910 0.0000 29.4640 0.0000
# 6 0.0000 0.0000 0.0000 -9.8674 0.0000 23.8919
#
#
#
# Elastic Compliance Matrix: (Units=1/GPa)
#
#
# Indices 1 2 3 4 5 6 
#
# 1 0.012922 -0.008508 -0.000856 0.000000 0.002112 0.000000
# 2 -0.008508 0.018395 -0.002885 0.000000 -0.002031 0.000000
# 3 -0.000856 -0.002885 0.014359 0.000000 0.006792 0.000000
# 4 0.000000 0.000000 0.000000 0.050918 0.000000 0.021029
# 5 0.002112 -0.002031 0.006792 0.000000 0.037733 0.000000
# 6 0.000000 0.000000 0.000000 0.021029 0.000000 0.050540
#
#
# Mechanical properties :
#
#
# Convention : Reuss Voigt Hill
#
# Bulk Modulus (GPa) = 47.21336 53.84586 50.52961
# Shear Modulus (GPa) = 23.10275 27.63192 25.36734
#
# Velocity S-wave (km/s) = 3.31917 3.62997 3.47805
# Velocity P-wave (km/s) = 6.09948 6.57618 6.34231
#
# Compressibility (1/GPa) = 0.02118045
#
# Stress axis : x y z
#
# Youngs Moduli (GPa) = 77.38596 54.36196 69.64094
#
# Poissons Ratio (x) = 0.46250 0.05961
# Poissons Ratio (y) = 0.65838 0.20088
# Poissons Ratio (z) = 0.06624 0.15681
#
# Static dielectric constant tensor:
#      x y z
#    x 4.046050 0.000000 -0.267940 
#    y 0.000000 3.531900 0.000000 
#    z -0.267940 0.000000 3.988710 
# 
# 
# High freq. dielectric constant tensor:
#      x y z
#    x 1.839920 0.000000 -0.021400 
#    y 0.000000 1.794620 0.000000 
#    z -0.021400 0.000000 1.834100 
# 
# From -- ./inp_files/41346.got.cif
#   From: 2010.06.25/outbox.cif.g09.slc.cpg/sg12_21_cif.got.tgz:41346.got - 2010.06.28 00:19:55.
