data_PCOD8110526
_publ_section_title
;
Structure prediction by ZEFSAII (Michael W. Deem and Ramdas Pophale) SiO2 
 PCOD8110526
Probable space group: C 2/M
;
_chemical_formula_sum "Si O2"
_cell_formula_units_Z 40
_cell_length_a 14.826367
_cell_length_b 20.728159
_cell_length_c 8.895263
_cell_angle_alpha 90.000000
_cell_angle_beta 130.571587
_cell_angle_gamma 90.000000
_cell_volume 2076.518277
_symmetry_space_group_name_H-M "C 2/M"
_symmetry_group_IT_number 12
_symmetry_cell_setting 'monoclinic'
loop_
_space_group_symop_operation_xyz
x,y,z
-x,y,-z
-x,-y,-z
x,-y,z
1/2+x,1/2+y,z
1/2-x,1/2+y,-z
1/2-x,1/2-y,-z
1/2+x,1/2-y,z
loop_
_atom_site_type_symbol
_atom_site_label
_atom_site_fract_x
_atom_site_fract_y
_atom_site_fract_z
Si Si1 0.161400 0.571200 0.328810
Si Si2 0.667962 0.687651 0.433481
Si Si3 0.000000 0.227468 0.500000
Si Si4 0.611646 0.070396 0.928261
Si Si5 0.500000 0.733116 0.000000
Si Si6 0.860408 0.705628 0.100255
O O1 0.201525 0.500000 0.429258
O O2 0.251649 0.623950 0.493065
O O3 0.028100 0.585485 0.239146
O O4 0.159790 0.570367 0.148261
O O5 0.750000 0.750000 0.500000
O O6 0.602538 0.685568 0.527117
O O7 0.570273 0.687302 0.193669
O O8 0.955743 0.275755 0.325932
O O9 0.675975 0.130453 0.915729
O O10 0.640590 0.000000 0.886830
O O11 0.411236 0.782038 0.988431
O O12 0.750000 0.750000 0.000000
#
# Coordination Sequence:
#
# PCOD8110526 Si02
#       6
#     8   8   4   8   4   8
#     4   9  17  31  53  78 104 136 171 213 266 313
#     4  11  20  35  55  77 106 140 175 218 265 313
#     4  10  22  32  50  80 104 132 180 216 252 314
#     4   9  17  30  51  80 106 130 171 219 261 312
#     4  10  22  34  52  80 106 134 180 220 256 312
#     4  11  20  34  54  78 106 138 171 214 264 310
#
# _framework density 19.263013000000001
#
# number of rings (size 3 to 8) (size 9 to 14) (size 15 to 20)
#    0.000    2.000    0.000    8.400    0.000    0.000 
#    0.000    1.500    0.000    9.600    0.000    0.000 
#    0.000    0.000    0.000    0.000    0.000    0.000 
#
# Total GULP energy -247844.808230 kJ/mol
# GULP energy per Si atom -12392.240412 kJ/mol
# Density = 1.921917 g / cm^3
# Si number density = 19.263013 Si / 1000 Ang^3
#
#
#
# Elastic Constant Matrix: (Units=GPa)
#
#
# Indices 1 2 3 4 5 6 
#
# 1 87.2850 45.2895 23.2911 0.0000 -0.5153 0.0000
# 2 45.2895 185.6600 45.5889 0.0000 16.8107 0.0000
# 3 23.2911 45.5889 61.2316 0.0000 4.6986 0.0000
# 4 0.0000 0.0000 0.0000 26.4736 0.0000 8.4002
# 5 -0.5153 16.8107 4.6986 0.0000 24.5174 0.0000
# 6 0.0000 0.0000 0.0000 8.4002 0.0000 28.4386
#
#
#
# Elastic Compliance Matrix: (Units=1/GPa)
#
#
# Indices 1 2 3 4 5 6 
#
# 1 0.013832 -0.002799 -0.003397 0.000000 0.002861 0.000000
# 2 -0.002799 0.007493 -0.004176 0.000000 -0.004396 0.000000
# 3 -0.003397 -0.004176 0.020825 0.000000 -0.001199 0.000000
# 4 0.000000 0.000000 0.000000 0.041680 0.000000 -0.012311
# 5 0.002861 -0.004396 -0.001199 0.000000 0.044091 0.000000
# 6 0.000000 0.000000 0.000000 -0.012311 0.000000 0.038800
#
#
# Mechanical properties :
#
#
# Convention : Reuss Voigt Hill
#
# Bulk Modulus (GPa) = 46.71834 62.50173 54.61003
# Shear Modulus (GPa) = 25.69356 30.55307 28.12331
#
# Velocity S-wave (km/s) = 3.65612 3.98691 3.82509
# Velocity P-wave (km/s) = 6.49065 7.32877 6.92240
#
# Compressibility (1/GPa) = 0.02140487
#
# Stress axis : x y z
#
# Youngs Moduli (GPa) = 72.29364 133.46591 48.01919
#
# Poissons Ratio (x) = 0.37359 0.16312
# Poissons Ratio (y) = 0.20236 0.20055
# Poissons Ratio (z) = 0.24558 0.55740
#
# Static dielectric constant tensor:
#      x y z
#    x 3.485100 0.000000 0.029600 
#    y 0.000000 3.278950 0.000000 
#    z 0.029600 0.000000 3.305980 
# 
# 
# High freq. dielectric constant tensor:
#      x y z
#    x 1.723390 0.000000 0.004100 
#    y 0.000000 1.748270 0.000000 
#    z 0.004100 0.000000 1.748180 
# 
# From -- ./inp_files/63843.got.cif
#   From: 2010.06.25/outbox.cif.g09.slc.cpg/sg12_32_cif.got.tgz:63843.got - 2010.06.28 00:19:55.
