data_PCOD8110433
_publ_section_title
;
Structure prediction by ZEFSAII (Michael W. Deem and Ramdas Pophale) SiO2 
 PCOD8110433
Probable space group: C 2/M
;
_chemical_formula_sum "Si O2"
_cell_formula_units_Z 64
_cell_length_a 9.363093
_cell_length_b 24.557871
_cell_length_c 18.087046
_cell_angle_alpha 90.000000
_cell_angle_beta 126.283087
_cell_angle_gamma 90.000000
_cell_volume 3352.495723
_symmetry_space_group_name_H-M "C 2/M"
_symmetry_group_IT_number 12
_symmetry_cell_setting 'monoclinic'
loop_
_space_group_symop_operation_xyz
x,y,z
-x,y,-z
-x,-y,-z
x,-y,z
1/2+x,1/2+y,z
1/2-x,1/2+y,-z
1/2-x,1/2-y,-z
1/2+x,1/2-y,z
loop_
_atom_site_type_symbol
_atom_site_label
_atom_site_fract_x
_atom_site_fract_y
_atom_site_fract_z
Si Si1 0.734151 0.140509 0.874372
Si Si2 0.829701 0.562804 0.901571
Si Si3 0.582719 0.936925 0.240964
Si Si4 0.306029 0.366330 0.413029
Si Si5 0.392017 0.737978 0.176113
Si Si6 0.218597 0.234482 0.703337
Si Si7 0.895644 0.139733 0.080004
Si Si8 0.403513 0.795523 0.548600
O O1 0.593179 0.097995 0.799987
O O2 0.654749 0.200364 0.856961
O O3 0.893837 0.138574 0.865426
O O4 0.796862 0.123478 0.974790
O O5 0.795770 0.500000 0.909269
O O6 0.850444 0.573400 0.821301
O O7 0.656971 0.595663 0.874531
O O8 0.000000 0.583858 0.000000
O O9 0.728980 0.917546 0.344723
O O10 0.539876 0.000000 0.241870
O O11 0.500000 0.383129 0.500000
O O12 0.319487 0.314198 0.364193
O O13 0.182158 0.351084 0.445545
O O14 0.599848 0.734814 0.259997
O O15 0.279046 0.714478 0.210719
O O16 0.343124 0.700247 0.091326
O O17 0.058577 0.277633 0.651536
O O18 0.500000 0.805733 0.500000
O O19 0.250000 0.750000 0.500000
#
# Coordination Sequence:
#
# PCOD8110433 Si02
#       8
#     8   8   8   8   8   8   8   8
#     4  11  23  41  56  89 127 171 212 251 317 379
#     4  10  21  42  69  94 119 159 215 267 313 366
#     4  11  24  45  69  90 121 165 214 269 321 373
#     4  12  24  40  64  94 123 160 212 260 315 378
#     4  12  23  37  55  89 133 168 203 249 310 378
#     4  12  20  35  59  84 126 165 205 247 301 377
#     4  11  24  37  60  90 128 167 211 259 309 370
#     4  12  20  36  59  90 123 161 202 248 306 376
#
# _framework density 19.090254000000002
#
# number of rings (size 3 to 8) (size 9 to 14) (size 15 to 20)
#    0.000    0.625    7.500    1.125    0.000    0.750 
#    2.250    1.250    0.000    0.375    0.000    0.000 
#    0.000    0.000    0.000    0.000    0.000    0.000 
#
# Total GULP energy -396878.900619 kJ/mol
# GULP energy per Si atom -12402.465644 kJ/mol
# Density = 1.904680 g / cm^3
# Si number density = 19.090254 Si / 1000 Ang^3
#
#
#
# Elastic Constant Matrix: (Units=GPa)
#
#
# Indices 1 2 3 4 5 6 
#
# 1 129.5866 53.5002 35.8417 0.0000 -4.0090 0.0000
# 2 53.5002 101.8661 36.4817 0.0000 2.4386 0.0000
# 3 35.8417 36.4817 80.1295 0.0000 3.1597 0.0000
# 4 0.0000 0.0000 0.0000 29.4597 0.0000 -5.6113
# 5 -4.0090 2.4386 3.1597 0.0000 31.1289 0.0000
# 6 0.0000 0.0000 0.0000 -5.6113 0.0000 24.2525
#
#
#
# Elastic Compliance Matrix: (Units=1/GPa)
#
#
# Indices 1 2 3 4 5 6 
#
# 1 0.010392 -0.004555 -0.002652 0.000000 0.001964 0.000000
# 2 -0.004555 0.013730 -0.004165 0.000000 -0.001239 0.000000
# 3 -0.002652 -0.004165 0.015625 0.000000 -0.001601 0.000000
# 4 0.000000 0.000000 0.000000 0.035510 0.000000 0.008216
# 5 0.001964 -0.001239 -0.001601 0.000000 0.032637 0.000000
# 6 0.000000 0.000000 0.000000 0.008216 0.000000 0.043134
#
#
# Mechanical properties :
#
#
# Convention : Reuss Voigt Hill
#
# Bulk Modulus (GPa) = 58.81006 62.58105 60.69556
# Shear Modulus (GPa) = 27.86459 29.35212 28.60835
#
# Velocity S-wave (km/s) = 3.82465 3.92541 3.87535
# Velocity P-wave (km/s) = 7.09768 7.30739 7.20330
#
# Compressibility (1/GPa) = 0.01700389
#
# Stress axis : x y z
#
# Youngs Moduli (GPa) = 96.23142 72.83115 63.99881
#
# Poissons Ratio (x) = 0.33175 0.16971
# Poissons Ratio (y) = 0.43834 0.26655
# Poissons Ratio (z) = 0.25518 0.30333
#
# Static dielectric constant tensor:
#      x y z
#    x 3.734080 0.000000 -0.011600 
#    y 0.000000 3.289310 0.000000 
#    z -0.011600 0.000000 3.577740 
# 
# 
# High freq. dielectric constant tensor:
#      x y z
#    x 1.758820 0.000000 -0.001520 
#    y 0.000000 1.716170 0.000000 
#    z -0.001520 0.000000 1.745510 
# 
# From -- ./inp_files/302334.got.cif
#   From: 2010.06.25/outbox.cif.g09.slc.cpg/sg12_152_cif.got.tgz:302334.got - 2010.06.28 00:19:55.
