data_PCOD8110611
_publ_section_title
;
Structure prediction by ZEFSAII (Michael W. Deem and Ramdas Pophale) SiO2 
 PCOD8110611
Probable space group: C 2/M
;
_chemical_formula_sum "Si O2"
_cell_formula_units_Z 56
_cell_length_a 22.669797
_cell_length_b 12.314102
_cell_length_c 16.711984
_cell_angle_alpha 90.000000
_cell_angle_beta 137.718420
_cell_angle_gamma 90.000000
_cell_volume 3138.687205
_symmetry_space_group_name_H-M "C 2/M"
_symmetry_group_IT_number 12
_symmetry_cell_setting 'monoclinic'
loop_
_space_group_symop_operation_xyz
x,y,z
-x,y,-z
-x,-y,-z
x,-y,z
1/2+x,1/2+y,z
1/2-x,1/2+y,-z
1/2-x,1/2-y,-z
1/2+x,1/2-y,z
loop_
_atom_site_type_symbol
_atom_site_label
_atom_site_fract_x
_atom_site_fract_y
_atom_site_fract_z
Si Si1 0.339595 0.732759 0.486928
Si Si2 0.160149 0.269849 0.808238
Si Si3 0.824516 0.371266 0.004300
Si Si4 0.994449 0.123529 0.400507
Si Si5 0.161159 0.629270 0.355056
Si Si6 0.502634 0.871521 0.913720
Si Si7 0.897363 0.623693 0.402501
O O1 0.414402 0.641602 0.554290
O O2 0.248996 0.667911 0.399414
O O3 0.352677 0.811181 0.575147
O O4 0.344763 0.806629 0.414001
O O5 0.244277 0.192662 0.883917
O O6 0.075444 0.194410 0.717420
O O7 0.153863 0.358373 0.731768
O O8 0.162095 0.338746 0.890748
O O9 0.808121 0.500000 0.980979
O O10 0.909937 0.331930 0.042445
O O11 0.000000 0.155555 0.500000
O O12 0.965205 0.000000 0.362514
O O13 0.162660 0.500000 0.370542
O O14 0.081937 0.668138 0.219526
O O15 0.501978 0.000000 0.918189
O O16 0.500000 0.820649 0.000000
O O17 0.889908 0.500000 0.421591
O O18 0.000000 0.657481 0.500000
#
# Coordination Sequence:
#
# PCOD8110611 Si02
#       7
#     8   8   8   8   8   8   8
#     4  11  20  37  55  81 115 146 186 223 284 339
#     4  11  20  37  55  81 115 146 186 223 284 339
#     4  10  22  36  56  81 111 146 187 237 276 324
#     4  11  21  34  54  84 118 146 180 225 284 346
#     4  10  22  36  56  81 111 146 187 237 276 324
#     4   9  19  34  52  77 104 140 184 224 269 308
#     4  11  22  36  58  85 114 147 183 228 282 341
#
# _framework density 17.841854000000001
#
# number of rings (size 3 to 8) (size 9 to 14) (size 15 to 20)
#    0.000    1.571    2.857    2.571    2.000    0.000 
#    0.000    0.000    0.000    0.000    0.000    1.000 
#    0.000    0.000    0.000    0.000    0.000    0.000 
#
# Total GULP energy -347191.652766 kJ/mol
# GULP energy per Si atom -12399.701885 kJ/mol
# Density = 1.780125 g / cm^3
# Si number density = 17.841854 Si / 1000 Ang^3
#
#
#
# Elastic Constant Matrix: (Units=GPa)
#
#
# Indices 1 2 3 4 5 6 
#
# 1 112.6260 18.1562 44.0128 0.0000 10.0168 0.0000
# 2 18.1562 66.8160 16.0880 0.0000 3.8916 0.0000
# 3 44.0128 16.0880 105.8507 0.0000 8.3064 0.0000
# 4 0.0000 0.0000 0.0000 16.6220 0.0000 2.5835
# 5 10.0168 3.8916 8.3064 0.0000 28.3382 0.0000
# 6 0.0000 0.0000 0.0000 2.5835 0.0000 17.5413
#
#
#
# Elastic Compliance Matrix: (Units=1/GPa)
#
#
# Indices 1 2 3 4 5 6 
#
# 1 0.010997 -0.001860 -0.004099 0.000000 -0.002430 0.000000
# 2 -0.001860 0.015910 -0.001561 0.000000 -0.001070 0.000000
# 3 -0.004099 -0.001561 0.011523 0.000000 -0.001714 0.000000
# 4 0.000000 0.000000 0.000000 0.061571 0.000000 -0.009068
# 5 -0.002430 -0.001070 -0.001714 0.000000 0.036796 0.000000
# 6 0.000000 0.000000 0.000000 -0.009068 0.000000 0.058344
#
#
# Mechanical properties :
#
#
# Convention : Reuss Voigt Hill
#
# Bulk Modulus (GPa) = 42.75183 49.08964 45.92073
# Shear Modulus (GPa) = 22.93817 26.30270 24.62043
#
# Velocity S-wave (km/s) = 3.58947 3.84371 3.71877
# Velocity P-wave (km/s) = 6.41815 6.87549 6.65075
#
# Compressibility (1/GPa) = 0.02339081
#
# Stress axis : x y z
#
# Youngs Moduli (GPa) = 90.93588 62.85368 86.77951
#
# Poissons Ratio (x) = 0.11689 0.35572
# Poissons Ratio (y) = 0.16911 0.13545
# Poissons Ratio (z) = 0.37276 0.09811
#
# Static dielectric constant tensor:
#      x y z
#    x 3.422940 0.000000 0.011620 
#    y 0.000000 3.236390 0.000000 
#    z 0.011620 0.000000 3.397380 
# 
# 
# High freq. dielectric constant tensor:
#      x y z
#    x 1.697030 0.000000 -0.000230 
#    y 0.000000 1.689830 0.000000 
#    z -0.000230 0.000000 1.696320 
# 
# From -- ./inp_files/233748.got.cif
#   From: 2010.06.25/outbox.cif.g09.slc.cpg/sg12_117_cif.got.tgz:233748.got - 2010.06.28 00:19:55.
