data_PCOD8110159
_publ_section_title
;
Structure prediction by ZEFSAII (Michael W. Deem and Ramdas Pophale) SiO2 
 PCOD8110159
Probable space group: C 2/M
;
_chemical_formula_sum "Si O2"
_cell_formula_units_Z 36
_cell_length_a 14.455514
_cell_length_b 9.635554
_cell_length_c 26.724079
_cell_angle_alpha 90.000000
_cell_angle_beta 27.839110
_cell_angle_gamma 90.000000
_cell_volume 1738.284577
_symmetry_space_group_name_H-M "C 2/M"
_symmetry_group_IT_number 12
_symmetry_cell_setting 'monoclinic'
loop_
_space_group_symop_operation_xyz
x,y,z
-x,y,-z
-x,-y,-z
x,-y,z
1/2+x,1/2+y,z
1/2-x,1/2+y,-z
1/2-x,1/2-y,-z
1/2+x,1/2-y,z
loop_
_atom_site_type_symbol
_atom_site_label
_atom_site_fract_x
_atom_site_fract_y
_atom_site_fract_z
Si Si1 0.576946 0.350799 0.069938
Si Si2 0.453877 0.667726 0.401185
Si Si3 0.000000 0.235376 0.000000
Si Si4 0.227821 0.163196 0.701958
Si Si5 0.418997 0.341687 0.769143
O O1 0.652727 0.500000 0.052116
O O2 0.379845 0.312172 0.193684
O O3 0.750000 0.250000 0.000000
O O4 0.532254 0.359883 0.032604
O O5 0.431247 0.500000 0.419058
O O6 0.250000 0.750000 0.500000
O O7 0.581507 0.735834 0.385471
O O8 0.556676 0.709189 0.299305
O O9 0.803624 0.325848 0.103678
O O10 0.084744 0.224874 0.726761
O O11 0.287801 0.000000 0.666003
O O12 0.475325 0.500000 0.744400
#
# Coordination Sequence:
#
# PCOD8110159 Si02
#       5
#     8   8   4   8   8
#     4  11  23  37  58  90 129 167 204 248 304 364
#     4  11  24  44  66  92 119 159 206 257 311 366
#     4  12  20  38  60  96 129 162 205 248 309 356
#     4  10  21  41  62  89 123 163 205 253 304 361
#     4  10  22  38  63  93 125 164 206 247 301 369
#
# _framework density 20.710072
#
# number of rings (size 3 to 8) (size 9 to 14) (size 15 to 20)
#    0.000    1.333    4.444    1.333    0.000    2.667 
#    0.000    6.667    0.000    0.000    0.000    0.000 
#    0.000    0.000    0.000    0.000    0.000    0.000 
#
# Total GULP energy -223029.326997 kJ/mol
# GULP energy per Si atom -12390.518167 kJ/mol
# Density = 2.066293 g / cm^3
# Si number density = 20.710072 Si / 1000 Ang^3
#
#
#
# Elastic Constant Matrix: (Units=GPa)
#
#
# Indices 1 2 3 4 5 6 
#
# 1 122.9420 41.2279 32.0199 0.0000 -29.0056 0.0000
# 2 41.2279 89.0794 38.0093 0.0007 -23.3677 -0.0004
# 3 32.0199 38.0093 73.2673 0.0006 -26.4304 -0.0010
# 4 0.0000 0.0007 0.0006 32.4078 -0.0009 -8.1148
# 5 -29.0056 -23.3677 -26.4304 -0.0009 40.5422 0.0002
# 6 0.0000 -0.0004 -0.0010 -8.1148 0.0002 31.8280
#
#
#
# Elastic Compliance Matrix: (Units=1/GPa)
#
#
# Indices 1 2 3 4 5 6 
#
# 1 0.010686 -0.003089 -0.001245 0.000000 0.005053 0.000000
# 2 -0.003089 0.015964 -0.005765 0.000000 0.003232 0.000000
# 3 -0.001245 -0.005765 0.020480 0.000000 0.009138 0.000001
# 4 0.000000 0.000000 0.000000 0.032961 0.000001 0.008404
# 5 0.005053 0.003232 0.009138 0.000001 0.036101 0.000000
# 6 0.000000 0.000000 0.000001 0.008404 0.000000 0.033561
#
#
# Mechanical properties :
#
#
# Convention : Reuss Voigt Hill
#
# Bulk Modulus (GPa) = 37.13142 56.42257 46.77699
# Shear Modulus (GPa) = 27.94400 32.55771 30.25086
#
# Velocity S-wave (km/s) = 3.67726 3.96924 3.82603
# Velocity P-wave (km/s) = 5.99981 6.95051 6.49259
#
# Compressibility (1/GPa) = 0.02693137
#
# Stress axis : x y z
#
# Youngs Moduli (GPa) = 93.57817 62.64223 48.82824
#
# Poissons Ratio (x) = 0.19351 0.06077
# Poissons Ratio (y) = 0.28907 0.28152
# Poissons Ratio (z) = 0.11647 0.36116
#
# Static dielectric constant tensor:
#      x y z
#    x 4.519930 0.000000 0.216730 
#    y 0.000000 3.664080 0.000000 
#    z 0.216730 0.000000 3.766750 
# 
# 
# High freq. dielectric constant tensor:
#      x y z
#    x 1.828510 0.000000 -0.002960 
#    y 0.000000 1.793950 0.000000 
#    z -0.002960 0.000000 1.806590 
# 
# From -- ./inp_files/212141.got.cif
#   From: 2010.06.25/outbox.cif.g09.slc.cpg/sg12_107_cif.got.tgz:212141.got - 2010.06.28 00:19:55.
