data_PCOD8110932
_publ_section_title
;
Structure prediction by ZEFSAII (Michael W. Deem and Ramdas Pophale) SiO2 
 PCOD8110932
Probable space group: C 2/M
;
_chemical_formula_sum "Si O2"
_cell_formula_units_Z 56
_cell_length_a 12.078107
_cell_length_b 18.127427
_cell_length_c 13.695105
_cell_angle_alpha 90.000000
_cell_angle_beta 59.904377
_cell_angle_gamma 90.000000
_cell_volume 2594.249606
_symmetry_space_group_name_H-M "C 2/M"
_symmetry_group_IT_number 12
_symmetry_cell_setting 'monoclinic'
loop_
_space_group_symop_operation_xyz
x,y,z
-x,y,-z
-x,-y,-z
x,-y,z
1/2+x,1/2+y,z
1/2-x,1/2+y,-z
1/2-x,1/2-y,-z
1/2+x,1/2-y,z
loop_
_atom_site_type_symbol
_atom_site_label
_atom_site_fract_x
_atom_site_fract_y
_atom_site_fract_z
Si Si1 0.342975 0.084507 0.193616
Si Si2 0.905556 0.358225 0.822951
Si Si3 0.703471 0.585719 0.055184
Si Si4 0.251331 0.280112 0.388942
Si Si5 0.897170 0.149846 0.620765
Si Si6 0.878843 0.418713 0.621082
Si Si7 0.528202 0.698750 0.210694
O O1 0.468975 0.128964 0.166612
O O2 0.292620 0.107602 0.108545
O O3 0.229675 0.099233 0.322021
O O4 0.383154 0.000000 0.178267
O O5 0.923398 0.387488 0.705837
O O6 0.879671 0.270235 0.833126
O O7 0.783568 0.399495 0.922241
O O8 0.660998 0.500000 0.078693
O O9 0.577780 0.639366 0.108038
O O10 0.250000 0.250000 0.500000
O O11 0.140593 0.234117 0.385324
O O12 0.219834 0.366439 0.392884
O O13 0.383235 0.270370 0.269773
O O14 0.967041 0.151320 0.692770
O O15 0.000000 0.116771 0.500000
O O16 0.816472 0.500000 0.661995
O O17 0.000000 0.425576 0.500000
#
# Coordination Sequence:
#
# PCOD8110932 Si02
#       7
#     8   8   8   8   8   8   8
#     4  10  22  38  61  94 127 164 213 262 314 376
#     4  12  21  41  67  92 125 171 215 266 320 380
#     4  10  23  42  63  91 129 170 214 267 322 374
#     4  12  22  40  64  90 124 170 206 256 320 385
#     4  11  21  37  60  91 124 162 209 253 315 381
#     4  11  25  41  62  95 129 164 215 269 321 383
#     4  11  23  38  63  92 124 160 214 266 312 383
#
# _framework density 21.586202
#
# number of rings (size 3 to 8) (size 9 to 14) (size 15 to 20)
#    0.000    1.000    4.286    3.429    0.000    2.000 
#    0.000    0.714    0.000    1.714    0.000    0.000 
#    0.000    0.000    0.000    0.000    0.000    0.000 
#
# Total GULP energy -347118.261173 kJ/mol
# GULP energy per Si atom -12397.080756 kJ/mol
# Density = 2.153707 g / cm^3
# Si number density = 21.586202 Si / 1000 Ang^3
#
#
#
# Elastic Constant Matrix: (Units=GPa)
#
#
# Indices 1 2 3 4 5 6 
#
# 1 40.4698 10.1833 18.2972 0.0000 -6.8872 0.0000
# 2 10.1833 117.5093 32.9562 0.0000 3.4981 0.0000
# 3 18.2972 32.9562 119.0844 0.0000 -16.5997 0.0000
# 4 0.0000 0.0000 0.0000 28.8358 0.0000 -5.9063
# 5 -6.8872 3.4981 -16.5997 0.0000 28.4441 0.0000
# 6 0.0000 0.0000 0.0000 -5.9063 0.0000 29.0677
#
#
#
# Elastic Compliance Matrix: (Units=1/GPa)
#
#
# Indices 1 2 3 4 5 6 
#
# 1 0.027364 -0.001670 -0.003037 0.000000 0.005059 0.000000
# 2 -0.001670 0.009546 -0.002836 0.000000 -0.003234 0.000000
# 3 -0.003037 -0.002836 0.010445 0.000000 0.005709 0.000000
# 4 0.000000 0.000000 0.000000 0.036185 0.000000 0.007352
# 5 0.005059 -0.003234 0.005709 0.000000 0.040111 0.000000
# 6 0.000000 0.000000 0.000000 0.007352 0.000000 0.035896
#
#
# Mechanical properties :
#
#
# Convention : Reuss Voigt Hill
#
# Bulk Modulus (GPa) = 30.98996 44.43742 37.71369
# Shear Modulus (GPa) = 26.97012 31.64462 29.30737
#
# Velocity S-wave (km/s) = 3.53854 3.83295 3.68868
# Velocity P-wave (km/s) = 5.57517 6.34187 5.97084
#
# Compressibility (1/GPa) = 0.03226852
#
# Stress axis : x y z
#
# Youngs Moduli (GPa) = 36.54425 104.75215 95.74240
#
# Poissons Ratio (x) = 0.17496 0.29078
# Poissons Ratio (y) = 0.06104 0.27153
# Poissons Ratio (z) = 0.11099 0.29708
#
# Static dielectric constant tensor:
#      x y z
#    x 3.706000 0.000000 -0.098120 
#    y 0.000000 4.140690 0.000000 
#    z -0.098120 0.000000 4.108000 
# 
# 
# High freq. dielectric constant tensor:
#      x y z
#    x 1.822360 0.000000 -0.006080 
#    y 0.000000 1.854790 0.000000 
#    z -0.006080 0.000000 1.854520 
# 
# From -- ./inp_files/206569.got.cif
#   From: 2010.06.25/outbox.cif.g09.slc.cpg/sg12_104_cif.got.tgz:206569.got - 2010.06.28 00:19:55.
