data_PCOD8110998
_publ_section_title
;
Structure prediction by ZEFSAII (Michael W. Deem and Ramdas Pophale) SiO2 
 PCOD8110998
Probable space group: C 2/M
;
_chemical_formula_sum "Si O2"
_cell_formula_units_Z 48
_cell_length_a 28.332068
_cell_length_b 17.102033
_cell_length_c 8.453485
_cell_angle_alpha 90.000000
_cell_angle_beta 34.177508
_cell_angle_gamma 90.000000
_cell_volume 2300.973279
_symmetry_space_group_name_H-M "C 2/M"
_symmetry_group_IT_number 12
_symmetry_cell_setting 'monoclinic'
loop_
_space_group_symop_operation_xyz
x,y,z
-x,y,-z
-x,-y,-z
x,-y,z
1/2+x,1/2+y,z
1/2-x,1/2+y,-z
1/2-x,1/2-y,-z
1/2+x,1/2-y,z
loop_
_atom_site_type_symbol
_atom_site_label
_atom_site_fract_x
_atom_site_fract_y
_atom_site_fract_z
Si Si1 0.064911 0.271355 0.187903
Si Si2 0.405113 0.630555 0.106824
Si Si3 0.555642 0.089954 0.998471
Si Si4 0.259344 0.087575 0.626522
Si Si5 0.414592 0.411752 0.436566
Si Si6 0.691970 0.700625 0.050891
O O1 0.153369 0.263152 0.034096
O O2 0.000000 0.241422 0.500000
O O3 0.071423 0.218186 0.012752
O O4 0.035771 0.356776 0.207189
O O5 0.319790 0.599194 0.268261
O O6 0.392274 0.626549 0.329809
O O7 0.484459 0.579181 0.828390
O O8 0.653993 0.105666 0.701169
O O9 0.536473 0.000000 0.095782
O O10 0.500000 0.114027 0.000000
O O11 0.260119 0.000000 0.689593
O O12 0.255313 0.143058 0.787562
O O13 0.377186 0.500000 0.556836
O O14 0.377833 0.352972 0.669285
O O15 0.750000 0.750000 0.000000
#
# Coordination Sequence:
#
# PCOD8110998 Si02
#       6
#     8   8   8   8   8   8
#     4  11  24  42  65  93 125 167 210 262 325 383
#     4  10  22  38  66  96 127 162 210 259 319 388
#     4  10  25  45  68  92 122 169 223 274 324 374
#     4  10  22  42  64  90 124 164 210 265 322 378
#     4  11  22  40  65  96 130 169 208 256 317 384
#     4  11  26  40  61  96 131 168 210 256 317 386
#
# _framework density 20.860738000000001
#
# number of rings (size 3 to 8) (size 9 to 14) (size 15 to 20)
#    0.000    1.500    1.667    2.500    9.333    1.667 
#    0.000    3.333    0.000    0.000    0.000    0.000 
#    0.000    0.000    0.000    0.000    0.000    0.000 
#
# Total GULP energy -297467.349910 kJ/mol
# GULP energy per Si atom -12394.472913 kJ/mol
# Density = 2.081326 g / cm^3
# Si number density = 20.860738 Si / 1000 Ang^3
#
#
#
# Elastic Constant Matrix: (Units=GPa)
#
#
# Indices 1 2 3 4 5 6 
#
# 1 120.8107 67.4788 29.1651 0.0000 -3.2069 0.0000
# 2 67.4788 112.4606 26.3828 0.0000 9.1985 0.0000
# 3 29.1651 26.3828 47.2710 0.0000 -8.6780 0.0000
# 4 0.0000 0.0000 0.0000 30.2744 0.0000 1.0072
# 5 -3.2069 9.1985 -8.6780 0.0000 30.6556 0.0000
# 6 0.0000 0.0000 0.0000 1.0072 0.0000 12.5784
#
#
#
# Elastic Compliance Matrix: (Units=1/GPa)
#
#
# Indices 1 2 3 4 5 6 
#
# 1 0.013335 -0.007355 -0.003651 0.000000 0.002568 0.000000
# 2 -0.007355 0.015051 -0.005098 0.000000 -0.006729 0.000000
# 3 -0.003651 -0.005098 0.027914 0.000000 0.009050 0.000000
# 4 0.000000 0.000000 0.000000 0.033119 0.000000 -0.002652
# 5 0.002568 -0.006729 0.009050 0.000000 0.037470 0.000000
# 6 0.000000 0.000000 0.000000 -0.002652 0.000000 0.079714
#
#
# Mechanical properties :
#
#
# Convention : Reuss Voigt Hill
#
# Bulk Modulus (GPa) = 41.50659 58.51063 50.00861
# Shear Modulus (GPa) = 20.25587 25.20272 22.72929
#
# Velocity S-wave (km/s) = 3.11948 3.47960 3.30445
# Velocity P-wave (km/s) = 5.73716 6.65226 6.21159
#
# Compressibility (1/GPa) = 0.02409256
#
# Stress axis : x y z
#
# Youngs Moduli (GPa) = 74.99042 66.43888 35.82449
#
# Poissons Ratio (x) = 0.48865 0.13080
# Poissons Ratio (y) = 0.55154 0.18263
# Poissons Ratio (z) = 0.27379 0.33871
#
# Static dielectric constant tensor:
#      x y z
#    x 3.836080 0.000000 -0.062880 
#    y 0.000000 3.846040 0.000000 
#    z -0.062880 0.000000 3.816120 
# 
# 
# High freq. dielectric constant tensor:
#      x y z
#    x 1.821960 0.000000 -0.005190 
#    y 0.000000 1.821280 0.000000 
#    z -0.005190 0.000000 1.812330 
# 
# From -- ./inp_files/112727.got.cif
#   From: 2010.06.25/outbox.cif.g09.slc.cpg/sg12_57_cif.got.tgz:112727.got - 2010.06.28 00:19:55.
