data_PCOD8110017
_publ_section_title
;
Structure prediction by ZEFSAII (Michael W. Deem and Ramdas Pophale) SiO2 
 PCOD8110017
Probable space group: C 2/M
;
_chemical_formula_sum "Si O2"
_cell_formula_units_Z 56
_cell_length_a 9.429679
_cell_length_b 21.631225
_cell_length_c 15.201127
_cell_angle_alpha 90.000000
_cell_angle_beta 118.747802
_cell_angle_gamma 90.000000
_cell_volume 2718.486693
_symmetry_space_group_name_H-M "C 2/M"
_symmetry_group_IT_number 12
_symmetry_cell_setting 'monoclinic'
loop_
_space_group_symop_operation_xyz
x,y,z
-x,y,-z
-x,-y,-z
x,-y,z
1/2+x,1/2+y,z
1/2-x,1/2+y,-z
1/2-x,1/2-y,-z
1/2+x,1/2-y,z
loop_
_atom_site_type_symbol
_atom_site_label
_atom_site_fract_x
_atom_site_fract_y
_atom_site_fract_z
Si Si1 0.892717 0.875825 0.203870
Si Si2 0.917497 0.431179 0.894756
Si Si3 0.980588 0.426275 0.720764
Si Si4 0.363577 0.376587 0.393862
Si Si5 0.815226 0.260920 0.923391
Si Si6 0.222769 0.159123 0.237335
Si Si7 0.827744 0.738132 0.429375
O O1 0.774543 0.932240 0.143138
O O2 0.930775 0.889239 0.316926
O O3 0.781920 0.814968 0.155231
O O4 0.053718 0.878053 0.193095
O O5 0.986795 0.500000 0.912009
O O6 0.967336 0.401034 0.816902
O O7 0.000000 0.394219 0.000000
O O8 0.010317 0.500000 0.720498
O O9 0.127168 0.388477 0.720414
O O10 0.805517 0.409050 0.627817
O O11 0.500000 0.402262 0.500000
O O12 0.348646 0.303363 0.389956
O O13 0.788254 0.201231 0.852547
O O14 0.750000 0.250000 0.000000
O O15 0.000000 0.276713 0.000000
O O16 0.226857 0.196817 0.330762
O O17 0.750000 0.750000 0.500000
O O18 0.000000 0.705797 0.500000
#
# Coordination Sequence:
#
# PCOD8110017 Si02
#       7
#     8   8   8   8   8   8   8
#     4  11  23  38  61  90 125 164 209 260 324 383
#     4   9  20  40  64  86 115 165 223 269 313 375
#     4  10  24  42  64  92 129 174 217 267 323 387
#     4  10  21  40  66  92 124 161 213 263 319 383
#     4  12  26  40  59  91 134 171 209 260 332 391
#     4  12  25  39  62  95 132 169 211 264 328 388
#     4  11  22  37  62  91 124 158 203 257 316 374
#
# _framework density 20.599695000000001
#
# number of rings (size 3 to 8) (size 9 to 14) (size 15 to 20)
#    0.000    1.286    2.857    3.000    8.000    0.857 
#    0.000    0.000    0.000   12.857    0.000    0.000 
#    0.000    0.000    0.000    0.000    0.000    0.000 
#
# Total GULP energy -346875.100706 kJ/mol
# GULP energy per Si atom -12388.396454 kJ/mol
# Density = 2.055281 g / cm^3
# Si number density = 20.599695 Si / 1000 Ang^3
#
#
#
# Elastic Constant Matrix: (Units=GPa)
#
#
# Indices 1 2 3 4 5 6 
#
# 1 157.1774 26.3369 61.9196 0.0000 10.1081 0.0000
# 2 26.3369 53.1924 26.8751 0.0000 5.1443 0.0000
# 3 61.9196 26.8751 149.4845 0.0000 3.4379 0.0000
# 4 0.0000 0.0000 0.0000 12.2622 0.0000 5.4716
# 5 10.1081 5.1443 3.4379 0.0000 32.2003 0.0000
# 6 0.0000 0.0000 0.0000 5.4716 0.0000 29.3879
#
#
#
# Elastic Compliance Matrix: (Units=1/GPa)
#
#
# Indices 1 2 3 4 5 6 
#
# 1 0.007995 -0.002342 -0.002848 0.000000 -0.001831 0.000000
# 2 -0.002342 0.021640 -0.002865 0.000000 -0.002416 0.000000
# 3 -0.002848 -0.002865 0.008374 0.000000 0.000458 0.000000
# 4 0.000000 0.000000 0.000000 0.088941 0.000000 -0.016559
# 5 -0.001831 -0.002416 0.000458 0.000000 0.031968 0.000000
# 6 0.000000 0.000000 0.000000 -0.016559 0.000000 0.037111
#
#
# Mechanical properties :
#
#
# Convention : Reuss Voigt Hill
#
# Bulk Modulus (GPa) = 45.66551 65.56860 55.61706
# Shear Modulus (GPa) = 22.78546 31.08492 26.93519
#
# Velocity S-wave (km/s) = 3.32943 3.88880 3.61993
# Velocity P-wave (km/s) = 6.08246 7.21545 6.67304
#
# Compressibility (1/GPa) = 0.02189836
#
# Stress axis : x y z
#
# Youngs Moduli (GPa) = 125.08536 46.20979 119.41678
#
# Poissons Ratio (x) = 0.10823 0.34014
# Poissons Ratio (y) = 0.29296 0.34212
# Poissons Ratio (z) = 0.35628 0.13239
#
# Static dielectric constant tensor:
#      x y z
#    x 4.298230 0.000000 0.013710 
#    y 0.000000 4.060510 0.000000 
#    z 0.013710 0.000000 4.223560 
# 
# 
# High freq. dielectric constant tensor:
#      x y z
#    x 1.807450 0.000000 0.006000 
#    y 0.000000 1.784720 0.000000 
#    z 0.006000 0.000000 1.826110 
# 
# From -- ./inp_files/198786.got.cif
#   From: 2010.06.25/outbox.cif.g09.slc.cpg/sg12_100_cif.got.tgz:198786.got - 2010.06.28 00:19:55.
