data_PCOD8110187
_publ_section_title
;
Structure prediction by ZEFSAII (Michael W. Deem and Ramdas Pophale) SiO2 
 PCOD8110187
Probable space group: C 2/M
;
_chemical_formula_sum "Si O2"
_cell_formula_units_Z 64
_cell_length_a 28.484103
_cell_length_b 8.902457
_cell_length_c 14.977217
_cell_angle_alpha 90.000000
_cell_angle_beta 59.249245
_cell_angle_gamma 90.000000
_cell_volume 3263.914239
_symmetry_space_group_name_H-M "C 2/M"
_symmetry_group_IT_number 12
_symmetry_cell_setting 'monoclinic'
loop_
_space_group_symop_operation_xyz
x,y,z
-x,y,-z
-x,-y,-z
x,-y,z
1/2+x,1/2+y,z
1/2-x,1/2+y,-z
1/2-x,1/2-y,-z
1/2+x,1/2-y,z
loop_
_atom_site_type_symbol
_atom_site_label
_atom_site_fract_x
_atom_site_fract_y
_atom_site_fract_z
Si Si1 0.163823 0.822867 0.829964
Si Si2 0.107333 0.324327 0.044666
Si Si3 0.194302 0.173769 0.084681
Si Si4 0.493950 0.173190 0.239304
Si Si5 0.147455 0.824908 0.487260
Si Si6 0.524571 0.675056 0.566055
Si Si7 0.775326 0.172543 0.748928
Si Si8 0.872971 0.676936 0.313246
O O1 0.223067 0.778714 0.809706
O O2 0.156944 0.759796 0.737817
O O3 0.156952 0.000000 0.836396
O O4 0.118724 0.751497 0.938672
O O5 0.121148 0.500000 0.026175
O O6 0.142842 0.253393 0.089401
O O7 0.043265 0.294866 0.123765
O O8 0.188020 0.190115 0.197793
O O9 0.195174 0.000000 0.054477
O O10 0.250000 0.250000 0.000000
O O11 0.506527 0.257540 0.318918
O O12 0.436621 0.227667 0.252148
O O13 0.488772 0.000000 0.268853
O O14 0.088316 0.786363 0.505631
O O15 0.190587 0.775692 0.370391
O O16 0.157449 0.728220 0.566625
O O17 0.152648 0.000000 0.506278
O O18 0.500000 0.747031 0.500000
O O19 0.512624 0.500000 0.579990
O O20 0.756008 0.000000 0.757488
O O21 0.865950 0.500000 0.307861
#
# Coordination Sequence:
#
# PCOD8110187 Si02
#       8
#     8   8   8   8   8   8   8   8
#     4  12  25  40  61  87 114 149 197 245 295 353
#     4  11  23  40  60  86 120 156 196 240 290 346
#     4  11  22  37  60  87 119 159 196 240 291 343
#     4   9  21  39  59  84 115 154 194 236 287 346
#     4   9  19  37  58  85 117 152 194 238 285 343
#     4   9  18  32  55  84 116 152 190 236 287 338
#     4  10  22  39  60  85 119 157 195 238 288 345
#     4  10  21  41  64  85 115 152 192 242 297 346
#
# _framework density 19.608359
#
# number of rings (size 3 to 8) (size 9 to 14) (size 15 to 20)
#    0.000    1.875    1.250    2.250    1.750    3.750 
#    0.000    2.500    0.000    0.000    0.000    0.000 
#    0.000    0.000    0.000    0.000    0.000    0.000 
#
# Total GULP energy -396918.964534 kJ/mol
# GULP energy per Si atom -12403.717642 kJ/mol
# Density = 1.956373 g / cm^3
# Si number density = 19.608359 Si / 1000 Ang^3
#
#
#
# Elastic Constant Matrix: (Units=GPa)
#
#
# Indices 1 2 3 4 5 6 
#
# 1 42.8740 19.3483 18.4188 0.0000 14.0196 0.0000
# 2 19.3483 87.4353 41.6834 0.0000 5.0719 0.0000
# 3 18.4188 41.6834 113.3485 0.0000 4.2477 0.0000
# 4 0.0000 0.0000 0.0000 33.4088 0.0000 1.8788
# 5 14.0196 5.0719 4.2477 0.0000 34.3886 0.0000
# 6 0.0000 0.0000 0.0000 1.8788 0.0000 26.6941
#
#
#
# Elastic Compliance Matrix: (Units=1/GPa)
#
#
# Indices 1 2 3 4 5 6 
#
# 1 0.030359 -0.004743 -0.002764 0.000000 -0.011336 0.000000
# 2 -0.004743 0.014679 -0.004640 0.000000 0.000342 0.000000
# 3 -0.002764 -0.004640 0.010961 0.000000 0.000457 0.000000
# 4 0.000000 0.000000 0.000000 0.030051 0.000000 -0.002115
# 5 -0.011336 0.000342 0.000457 0.000000 0.033594 0.000000
# 6 0.000000 0.000000 0.000000 -0.002115 0.000000 0.037610
#
#
# Mechanical properties :
#
#
# Convention : Reuss Voigt Hill
#
# Bulk Modulus (GPa) = 31.54165 44.72874 38.13520
# Shear Modulus (GPa) = 26.02591 29.84543 27.93567
#
# Velocity S-wave (km/s) = 3.64715 3.90561 3.77859
# Velocity P-wave (km/s) = 5.81862 6.57259 6.20706
#
# Compressibility (1/GPa) = 0.03170411
#
# Stress axis : x y z
#
# Youngs Moduli (GPa) = 32.93945 68.12533 91.23409
#
# Poissons Ratio (x) = 0.32309 0.25220
# Poissons Ratio (y) = 0.15622 0.42335
# Poissons Ratio (z) = 0.09106 0.31612
#
# Static dielectric constant tensor:
#      x y z
#    x 3.657010 0.000000 0.086360 
#    y 0.000000 3.592760 0.000000 
#    z 0.086360 0.000000 3.713010 
# 
# 
# High freq. dielectric constant tensor:
#      x y z
#    x 1.761210 0.000000 0.005810 
#    y 0.000000 1.763920 0.000000 
#    z 0.005810 0.000000 1.772350 
# 
# From -- ./inp_files/249084.got.cif
#   From: 2010.06.25/outbox.cif.g09.slc.cpg/sg12_125_cif.got.tgz:249084.got - 2010.06.28 00:19:55.
