data_PCOD8110007
_publ_section_title
;
Structure prediction by ZEFSAII (Michael W. Deem and Ramdas Pophale) SiO2 
 PCOD8110007
Probable space group: C 2/M
;
_chemical_formula_sum "Si O2"
_cell_formula_units_Z 64
_cell_length_a 31.855428
_cell_length_b 9.395660
_cell_length_c 19.803949
_cell_angle_alpha 90.000000
_cell_angle_beta 31.892080
_cell_angle_gamma 90.000000
_cell_volume 3131.557500
_symmetry_space_group_name_H-M "C 2/M"
_symmetry_group_IT_number 12
_symmetry_cell_setting 'monoclinic'
loop_
_space_group_symop_operation_xyz
x,y,z
-x,y,-z
-x,-y,-z
x,-y,z
1/2+x,1/2+y,z
1/2-x,1/2+y,-z
1/2-x,1/2-y,-z
1/2+x,1/2-y,z
loop_
_atom_site_type_symbol
_atom_site_label
_atom_site_fract_x
_atom_site_fract_y
_atom_site_fract_z
Si Si1 0.941589 0.836831 0.642352
Si Si2 0.276356 0.347939 0.522813
Si Si3 0.679405 0.163664 0.893412
Si Si4 0.261553 0.335383 0.914611
Si Si5 0.972591 0.330993 0.367460
Si Si6 0.684223 0.664339 0.391661
Si Si7 0.461149 0.666079 0.983546
Si Si8 0.461822 0.345386 0.257379
O O1 0.847193 0.814270 0.760236
O O2 0.000000 0.798765 0.500000
O O3 0.958764 0.725713 0.678210
O O4 0.959180 0.000000 0.639992
O O5 0.235634 0.500000 0.564506
O O6 0.250000 0.250000 0.500000
O O7 0.257006 0.295289 0.625204
O O8 0.369980 0.360678 0.395351
O O9 0.692965 0.209119 0.953465
O O10 0.766454 0.184588 0.743087
O O11 0.618449 0.257865 0.933797
O O12 0.651536 0.000000 0.926272
O O13 0.250714 0.500000 0.948503
O O14 0.250000 0.250000 0.000000
O O15 0.968984 0.500000 0.371528
O O16 0.890405 0.268687 0.508353
O O17 0.995167 0.275874 0.261509
O O18 0.654900 0.500000 0.439227
O O19 0.441149 0.500000 0.020863
O O20 0.500000 0.727183 0.000000
O O21 0.525833 0.696583 0.837297
O O22 0.502644 0.500000 0.216045
#
# Coordination Sequence:
#
# PCOD8110007 Si02
#       8
#     8   8   8   8   8   8   8   8
#     4  10  21  40  66  90 119 165 211 248 301 377
#     4   9  18  31  52  79 107 143 185 238 295 351
#     4  10  22  41  64  89 120 158 203 251 298 358
#     4  10  23  41  63  92 125 163 206 254 308 370
#     4  11  22  35  58  92 123 152 194 255 304 345
#     4   9  19  38  59  81 115 159 199 237 296 369
#     4  10  23  41  62  88 118 158 204 250 302 359
#     4   9  20  39  57  77 114 159 198 236 292 369
#
# _framework density 20.437114000000001
#
# number of rings (size 3 to 8) (size 9 to 14) (size 15 to 20)
#    0.000    2.250    0.000    2.625    3.500    6.500 
#    0.000    1.250    0.000    0.000    0.000    0.000 
#    0.000    0.000    0.000    0.000    0.000    0.000 
#
# Total GULP energy -396462.228222 kJ/mol
# GULP energy per Si atom -12389.444632 kJ/mol
# Density = 2.039060 g / cm^3
# Si number density = 20.437114 Si / 1000 Ang^3
#
#
#
# Elastic Constant Matrix: (Units=GPa)
#
#
# Indices 1 2 3 4 5 6 
#
# 1 150.7114 68.6209 36.3602 -0.0055 16.2545 0.0019
# 2 68.6209 99.7423 26.3975 -0.0026 7.5445 -0.0063
# 3 36.3602 26.3975 74.0916 -0.0109 19.3938 -0.0004
# 4 -0.0055 -0.0026 -0.0109 23.8748 0.0042 -4.3126
# 5 16.2545 7.5445 19.3938 0.0042 28.5683 -0.0002
# 6 0.0019 -0.0063 -0.0004 -4.3126 -0.0002 31.1212
#
#
#
# Elastic Compliance Matrix: (Units=1/GPa)
#
#
# Indices 1 2 3 4 5 6 
#
# 1 0.010325 -0.006343 -0.002077 0.000001 -0.002790 -0.000002
# 2 -0.006343 0.014968 -0.002590 -0.000001 0.001415 0.000003
# 3 -0.002077 -0.002590 0.018181 0.000010 -0.010477 0.000001
# 4 0.000001 -0.000001 0.000010 0.042961 -0.000013 0.005953
# 5 -0.002790 0.001415 -0.010477 -0.000013 0.043330 -0.000001
# 6 -0.000002 0.000003 0.000001 0.005953 -0.000001 0.032957
#
#
# Mechanical properties :
#
#
# Convention : Reuss Voigt Hill
#
# Bulk Modulus (GPa) = 46.61097 65.25584 55.93340
# Shear Modulus (GPa) = 26.05603 29.59064 27.82334
#
# Velocity S-wave (km/s) = 3.57450 3.80924 3.69373
# Velocity P-wave (km/s) = 6.31606 7.16564 6.75422
#
# Compressibility (1/GPa) = 0.02145418
#
# Stress axis : x y z
#
# Youngs Moduli (GPa) = 96.85120 66.80856 55.00142
#
# Poissons Ratio (x) = 0.42375 0.11424
# Poissons Ratio (y) = 0.61431 0.14248
# Poissons Ratio (z) = 0.20116 0.17306
#
# Static dielectric constant tensor:
#      x y z
#    x 3.599590 -0.000020 0.221170 
#    y -0.000020 3.556250 0.000010 
#    z 0.221170 0.000010 3.800290 
# 
# 
# High freq. dielectric constant tensor:
#      x y z
#    x 1.803790 0.000000 0.016230 
#    y 0.000000 1.783270 0.000000 
#    z 0.016230 0.000000 1.799040 
# 
# From -- ./inp_files/295599.got.cif
#   From: 2010.06.25/outbox.cif.g09.slc.cpg/sg12_148_cif.got.tgz:295599.got - 2010.06.28 00:19:55.
