data_PCOD8110082
_publ_section_title
;
Structure prediction by ZEFSAII (Michael W. Deem and Ramdas Pophale) SiO2 
 PCOD8110082
Probable space group: C 2/M
;
_chemical_formula_sum "Si O2"
_cell_formula_units_Z 52
_cell_length_a 14.548658
_cell_length_b 30.999297
_cell_length_c 8.600938
_cell_angle_alpha 90.000000
_cell_angle_beta 39.936351
_cell_angle_gamma 90.000000
_cell_volume 2490.075308
_symmetry_space_group_name_H-M "C 2/M"
_symmetry_group_IT_number 12
_symmetry_cell_setting 'monoclinic'
loop_
_space_group_symop_operation_xyz
x,y,z
-x,y,-z
-x,-y,-z
x,-y,z
1/2+x,1/2+y,z
1/2-x,1/2+y,-z
1/2-x,1/2-y,-z
1/2+x,1/2-y,z
loop_
_atom_site_type_symbol
_atom_site_label
_atom_site_fract_x
_atom_site_fract_y
_atom_site_fract_z
Si Si1 0.843492 0.317486 0.932122
Si Si2 0.500000 0.241294 0.500000
Si Si3 0.670871 0.628431 0.637920
Si Si4 0.721811 0.284760 0.402375
Si Si5 0.639946 0.379292 0.028488
Si Si6 0.131344 0.450167 0.215740
Si Si7 0.027326 0.606158 0.789828
O O1 0.826239 0.289789 0.114589
O O2 0.698763 0.344703 0.077964
O O3 0.876633 0.286263 0.744711
O O4 0.976254 0.350975 0.763573
O O5 0.566063 0.272308 0.543688
O O6 0.726709 0.669676 0.476234
O O7 0.530003 0.610262 0.730461
O O8 0.804835 0.595151 0.456981
O O9 0.647075 0.641065 0.847564
O O10 0.750000 0.250000 0.500000
O O11 0.726274 0.424155 0.922883
O O12 0.173878 0.500000 0.157440
O O13 0.000000 0.439456 0.500000
O O14 0.071189 0.434851 0.127160
O O15 0.000000 0.617505 0.000000
#
# Coordination Sequence:
#
# PCOD8110082 Si02
#       7
#     8   4   8   8   8   8   8
#     4  11  23  41  61  88 121 169 217 261 320 385
#     4  12  26  38  62  86 125 166 217 276 328 378
#     4  11  22  40  60  93 122 167 213 258 317 376
#     4  12  25  39  59  90 129 163 217 276 330 371
#     4  10  22  40  65  89 128 165 209 257 312 391
#     4  10  21  40  67  97 128 159 204 257 314 380
#     4  11  21  39  66  90 121 164 209 253 303 385
#
# _framework density 20.882902000000001
#
# number of rings (size 3 to 8) (size 9 to 14) (size 15 to 20)
#    0.000    1.077    3.077    4.154    2.154    2.769 
#    0.000    2.308    0.000    0.923    0.000    0.000 
#    0.000    0.000    0.000    0.000    0.000    0.000 
#
# Total GULP energy -322194.877966 kJ/mol
# GULP energy per Si atom -12392.110691 kJ/mol
# Density = 2.083537 g / cm^3
# Si number density = 20.882902 Si / 1000 Ang^3
#
#
#
# Elastic Constant Matrix: (Units=GPa)
#
#
# Indices 1 2 3 4 5 6 
#
# 1 126.4748 28.4303 40.0625 0.0000 -15.6440 0.0000
# 2 28.4303 67.6442 28.0145 0.0000 0.5362 0.0000
# 3 40.0625 28.0145 87.1874 0.0000 -13.9466 0.0000
# 4 0.0000 0.0000 0.0000 19.6430 0.0000 -5.6476
# 5 -15.6440 0.5362 -13.9466 0.0000 40.6157 0.0000
# 6 0.0000 0.0000 0.0000 -5.6476 0.0000 2.7816
#
#
#
# Elastic Compliance Matrix: (Units=1/GPa)
#
#
# Indices 1 2 3 4 5 6 
#
# 1 0.009901 -0.002863 -0.003189 0.000000 0.002756 0.000000
# 2 -0.002863 0.018073 -0.004980 0.000000 -0.003051 0.000000
# 3 -0.003189 -0.004980 0.015183 0.000000 0.004051 0.000000
# 4 0.000000 0.000000 0.000000 0.122301 0.000000 0.248311
# 5 0.002756 -0.003051 0.004051 0.000000 0.027114 0.000000
# 6 0.000000 0.000000 0.000000 0.248311 0.000000 0.863660
#
#
# Mechanical properties :
#
#
# Convention : Reuss Voigt Hill
#
# Bulk Modulus (GPa) = 47.40565 52.70233 50.05399
# Shear Modulus (GPa) = 4.60691 24.92799 14.76745
#
# Velocity S-wave (km/s) = 1.48689 3.45875 2.66212
# Velocity P-wave (km/s) = 5.06930 6.42203 5.78534
#
# Compressibility (1/GPa) = 0.02109453
#
# Stress axis : x y z
#
# Youngs Moduli (GPa) = 100.99697 55.33144 65.86351
#
# Poissons Ratio (x) = 0.15839 0.21003
# Poissons Ratio (y) = 0.28912 0.32798
# Poissons Ratio (z) = 0.32207 0.27554
#
# Static dielectric constant tensor:
#      x y z
#    x 4.675890 0.000000 -0.492440 
#    y 0.000000 3.511790 0.000000 
#    z -0.492440 0.000000 4.194120 
# 
# 
# High freq. dielectric constant tensor:
#      x y z
#    x 1.841480 0.000000 -0.000860 
#    y 0.000000 1.786240 0.000000 
#    z -0.000860 0.000000 1.812470 
# 
# From -- ./inp_files/68531.got.cif
#   From: 2010.06.25/outbox.cif.g09.slc.cpg/sg12_35_cif.got.tgz:68531.got - 2010.06.28 00:19:55.
