data_PCOD8110563
_publ_section_title
;
Structure prediction by ZEFSAII (Michael W. Deem and Ramdas Pophale) SiO2 
 PCOD8110563
Probable space group: C 2/M
;
_chemical_formula_sum "Si O2"
_cell_formula_units_Z 44
_cell_length_a 9.602457
_cell_length_b 26.587678
_cell_length_c 10.557829
_cell_angle_alpha 90.000000
_cell_angle_beta 64.053195
_cell_angle_gamma 90.000000
_cell_volume 2423.784588
_symmetry_space_group_name_H-M "C 2/M"
_symmetry_group_IT_number 12
_symmetry_cell_setting 'monoclinic'
loop_
_space_group_symop_operation_xyz
x,y,z
-x,y,-z
-x,-y,-z
x,-y,z
1/2+x,1/2+y,z
1/2-x,1/2+y,-z
1/2-x,1/2-y,-z
1/2+x,1/2-y,z
loop_
_atom_site_type_symbol
_atom_site_label
_atom_site_fract_x
_atom_site_fract_y
_atom_site_fract_z
Si Si1 0.728551 0.441720 0.489960
Si Si2 0.628888 0.636523 0.046543
Si Si3 0.463967 0.264009 0.155565
Si Si4 0.000000 0.620555 0.500000
Si Si5 0.598342 0.558587 0.269935
Si Si6 0.348107 0.812407 0.770030
O O1 0.764867 0.500000 0.489074
O O2 0.880217 0.412788 0.470557
O O3 0.582114 0.427889 0.636756
O O4 0.692520 0.428307 0.358974
O O5 0.562812 0.685566 0.145130
O O6 0.668130 0.592489 0.129708
O O7 0.500000 0.616086 0.000000
O O8 0.782727 0.652315 0.908672
O O9 0.509338 0.220961 0.236192
O O10 0.282100 0.275690 0.236825
O O11 0.500000 0.244617 0.000000
O O12 0.093482 0.653923 0.365842
O O13 0.617820 0.500000 0.226390
#
# Coordination Sequence:
#
# PCOD8110563 Si02
#       6
#     8   8   8   4   8   8
#     4   9  19  36  56  77 108 146 175 208 262 321
#     4   9  17  33  56  81 107 137 175 217 263 313
#     4   9  18  36  55  74 102 137 175 214 264 319
#     4  12  23  36  52  78 110 140 179 222 266 310
#     4   9  18  35  59  84 106 135 178 219 257 309
#     4  10  22  35  53  77 104 140 178 218 262 312
#
# _framework density 18.153428999999999
#
# number of rings (size 3 to 8) (size 9 to 14) (size 15 to 20)
#    0.000    2.909    0.000    5.727    0.000    4.000 
#    0.000    3.636    0.000    2.182    0.000    0.000 
#    0.000    0.000    0.000    0.000    0.000    0.000 
#
# Total GULP energy -272772.987774 kJ/mol
# GULP energy per Si atom -12398.772172 kJ/mol
# Density = 1.811211 g / cm^3
# Si number density = 18.153429 Si / 1000 Ang^3
#
#
#
# Elastic Constant Matrix: (Units=GPa)
#
#
# Indices 1 2 3 4 5 6 
#
# 1 109.4073 50.4361 46.1252 0.0000 -5.7716 0.0000
# 2 50.4361 65.2663 49.2833 0.0000 11.2301 0.0000
# 3 46.1252 49.2833 80.0929 0.0000 1.6880 0.0000
# 4 0.0000 0.0000 0.0000 82.8421 0.0000 74.8551
# 5 -5.7716 11.2301 1.6880 0.0000 21.2477 0.0000
# 6 0.0000 0.0000 0.0000 74.8551 0.0000 112.8319
#
#
#
# Elastic Compliance Matrix: (Units=1/GPa)
#
#
# Indices 1 2 3 4 5 6 
#
# 1 0.016834 -0.014172 -0.001230 0.000000 0.012161 0.000000
# 2 -0.014172 0.045215 -0.019108 0.000000 -0.026229 0.000000
# 3 -0.001230 -0.019108 0.024787 0.000000 0.007796 0.000000
# 4 0.000000 0.000000 0.000000 0.030137 0.000000 -0.019994
# 5 0.012161 -0.026229 0.007796 0.000000 0.063611 0.000000
# 6 0.000000 0.000000 0.000000 -0.019994 0.000000 0.022127
#
#
# Mechanical properties :
#
#
# Convention : Reuss Voigt Hill
#
# Bulk Modulus (GPa) = 56.12932 60.71730 58.42331
# Shear Modulus (GPa) = 18.00699 50.64579 34.32639
#
# Velocity S-wave (km/s) = 3.15291 5.28766 4.35317
# Velocity P-wave (km/s) = 6.65139 8.41418 7.58418
#
# Compressibility (1/GPa) = 0.01781600
#
# Stress axis : x y z
#
# Youngs Moduli (GPa) = 59.40524 22.11644 40.34325
#
# Poissons Ratio (x) = 0.31343 0.04963
# Poissons Ratio (y) = 0.84189 0.77087
# Poissons Ratio (z) = 0.07309 0.42260
#
# Static dielectric constant tensor:
#      x y z
#    x 3.376230 0.000000 -0.024470 
#    y 0.000000 3.221070 0.000000 
#    z -0.024470 0.000000 3.162440 
# 
# 
# High freq. dielectric constant tensor:
#      x y z
#    x 1.704440 0.000000 0.002850 
#    y 0.000000 1.698460 0.000000 
#    z 0.002850 0.000000 1.687480 
# 
# From -- ./inp_files/122357.got.cif
#   From: 2010.06.25/outbox.cif.g09.slc.cpg/sg12_62_cif.got.tgz:122357.got - 2010.06.28 00:19:55.
