data_PCOD8110122
_publ_section_title
;
Structure prediction by ZEFSAII (Michael W. Deem and Ramdas Pophale) SiO2 
 PCOD8110122
Probable space group: C 2/M
;
_chemical_formula_sum "Si O2"
_cell_formula_units_Z 64
_cell_length_a 17.243885
_cell_length_b 29.545783
_cell_length_c 9.646186
_cell_angle_alpha 90.000000
_cell_angle_beta 40.649539
_cell_angle_gamma 90.000000
_cell_volume 3201.505935
_symmetry_space_group_name_H-M "C 2/M"
_symmetry_group_IT_number 12
_symmetry_cell_setting 'monoclinic'
loop_
_space_group_symop_operation_xyz
x,y,z
-x,y,-z
-x,-y,-z
x,-y,z
1/2+x,1/2+y,z
1/2-x,1/2+y,-z
1/2-x,1/2-y,-z
1/2+x,1/2-y,z
loop_
_atom_site_type_symbol
_atom_site_label
_atom_site_fract_x
_atom_site_fract_y
_atom_site_fract_z
Si Si1 0.206292 0.109595 0.892573
Si Si2 0.430526 0.143573 0.727785
Si Si3 0.091037 0.375381 0.752785
Si Si4 0.995302 0.950684 0.841981
Si Si5 0.251509 0.446933 0.447161
Si Si6 0.320424 0.226949 0.027618
Si Si7 0.534078 0.690124 0.105154
Si Si8 0.723407 0.704323 0.448706
O O1 0.325705 0.109331 0.822377
O O2 0.235544 0.085717 0.705760
O O3 0.152651 0.160447 0.973502
O O4 0.096790 0.082151 0.110799
O O5 0.500000 0.163239 0.500000
O O6 0.525284 0.118459 0.694967
O O7 0.380110 0.182441 0.891019
O O8 0.153595 0.424527 0.680727
O O9 0.185364 0.334159 0.622528
O O10 0.000000 0.367192 0.000000
O O11 0.131813 0.944270 0.612257
O O12 0.945968 0.000000 0.874314
O O13 0.000000 0.942284 0.000000
O O14 0.225050 0.500000 0.443648
O O15 0.234800 0.214995 0.270905
O O16 0.250000 0.250000 0.000000
O O17 0.427371 0.257978 0.937412
O O18 0.411764 0.685052 0.357878
O O19 0.500000 0.674864 0.000000
O O20 0.750000 0.750000 0.500000
#
# Coordination Sequence:
#
# PCOD8110122 Si02
#       8
#     8   8   8   8   8   8   8   8
#     4  11  20  38  61  96 130 160 216 268 332 384
#     4  12  26  43  64  91 136 183 218 273 330 393
#     4  12  25  45  65  94 136 182 224 270 332 408
#     4   8  15  31  60  93 123 151 195 267 328 380
#     4  10  21  40  70 102 129 166 219 280 343 400
#     4  12  27  44  60  96 133 174 224 271 335 386
#     4  12  24  38  66  94 124 170 226 276 317 384
#     4  12  26  43  69  94 132 178 226 277 323 393
#
# _framework density 19.990593000000001
#
# number of rings (size 3 to 8) (size 9 to 14) (size 15 to 20)
#    0.000    0.875    5.000    4.500    3.500    0.250 
#    0.000    1.875    0.000    0.000    0.000    1.750 
#    0.000    0.000    0.000    0.000    0.000    0.000 
#
# Total GULP energy -396427.431971 kJ/mol
# GULP energy per Si atom -12388.357249 kJ/mol
# Density = 1.994509 g / cm^3
# Si number density = 19.990593 Si / 1000 Ang^3
#
#
#
# Elastic Constant Matrix: (Units=GPa)
#
#
# Indices 1 2 3 4 5 6 
#
# 1 90.6107 31.2481 37.9114 0.0000 -8.8779 0.0000
# 2 31.2481 111.9757 43.4644 0.0000 -10.1211 0.0000
# 3 37.9114 43.4644 125.6751 0.0000 -4.2373 0.0000
# 4 0.0000 0.0000 0.0000 26.2820 0.0000 -3.2605
# 5 -8.8779 -10.1211 -4.2373 0.0000 30.9669 0.0000
# 6 0.0000 0.0000 0.0000 -3.2605 0.0000 26.8893
#
#
#
# Elastic Compliance Matrix: (Units=1/GPa)
#
#
# Indices 1 2 3 4 5 6 
#
# 1 0.013406 -0.002270 -0.003169 0.000000 0.002668 0.000000
# 2 -0.002270 0.010965 -0.003022 0.000000 0.002519 0.000000
# 3 -0.003169 -0.003022 0.009940 0.000000 -0.000536 0.000000
# 4 0.000000 0.000000 0.000000 0.038630 0.000000 0.004684
# 5 0.002668 0.002519 -0.000536 0.000000 0.033807 0.000000
# 6 0.000000 0.000000 0.000000 0.004684 0.000000 0.037757
#
#
# Mechanical properties :
#
#
# Convention : Reuss Voigt Hill
#
# Bulk Modulus (GPa) = 57.50966 61.50102 59.50534
# Shear Modulus (GPa) = 29.89968 31.20348 30.55158
#
# Velocity S-wave (km/s) = 3.87161 3.95512 3.91359
# Velocity P-wave (km/s) = 6.98689 7.18951 7.08892
#
# Compressibility (1/GPa) = 0.01738838
#
# Stress axis : x y z
#
# Youngs Moduli (GPa) = 74.59113 91.20027 100.60072
#
# Poissons Ratio (x) = 0.20702 0.31882
# Poissons Ratio (y) = 0.16932 0.30406
# Poissons Ratio (z) = 0.23639 0.27565
#
# Static dielectric constant tensor:
#      x y z
#    x 0.002900 0.000000 2.414340 
#    y 0.000000 3.969820 0.000000 
#    z 2.414340 0.000000 1.509740 
# 
# 
# High freq. dielectric constant tensor:
#      x y z
#    x 1.770550 0.000000 -0.030100 
#    y 0.000000 1.780370 0.000000 
#    z -0.030100 0.000000 1.779970 
# 
# From -- ./inp_files/80684.got.cif
#   From: 2010.06.25/outbox.cif.g09.slc.cpg/sg12_41_cif.got.tgz:80684.got - 2010.06.28 00:19:55.
