data_PCOD8110355
_publ_section_title
;
Structure prediction by ZEFSAII (Michael W. Deem and Ramdas Pophale) SiO2 
 PCOD8110355
Probable space group: C 2/M
;
_chemical_formula_sum "Si O2"
_cell_formula_units_Z 48
_cell_length_a 10.319563
_cell_length_b 25.099662
_cell_length_c 9.112962
_cell_angle_alpha 90.000000
_cell_angle_beta 101.008634
_cell_angle_gamma 90.000000
_cell_volume 2316.981624
_symmetry_space_group_name_H-M "C 2/M"
_symmetry_group_IT_number 12
_symmetry_cell_setting 'monoclinic'
loop_
_space_group_symop_operation_xyz
x,y,z
-x,y,-z
-x,-y,-z
x,-y,z
1/2+x,1/2+y,z
1/2-x,1/2+y,-z
1/2-x,1/2-y,-z
1/2+x,1/2-y,z
loop_
_atom_site_type_symbol
_atom_site_label
_atom_site_fract_x
_atom_site_fract_y
_atom_site_fract_z
Si Si1 0.396545 0.808581 0.605238
Si Si2 0.607560 0.412245 0.222809
Si Si3 0.573041 0.000000 0.359334
Si Si4 0.922720 0.600431 0.831496
Si Si5 0.614419 0.313287 0.410945
Si Si6 0.181858 0.060601 0.930963
Si Si7 0.645065 0.500000 0.457597
O O1 0.500000 0.819684 0.500000
O O2 0.440161 0.843212 0.754162
O O3 0.396687 0.746734 0.651546
O O4 0.252524 0.825334 0.519256
O O5 0.598463 0.350727 0.266335
O O6 0.466999 0.437348 0.155574
O O7 0.667769 0.447010 0.366918
O O8 0.698555 0.415411 0.098226
O O9 0.500000 0.000000 0.500000
O O10 0.526878 0.947505 0.261340
O O11 0.733900 0.000000 0.401608
O O12 0.768654 0.594083 0.836374
O O13 0.000000 0.600211 0.000000
O O14 0.500000 0.327153 0.500000
O O15 0.232196 0.000000 0.944354
O O16 0.500000 0.500000 0.500000
#
# Coordination Sequence:
#
# PCOD8110355 Si02
#       7
#     8   8   4   8   8   8   4
#     4  10  23  44  67  94 128 170 219 270 320 381
#     4  11  21  37  64  94 124 165 207 264 325 386
#     4  12  27  40  62  93 123 163 219 262 311 385
#     4  12  26  42  63  89 132 175 213 260 322 386
#     4  10  21  41  70  93 128 165 219 273 325 368
#     4  11  22  41  60  91 136 166 207 260 332 385
#     4  12  22  35  64  91 122 155 211 259 311 379
#
# _framework density 20.716608000000001
#
# number of rings (size 3 to 8) (size 9 to 14) (size 15 to 20)
#    0.000    1.000    2.500    4.750    4.667    0.000 
#    3.000    0.833    0.000    0.000    0.000    0.000 
#    0.000    0.000    0.000    0.000    0.000    0.000 
#
# Total GULP energy -297721.338242 kJ/mol
# GULP energy per Si atom -12405.055760 kJ/mol
# Density = 2.066946 g / cm^3
# Si number density = 20.716608 Si / 1000 Ang^3
#
#
#
# Elastic Constant Matrix: (Units=GPa)
#
#
# Indices 1 2 3 4 5 6 
#
# 1 93.7562 27.0740 29.4190 0.0000 -9.1167 0.0000
# 2 27.0740 142.2810 75.8170 0.0000 -12.3124 0.0000
# 3 29.4190 75.8170 123.2552 0.0000 -5.5288 0.0000
# 4 0.0000 0.0000 0.0000 44.4064 0.0000 -9.9535
# 5 -9.1167 -12.3124 -5.5288 0.0000 32.4764 0.0000
# 6 0.0000 0.0000 0.0000 -9.9535 0.0000 28.8562
#
#
#
# Elastic Compliance Matrix: (Units=1/GPa)
#
#
# Indices 1 2 3 4 5 6 
#
# 1 0.011856 -0.000868 -0.002178 0.000000 0.002628 0.000000
# 2 -0.000868 0.010795 -0.006309 0.000000 0.002775 0.000000
# 3 -0.002178 -0.006309 0.012474 0.000000 -0.000880 0.000000
# 4 0.000000 0.000000 0.000000 0.024406 0.000000 0.008419
# 5 0.002628 0.002775 -0.000880 0.000000 0.032432 0.000000
# 6 0.000000 0.000000 0.000000 0.008419 0.000000 0.037558
#
#
# Mechanical properties :
#
#
# Convention : Reuss Voigt Hill
#
# Bulk Modulus (GPa) = 60.91674 69.32359 65.12017
# Shear Modulus (GPa) = 32.53020 36.27995 34.40508
#
# Velocity S-wave (km/s) = 3.96693 4.18933 4.07965
# Velocity P-wave (km/s) = 7.10287 7.54560 7.32758
#
# Compressibility (1/GPa) = 0.01641585
#
# Stress axis : x y z
#
# Youngs Moduli (GPa) = 84.34858 92.63165 80.16447
#
# Poissons Ratio (x) = 0.08040 0.17459
# Poissons Ratio (y) = 0.07321 0.50575
# Poissons Ratio (z) = 0.18371 0.58440
#
# Static dielectric constant tensor:
#      x y z
#    x 3.907910 0.000000 -0.163900 
#    y 0.000000 3.728440 0.000000 
#    z -0.163900 0.000000 3.789560 
# 
# 
# High freq. dielectric constant tensor:
#      x y z
#    x 1.821500 0.000000 -0.007640 
#    y 0.000000 1.811070 0.000000 
#    z -0.007640 0.000000 1.809720 
# 
# From -- ./inp_files/51495.got.cif
#   From: 2010.06.25/outbox.cif.g09.slc.cpg/sg12_26_cif.got.tgz:51495.got - 2010.06.28 00:19:55.
