data_PCOD8110303
_publ_section_title
;
Structure prediction by ZEFSAII (Michael W. Deem and Ramdas Pophale) SiO2 
 PCOD8110303
Probable space group: C 2/M
;
_chemical_formula_sum "Si O2"
_cell_formula_units_Z 56
_cell_length_a 11.191365
_cell_length_b 26.570771
_cell_length_c 10.694165
_cell_angle_alpha 90.000000
_cell_angle_beta 51.988370
_cell_angle_gamma 90.000000
_cell_volume 2505.516999
_symmetry_space_group_name_H-M "C 2/M"
_symmetry_group_IT_number 12
_symmetry_cell_setting 'monoclinic'
loop_
_space_group_symop_operation_xyz
x,y,z
-x,y,-z
-x,-y,-z
x,-y,z
1/2+x,1/2+y,z
1/2-x,1/2+y,-z
1/2-x,1/2-y,-z
1/2+x,1/2-y,z
loop_
_atom_site_type_symbol
_atom_site_label
_atom_site_fract_x
_atom_site_fract_y
_atom_site_fract_z
Si Si1 0.435615 0.557134 0.348369
Si Si2 0.810756 0.442077 0.860005
Si Si3 0.615578 0.370604 0.823678
Si Si4 0.775125 0.898054 0.819038
Si Si5 0.885418 0.210670 0.691711
Si Si6 0.147732 0.443001 0.680849
Si Si7 0.843357 0.232123 0.322522
O O1 0.416134 0.500000 0.320298
O O2 0.480673 0.590853 0.198669
O O3 0.587964 0.567121 0.330566
O O4 0.279176 0.577949 0.505035
O O5 0.749782 0.500000 0.890567
O O6 0.745104 0.405139 0.798701
O O7 0.988620 0.441166 0.713444
O O8 0.782813 0.419433 0.013576
O O9 0.685151 0.326115 0.694723
O O10 0.500000 0.347359 0.000000
O O11 0.830976 0.840880 0.789422
O O12 0.640493 0.906211 0.805866
O O13 0.727213 0.237746 0.751391
O O14 0.000000 0.202646 0.500000
O O15 0.979386 0.239051 0.745172
O O16 0.186068 0.500000 0.698186
O O17 0.750000 0.250000 0.500000
#
# Coordination Sequence:
#
# PCOD8110303 Si02
#       7
#     8   8   8   8   8   8   8
#     4  11  22  38  67  99 134 178 225 272 333 403
#     4  11  24  42  64  97 144 185 219 273 343 410
#     4  12  24  44  69  97 134 171 229 282 338 408
#     4  12  21  38  69  98 135 180 230 275 340 410
#     4  10  21  41  67  96 132 170 228 295 348 402
#     4  10  23  39  58  95 141 180 227 278 328 400
#     4  10  23  44  68  95 128 176 223 289 348 406
#
# _framework density 22.350676
#
# number of rings (size 3 to 8) (size 9 to 14) (size 15 to 20)
#    0.000    1.143    2.857    3.429    2.000    4.571 
#    5.143    6.429    0.000    0.000    0.000    0.000 
#    0.000    0.000    0.000    0.000    0.000    0.000 
#
# Total GULP energy -346869.019206 kJ/mol
# GULP energy per Si atom -12388.179257 kJ/mol
# Density = 2.229980 g / cm^3
# Si number density = 22.350676 Si / 1000 Ang^3
#
#
#
# Elastic Constant Matrix: (Units=GPa)
#
#
# Indices 1 2 3 4 5 6 
#
# 1 133.6061 49.8625 24.9432 0.0000 -0.8382 0.0000
# 2 49.8625 113.8720 38.1940 0.0000 8.4609 0.0000
# 3 24.9432 38.1940 54.1653 0.0000 -3.4555 0.0000
# 4 0.0000 0.0000 0.0000 31.4231 0.0000 6.9900
# 5 -0.8382 8.4609 -3.4555 0.0000 25.7758 0.0000
# 6 0.0000 0.0000 0.0000 6.9900 0.0000 44.9186
#
#
#
# Elastic Compliance Matrix: (Units=1/GPa)
#
#
# Indices 1 2 3 4 5 6 
#
# 1 0.009117 -0.003540 -0.001623 0.000000 0.001241 0.000000
# 2 -0.003540 0.013526 -0.008269 0.000000 -0.005664 0.000000
# 3 -0.001623 -0.008269 0.025428 0.000000 0.006070 0.000000
# 4 0.000000 0.000000 0.000000 0.032965 0.000000 -0.005130
# 5 0.001241 -0.005664 0.006070 0.000000 0.041509 0.000000
# 6 0.000000 0.000000 0.000000 -0.005130 0.000000 0.023061
#
#
# Mechanical properties :
#
#
# Convention : Reuss Voigt Hill
#
# Bulk Modulus (GPa) = 47.15526 58.62699 52.89113
# Shear Modulus (GPa) = 27.84930 32.99973 30.42452
#
# Velocity S-wave (km/s) = 3.53372 3.84663 3.69349
# Velocity P-wave (km/s) = 6.14763 6.78353 6.47339
#
# Compressibility (1/GPa) = 0.02120654
#
# Stress axis : x y z
#
# Youngs Moduli (GPa) = 109.69064 73.93077 39.32749
#
# Poissons Ratio (x) = 0.26170 0.06383
# Poissons Ratio (y) = 0.38828 0.32520
# Poissons Ratio (z) = 0.17802 0.61134
#
# Static dielectric constant tensor:
#      x y z
#    x 5.089060 0.000000 -0.217160 
#    y 0.000000 3.938190 0.000000 
#    z -0.217160 0.000000 3.879800 
# 
# 
# High freq. dielectric constant tensor:
#      x y z
#    x 1.905950 0.000000 -0.001080 
#    y 0.000000 1.869670 0.000000 
#    z -0.001080 0.000000 1.860160 
# 
# From -- ./inp_files/136924.got.cif
#   From: 2010.06.25/outbox.cif.g09.slc.cpg/sg12_69_cif.got.tgz:136924.got - 2010.06.28 00:19:55.
