data_PCOD8110059
_publ_section_title
;
Structure prediction by ZEFSAII (Michael W. Deem and Ramdas Pophale) SiO2 
 PCOD8110059
Probable space group: C 2/M
;
_chemical_formula_sum "Si O2"
_cell_formula_units_Z 40
_cell_length_a 29.299811
_cell_length_b 13.967270
_cell_length_c 8.754855
_cell_angle_alpha 90.000000
_cell_angle_beta 149.198617
_cell_angle_gamma 90.000000
_cell_volume 1834.633032
_symmetry_space_group_name_H-M "C 2/M"
_symmetry_group_IT_number 12
_symmetry_cell_setting 'monoclinic'
loop_
_space_group_symop_operation_xyz
x,y,z
-x,y,-z
-x,-y,-z
x,-y,z
1/2+x,1/2+y,z
1/2-x,1/2+y,-z
1/2-x,1/2-y,-z
1/2+x,1/2-y,z
loop_
_atom_site_type_symbol
_atom_site_label
_atom_site_fract_x
_atom_site_fract_y
_atom_site_fract_z
Si Si1 0.599791 0.390211 0.753566
Si Si2 0.578514 0.886762 0.025705
Si Si3 0.118527 0.613278 0.474858
Si Si4 0.293629 0.230233 0.784798
Si Si5 0.725509 0.389226 0.854676
O O1 0.500000 0.353481 0.500000
O O2 0.609679 0.500000 0.835553
O O3 0.628561 0.380152 0.657722
O O4 0.670653 0.331093 0.053734
O O5 0.627699 0.851609 0.324722
O O6 0.623669 0.841467 0.006635
O O7 0.583819 0.000000 0.027139
O O8 0.476109 0.851725 0.731403
O O9 0.121652 0.500000 0.481997
O O10 0.198169 0.652068 0.810397
O O11 0.250000 0.250000 0.500000
O O12 0.225834 0.177468 0.706283
O O13 0.744138 0.500000 0.864456
#
# Coordination Sequence:
#
# PCOD8110059 Si02
#       5
#     8   8   8   8   8
#     4  10  24  46  66  86 121 173 222 261 304 366
#     4   9  18  34  57  91 130 157 191 249 322 379
#     4   8  16  33  59  90 123 161 192 238 315 383
#     4  12  25  38  59  96 125 162 209 261 321 370
#     4  10  21  40  67  92 121 159 208 261 315 376
#
# _framework density 21.802724999999999
#
# number of rings (size 3 to 8) (size 9 to 14) (size 15 to 20)
#    0.000    2.200    0.000    3.600    2.800    3.200 
#    3.600    3.000    0.000    3.600    0.000    0.000 
#    0.000    0.000    0.000    0.000    0.000    0.000 
#
# Total GULP energy -247959.872583 kJ/mol
# GULP energy per Si atom -12397.993629 kJ/mol
# Density = 2.175310 g / cm^3
# Si number density = 21.802725 Si / 1000 Ang^3
#
#
#
# Elastic Constant Matrix: (Units=GPa)
#
#
# Indices 1 2 3 4 5 6 
#
# 1 150.6847 51.2940 48.3988 0.0000 11.9279 0.0000
# 2 51.2940 69.3195 29.9597 0.0000 -4.1215 0.0000
# 3 48.3988 29.9597 79.6487 0.0000 -2.0489 0.0000
# 4 0.0000 0.0000 0.0000 17.1709 0.0000 -7.1035
# 5 11.9279 -4.1215 -2.0489 0.0000 27.3409 0.0000
# 6 0.0000 0.0000 0.0000 -7.1035 0.0000 40.1752
#
#
#
# Elastic Compliance Matrix: (Units=1/GPa)
#
#
# Indices 1 2 3 4 5 6 
#
# 1 0.010636 -0.006405 -0.004206 0.000000 -0.005921 0.000000
# 2 -0.006405 0.021206 -0.003938 0.000000 0.005696 0.000000
# 3 -0.004206 -0.003938 0.016657 0.000000 0.002490 0.000000
# 4 0.000000 0.000000 0.000000 0.062834 0.000000 0.011110
# 5 -0.005921 0.005696 0.002490 0.000000 0.040204 0.000000
# 6 0.000000 0.000000 0.000000 0.011110 0.000000 0.026855
#
#
# Mechanical properties :
#
#
# Convention : Reuss Voigt Hill
#
# Bulk Modulus (GPa) = 51.54574 62.10645 56.82609
# Shear Modulus (GPa) = 23.36920 28.27077 25.81999
#
# Velocity S-wave (km/s) = 3.27746 3.60483 3.44503
# Velocity P-wave (km/s) = 6.16567 6.77302 6.47647
#
# Compressibility (1/GPa) = 0.01940025
#
# Stress axis : x y z
#
# Youngs Moduli (GPa) = 94.01792 47.15683 60.03626
#
# Poissons Ratio (x) = 0.30202 0.25254
# Poissons Ratio (y) = 0.60214 0.23644
# Poissons Ratio (z) = 0.39548 0.18572
#
# Static dielectric constant tensor:
#      x y z
#    x 4.408050 0.000000 0.203810 
#    y 0.000000 3.920860 0.000000 
#    z 0.203810 0.000000 3.907380 
# 
# 
# High freq. dielectric constant tensor:
#      x y z
#    x 1.870130 0.000000 0.016550 
#    y 0.000000 1.859040 0.000000 
#    z 0.016550 0.000000 1.833040 
# 
# From -- ./inp_files/85501.got.cif
#   From: 2010.06.25/outbox.cif.g09.slc.cpg/sg12_43_cif.got.tgz:85501.got - 2010.06.28 00:19:55.
