data_PCOD8110923
_publ_section_title
;
Structure prediction by ZEFSAII (Michael W. Deem and Ramdas Pophale) SiO2 
 PCOD8110923
Probable space group: C 2/M
;
_chemical_formula_sum "Si O2"
_cell_formula_units_Z 48
_cell_length_a 9.008992
_cell_length_b 24.821813
_cell_length_c 11.353988
_cell_angle_alpha 90.000000
_cell_angle_beta 112.500207
_cell_angle_gamma 90.000000
_cell_volume 2345.701943
_symmetry_space_group_name_H-M "C 2/M"
_symmetry_group_IT_number 12
_symmetry_cell_setting 'monoclinic'
loop_
_space_group_symop_operation_xyz
x,y,z
-x,y,-z
-x,-y,-z
x,-y,z
1/2+x,1/2+y,z
1/2-x,1/2+y,-z
1/2-x,1/2-y,-z
1/2+x,1/2-y,z
loop_
_atom_site_type_symbol
_atom_site_label
_atom_site_fract_x
_atom_site_fract_y
_atom_site_fract_z
Si Si1 0.337890 0.814240 0.826689
Si Si2 0.311627 0.204241 0.147694
Si Si3 0.835240 0.635704 0.382369
Si Si4 0.683753 0.304604 0.531858
Si Si5 0.672321 0.382199 0.955165
Si Si6 0.343664 0.561583 0.827917
O O1 0.528415 0.802726 0.884896
O O2 0.240759 0.766289 0.862038
O O3 0.280493 0.822153 0.676396
O O4 0.292564 0.869637 0.882950
O O5 0.346868 0.183783 0.290522
O O6 0.171317 0.169920 0.042473
O O7 0.700363 0.649433 0.438083
O O8 0.790647 0.579361 0.306582
O O9 0.000000 0.628265 0.500000
O O10 0.500000 0.295190 0.500000
O O11 0.750000 0.250000 0.500000
O O12 0.496005 0.398344 0.854849
O O13 0.726123 0.431120 0.059568
O O14 0.392412 0.500000 0.821059
#
# Coordination Sequence:
#
# PCOD8110923 Si02
#       6
#     8   8   8   8   8   8
#     4  12  23  36  58  92 140 175 209 249 306 375
#     4  11  24  36  59  93 137 177 208 248 306 375
#     4  11  22  42  62  96 128 163 213 263 315 379
#     4  12  22  35  58  90 135 178 211 247 300 380
#     4  10  22  38  61  89 124 156 214 259 317 365
#     4  10  23  44  72  92 114 162 221 275 325 374
#
# _framework density 20.462959000000001
#
# number of rings (size 3 to 8) (size 9 to 14) (size 15 to 20)
#    0.000    1.000    3.333    4.500    7.000    0.333 
#    0.000    0.000    0.000   24.500    0.000    0.000 
#    0.000    0.000    0.000    0.000    0.000    0.000 
#
# Total GULP energy -297483.525928 kJ/mol
# GULP energy per Si atom -12395.146914 kJ/mol
# Density = 2.041638 g / cm^3
# Si number density = 20.462959 Si / 1000 Ang^3
#
#
#
# Elastic Constant Matrix: (Units=GPa)
#
#
# Indices 1 2 3 4 5 6 
#
# 1 141.3903 56.7136 37.1389 0.0000 -6.8742 0.0000
# 2 56.7136 88.4305 42.8612 0.0000 1.7495 0.0000
# 3 37.1389 42.8612 80.3290 0.0000 5.4143 0.0000
# 4 0.0000 0.0000 0.0000 20.4793 0.0000 -0.8481
# 5 -6.8742 1.7495 5.4143 0.0000 38.8778 0.0000
# 6 0.0000 0.0000 0.0000 -0.8481 0.0000 20.3947
#
#
#
# Elastic Compliance Matrix: (Units=1/GPa)
#
#
# Indices 1 2 3 4 5 6 
#
# 1 0.009855 -0.005507 -0.001768 0.000000 0.002237 0.000000
# 2 -0.005507 0.018339 -0.007185 0.000000 -0.000798 0.000000
# 3 -0.001768 -0.007185 0.017261 0.000000 -0.002393 0.000000
# 4 0.000000 0.000000 0.000000 0.048914 0.000000 0.002034
# 5 0.002237 -0.000798 -0.002393 0.000000 0.026486 0.000000
# 6 0.000000 0.000000 0.000000 0.002034 0.000000 0.049117
#
#
# Mechanical properties :
#
#
# Convention : Reuss Voigt Hill
#
# Bulk Modulus (GPa) = 60.48334 64.84193 62.66263
# Shear Modulus (GPa) = 24.46126 27.51278 25.98702
#
# Velocity S-wave (km/s) = 3.46119 3.67074 3.56751
# Velocity P-wave (km/s) = 6.75239 7.05139 6.90351
#
# Compressibility (1/GPa) = 0.01653348
#
# Stress axis : x y z
#
# Youngs Moduli (GPa) = 101.47134 54.52959 57.93284
#
# Poissons Ratio (x) = 0.30032 0.10245
# Poissons Ratio (y) = 0.55885 0.41624
# Poissons Ratio (z) = 0.17945 0.39179
#
# Static dielectric constant tensor:
#      x y z
#    x 3.907670 0.000000 -0.476450 
#    y 0.000000 3.475800 0.000000 
#    z -0.476450 0.000000 3.824510 
# 
# 
# High freq. dielectric constant tensor:
#      x y z
#    x 1.794940 0.000000 -0.001590 
#    y 0.000000 1.758470 0.000000 
#    z -0.001590 0.000000 1.830770 
# 
# From -- ./inp_files/122557.got.cif
#   From: 2010.06.25/outbox.cif.g09.slc.cpg/sg12_62_cif.got.tgz:122557.got - 2010.06.28 00:19:55.
