data_PCOD8110941
_publ_section_title
;
Structure prediction by ZEFSAII (Michael W. Deem and Ramdas Pophale) SiO2 
 PCOD8110941
Probable space group: C 2/M
;
_chemical_formula_sum "Si O2"
_cell_formula_units_Z 44
_cell_length_a 22.393298
_cell_length_b 9.159556
_cell_length_c 12.929354
_cell_angle_alpha 90.000000
_cell_angle_beta 127.520922
_cell_angle_gamma 90.000000
_cell_volume 2103.362997
_symmetry_space_group_name_H-M "C 2/M"
_symmetry_group_IT_number 12
_symmetry_cell_setting 'monoclinic'
loop_
_space_group_symop_operation_xyz
x,y,z
-x,y,-z
-x,-y,-z
x,-y,z
1/2+x,1/2+y,z
1/2-x,1/2+y,-z
1/2-x,1/2-y,-z
1/2+x,1/2-y,z
loop_
_atom_site_type_symbol
_atom_site_label
_atom_site_fract_x
_atom_site_fract_y
_atom_site_fract_z
Si Si1 0.792774 0.169225 0.316663
Si Si2 0.000000 0.748693 0.000000
Si Si3 0.958752 0.340338 0.176233
Si Si4 0.876777 0.671596 0.586794
Si Si5 0.322274 0.333952 0.114217
Si Si6 0.844213 0.835304 0.758066
O O1 0.845159 0.257665 0.449920
O O2 0.832176 0.182853 0.247232
O O3 0.710446 0.244636 0.223308
O O4 0.784580 0.000000 0.340871
O O5 0.071908 0.846041 0.106966
O O6 0.977873 0.650447 0.074585
O O7 0.928581 0.500000 0.177065
O O8 0.896826 0.220882 0.135926
O O9 0.033783 0.301400 0.319085
O O10 0.857465 0.500000 0.572330
O O11 0.838885 0.752763 0.643346
O O12 0.311323 0.500000 0.069174
O O13 0.250000 0.250000 0.000000
O O14 0.814149 0.000000 0.711927
#
# Coordination Sequence:
#
# PCOD8110941 Si02
#       6
#     8   4   8   8   8   8
#     4  11  24  41  60  85 119 159 198 242 295 350
#     4  10  22  38  62  92 120 156 196 240 296 352
#     4  10  22  40  63  89 120 155 196 244 294 350
#     4  10  22  40  62  89 119 156 198 243 295 351
#     4  11  25  42  62  88 120 157 198 243 294 350
#     4  11  22  37  60  90 122 156 197 246 294 348
#
# _framework density 20.918880999999999
#
# number of rings (size 3 to 8) (size 9 to 14) (size 15 to 20)
#    0.000    1.455    0.000    4.364    0.000   13.091 
#    0.000    3.636    0.000    0.000    0.000    0.000 
#    0.000    0.000    0.000    0.000    0.000    0.000 
#
# Total GULP energy -272852.990953 kJ/mol
# GULP energy per Si atom -12402.408680 kJ/mol
# Density = 2.087127 g / cm^3
# Si number density = 20.918881 Si / 1000 Ang^3
#
#
#
# Elastic Constant Matrix: (Units=GPa)
#
#
# Indices 1 2 3 4 5 6 
#
# 1 109.6078 57.3423 39.0329 0.0000 7.8184 0.0000
# 2 57.3423 161.7010 49.7207 0.0000 5.2453 0.0000
# 3 39.0329 49.7207 113.1858 0.0000 5.8024 0.0000
# 4 0.0000 0.0000 0.0000 28.6145 0.0000 1.4748
# 5 7.8184 5.2453 5.8024 0.0000 25.4052 0.0000
# 6 0.0000 0.0000 0.0000 1.4748 0.0000 31.6840
#
#
#
# Elastic Compliance Matrix: (Units=1/GPa)
#
#
# Indices 1 2 3 4 5 6 
#
# 1 0.011965 -0.003392 -0.002512 0.000000 -0.002408 0.000000
# 2 -0.003392 0.008127 -0.002396 0.000000 -0.000087 0.000000
# 3 -0.002512 -0.002396 0.010815 0.000000 -0.001202 0.000000
# 4 0.000000 0.000000 0.000000 0.035031 0.000000 -0.001631
# 5 -0.002408 -0.000087 -0.001202 0.000000 0.040396 0.000000
# 6 0.000000 0.000000 0.000000 -0.001631 0.000000 0.031638
#
#
# Mechanical properties :
#
#
# Convention : Reuss Voigt Hill
#
# Bulk Modulus (GPa) = 69.90049 75.18739 72.54394
# Shear Modulus (GPa) = 31.37934 33.03399 32.20667
#
# Velocity S-wave (km/s) = 3.87725 3.97816 3.92803
# Velocity P-wave (km/s) = 7.31653 7.55787 7.43818
#
# Compressibility (1/GPa) = 0.01430605
#
# Stress axis : x y z
#
# Youngs Moduli (GPa) = 83.57993 123.05226 92.46005
#
# Poissons Ratio (x) = 0.41742 0.23231
# Poissons Ratio (y) = 0.28352 0.22150
# Poissons Ratio (z) = 0.20999 0.29479
#
# Static dielectric constant tensor:
#      x y z
#    x 3.816830 0.000000 0.065060 
#    y 0.000000 3.837220 0.000000 
#    z 0.065060 0.000000 3.865750 
# 
# 
# High freq. dielectric constant tensor:
#      x y z
#    x 1.816460 0.000000 0.004750 
#    y 0.000000 1.830260 0.000000 
#    z 0.004750 0.000000 1.827870 
# 
# From -- ./inp_files/238057.got.cif
#   From: 2010.06.25/outbox.cif.g09.slc.cpg/sg12_120_cif.got.tgz:238057.got - 2010.06.28 00:19:55.
