data_PCOD8110410
_publ_section_title
;
Structure prediction by ZEFSAII (Michael W. Deem and Ramdas Pophale) SiO2 
 PCOD8110410
Probable space group: C 2/M
;
_chemical_formula_sum "Si O2"
_cell_formula_units_Z 64
_cell_length_a 25.888975
_cell_length_b 8.532542
_cell_length_c 13.962484
_cell_angle_alpha 90.000000
_cell_angle_beta 93.005290
_cell_angle_gamma 90.000000
_cell_volume 3080.053657
_symmetry_space_group_name_H-M "C 2/M"
_symmetry_group_IT_number 12
_symmetry_cell_setting 'monoclinic'
loop_
_space_group_symop_operation_xyz
x,y,z
-x,y,-z
-x,-y,-z
x,-y,z
1/2+x,1/2+y,z
1/2-x,1/2+y,-z
1/2-x,1/2-y,-z
1/2+x,1/2-y,z
loop_
_atom_site_type_symbol
_atom_site_label
_atom_site_fract_x
_atom_site_fract_y
_atom_site_fract_z
Si Si1 0.153987 0.185320 0.600942
Si Si2 0.947421 0.182922 0.944383
Si Si3 0.858093 0.817223 0.618178
Si Si4 0.221196 0.179911 0.907111
Si Si5 0.888487 0.681344 0.100821
Si Si6 0.440854 0.316351 0.283029
Si Si7 0.547113 0.818321 0.263483
Si Si8 0.740245 0.819854 0.295887
O O1 0.151587 0.239017 0.491125
O O2 0.104104 0.252532 0.652527
O O3 0.207006 0.248806 0.652719
O O4 0.153479 0.000000 0.613095
O O5 0.946934 0.220150 0.832690
O O6 0.938339 0.000000 0.957692
O O7 0.900685 0.274896 0.991885
O O8 0.000000 0.239946 0.000000
O O9 0.905389 0.717021 0.662415
O O10 0.806774 0.786223 0.673912
O O11 0.872141 0.000000 0.624360
O O12 0.170316 0.279196 0.880992
O O13 0.258006 0.193687 0.818617
O O14 0.205890 0.000000 0.925036
O O15 0.250000 0.250000 0.000000
O O16 0.898876 0.500000 0.121616
O O17 0.926206 0.783210 0.171565
O O18 0.449141 0.500000 0.299167
O O19 0.494530 0.230225 0.313032
O O20 0.546147 0.000000 0.237082
O O21 0.731403 0.000000 0.326620
#
# Coordination Sequence:
#
# PCOD8110410 Si02
#       8
#     8   8   8   8   8   8   8   8
#     4   9  20  41  69  95 122 162 213 264 319 378
#     4  11  23  40  65  91 120 163 211 252 301 367
#     4  11  24  42  65  94 126 167 214 262 320 383
#     4  11  24  42  64  91 130 170 211 256 314 376
#     4  12  24  39  62  94 129 164 207 257 316 378
#     4  11  21  41  68  94 126 167 215 264 314 375
#     4  12  26  43  62  92 132 169 209 263 321 377
#     4  10  21  42  67  93 127 167 209 262 318 373
#
# _framework density 20.778860000000002
#
# number of rings (size 3 to 8) (size 9 to 14) (size 15 to 20)
#    0.000    1.125    2.500    4.125    1.750    2.000 
#    0.000    5.625    0.000    0.000    0.000    0.000 
#    0.000    0.000    0.000    0.000    0.000    0.000 
#
# Total GULP energy -397012.616357 kJ/mol
# GULP energy per Si atom -12406.644261 kJ/mol
# Density = 2.073157 g / cm^3
# Si number density = 20.778860 Si / 1000 Ang^3
#
#
#
# Elastic Constant Matrix: (Units=GPa)
#
#
# Indices 1 2 3 4 5 6 
#
# 1 133.4092 22.6720 45.0608 0.0000 -1.7412 0.0000
# 2 22.6720 67.2794 21.0376 0.0000 -3.3934 0.0000
# 3 45.0608 21.0376 104.0642 0.0000 6.4030 0.0000
# 4 0.0000 0.0000 0.0000 25.6559 0.0000 -1.5953
# 5 -1.7412 -3.3934 6.4030 0.0000 35.4936 0.0000
# 6 0.0000 0.0000 0.0000 -1.5953 0.0000 36.5035
#
#
#
# Elastic Compliance Matrix: (Units=1/GPa)
#
#
# Indices 1 2 3 4 5 6 
#
# 1 0.009040 -0.001877 -0.003591 0.000000 0.000912 0.000000
# 2 -0.001877 0.016415 -0.002626 0.000000 0.001951 0.000000
# 3 -0.003591 -0.002626 0.011853 0.000000 -0.002565 0.000000
# 4 0.000000 0.000000 0.000000 0.039084 0.000000 0.001708
# 5 0.000912 0.001951 -0.002565 0.000000 0.028868 0.000000
# 6 0.000000 0.000000 0.000000 0.001708 0.000000 0.027469
#
#
# Mechanical properties :
#
#
# Convention : Reuss Voigt Hill
#
# Bulk Modulus (GPa) = 47.34780 53.58816 50.46798
# Shear Modulus (GPa) = 32.06020 33.92943 32.99482
#
# Velocity S-wave (km/s) = 3.93227 4.04528 3.98917
# Velocity P-wave (km/s) = 6.59189 6.90397 6.74973
#
# Compressibility (1/GPa) = 0.02112031
#
# Stress axis : x y z
#
# Youngs Moduli (GPa) = 110.62541 60.91816 84.36724
#
# Poissons Ratio (x) = 0.11437 0.30294
# Poissons Ratio (y) = 0.20769 0.22152
# Poissons Ratio (z) = 0.39723 0.15995
#
# Static dielectric constant tensor:
#      x y z
#    x 3.887430 0.000000 -0.078870 
#    y 0.000000 3.603140 0.000000 
#    z -0.078870 0.000000 3.747220 
# 
# 
# High freq. dielectric constant tensor:
#      x y z
#    x 1.822750 0.000000 -0.006390 
#    y 0.000000 1.805250 0.000000 
#    z -0.006390 0.000000 1.815140 
# 
# From -- ./inp_files/238704.got.cif
#   From: 2010.06.25/outbox.cif.g09.slc.cpg/sg12_120_cif.got.tgz:238704.got - 2010.06.28 00:19:55.
