data_PCOD8110749
_publ_section_title
;
Structure prediction by ZEFSAII (Michael W. Deem and Ramdas Pophale) SiO2 
 PCOD8110749
Probable space group: C 2/M
;
_chemical_formula_sum "Si O2"
_cell_formula_units_Z 56
_cell_length_a 10.743326
_cell_length_b 18.832115
_cell_length_c 15.419878
_cell_angle_alpha 90.000000
_cell_angle_beta 60.687748
_cell_angle_gamma 90.000000
_cell_volume 2720.305286
_symmetry_space_group_name_H-M "C 2/M"
_symmetry_group_IT_number 12
_symmetry_cell_setting 'monoclinic'
loop_
_space_group_symop_operation_xyz
x,y,z
-x,y,-z
-x,-y,-z
x,-y,z
1/2+x,1/2+y,z
1/2-x,1/2+y,-z
1/2-x,1/2-y,-z
1/2+x,1/2-y,z
loop_
_atom_site_type_symbol
_atom_site_label
_atom_site_fract_x
_atom_site_fract_y
_atom_site_fract_z
Si Si1 0.344228 0.198467 0.207932
Si Si2 0.698544 0.838633 0.228437
Si Si3 0.576070 0.580215 0.732469
Si Si4 0.397012 0.343313 0.457214
Si Si5 0.753043 0.080592 0.869706
Si Si6 0.656095 0.818615 0.051843
Si Si7 0.100430 0.309551 0.614609
O O1 0.229144 0.254494 0.212163
O O2 0.284234 0.119623 0.208575
O O3 0.494273 0.209738 0.108394
O O4 0.357304 0.215373 0.304203
O O5 0.820046 0.880023 0.237355
O O6 0.690474 0.860233 0.130174
O O7 0.548444 0.852836 0.329590
O O8 0.630798 0.500000 0.702535
O O9 0.564365 0.615128 0.642467
O O10 0.421659 0.582367 0.829507
O O11 0.500000 0.369692 0.500000
O O12 0.229375 0.358348 0.534690
O O13 0.420444 0.259123 0.438461
O O14 0.696435 0.000000 0.883876
O O15 0.673064 0.121911 0.973196
O O16 0.750000 0.750000 0.000000
#
# Coordination Sequence:
#
# PCOD8110749 Si02
#       7
#     8   8   8   8   8   8   8
#     4  11  21  39  62  90 126 160 203 261 304 364
#     4  11  22  39  62  88 127 161 209 253 305 368
#     4  11  25  43  62  87 126 169 204 253 315 371
#     4  11  22  38  64  94 123 154 206 258 311 365
#     4  11  24  41  62  91 126 165 209 258 312 366
#     4  11  23  36  61  95 122 163 210 254 309 362
#     4  10  22  37  62  96 120 156 203 259 308 364
#
# _framework density 20.585925
#
# number of rings (size 3 to 8) (size 9 to 14) (size 15 to 20)
#    0.000    1.143    2.857    3.857    2.000    3.714 
#    0.000    5.714    0.000    0.000    0.000    0.000 
#    0.000    0.000    0.000    0.000    0.000    0.000 
#
# Total GULP energy -347223.598791 kJ/mol
# GULP energy per Si atom -12400.842814 kJ/mol
# Density = 2.053907 g / cm^3
# Si number density = 20.585925 Si / 1000 Ang^3
#
#
#
# Elastic Constant Matrix: (Units=GPa)
#
#
# Indices 1 2 3 4 5 6 
#
# 1 91.3252 20.4990 25.7595 0.0000 3.0797 0.0000
# 2 20.4990 81.5330 10.9576 0.0000 2.4395 0.0000
# 3 25.7595 10.9576 90.8441 0.0000 -6.4126 0.0000
# 4 0.0000 0.0000 0.0000 21.9892 0.0000 0.3963
# 5 3.0797 2.4395 -6.4126 0.0000 32.6267 0.0000
# 6 0.0000 0.0000 0.0000 0.3963 0.0000 25.1350
#
#
#
# Elastic Compliance Matrix: (Units=1/GPa)
#
#
# Indices 1 2 3 4 5 6 
#
# 1 0.012547 -0.002655 -0.003354 0.000000 -0.001645 0.000000
# 2 -0.002655 0.013079 -0.000888 0.000000 -0.000902 0.000000
# 3 -0.003354 -0.000888 0.012263 0.000000 0.002793 0.000000
# 4 0.000000 0.000000 0.000000 0.045490 0.000000 -0.000717
# 5 -0.001645 -0.000902 0.002793 0.000000 0.031421 0.000000
# 6 0.000000 0.000000 0.000000 -0.000717 0.000000 0.039797
#
#
# Mechanical properties :
#
#
# Convention : Reuss Voigt Hill
#
# Bulk Modulus (GPa) = 41.50173 42.01493 41.75833
# Shear Modulus (GPa) = 28.34103 29.71591 29.02847
#
# Velocity S-wave (km/s) = 3.71444 3.80347 3.75922
# Velocity P-wave (km/s) = 6.21290 6.30416 6.25869
#
# Compressibility (1/GPa) = 0.02409538
#
# Stress axis : x y z
#
# Youngs Moduli (GPa) = 79.69905 76.45957 81.54484
#
# Poissons Ratio (x) = 0.20297 0.27348
# Poissons Ratio (y) = 0.21157 0.07245
# Poissons Ratio (z) = 0.26729 0.06793
#
# Static dielectric constant tensor:
#      x y z
#    x 3.919740 0.000000 -0.133550 
#    y 0.000000 3.553650 0.000000 
#    z -0.133550 0.000000 3.939200 
# 
# 
# High freq. dielectric constant tensor:
#      x y z
#    x 1.821560 0.000000 -0.005460 
#    y 0.000000 1.769910 0.000000 
#    z -0.005460 0.000000 1.820600 
# 
# From -- ./inp_files/206585.got.cif
#   From: 2010.06.25/outbox.cif.g09.slc.cpg/sg12_104_cif.got.tgz:206585.got - 2010.06.28 00:19:55.
