data_PCOD8110086
_publ_section_title
;
Structure prediction by ZEFSAII (Michael W. Deem and Ramdas Pophale) SiO2 
 PCOD8110086
Probable space group: C 2/M
;
_chemical_formula_sum "Si O2"
_cell_formula_units_Z 56
_cell_length_a 14.255624
_cell_length_b 22.871298
_cell_length_c 9.760721
_cell_angle_alpha 90.000000
_cell_angle_beta 124.541661
_cell_angle_gamma 90.000000
_cell_volume 2621.413048
_symmetry_space_group_name_H-M "C 2/M"
_symmetry_group_IT_number 12
_symmetry_cell_setting 'monoclinic'
loop_
_space_group_symop_operation_xyz
x,y,z
-x,y,-z
-x,-y,-z
x,-y,z
1/2+x,1/2+y,z
1/2-x,1/2+y,-z
1/2-x,1/2-y,-z
1/2+x,1/2-y,z
loop_
_atom_site_type_symbol
_atom_site_label
_atom_site_fract_x
_atom_site_fract_y
_atom_site_fract_z
Si Si1 0.520793 0.067521 0.361640
Si Si2 0.125528 0.120418 0.155568
Si Si3 0.907896 0.747103 0.813140
Si Si4 0.312914 0.135963 0.100298
Si Si5 0.777018 0.068329 0.495412
Si Si6 0.217719 0.159715 0.729181
Si Si7 0.440010 0.759396 0.319099
O O1 0.500000 0.086309 0.500000
O O2 0.433023 0.102723 0.195461
O O3 0.646984 0.084612 0.421134
O O4 0.495437 0.000000 0.317997
O O5 0.139003 0.189370 0.188286
O O6 0.220125 0.103708 0.119739
O O7 0.146408 0.084051 0.310391
O O8 0.000000 0.103504 0.000000
O O9 0.804847 0.701819 0.722068
O O10 0.962015 0.750866 0.709338
O O11 0.000000 0.725301 0.000000
O O12 0.336686 0.201954 0.173177
O O13 0.269854 0.134288 0.910682
O O14 0.816565 0.105906 0.397275
O O15 0.791973 0.000000 0.473658
O O16 0.105560 0.195952 0.674903
O O17 0.500000 0.790110 0.500000
#
# Coordination Sequence:
#
# PCOD8110086 Si02
#       7
#     8   8   8   8   8   8   8
#     4  10  21  40  67  98 129 166 222 288 336 389
#     4  11  24  42  69  97 134 178 230 278 332 401
#     4  11  22  40  64  96 139 175 213 271 333 409
#     4  12  23  40  67 100 137 177 220 276 341 408
#     4  11  26  46  69  98 134 178 232 284 338 402
#     4  12  25  42  64 100 143 180 216 272 346 412
#     4  12  25  39  64  97 137 176 226 275 339 400
#
# _framework density 21.362525000000002
#
# number of rings (size 3 to 8) (size 9 to 14) (size 15 to 20)
#    0.000    0.714    4.286    4.286    2.000    2.000 
#    0.000    1.429    0.000    9.857    0.000    0.000 
#    0.000    0.000    0.000    0.000    0.000    0.000 
#
# Total GULP energy -347375.630363 kJ/mol
# GULP energy per Si atom -12406.272513 kJ/mol
# Density = 2.131390 g / cm^3
# Si number density = 21.362525 Si / 1000 Ang^3
#
#
#
# Elastic Constant Matrix: (Units=GPa)
#
#
# Indices 1 2 3 4 5 6 
#
# 1 89.5686 24.0483 58.1750 0.0000 -10.0272 0.0000
# 2 24.0483 86.3852 55.2686 0.0000 -0.7270 0.0000
# 3 58.1750 55.2686 145.0856 0.0000 -11.9136 0.0000
# 4 0.0000 0.0000 0.0000 22.9463 0.0000 -0.8091
# 5 -10.0272 -0.7270 -11.9136 0.0000 36.6760 0.0000
# 6 0.0000 0.0000 0.0000 -0.8091 0.0000 20.8826
#
#
#
# Elastic Compliance Matrix: (Units=1/GPa)
#
#
# Indices 1 2 3 4 5 6 
#
# 1 0.015296 -0.000577 -0.005724 0.000000 0.002311 0.000000
# 2 -0.000577 0.015424 -0.005787 0.000000 -0.001732 0.000000
# 3 -0.005724 -0.005787 0.011562 0.000000 0.002076 0.000000
# 4 0.000000 0.000000 0.000000 0.043640 0.000000 0.001691
# 5 0.002311 -0.001732 0.002076 0.000000 0.028538 0.000000
# 6 0.000000 0.000000 0.000000 0.001691 0.000000 0.047952
#
#
# Mechanical properties :
#
#
# Convention : Reuss Voigt Hill
#
# Bulk Modulus (GPa) = 55.22314 66.22480 60.72397
# Shear Modulus (GPa) = 25.95753 28.33746 27.14749
#
# Velocity S-wave (km/s) = 3.48960 3.64607 3.56870
# Velocity P-wave (km/s) = 6.49177 6.98519 6.74299
#
# Compressibility (1/GPa) = 0.01810835
#
# Stress axis : x y z
#
# Youngs Moduli (GPa) = 65.37775 64.83283 86.48759
#
# Poissons Ratio (x) = 0.03739 0.49503
# Poissons Ratio (y) = 0.03770 0.50047
# Poissons Ratio (z) = 0.37420 0.37517
#
# Static dielectric constant tensor:
#      x y z
#    x 3.989440 0.000000 -0.004300 
#    y 0.000000 3.731360 0.000000 
#    z -0.004300 0.000000 3.940420 
# 
# 
# High freq. dielectric constant tensor:
#      x y z
#    x 1.845700 0.000000 -0.000400 
#    y 0.000000 1.825420 0.000000 
#    z -0.000400 0.000000 1.845110 
# 
# From -- ./inp_files/65950.got.cif
#   From: 2010.06.25/outbox.cif.g09.slc.cpg/sg12_33_cif.got.tgz:65950.got - 2010.06.28 00:19:55.
