data_PCOD8110003
_publ_section_title
;
Structure prediction by ZEFSAII (Michael W. Deem and Ramdas Pophale) SiO2 
 PCOD8110003
Probable space group: C 2/M
;
_chemical_formula_sum "Si O2"
_cell_formula_units_Z 52
_cell_length_a 29.858672
_cell_length_b 7.705538
_cell_length_c 22.444582
_cell_angle_alpha 90.000000
_cell_angle_beta 150.320417
_cell_angle_gamma 90.000000
_cell_volume 2556.942578
_symmetry_space_group_name_H-M "C 2/M"
_symmetry_group_IT_number 12
_symmetry_cell_setting 'monoclinic'
loop_
_space_group_symop_operation_xyz
x,y,z
-x,y,-z
-x,-y,-z
x,-y,z
1/2+x,1/2+y,z
1/2-x,1/2+y,-z
1/2-x,1/2-y,-z
1/2+x,1/2-y,z
loop_
_atom_site_type_symbol
_atom_site_label
_atom_site_fract_x
_atom_site_fract_y
_atom_site_fract_z
Si Si1 0.468027 0.804441 0.650216
Si Si2 0.825318 0.000000 0.856079
Si Si3 0.755306 0.200902 0.160914
Si Si4 0.781133 0.806350 0.470820
Si Si5 0.461417 0.296571 0.393225
Si Si6 0.809473 0.000000 0.698627
Si Si7 0.505804 0.500000 0.873801
Si Si8 0.914443 0.302739 0.108144
O O1 0.389912 0.686971 0.589099
O O2 0.481229 0.774876 0.595474
O O3 0.562396 0.769811 0.795245
O O4 0.435250 0.000000 0.621831
O O5 0.777607 0.825178 0.824393
O O6 0.822593 0.000000 0.783199
O O7 0.930428 0.000000 0.994852
O O8 0.857176 0.255437 0.262687
O O9 0.750965 0.000000 0.177408
O O10 0.691816 0.231504 0.029091
O O11 0.750000 0.750000 0.500000
O O12 0.743570 0.674535 0.378595
O O13 0.744074 0.000000 0.415730
O O14 0.500000 0.217734 0.500000
O O15 0.474680 0.500000 0.409594
O O16 0.902654 0.000000 0.771734
O O17 0.523222 0.674660 0.857284
O O18 0.939594 0.500000 0.118892
#
# Coordination Sequence:
#
# PCOD8110003 Si02
#       8
#     8   4   8   8   8   4   4   8
#     4  11  23  39  61  93 125 160 210 256 309 371
#     4  10  23  40  64  94 119 163 213 250 302 376
#     4   9  20  41  63  87 125 164 207 253 307 364
#     4  12  25  43  63  90 127 165 206 255 312 368
#     4  10  23  39  59  87 123 166 207 256 308 367
#     4  12  25  40  63  94 126 160 205 264 305 370
#     4  10  21  40  66  89 123 164 198 254 315 360
#     4   9  20  38  63  91 120 161 204 254 307 368
#
# _framework density 20.336787999999999
#
# number of rings (size 3 to 8) (size 9 to 14) (size 15 to 20)
#    0.000    1.692    1.538    1.615    5.385    3.385 
#    0.000    0.000    0.000    4.615    0.000    0.000 
#    0.000    0.000    0.000    0.000    0.000    0.000 
#
# Total GULP energy -322344.943268 kJ/mol
# GULP energy per Si atom -12397.882433 kJ/mol
# Density = 2.029050 g / cm^3
# Si number density = 20.336788 Si / 1000 Ang^3
#
#
#
# Elastic Constant Matrix: (Units=GPa)
#
#
# Indices 1 2 3 4 5 6 
#
# 1 93.2824 19.6744 67.3716 0.0000 -9.7341 0.0000
# 2 19.6744 98.6249 42.9891 0.0000 -3.4344 0.0000
# 3 67.3716 42.9891 125.4905 0.0000 -8.0374 0.0000
# 4 0.0000 0.0000 0.0000 15.7051 0.0000 2.3083
# 5 -9.7341 -3.4344 -8.0374 0.0000 42.5428 0.0000
# 6 0.0000 0.0000 0.0000 2.3083 0.0000 26.9382
#
#
#
# Elastic Compliance Matrix: (Units=1/GPa)
#
#
# Indices 1 2 3 4 5 6 
#
# 1 0.017772 0.000740 -0.009647 0.000000 0.002303 0.000000
# 2 0.000740 0.011952 -0.004473 0.000000 0.000289 0.000000
# 3 -0.009647 -0.004473 0.014694 0.000000 0.000208 0.000000
# 4 0.000000 0.000000 0.000000 0.064486 0.000000 -0.005526
# 5 0.002303 0.000289 0.000208 0.000000 0.024095 0.000000
# 6 0.000000 0.000000 0.000000 -0.005526 0.000000 0.037596
#
#
# Mechanical properties :
#
#
# Convention : Reuss Voigt Hill
#
# Bulk Modulus (GPa) = 56.63547 64.16314 60.39930
# Shear Modulus (GPa) = 24.60154 29.52808 27.06481
#
# Velocity S-wave (km/s) = 3.48186 3.81458 3.65201
# Velocity P-wave (km/s) = 6.63880 7.14284 6.89543
#
# Compressibility (1/GPa) = 0.01765678
#
# Stress axis : x y z
#
# Youngs Moduli (GPa) = 56.26871 83.67091 68.05723
#
# Poissons Ratio (x) = -0.06191 0.65655
# Poissons Ratio (y) = -0.04164 0.30442
# Poissons Ratio (z) = 0.54283 0.37426
#
# Static dielectric constant tensor:
#      x y z
#    x 3.454560 0.000000 -0.029790 
#    y 0.000000 4.034970 0.000000 
#    z -0.029790 0.000000 4.071630 
# 
# 
# High freq. dielectric constant tensor:
#      x y z
#    x 1.773250 0.000000 0.000580 
#    y 0.000000 1.808590 0.000000 
#    z 0.000580 0.000000 1.808630 
# 
# From -- ./inp_files/329343.got.cif
#   From: 2010.06.25/outbox.cif.g09.slc.cpg/sg12_165_cif.got.tgz:329343.got - 2010.06.28 00:19:55.
