data_PCOD8110353
_publ_section_title
;
Structure prediction by ZEFSAII (Michael W. Deem and Ramdas Pophale) SiO2 
 PCOD8110353
Probable space group: C 2/M
;
_chemical_formula_sum "Si O2"
_cell_formula_units_Z 64
_cell_length_a 8.617029
_cell_length_b 17.003259
_cell_length_c 30.230112
_cell_angle_alpha 90.000000
_cell_angle_beta 140.160651
_cell_angle_gamma 90.000000
_cell_volume 2837.537582
_symmetry_space_group_name_H-M "C 2/M"
_symmetry_group_IT_number 12
_symmetry_cell_setting 'monoclinic'
loop_
_space_group_symop_operation_xyz
x,y,z
-x,y,-z
-x,-y,-z
x,-y,z
1/2+x,1/2+y,z
1/2-x,1/2+y,-z
1/2-x,1/2-y,-z
1/2+x,1/2-y,z
loop_
_atom_site_type_symbol
_atom_site_label
_atom_site_fract_x
_atom_site_fract_y
_atom_site_fract_z
Si Si1 0.267805 0.406877 0.573988
Si Si2 0.580574 0.151711 0.695433
Si Si3 0.047418 0.182122 0.300267
Si Si4 0.214712 0.816270 0.940312
Si Si5 0.789439 0.089286 0.829231
Si Si6 0.090176 0.909504 0.564948
Si Si7 0.005769 0.337502 0.846612
Si Si8 0.739870 0.415587 0.025928
O O1 0.283559 0.500000 0.582903
O O2 0.339514 0.372035 0.637065
O O3 0.457615 0.373339 0.579124
O O4 0.000000 0.380466 0.500000
O O5 0.798870 0.172573 0.710641
O O6 0.440576 0.228612 0.681441
O O7 0.673615 0.100773 0.756389
O O8 0.378981 0.098583 0.628044
O O9 0.770603 0.161365 0.228885
O O10 0.075561 0.890721 0.887821
O O11 0.089704 0.742213 0.889765
O O12 0.500000 0.820788 0.000000
O O13 0.185295 0.834903 0.986356
O O14 0.668952 0.147809 0.838908
O O15 0.751059 0.000000 0.836488
O O16 0.000000 0.867836 0.500000
O O17 0.012704 0.000000 0.546802
O O18 0.039193 0.403785 0.891285
O O19 0.790437 0.500000 0.011844
O O20 0.500000 0.428199 0.000000
#
# Coordination Sequence:
#
# PCOD8110353 Si02
#       8
#     8   8   8   8   8   8   8   8
#     4  10  22  43  72 107 147 191 242 299 359 426
#     4  12  26  45  67 101 143 186 237 297 363 433
#     4  12  27  44  71 103 142 188 242 296 359 438
#     4  12  28  44  72 103 137 183 235 296 364 438
#     4  12  27  48  73 101 143 190 238 300 373 440
#     4  10  21  41  70 102 141 188 235 289 355 425
#     4  12  26  46  72 101 137 192 238 297 366 443
#     4  11  24  44  68  98 136 179 233 293 360 435
#
# _framework density 22.554767999999999
#
# number of rings (size 3 to 8) (size 9 to 14) (size 15 to 20)
#    0.000    0.625    2.500    4.875    3.500    5.500 
#    0.000    2.500    0.000    0.000    0.000    0.000 
#    0.000    0.000    0.000    0.000    0.000    0.000 
#
# Total GULP energy -396506.386721 kJ/mol
# GULP energy per Si atom -12390.824585 kJ/mol
# Density = 2.250343 g / cm^3
# Si number density = 22.554768 Si / 1000 Ang^3
#
#
#
# Elastic Constant Matrix: (Units=GPa)
#
#
# Indices 1 2 3 4 5 6 
#
# 1 98.0261 53.3275 49.3015 -0.0001 2.0015 0.0000
# 2 53.3275 86.0103 42.1461 -0.0001 -5.0272 -0.0001
# 3 49.3015 42.1461 194.8518 -0.0002 4.6845 -0.0002
# 4 -0.0001 -0.0001 -0.0002 36.4111 -0.0002 -1.9999
# 5 2.0015 -5.0272 4.6845 -0.0002 44.6719 -0.0001
# 6 0.0000 -0.0001 -0.0002 -1.9999 -0.0001 31.9077
#
#
#
# Elastic Compliance Matrix: (Units=1/GPa)
#
#
# Indices 1 2 3 4 5 6 
#
# 1 0.016264 -0.009144 -0.002100 0.000000 -0.001538 0.000000
# 2 -0.009144 0.018286 -0.001705 0.000000 0.002646 0.000000
# 3 -0.002100 -0.001705 0.006050 0.000000 -0.000732 0.000000
# 4 0.000000 0.000000 0.000000 0.027559 0.000000 0.001727
# 5 -0.001538 0.002646 -0.000732 0.000000 0.022829 0.000000
# 6 0.000000 0.000000 0.000000 0.001727 0.000000 0.031449
#
#
# Mechanical properties :
#
#
# Convention : Reuss Voigt Hill
#
# Bulk Modulus (GPa) = 68.02529 74.27095 71.14812
# Shear Modulus (GPa) = 32.62929 38.20569 35.41749
#
# Velocity S-wave (km/s) = 3.80764 4.12018 3.96699
# Velocity P-wave (km/s) = 7.03963 7.45889 7.25229
#
# Compressibility (1/GPa) = 0.01470041
#
# Stress axis : x y z
#
# Youngs Moduli (GPa) = 61.48651 54.68524 165.29130
#
# Poissons Ratio (x) = 0.50007 0.34714
# Poissons Ratio (y) = 0.56226 0.28186
# Poissons Ratio (z) = 0.12913 0.09325
#
# Static dielectric constant tensor:
#      x y z
#    x 4.121130 0.000000 -0.063500 
#    y 0.000000 4.169740 0.000000 
#    z -0.063500 0.000000 4.380930 
# 
# 
# High freq. dielectric constant tensor:
#      x y z
#    x 1.886450 0.000000 -0.004060 
#    y 0.000000 1.885830 0.000000 
#    z -0.004060 0.000000 1.916500 
# 
# From -- ./inp_files/373006.got.cif
#   From: 2010.06.25/outbox.cif.g09.slc.cpg/sg12_187_cif.got.tgz:373006.got - 2010.06.28 00:19:55.
