data_PCOD8110566
_publ_section_title
;
Structure prediction by ZEFSAII (Michael W. Deem and Ramdas Pophale) SiO2 
 PCOD8110566
Probable space group: C 2/M
;
_chemical_formula_sum "Si O2"
_cell_formula_units_Z 64
_cell_length_a 9.716995
_cell_length_b 24.681103
_cell_length_c 22.041867
_cell_angle_alpha 90.000000
_cell_angle_beta 136.935878
_cell_angle_gamma 90.000000
_cell_volume 3609.515221
_symmetry_space_group_name_H-M "C 2/M"
_symmetry_group_IT_number 12
_symmetry_cell_setting 'monoclinic'
loop_
_space_group_symop_operation_xyz
x,y,z
-x,y,-z
-x,-y,-z
x,-y,z
1/2+x,1/2+y,z
1/2-x,1/2+y,-z
1/2-x,1/2-y,-z
1/2+x,1/2-y,z
loop_
_atom_site_type_symbol
_atom_site_label
_atom_site_fract_x
_atom_site_fract_y
_atom_site_fract_z
Si Si1 0.232485 0.256216 0.064402
Si Si2 0.497976 0.163389 0.806832
Si Si3 0.153146 0.195979 0.494136
Si Si4 0.021305 0.685714 0.682101
Si Si5 0.009484 0.938859 0.106258
Si Si6 0.942425 0.810297 0.306638
Si Si7 0.684146 0.061031 0.903213
Si Si8 0.538281 0.655066 0.210745
O O1 0.304571 0.200378 0.118389
O O2 0.367731 0.305340 0.130852
O O3 0.250000 0.250000 0.000000
O O4 0.000000 0.268743 0.000000
O O5 0.493579 0.151423 0.734037
O O6 0.298811 0.193147 0.765905
O O7 0.508795 0.105801 0.845282
O O8 0.250000 0.250000 0.500000
O O9 0.346683 0.162371 0.580972
O O10 0.000000 0.207618 0.500000
O O11 0.037942 0.167252 0.400666
O O12 0.982231 0.749457 0.684022
O O13 0.239631 0.679319 0.723755
O O14 0.176404 0.925206 0.109678
O O15 0.022339 0.901305 0.169637
O O16 0.036106 0.000000 0.138681
O O17 0.796830 0.932369 0.003597
O O18 0.003900 0.851087 0.272087
O O19 0.597347 0.000000 0.869906
#
# Coordination Sequence:
#
# PCOD8110566 Si02
#       8
#     8   8   8   8   8   8   8   8
#     4  12  24  34  48  73 115 151 178 215 269 329
#     4  12  20  35  56  78 110 147 185 229 270 323
#     4  10  22  35  54  80 113 152 184 219 280 331
#     4  11  20  36  55  79 115 148 182 228 264 335
#     4   9  19  36  56  79 107 142 191 239 269 318
#     4  11  22  36  52  82 118 145 179 228 274 341
#     4   9  19  35  57  81 104 142 195 237 271 313
#     4  12  22  36  55  83 112 147 186 228 279 325
#
# _framework density 17.730913000000001
#
# number of rings (size 3 to 8) (size 9 to 14) (size 15 to 20)
#    0.000    1.250    5.000    3.000    7.000    0.000 
#    0.000    0.625    0.000    1.875    0.000    5.250 
#    0.000    0.000    0.000    0.000    0.000    0.000 
#
# Total GULP energy -396646.850770 kJ/mol
# GULP energy per Si atom -12395.214087 kJ/mol
# Density = 1.769056 g / cm^3
# Si number density = 17.730913 Si / 1000 Ang^3
#
#
#
# Elastic Constant Matrix: (Units=GPa)
#
#
# Indices 1 2 3 4 5 6 
#
# 1 104.2871 14.6502 51.4251 0.0000 -5.0184 0.0000
# 2 14.6502 78.4709 44.6326 0.0000 -2.0438 0.0000
# 3 51.4251 44.6326 125.5794 0.0000 -5.9387 0.0000
# 4 0.0000 0.0000 0.0000 17.5163 0.0000 -4.7433
# 5 -5.0184 -2.0438 -5.9387 0.0000 38.8105 0.0000
# 6 0.0000 0.0000 0.0000 -4.7433 0.0000 20.0953
#
#
#
# Elastic Compliance Matrix: (Units=1/GPa)
#
#
# Indices 1 2 3 4 5 6 
#
# 1 0.012071 0.000698 -0.005153 0.000000 0.000809 0.000000
# 2 0.000698 0.016013 -0.005976 0.000000 0.000019 0.000000
# 3 -0.005153 -0.005976 0.012239 0.000000 0.000892 0.000000
# 4 0.000000 0.000000 0.000000 0.060988 0.000000 0.014396
# 5 0.000809 0.000019 0.000892 0.000000 0.026008 0.000000
# 6 0.000000 0.000000 0.000000 0.014396 0.000000 0.053161
#
#
# Mechanical properties :
#
#
# Convention : Reuss Voigt Hill
#
# Bulk Modulus (GPa) = 51.38382 58.86147 55.12264
# Shear Modulus (GPa) = 24.05824 28.45970 26.25897
#
# Velocity S-wave (km/s) = 3.68754 4.01070 3.85251
# Velocity P-wave (km/s) = 6.86829 7.39708 7.13758
#
# Compressibility (1/GPa) = 0.01946138
#
# Stress axis : x y z
#
# Youngs Moduli (GPa) = 82.84516 62.44982 81.70299
#
# Poissons Ratio (x) = -0.04361 0.42101
# Poissons Ratio (y) = -0.05786 0.48828
# Poissons Ratio (z) = 0.42690 0.37322
#
# Static dielectric constant tensor:
#      x y z
#    x 3.234270 0.000000 -0.052660 
#    y 0.000000 2.994330 0.000000 
#    z -0.052660 0.000000 3.981080 
# 
# 
# High freq. dielectric constant tensor:
#      x y z
#    x 1.686190 0.000000 -0.003770 
#    y 0.000000 1.642120 0.000000 
#    z -0.003770 0.000000 1.699820 
# 
# From -- ./inp_files/302650.got.cif
#   From: 2010.06.25/outbox.cif.g09.slc.cpg/sg12_152_cif.got.tgz:302650.got - 2010.06.28 00:19:55.
