data_PCOD8110458
_publ_section_title
;
Structure prediction by ZEFSAII (Michael W. Deem and Ramdas Pophale) SiO2 
 PCOD8110458
Probable space group: C 2/M
;
_chemical_formula_sum "Si O2"
_cell_formula_units_Z 48
_cell_length_a 17.863234
_cell_length_b 30.185581
_cell_length_c 9.805071
_cell_angle_alpha 90.000000
_cell_angle_beta 26.370558
_cell_angle_gamma 90.000000
_cell_volume 2348.358160
_symmetry_space_group_name_H-M "C 2/M"
_symmetry_group_IT_number 12
_symmetry_cell_setting 'monoclinic'
loop_
_space_group_symop_operation_xyz
x,y,z
-x,y,-z
-x,-y,-z
x,-y,z
1/2+x,1/2+y,z
1/2-x,1/2+y,-z
1/2-x,1/2-y,-z
1/2+x,1/2-y,z
loop_
_atom_site_type_symbol
_atom_site_label
_atom_site_fract_x
_atom_site_fract_y
_atom_site_fract_z
Si Si1 0.975953 0.610148 0.687633
Si Si2 0.907292 0.735574 0.010321
Si Si3 0.123570 0.549650 0.672200
Si Si4 0.354589 0.627848 0.347993
Si Si5 0.338688 0.341307 0.669595
Si Si6 0.813194 0.311714 0.572064
O O1 0.024661 0.571133 0.708925
O O2 0.112875 0.650023 0.453793
O O3 0.000000 0.588597 0.500000
O O4 0.792175 0.628007 0.032090
O O5 0.751468 0.703569 0.230962
O O6 0.850366 0.787308 0.096817
O O7 0.000000 0.724938 0.000000
O O8 0.051498 0.727999 0.662818
O O9 0.181455 0.500000 0.539208
O O10 0.286790 0.578093 0.443879
O O11 0.000000 0.549123 0.000000
O O12 0.404323 0.634284 0.424675
O O13 0.218886 0.665339 0.523941
O O14 0.500000 0.634196 0.000000
O O15 0.500000 0.330969 0.500000
#
# Coordination Sequence:
#
# PCOD8110458 Si02
#       6
#     8   8   8   8   8   8
#     4  10  23  42  64  93 130 165 210 261 319 380
#     4  11  21  38  59  87 123 167 218 273 307 366
#     4  10  21  42  73  98 120 161 213 261 313 385
#     4  11  23  40  65  93 129 163 213 262 315 377
#     4  11  25  40  60  92 131 170 210 260 322 368
#     4  10  23  36  64  89 121 167 224 264 311 367
#
# _framework density 20.439813000000001
#
# number of rings (size 3 to 8) (size 9 to 14) (size 15 to 20)
#    0.000    1.500    3.333    1.000    7.000    1.333 
#    0.000    3.333    0.000    1.000    0.000    0.000 
#    0.000    0.000    0.000    0.000    0.000    0.000 
#
# Total GULP energy -297399.765868 kJ/mol
# GULP energy per Si atom -12391.656911 kJ/mol
# Density = 2.039329 g / cm^3
# Si number density = 20.439813 Si / 1000 Ang^3
#
#
#
# Elastic Constant Matrix: (Units=GPa)
#
#
# Indices 1 2 3 4 5 6 
#
# 1 130.2798 39.4886 38.8019 -0.0002 -2.1246 0.0000
# 2 39.4886 125.4001 39.3176 0.0000 -4.5910 -0.0001
# 3 38.8019 39.3176 83.9469 -0.0008 7.5841 0.0004
# 4 -0.0002 0.0000 -0.0008 32.1886 0.0003 1.5750
# 5 -2.1246 -4.5910 7.5841 0.0003 35.6476 -0.0001
# 6 0.0000 -0.0001 0.0004 1.5750 -0.0001 14.7524
#
#
#
# Elastic Compliance Matrix: (Units=1/GPa)
#
#
# Indices 1 2 3 4 5 6 
#
# 1 0.009291 -0.001769 -0.003564 0.000000 0.001084 0.000000
# 2 -0.001769 0.009852 -0.003979 0.000000 0.002010 0.000000
# 3 -0.003564 -0.003979 0.015792 0.000000 -0.004085 -0.000001
# 4 0.000000 0.000000 0.000000 0.031230 0.000000 -0.003334
# 5 0.001084 0.002010 -0.004085 0.000000 0.029245 0.000000
# 6 0.000000 0.000000 -0.000001 -0.003334 0.000000 0.068142
#
#
# Mechanical properties :
#
#
# Convention : Reuss Voigt Hill
#
# Bulk Modulus (GPa) = 61.30086 63.87146 62.58616
# Shear Modulus (GPa) = 26.65068 31.31895 28.98482
#
# Velocity S-wave (km/s) = 3.61482 3.91865 3.76979
# Velocity P-wave (km/s) = 6.89047 7.19658 7.04519
#
# Compressibility (1/GPa) = 0.01631298
#
# Stress axis : x y z
#
# Youngs Moduli (GPa) = 107.63031 101.49772 63.32256
#
# Poissons Ratio (x) = 0.17951 0.22569
# Poissons Ratio (y) = 0.19035 0.25194
# Poissons Ratio (z) = 0.38361 0.40382
#
# Static dielectric constant tensor:
#      x y z
#    x 3.493760 0.000000 -0.023080 
#    y 0.000000 3.733450 0.000000 
#    z -0.023080 0.000000 3.698990 
# 
# 
# High freq. dielectric constant tensor:
#      x y z
#    x 1.792680 0.000000 -0.001130 
#    y 0.000000 1.785840 0.000000 
#    z -0.001130 0.000000 1.803550 
# 
# From -- ./inp_files/80563.got.cif
#   From: 2010.06.25/outbox.cif.g09.slc.cpg/sg12_41_cif.got.tgz:80563.got - 2010.06.28 00:19:55.
