data_PCOD8110649
_publ_section_title
;
Structure prediction by ZEFSAII (Michael W. Deem and Ramdas Pophale) SiO2 
 PCOD8110649
Probable space group: C 2/M
;
_chemical_formula_sum "Si O2"
_cell_formula_units_Z 52
_cell_length_a 15.597048
_cell_length_b 16.952845
_cell_length_c 9.605431
_cell_angle_alpha 90.000000
_cell_angle_beta 77.842987
_cell_angle_gamma 90.000000
_cell_volume 2482.856238
_symmetry_space_group_name_H-M "C 2/M"
_symmetry_group_IT_number 12
_symmetry_cell_setting 'monoclinic'
loop_
_space_group_symop_operation_xyz
x,y,z
-x,y,-z
-x,-y,-z
x,-y,z
1/2+x,1/2+y,z
1/2-x,1/2+y,-z
1/2-x,1/2-y,-z
1/2+x,1/2-y,z
loop_
_atom_site_type_symbol
_atom_site_label
_atom_site_fract_x
_atom_site_fract_y
_atom_site_fract_z
Si Si1 0.424345 0.367615 0.428725
Si Si2 0.268130 0.912004 0.450328
Si Si3 0.587934 0.346985 0.881644
Si Si4 0.841901 0.654866 0.696996
Si Si5 0.000000 0.717353 0.500000
Si Si6 0.248499 0.589420 0.020951
Si Si7 0.211344 0.293904 0.785038
O O1 0.500000 0.406882 0.500000
O O2 0.335712 0.400458 0.523186
O O3 0.433207 0.386371 0.261344
O O4 0.430442 0.272114 0.440008
O O5 0.297860 0.900432 0.597494
O O6 0.316325 0.849098 0.334712
O O7 0.292468 0.000000 0.393131
O O8 0.658158 0.402480 0.934029
O O9 0.628097 0.259041 0.854972
O O10 0.500000 0.341602 0.000000
O O11 0.831087 0.610355 0.847137
O O12 0.793421 0.739207 0.715832
O O13 0.945119 0.664670 0.628109
O O14 0.237931 0.500000 0.970464
O O15 0.244256 0.650460 0.897046
#
# Coordination Sequence:
#
# PCOD8110649 Si02
#       7
#     8   8   8   8   4   8   8
#     4  10  22  38  62  96 128 156 213 265 321 362
#     4  12  23  41  65  93 130 168 206 261 332 383
#     4  11  24  39  68  95 122 166 218 261 314 370
#     4  11  21  41  69  91 122 170 218 262 310 375
#     4  10  22  36  68  96 120 154 222 274 298 372
#     4  11  25  43  63  94 132 167 207 258 325 384
#     4  11  22  42  65  92 126 168 213 258 308 384
#
# _framework density 20.943619999999999
#
# number of rings (size 3 to 8) (size 9 to 14) (size 15 to 20)
#    0.462    0.615    4.615    4.154    6.462    0.615 
#    0.000    1.538    0.000    0.923    0.000    0.000 
#    0.000    0.000    0.000    0.000    0.000    0.000 
#
# Total GULP energy -322361.914827 kJ/mol
# GULP energy per Si atom -12398.535186 kJ/mol
# Density = 2.089595 g / cm^3
# Si number density = 20.943620 Si / 1000 Ang^3
#
#
#
# Elastic Constant Matrix: (Units=GPa)
#
#
# Indices 1 2 3 4 5 6 
#
# 1 53.8132 19.5334 19.2804 0.0000 -21.6812 0.0000
# 2 19.5334 111.5528 21.0621 0.0000 -6.8405 0.0000
# 3 19.2804 21.0621 87.9213 0.0000 -6.1367 0.0000
# 4 0.0000 0.0000 0.0000 20.9228 0.0000 -2.8149
# 5 -21.6812 -6.8405 -6.1367 0.0000 46.6618 0.0000
# 6 0.0000 0.0000 0.0000 -2.8149 0.0000 -8.7634
#
#
#
# Elastic Compliance Matrix: (Units=1/GPa)
#
#
# Indices 1 2 3 4 5 6 
#
# 1 0.025541 -0.003028 -0.004116 0.000000 0.010882 0.000000
# 2 -0.003028 0.009803 -0.001698 0.000000 -0.000193 0.000000
# 3 -0.004116 -0.001698 0.012648 0.000000 -0.000498 0.000000
# 4 0.000000 0.000000 0.000000 0.045815 0.000000 -0.014716
# 5 0.010882 -0.000193 -0.000498 0.000000 0.026394 0.000000
# 6 0.000000 0.000000 0.000000 -0.014716 0.000000 -0.109384
#
#
# Mechanical properties :
#
#
# Convention : Reuss Voigt Hill
#
# Bulk Modulus (GPa) = 32.99341 41.44880 37.22110
# Shear Modulus (GPa) = 129.52088 24.65832 77.08960
#
# Velocity S-wave (km/s) = 7.87254 3.43500 6.07355
# Velocity P-wave (km/s) = 9.92086 5.96372 8.18503
#
# Compressibility (1/GPa) = 0.03030909
#
# Stress axis : x y z
#
# Youngs Moduli (GPa) = 39.15255 102.00632 79.06131
#
# Poissons Ratio (x) = 0.30887 0.32542
# Poissons Ratio (y) = 0.11855 0.13424
# Poissons Ratio (z) = 0.16115 0.17320
#
# Static dielectric constant tensor:
#      x y z
#    x 3.568100 0.000000 0.002550 
#    y 0.000000 3.670690 0.000000 
#    z 0.002550 0.000000 3.937810 
# 
# 
# High freq. dielectric constant tensor:
#      x y z
#    x 1.801920 0.000000 0.000160 
#    y 0.000000 1.810890 0.000000 
#    z 0.000160 0.000000 1.830710 
# 
# From -- ./inp_files/75233.got.cif
#   From: 2010.06.25/outbox.cif.g09.slc.cpg/sg12_38_cif.got.tgz:75233.got - 2010.06.28 00:19:55.
