data_PCOD8110257
_publ_section_title
;
Structure prediction by ZEFSAII (Michael W. Deem and Ramdas Pophale) SiO2 
 PCOD8110257
Probable space group: C 2/M
;
_chemical_formula_sum "Si O2"
_cell_formula_units_Z 64
_cell_length_a 30.534662
_cell_length_b 9.153054
_cell_length_c 14.716444
_cell_angle_alpha 90.000000
_cell_angle_beta 47.929038
_cell_angle_gamma 90.000000
_cell_volume 3053.167048
_symmetry_space_group_name_H-M "C 2/M"
_symmetry_group_IT_number 12
_symmetry_cell_setting 'monoclinic'
loop_
_space_group_symop_operation_xyz
x,y,z
-x,y,-z
-x,-y,-z
x,-y,z
1/2+x,1/2+y,z
1/2-x,1/2+y,-z
1/2-x,1/2-y,-z
1/2+x,1/2-y,z
loop_
_atom_site_type_symbol
_atom_site_label
_atom_site_fract_x
_atom_site_fract_y
_atom_site_fract_z
Si Si1 0.129927 0.662331 0.307633
Si Si2 0.240944 0.837642 0.921033
Si Si3 0.170576 0.828079 0.848151
Si Si4 0.583380 0.332644 0.733285
Si Si5 0.545033 0.328812 0.079582
Si Si6 0.564509 0.332591 0.250291
Si Si7 0.800197 0.675054 0.369079
Si Si8 0.932946 0.838908 0.457826
O O1 0.104968 0.500000 0.329452
O O2 0.199968 0.664117 0.220736
O O3 0.113321 0.752314 0.241482
O O4 0.105273 0.722403 0.435953
O O5 0.190338 0.778931 0.922400
O O6 0.223946 0.000000 0.975773
O O7 0.250000 0.750000 0.000000
O O8 0.206411 0.732354 0.725129
O O9 0.184210 0.000000 0.814697
O O10 0.099615 0.797162 0.935191
O O11 0.598430 0.500000 0.742806
O O12 0.520160 0.278165 0.864657
O O13 0.634955 0.223466 0.689565
O O14 0.577109 0.322349 0.634527
O O15 0.537272 0.500000 0.108535
O O16 0.561252 0.259213 0.154900
O O17 0.584569 0.500000 0.215526
O O18 0.501465 0.316413 0.387091
O O19 0.793489 0.500000 0.382594
O O20 0.750000 0.750000 0.500000
O O21 0.913049 0.000000 0.517594
#
# Coordination Sequence:
#
# PCOD8110257 Si02
#       8
#     8   8   8   8   8   8   8   8
#     4  11  22  32  47  78 117 154 196 249 304 355
#     4  10  23  40  59  86 120 159 202 249 300 355
#     4  10  21  41  66  92 122 163 209 253 303 360
#     4   9  19  39  64  92 120 152 198 250 302 359
#     4   8  16  34  64  92 117 153 201 250 297 357
#     4   9  17  33  55  81 113 154 201 244 289 349
#     4  12  27  45  65  91 123 161 202 252 307 366
#     4   9  19  34  55  82 112 150 199 246 290 352
#
# _framework density 20.961839000000001
#
# number of rings (size 3 to 8) (size 9 to 14) (size 15 to 20)
#    0.000    2.250    0.000    4.125    1.750    5.500 
#    0.000    5.625    0.000    0.000    0.000    0.000 
#    0.000    0.000    0.000    0.000    0.000    0.000 
#
# Total GULP energy -396638.677120 kJ/mol
# GULP energy per Si atom -12394.958660 kJ/mol
# Density = 2.091413 g / cm^3
# Si number density = 20.961839 Si / 1000 Ang^3
#
#
#
# Elastic Constant Matrix: (Units=GPa)
#
#
# Indices 1 2 3 4 5 6 
#
# 1 97.4984 39.1065 30.3120 0.0000 -13.4119 0.0000
# 2 39.1065 101.3402 48.6059 0.0000 -5.7776 -0.0001
# 3 30.3120 48.6059 108.3369 0.0000 -10.6519 0.0000
# 4 0.0000 0.0000 0.0000 28.3407 0.0000 0.3160
# 5 -13.4119 -5.7776 -10.6519 0.0000 23.4618 0.0000
# 6 0.0000 -0.0001 0.0000 0.3160 0.0000 27.4714
#
#
#
# Elastic Compliance Matrix: (Units=1/GPa)
#
#
# Indices 1 2 3 4 5 6 
#
# 1 0.013111 -0.004130 -0.001233 0.000000 0.005918 0.000000
# 2 -0.004130 0.013882 -0.005201 0.000000 -0.001304 0.000000
# 3 -0.001233 -0.005201 0.012261 0.000000 0.003581 0.000000
# 4 0.000000 0.000000 0.000000 0.035289 0.000000 -0.000406
# 5 0.005918 -0.001304 0.003581 0.000000 0.047310 0.000000
# 6 0.000000 0.000000 0.000000 -0.000406 0.000000 0.036406
#
#
# Mechanical properties :
#
#
# Convention : Reuss Voigt Hill
#
# Bulk Modulus (GPa) = 55.17368 60.35828 57.76598
# Shear Modulus (GPa) = 26.96444 28.46484 27.71464
#
# Velocity S-wave (km/s) = 3.59047 3.68902 3.64008
# Velocity P-wave (km/s) = 6.60052 6.85580 6.72937
#
# Compressibility (1/GPa) = 0.01812458
#
# Stress axis : x y z
#
# Youngs Moduli (GPa) = 76.27317 72.03718 81.55995
#
# Poissons Ratio (x) = 0.29755 0.10059
# Poissons Ratio (y) = 0.31504 0.42416
# Poissons Ratio (z) = 0.09407 0.37464
#
# Static dielectric constant tensor:
#      x y z
#    x 3.905340 0.000000 -0.198310 
#    y 0.000000 3.540170 0.000000 
#    z -0.198310 0.000000 3.862190 
# 
# 
# High freq. dielectric constant tensor:
#      x y z
#    x 1.829590 0.000000 -0.005210 
#    y 0.000000 1.784530 0.000000 
#    z -0.005210 0.000000 1.831800 
# 
# From -- ./inp_files/249848.got.cif
#   From: 2010.06.25/outbox.cif.g09.slc.cpg/sg12_125_cif.got.tgz:249848.got - 2010.06.28 00:19:55.
