data_PCOD8110773
_publ_section_title
;
Structure prediction by ZEFSAII (Michael W. Deem and Ramdas Pophale) SiO2 
 PCOD8110773
Probable space group: C 2/M
;
_chemical_formula_sum "Si O2"
_cell_formula_units_Z 56
_cell_length_a 18.989526
_cell_length_b 9.019683
_cell_length_c 31.963792
_cell_angle_alpha 90.000000
_cell_angle_beta 148.435671
_cell_angle_gamma 90.000000
_cell_volume 2865.784271
_symmetry_space_group_name_H-M "C 2/M"
_symmetry_group_IT_number 12
_symmetry_cell_setting 'monoclinic'
loop_
_space_group_symop_operation_xyz
x,y,z
-x,y,-z
-x,-y,-z
x,-y,z
1/2+x,1/2+y,z
1/2-x,1/2+y,-z
1/2-x,1/2-y,-z
1/2+x,1/2-y,z
loop_
_atom_site_type_symbol
_atom_site_label
_atom_site_fract_x
_atom_site_fract_y
_atom_site_fract_z
Si Si1 0.401814 0.323839 0.226988
Si Si2 0.621379 0.670814 0.186265
Si Si3 0.175794 0.331708 0.498827
Si Si4 0.078538 0.668297 0.679997
Si Si5 0.915928 0.672175 0.750060
Si Si6 0.150708 0.828594 0.568529
Si Si7 0.616491 0.326457 0.090076
O O1 0.401353 0.500000 0.224493
O O2 0.465923 0.271914 0.303689
O O3 0.490767 0.261607 0.234376
O O4 0.249821 0.264411 0.146519
O O5 0.599414 0.500000 0.187595
O O6 0.777370 0.715020 0.264173
O O7 0.552425 0.771314 0.186931
O O8 0.563481 0.704704 0.110576
O O9 0.224556 0.500000 0.525454
O O10 0.250000 0.250000 0.500000
O O11 0.213221 0.257275 0.561216
O O12 0.017933 0.316219 0.408708
O O13 0.080805 0.500000 0.698518
O O14 0.953691 0.500000 0.766021
O O15 0.756499 0.697767 0.659676
O O16 0.000000 0.765625 0.500000
O O17 0.140190 0.000000 0.551089
O O18 0.650168 0.500000 0.101841
O O19 0.500000 0.273484 0.000000
#
# Coordination Sequence:
#
# PCOD8110773 Si02
#       7
#     8   8   8   8   8   8   8
#     4  11  22  35  56  84 112 144 184 228 269 316
#     4   9  18  34  57  82 106 135 175 219 262 316
#     4  11  22  34  51  75 103 138 181 230 280 327
#     4   9  19  36  54  74 104 141 181 225 275 330
#     4  11  22  36  54  77 110 149 186 225 274 330
#     4  10  22  38  54  75 106 144 186 234 284 330
#     4   9  19  39  65  89 115 145 174 211 266 328
#
# _framework density 19.540897999999999
#
# number of rings (size 3 to 8) (size 9 to 14) (size 15 to 20)
#    0.000    2.000    0.000    4.714    0.000    8.571 
#    0.000    0.714    0.000    0.000    0.000    0.000 
#    0.000    0.000    0.000    0.000    0.000    0.000 
#
# Total GULP energy -347184.779653 kJ/mol
# GULP energy per Si atom -12399.456416 kJ/mol
# Density = 1.949642 g / cm^3
# Si number density = 19.540898 Si / 1000 Ang^3
#
#
#
# Elastic Constant Matrix: (Units=GPa)
#
#
# Indices 1 2 3 4 5 6 
#
# 1 100.8082 56.1989 22.6486 0.0002 -16.6564 -0.0003
# 2 56.1989 99.5591 24.6129 0.0004 -8.5882 -0.0006
# 3 22.6486 24.6129 63.1653 0.0000 -15.3707 -0.0001
# 4 0.0002 0.0004 0.0000 22.2757 0.0000 -3.8279
# 5 -16.6564 -8.5882 -15.3707 0.0000 25.8499 0.0001
# 6 -0.0003 -0.0006 -0.0001 -3.8279 0.0001 37.5368
#
#
#
# Elastic Compliance Matrix: (Units=1/GPa)
#
#
# Indices 1 2 3 4 5 6 
#
# 1 0.015772 -0.008103 -0.000795 0.000000 0.006998 0.000000
# 2 -0.008103 0.015315 -0.003618 0.000000 -0.002284 0.000000
# 3 -0.000795 -0.003618 0.020004 0.000000 0.010180 0.000000
# 4 0.000000 0.000000 0.000000 0.045693 0.000000 0.004660
# 5 0.006998 -0.002284 0.010180 0.000000 0.048488 0.000000
# 6 0.000000 0.000000 0.000000 0.004660 0.000000 0.027116
#
#
# Mechanical properties :
#
#
# Convention : Reuss Voigt Hill
#
# Bulk Modulus (GPa) = 38.37451 52.27259 45.32355
# Shear Modulus (GPa) = 24.25939 27.80397 26.03168
#
# Velocity S-wave (km/s) = 3.52727 3.77617 3.65384
# Velocity P-wave (km/s) = 6.02242 6.76913 6.40666
#
# Compressibility (1/GPa) = 0.02605897
#
# Stress axis : x y z
#
# Youngs Moduli (GPa) = 63.40455 65.29333 49.99083
#
# Poissons Ratio (x) = 0.52905 0.03974
# Poissons Ratio (y) = 0.51374 0.18088
# Poissons Ratio (z) = 0.05041 0.23625
#
# Static dielectric constant tensor:
#      x y z
#    x 3.428060 0.000000 -0.095170 
#    y 0.000000 3.534280 0.000000 
#    z -0.095170 0.000000 4.110710 
# 
# 
# High freq. dielectric constant tensor:
#      x y z
#    x 1.758930 0.000000 -0.008400 
#    y 0.000000 1.759550 0.000000 
#    z -0.008400 0.000000 1.751800 
# 
# From -- ./inp_files/377775.got.cif
#   From: 2010.06.25/outbox.cif.g09.slc.cpg/sg12_189_cif.got.tgz:377775.got - 2010.06.28 00:19:55.
