data_PCOD8110707
_publ_section_title
;
Structure prediction by ZEFSAII (Michael W. Deem and Ramdas Pophale) SiO2 
 PCOD8110707
Probable space group: C 2/M
;
_chemical_formula_sum "Si O2"
_cell_formula_units_Z 64
_cell_length_a 12.494971
_cell_length_b 23.085507
_cell_length_c 11.526821
_cell_angle_alpha 90.000000
_cell_angle_beta 117.040740
_cell_angle_gamma 90.000000
_cell_volume 2961.471931
_symmetry_space_group_name_H-M "C 2/M"
_symmetry_group_IT_number 12
_symmetry_cell_setting 'monoclinic'
loop_
_space_group_symop_operation_xyz
x,y,z
-x,y,-z
-x,-y,-z
x,-y,z
1/2+x,1/2+y,z
1/2-x,1/2+y,-z
1/2-x,1/2-y,-z
1/2+x,1/2-y,z
loop_
_atom_site_type_symbol
_atom_site_label
_atom_site_fract_x
_atom_site_fract_y
_atom_site_fract_z
Si Si1 0.817850 0.724795 0.669933
Si Si2 0.555064 0.567833 0.353274
Si Si3 0.052993 0.722492 0.902365
Si Si4 0.676566 0.643607 0.237193
Si Si5 0.879068 0.657790 0.493107
Si Si6 0.686693 0.625167 0.734868
Si Si7 0.192056 0.165155 0.987444
Si Si8 0.194876 0.435912 0.390871
O O1 0.826519 0.788856 0.726127
O O2 0.807722 0.711530 0.523583
O O3 0.715383 0.688577 0.690595
O O4 0.954195 0.701966 0.760447
O O5 0.524594 0.500000 0.316041
O O6 0.574415 0.602679 0.242154
O O7 0.444984 0.600288 0.363540
O O8 0.673919 0.574097 0.488489
O O9 0.179337 0.694517 0.933634
O O10 0.079601 0.791512 0.913259
O O11 0.000000 0.703568 0.000000
O O12 0.805838 0.626445 0.353575
O O13 0.667790 0.631972 0.095942
O O14 0.901092 0.607264 0.598602
O O15 0.000000 0.683564 0.500000
O O16 0.787034 0.580813 0.734904
O O17 0.698848 0.623629 0.879680
O O18 0.144280 0.500000 0.379797
#
# Coordination Sequence:
#
# PCOD8110707 Si02
#       8
#     8   8   8   8   8   8   8   8
#     4  11  21  37  58  87 121 154 201 247 301 358
#     4  10  22  40  62  85 117 162 207 251 299 356
#     4  11  19  36  55  79 119 163 200 237 279 363
#     4  11  22  39  57  84 123 161 197 245 302 361
#     4  10  22  37  57  88 117 151 193 250 310 358
#     4  11  21  33  57  89 114 148 196 249 298 350
#     4  11  22  34  56  87 118 164 205 235 295 365
#     4   9  20  40  62  83 112 152 206 255 296 354
#
# _framework density 21.610873999999999
#
# number of rings (size 3 to 8) (size 9 to 14) (size 15 to 20)
#    0.000    1.500    2.500    3.375    0.000    2.250 
#    0.000    3.125    0.000    0.000    0.000   17.500 
#    0.000    0.000    0.000    0.000    0.000    0.000 
#
# Total GULP energy -396434.944221 kJ/mol
# GULP energy per Si atom -12388.592007 kJ/mol
# Density = 2.156169 g / cm^3
# Si number density = 21.610874 Si / 1000 Ang^3
#
#
#
# Elastic Constant Matrix: (Units=GPa)
#
#
# Indices 1 2 3 4 5 6 
#
# 1 102.7872 41.4776 21.8454 0.0000 -20.8381 0.0000
# 2 41.4776 108.5312 6.1535 0.0000 -18.0825 0.0000
# 3 21.8454 6.1535 72.6198 0.0000 -32.5161 0.0000
# 4 0.0000 0.0000 0.0000 15.3170 0.0000 -9.0553
# 5 -20.8381 -18.0825 -32.5161 0.0000 39.3698 0.0000
# 6 0.0000 0.0000 0.0000 -9.0553 0.0000 -51.5861
#
#
#
# Elastic Compliance Matrix: (Units=1/GPa)
#
#
# Indices 1 2 3 4 5 6 
#
# 1 0.012442 -0.004141 -0.002055 0.000000 0.002987 0.000000
# 2 -0.004141 0.011526 0.002631 0.000000 0.005275 0.000000
# 3 -0.002055 0.002631 0.022564 0.000000 0.018757 0.000000
# 4 0.000000 0.000000 0.000000 0.059149 0.000000 -0.010383
# 5 0.002987 0.005275 0.018757 0.000000 0.044895 0.000000
# 6 0.000000 0.000000 0.000000 -0.010383 0.000000 -0.017563
#
#
# Mechanical properties :
#
#
# Convention : Reuss Voigt Hill
#
# Bulk Modulus (GPa) = 25.37875 46.98793 36.18334
# Shear Modulus (GPa) = 32.62068 14.91760 23.76914
#
# Velocity S-wave (km/s) = 3.88939 2.63017 3.32003
# Velocity P-wave (km/s) = 5.65144 5.56899 5.61037
#
# Compressibility (1/GPa) = 0.03940304
#
# Stress axis : x y z
#
# Youngs Moduli (GPa) = 80.37337 86.75883 44.31843
#
# Poissons Ratio (x) = 0.35926 0.09106
# Poissons Ratio (y) = 0.33282 -0.11660
# Poissons Ratio (z) = 0.16514 -0.22826
#
# Static dielectric constant tensor:
#      x y z
#    x 3.994380 0.000000 0.024890 
#    y 0.000000 3.734680 0.000000 
#    z 0.024890 0.000000 4.261240 
# 
# 
# High freq. dielectric constant tensor:
#      x y z
#    x 1.856990 0.000000 -0.011090 
#    y 0.000000 1.817970 0.000000 
#    z -0.011090 0.000000 1.848260 
# 
# From -- ./inp_files/135999.got.cif
#   From: 2010.06.25/outbox.cif.g09.slc.cpg/sg12_68_cif.got.tgz:135999.got - 2010.06.28 00:19:55.
