data_PCOD8110356
_publ_section_title
;
Structure prediction by ZEFSAII (Michael W. Deem and Ramdas Pophale) SiO2 
 PCOD8110356
Probable space group: C 2/M
;
_chemical_formula_sum "Si O2"
_cell_formula_units_Z 64
_cell_length_a 11.395708
_cell_length_b 23.710992
_cell_length_c 12.886696
_cell_angle_alpha 90.000000
_cell_angle_beta 116.857080
_cell_angle_gamma 90.000000
_cell_volume 3106.445796
_symmetry_space_group_name_H-M "C 2/M"
_symmetry_group_IT_number 12
_symmetry_cell_setting 'monoclinic'
loop_
_space_group_symop_operation_xyz
x,y,z
-x,y,-z
-x,-y,-z
x,-y,z
1/2+x,1/2+y,z
1/2-x,1/2+y,-z
1/2-x,1/2-y,-z
1/2+x,1/2-y,z
loop_
_atom_site_type_symbol
_atom_site_label
_atom_site_fract_x
_atom_site_fract_y
_atom_site_fract_z
Si Si1 0.329245 0.806198 0.036943
Si Si2 0.428444 0.255119 0.771580
Si Si3 0.088035 0.434873 0.288902
Si Si4 0.707488 0.156974 0.207176
Si Si5 0.821785 0.563418 0.288431
Si Si6 0.292137 0.436877 0.545511
Si Si7 0.001087 0.162174 0.378441
Si Si8 0.130475 0.858826 0.104979
O O1 0.461450 0.790326 0.150291
O O2 0.245289 0.851294 0.067137
O O3 0.250000 0.750000 0.000000
O O4 0.347335 0.829781 0.928880
O O5 0.303519 0.212778 0.722180
O O6 0.450470 0.282902 0.667489
O O7 0.411329 0.302040 0.852758
O O8 0.071700 0.500000 0.248718
O O9 0.114667 0.395596 0.200961
O O10 0.217633 0.426112 0.409112
O O11 0.957807 0.412342 0.296549
O O12 0.861699 0.142325 0.275333
O O13 0.805568 0.500000 0.241711
O O14 0.822482 0.567185 0.413401
O O15 0.688681 0.596066 0.206801
O O16 0.355156 0.500000 0.572570
O O17 0.405099 0.390851 0.604035
O O18 0.000000 0.178095 0.500000
O O19 0.000000 0.884023 0.000000
#
# Coordination Sequence:
#
# PCOD8110356 Si02
#       8
#     8   8   8   8   8   8   8   8
#     4  12  22  39  64  93 118 164 220 264 313 378
#     4  12  23  42  64  90 126 171 216 261 314 383
#     4  10  22  43  67  95 129 169 214 265 321 382
#     4  12  24  40  66  96 128 169 216 264 323 386
#     4  10  22  40  64  93 126 167 216 264 313 378
#     4  10  21  41  70  95 124 169 218 262 317 387
#     4  12  24  41  62  96 137 165 206 267 327 386
#     4  12  21  37  64  90 122 164 212 267 319 374
#
# _framework density 20.602322000000001
#
# number of rings (size 3 to 8) (size 9 to 14) (size 15 to 20)
#    0.000    0.750    6.250    1.500    0.000    3.000 
#    0.000    0.625    0.000    3.000    0.000    0.000 
#    0.000    0.000    0.000    0.000    0.000    0.000 
#
# Total GULP energy -396682.902326 kJ/mol
# GULP energy per Si atom -12396.340698 kJ/mol
# Density = 2.055543 g / cm^3
# Si number density = 20.602322 Si / 1000 Ang^3
#
#
#
# Elastic Constant Matrix: (Units=GPa)
#
#
# Indices 1 2 3 4 5 6 
#
# 1 108.1759 50.5248 40.7262 0.0000 -7.6646 0.0000
# 2 50.5248 84.9942 50.1913 0.0000 -7.5461 0.0000
# 3 40.7262 50.1913 95.3927 0.0000 -13.0414 0.0000
# 4 0.0000 0.0000 0.0000 32.0969 0.0000 -4.1468
# 5 -7.6646 -7.5461 -13.0414 0.0000 39.6977 0.0000
# 6 0.0000 0.0000 0.0000 -4.1468 0.0000 36.4791
#
#
#
# Elastic Compliance Matrix: (Units=1/GPa)
#
#
# Indices 1 2 3 4 5 6 
#
# 1 0.013114 -0.006506 -0.002092 0.000000 0.000608 0.000000
# 2 -0.006506 0.020300 -0.007903 0.000000 0.000007 0.000000
# 3 -0.002092 -0.007903 0.015992 0.000000 0.003347 0.000000
# 4 0.000000 0.000000 0.000000 0.031620 0.000000 0.003594
# 5 0.000608 0.000007 0.003347 0.000000 0.026409 0.000000
# 6 0.000000 0.000000 0.000000 0.003594 0.000000 0.027822
#
#
# Mechanical properties :
#
#
# Convention : Reuss Voigt Hill
#
# Bulk Modulus (GPa) = 60.96062 63.49416 62.22739
# Shear Modulus (GPa) = 28.78097 31.46276 30.12187
#
# Velocity S-wave (km/s) = 3.74167 3.91211 3.82784
# Velocity P-wave (km/s) = 6.95128 7.16184 7.05734
#
# Compressibility (1/GPa) = 0.01640403
#
# Stress axis : x y z
#
# Youngs Moduli (GPa) = 76.25635 49.26067 62.53141
#
# Poissons Ratio (x) = 0.32048 0.13085
# Poissons Ratio (y) = 0.49611 0.49416
# Poissons Ratio (z) = 0.15957 0.38929
#
# Static dielectric constant tensor:
#      x y z
#    x 3.842470 0.000000 -0.151370 
#    y 0.000000 3.736470 0.000000 
#    z -0.151370 0.000000 3.497100 
# 
# 
# High freq. dielectric constant tensor:
#      x y z
#    x 1.823510 0.000000 -0.005670 
#    y 0.000000 1.800020 0.000000 
#    z -0.005670 0.000000 1.797860 
# 
# From -- ./inp_files/135985.got.cif
#   From: 2010.06.25/outbox.cif.g09.slc.cpg/sg12_68_cif.got.tgz:135985.got - 2010.06.28 00:19:55.
