data_PCOD8110793
_publ_section_title
;
Structure prediction by ZEFSAII (Michael W. Deem and Ramdas Pophale) SiO2 
 PCOD8110793
Probable space group: C 2/M
;
_chemical_formula_sum "Si O2"
_cell_formula_units_Z 36
_cell_length_a 10.628001
_cell_length_b 8.998450
_cell_length_c 17.618774
_cell_angle_alpha 90.000000
_cell_angle_beta 103.381805
_cell_angle_gamma 90.000000
_cell_volume 1639.232686
_symmetry_space_group_name_H-M "C 2/M"
_symmetry_group_IT_number 12
_symmetry_cell_setting 'monoclinic'
loop_
_space_group_symop_operation_xyz
x,y,z
-x,y,-z
-x,-y,-z
x,-y,z
1/2+x,1/2+y,z
1/2-x,1/2+y,-z
1/2-x,1/2-y,-z
1/2+x,1/2-y,z
loop_
_atom_site_type_symbol
_atom_site_label
_atom_site_fract_x
_atom_site_fract_y
_atom_site_fract_z
Si Si1 0.449438 0.751761 0.831339
Si Si2 0.000000 0.258788 0.500000
Si Si3 0.047166 0.000000 0.415145
Si Si4 0.628821 0.500000 0.069200
Si Si5 0.587544 0.000000 0.937943
Si Si6 0.315387 0.000000 0.534591
Si Si7 0.459277 0.500000 0.254410
Si Si8 0.310975 0.000000 0.714470
O O1 0.365875 0.648227 0.877267
O O2 0.551321 0.851380 0.889485
O O3 0.541862 0.645753 0.796054
O O4 0.362441 0.852091 0.763919
O O5 0.967036 0.150899 0.423754
O O6 0.123752 0.355754 0.496066
O O7 0.167802 0.000000 0.489481
O O8 0.081920 0.000000 0.330275
O O9 0.755576 0.500000 0.031568
O O10 0.500000 0.500000 0.000000
O O11 0.500000 0.000000 0.000000
O O12 0.342907 0.000000 0.629330
O O13 0.341514 0.500000 0.296380
#
# Coordination Sequence:
#
# PCOD8110793 Si02
#       8
#     8   4   4   4   4   4   4   4
#     4  10  24  42  63  93 128 164 206 253 309 371
#     4  10  22  38  56  82 116 150 200 258 308 364
#     4  11  22  38  61  88 117 158 208 258 309 363
#     4  11  24  43  69  99 129 164 207 256 310 374
#     4  11  24  43  69  98 129 166 208 255 308 374
#     4  11  23  39  60  87 119 159 208 259 309 363
#     4  11  23  40  62  88 124 165 206 257 310 364
#     4  11  22  40  63  86 122 167 207 253 310 368
#
# _framework density 21.961494999999999
#
# number of rings (size 3 to 8) (size 9 to 14) (size 15 to 20)
#    0.000    1.333    0.000    5.333    0.000    8.889 
#    0.000    8.889    0.000    0.000    0.000    0.000 
#    0.000    0.000    0.000    0.000    0.000    0.000 
#
# Total GULP energy -223026.858039 kJ/mol
# GULP energy per Si atom -12390.381002 kJ/mol
# Density = 2.191151 g / cm^3
# Si number density = 21.961495 Si / 1000 Ang^3
#
#
#
# Elastic Constant Matrix: (Units=GPa)
#
#
# Indices 1 2 3 4 5 6 
#
# 1 128.5531 51.3636 60.6739 0.0000 -15.3129 0.0000
# 2 51.3636 174.9630 67.0492 0.0000 -11.4832 0.0000
# 3 60.6739 67.0492 147.3699 0.0000 -5.4997 0.0000
# 4 0.0000 0.0000 0.0000 -4.6541 0.0000 4.3615
# 5 -15.3129 -11.4832 -5.4997 0.0000 30.3961 0.0000
# 6 0.0000 0.0000 0.0000 4.3615 0.0000 13.8856
#
#
#
# Elastic Compliance Matrix: (Units=1/GPa)
#
#
# Indices 1 2 3 4 5 6 
#
# 1 0.010510 -0.001473 -0.003504 0.000000 0.004104 0.000000
# 2 -0.001473 0.007259 -0.002639 0.000000 0.001523 0.000000
# 3 -0.003504 -0.002639 0.009389 0.000000 -0.001063 0.000000
# 4 0.000000 0.000000 0.000000 -0.166001 0.000000 0.052141
# 5 0.004104 0.001523 -0.001063 0.000000 0.035349 0.000000
# 6 0.000000 0.000000 0.000000 0.052141 0.000000 0.055639
#
#
# Mechanical properties :
#
#
# Convention : Reuss Voigt Hill
#
# Bulk Modulus (GPa) = 83.85041 89.89549 86.87295
# Shear Modulus (GPa) = -174.54675 26.04549 -74.25063
#
# Velocity S-wave (km/s) = -8.92475 3.44752 -5.82090
# Velocity P-wave (km/s) = 8.24245 7.54117 2.35252
#
# Compressibility (1/GPa) = 0.01192600
#
# Stress axis : x y z
#
# Youngs Moduli (GPa) = 95.14670 137.75159 106.50441
#
# Poissons Ratio (x) = 0.20297 0.37315
# Poissons Ratio (y) = 0.14019 0.28111
# Poissons Ratio (z) = 0.33336 0.36358
#
# Static dielectric constant tensor:
#      x y z
#    x 3.753730 0.000000 -0.211290 
#    y 0.000000 4.436670 0.000000 
#    z -0.211290 0.000000 4.023590 
# 
# 
# High freq. dielectric constant tensor:
#      x y z
#    x 1.854460 0.000000 -0.013600 
#    y 0.000000 1.892140 0.000000 
#    z -0.013600 0.000000 1.868600 
# 
# From -- ./inp_files/261147.got.cif
#   From: 2010.06.25/outbox.cif.g09.slc.cpg/sg12_131_cif.got.tgz:261147.got - 2010.06.28 00:19:55.
