data_PCOD8110196
_publ_section_title
;
Structure prediction by ZEFSAII (Michael W. Deem and Ramdas Pophale) SiO2 
 PCOD8110196
Probable space group: C 2/M
;
_chemical_formula_sum "Si O2"
_cell_formula_units_Z 56
_cell_length_a 27.173936
_cell_length_b 8.868790
_cell_length_c 12.466558
_cell_angle_alpha 90.000000
_cell_angle_beta 67.734056
_cell_angle_gamma 90.000000
_cell_volume 2780.413887
_symmetry_space_group_name_H-M "C 2/M"
_symmetry_group_IT_number 12
_symmetry_cell_setting 'monoclinic'
loop_
_space_group_symop_operation_xyz
x,y,z
-x,y,-z
-x,-y,-z
x,-y,z
1/2+x,1/2+y,z
1/2-x,1/2+y,-z
1/2-x,1/2-y,-z
1/2+x,1/2-y,z
loop_
_atom_site_type_symbol
_atom_site_label
_atom_site_fract_x
_atom_site_fract_y
_atom_site_fract_z
Si Si1 0.994116 0.321307 0.826180
Si Si2 0.393692 0.326362 0.233446
Si Si3 0.844549 0.673610 0.657820
Si Si4 0.195715 0.673506 0.076977
Si Si5 0.893255 0.173711 0.992215
Si Si6 0.306228 0.677453 0.476496
Si Si7 0.539239 0.820860 0.378859
O O1 0.989290 0.500000 0.841256
O O2 0.952231 0.246211 0.942311
O O3 0.978495 0.260437 0.721650
O O4 0.053984 0.273791 0.799751
O O5 0.408294 0.500000 0.245544
O O6 0.349396 0.266099 0.353316
O O7 0.370816 0.308933 0.131702
O O8 0.846520 0.500000 0.617321
O O9 0.807748 0.691091 0.792231
O O10 0.823307 0.777392 0.581143
O O11 0.902226 0.735991 0.641813
O O12 0.196818 0.500000 0.042026
O O13 0.145484 0.745533 0.059232
O O14 0.250000 0.750000 0.000000
O O15 0.897272 0.000000 0.955546
O O16 0.299788 0.500000 0.473531
O O17 0.250000 0.750000 0.500000
O O18 0.500000 0.752303 0.500000
O O19 0.537311 0.000000 0.380006
#
# Coordination Sequence:
#
# PCOD8110196 Si02
#       7
#     8   8   8   8   8   8   8
#     4  11  21  37  62  94 126 161 208 256 305 369
#     4  10  24  43  61  87 126 169 206 254 315 371
#     4  10  21  41  64  89 126 162 198 252 313 369
#     4  11  24  42  65  94 127 162 208 259 312 371
#     4  11  23  41  64  90 127 170 208 251 314 374
#     4  11  25  44  65  91 123 161 212 262 312 371
#     4   9  17  32  57  87 120 157 195 240 299 361
#
# _framework density 20.140885999999998
#
# number of rings (size 3 to 8) (size 9 to 14) (size 15 to 20)
#    0.000    1.571    1.429    3.000    2.000    6.286 
#    0.000    0.000    0.000    3.000    0.000    0.000 
#    0.000    0.000    0.000    0.000    0.000    0.000 
#
# Total GULP energy -347295.977099 kJ/mol
# GULP energy per Si atom -12403.427754 kJ/mol
# Density = 2.009504 g / cm^3
# Si number density = 20.140886 Si / 1000 Ang^3
#
#
#
# Elastic Constant Matrix: (Units=GPa)
#
#
# Indices 1 2 3 4 5 6 
#
# 1 100.3536 43.8308 51.0823 0.0000 -11.2731 0.0000
# 2 43.8308 95.0739 47.0867 0.0000 -6.6882 0.0000
# 3 51.0823 47.0867 121.4752 0.0000 -7.9753 0.0000
# 4 0.0000 0.0000 0.0000 30.1080 0.0000 0.4084
# 5 -11.2731 -6.6882 -7.9753 0.0000 41.0071 0.0000
# 6 0.0000 0.0000 0.0000 0.4084 0.0000 39.3576
#
#
#
# Elastic Compliance Matrix: (Units=1/GPa)
#
#
# Indices 1 2 3 4 5 6 
#
# 1 0.014243 -0.004343 -0.004148 0.000000 0.002400 0.000000
# 2 -0.004343 0.014396 -0.003726 0.000000 0.000429 0.000000
# 3 -0.004148 -0.003726 0.011452 0.000000 0.000479 0.000000
# 4 0.000000 0.000000 0.000000 0.033218 0.000000 -0.000345
# 5 0.002400 0.000429 0.000479 0.000000 0.025209 0.000000
# 6 0.000000 0.000000 0.000000 -0.000345 0.000000 0.025412
#
#
# Mechanical properties :
#
#
# Convention : Reuss Voigt Hill
#
# Bulk Modulus (GPa) = 63.86934 66.76693 65.31814
# Shear Modulus (GPa) = 32.55577 33.75472 33.15525
#
# Velocity S-wave (km/s) = 4.02481 4.09825 4.06170
# Velocity P-wave (km/s) = 7.30609 7.45762 7.38225
#
# Compressibility (1/GPa) = 0.01565696
#
# Stress axis : x y z
#
# Youngs Moduli (GPa) = 70.21097 69.46538 87.31933
#
# Poissons Ratio (x) = 0.30167 0.36223
# Poissons Ratio (y) = 0.30491 0.32532
# Poissons Ratio (z) = 0.29126 0.25881
#
# Static dielectric constant tensor:
#      x y z
#    x 3.795340 0.000000 0.036170 
#    y 0.000000 3.600760 0.000000 
#    z 0.036170 0.000000 4.035000 
# 
# 
# High freq. dielectric constant tensor:
#      x y z
#    x 1.792590 0.000000 -0.000340 
#    y 0.000000 1.776270 0.000000 
#    z -0.000340 0.000000 1.803840 
# 
# From -- ./inp_files/180704.got.cif
#   From: 2010.06.25/outbox.cif.g09.slc.cpg/sg12_91_cif.got.tgz:180704.got - 2010.06.28 00:19:55.
