data_PCOD8110419
_publ_section_title
;
Structure prediction by ZEFSAII (Michael W. Deem and Ramdas Pophale) SiO2 
 PCOD8110419
Probable space group: C 2/M
;
_chemical_formula_sum "Si O2"
_cell_formula_units_Z 48
_cell_length_a 11.485391
_cell_length_b 22.246060
_cell_length_c 9.407091
_cell_angle_alpha 90.000000
_cell_angle_beta 76.128120
_cell_angle_gamma 90.000000
_cell_volume 2333.454464
_symmetry_space_group_name_H-M "C 2/M"
_symmetry_group_IT_number 12
_symmetry_cell_setting 'monoclinic'
loop_
_space_group_symop_operation_xyz
x,y,z
-x,y,-z
-x,-y,-z
x,-y,z
1/2+x,1/2+y,z
1/2-x,1/2+y,-z
1/2-x,1/2-y,-z
1/2+x,1/2-y,z
loop_
_atom_site_type_symbol
_atom_site_label
_atom_site_fract_x
_atom_site_fract_y
_atom_site_fract_z
Si Si1 0.102827 0.069857 0.353431
Si Si2 0.960931 0.568114 0.861871
Si Si3 0.989675 0.265763 0.661992
Si Si4 0.301328 0.862912 0.714275
Si Si5 0.652461 0.879133 0.614691
Si Si6 0.977149 0.851070 0.172654
O O1 0.214037 0.112128 0.364562
O O2 0.000000 0.076754 0.500000
O O3 0.053316 0.094753 0.218685
O O4 0.141300 0.000000 0.324911
O O5 0.927714 0.500000 0.902443
O O6 0.839912 0.597632 0.838006
O O7 0.066754 0.572990 0.715808
O O8 0.000000 0.598974 0.000000
O O9 0.860946 0.297722 0.714610
O O10 0.000000 0.238617 0.500000
O O11 0.099745 0.312150 0.660598
O O12 0.985756 0.213136 0.776656
O O13 0.349568 0.892102 0.553282
O O14 0.160376 0.860094 0.749554
O O15 0.000000 0.851541 0.000000
#
# Coordination Sequence:
#
# PCOD8110419 Si02
#       6
#     8   8   8   8   8   8
#     4  11  24  43  67  95 130 173 220 264 314 387
#     4  10  22  39  63  93 126 165 208 264 325 374
#     4   9  22  41  68  93 124 164 213 271 320 377
#     4  10  23  42  63  94 125 166 215 263 317 376
#     4  10  21  42  68  95 124 166 216 266 317 376
#     4  12  27  42  62  96 132 175 212 262 328 385
#
# _framework density 20.570360999999998
#
# number of rings (size 3 to 8) (size 9 to 14) (size 15 to 20)
#    0.000    1.667    1.667    2.500    4.667    7.667 
#    0.000    0.000    0.000    0.000    0.000    0.000 
#    0.000    0.000    0.000    0.000    0.000    0.000 
#
# Total GULP energy -297600.763983 kJ/mol
# GULP energy per Si atom -12400.031833 kJ/mol
# Density = 2.052354 g / cm^3
# Si number density = 20.570361 Si / 1000 Ang^3
#
#
#
# Elastic Constant Matrix: (Units=GPa)
#
#
# Indices 1 2 3 4 5 6 
#
# 1 102.6239 20.2538 14.9421 0.0000 16.4282 0.0000
# 2 20.2538 69.1643 34.0956 0.0000 18.5099 0.0000
# 3 14.9421 34.0956 106.3390 0.0000 29.5779 0.0000
# 4 0.0000 0.0000 0.0000 27.5352 0.0000 9.9061
# 5 16.4282 18.5099 29.5779 0.0000 36.5013 0.0000
# 6 0.0000 0.0000 0.0000 9.9061 0.0000 22.8440
#
#
#
# Elastic Compliance Matrix: (Units=1/GPa)
#
#
# Indices 1 2 3 4 5 6 
#
# 1 0.010777 -0.002248 0.000308 0.000000 -0.003960 0.000000
# 2 -0.002248 0.018536 -0.004253 0.000000 -0.004942 0.000000
# 3 0.000308 -0.004253 0.013120 0.000000 -0.008613 0.000000
# 4 0.000000 0.000000 0.000000 0.043030 0.000000 -0.018660
# 5 -0.003960 -0.004942 -0.008613 0.000000 0.038664 0.000000
# 6 0.000000 0.000000 0.000000 -0.018660 0.000000 0.051867
#
#
# Mechanical properties :
#
#
# Convention : Reuss Voigt Hill
#
# Bulk Modulus (GPa) = 33.28099 46.30111 39.79105
# Shear Modulus (GPa) = 25.20224 31.29847 28.25036
#
# Velocity S-wave (km/s) = 3.50404 3.90491 3.70990
# Velocity P-wave (km/s) = 5.70836 6.54894 6.14304
#
# Compressibility (1/GPa) = 0.03004718
#
# Stress axis : x y z
#
# Youngs Moduli (GPa) = 92.78962 53.95050 76.21954
#
# Poissons Ratio (x) = 0.12127 -0.02347
# Poissons Ratio (y) = 0.20858 0.32414
# Poissons Ratio (z) = -0.02857 0.22944
#
# Static dielectric constant tensor:
#      x y z
#    x 3.978800 0.000000 0.147190 
#    y 0.000000 3.626870 0.000000 
#    z 0.147190 0.000000 3.854060 
# 
# 
# High freq. dielectric constant tensor:
#      x y z
#    x 1.816960 0.000000 0.008970 
#    y 0.000000 1.793760 0.000000 
#    z 0.008970 0.000000 1.805780 
# 
# From -- ./inp_files/51328.got.cif
#   From: 2010.06.25/outbox.cif.g09.slc.cpg/sg12_26_cif.got.tgz:51328.got - 2010.06.28 00:19:55.
