data_PCOD8110754
_publ_section_title
;
Structure prediction by ZEFSAII (Michael W. Deem and Ramdas Pophale) SiO2 
 PCOD8110754
Probable space group: C 2/M
;
_chemical_formula_sum "Si O2"
_cell_formula_units_Z 56
_cell_length_a 21.580919
_cell_length_b 29.140513
_cell_length_c 9.792888
_cell_angle_alpha 90.000000
_cell_angle_beta 154.048830
_cell_angle_gamma 90.000000
_cell_volume 2695.008792
_symmetry_space_group_name_H-M "C 2/M"
_symmetry_group_IT_number 12
_symmetry_cell_setting 'monoclinic'
loop_
_space_group_symop_operation_xyz
x,y,z
-x,y,-z
-x,-y,-z
x,-y,z
1/2+x,1/2+y,z
1/2-x,1/2+y,-z
1/2-x,1/2-y,-z
1/2+x,1/2-y,z
loop_
_atom_site_type_symbol
_atom_site_label
_atom_site_fract_x
_atom_site_fract_y
_atom_site_fract_z
Si Si1 0.985226 0.417832 0.820551
Si Si2 0.710438 0.847270 0.181447
Si Si3 0.518694 0.694443 0.187507
Si Si4 0.477253 0.780765 0.615661
Si Si5 0.332035 0.500000 0.172888
Si Si6 0.074596 0.500000 0.498406
Si Si7 0.756965 0.354927 0.259851
Si Si8 0.334064 0.400313 0.187501
O O1 0.971956 0.455732 0.678085
O O2 0.854467 0.381803 0.561753
O O3 0.128862 0.390293 0.080082
O O4 0.000000 0.440375 0.000000
O O5 0.782148 0.860644 0.181756
O O6 0.834317 0.833461 0.530948
O O7 0.609148 0.804739 0.949635
O O8 0.536751 0.731565 0.341820
O O9 0.500000 0.716886 0.000000
O O10 0.391063 0.659583 0.966699
O O11 0.500000 0.773768 0.500000
O O12 0.334430 0.809445 0.357134
O O13 0.500000 0.500000 0.500000
O O14 0.289518 0.451235 0.157898
O O15 0.245987 0.500000 0.857825
O O16 0.000000 0.500000 0.500000
O O17 0.736892 0.391580 0.099111
O O18 0.500000 0.396418 0.500000
#
# Coordination Sequence:
#
# PCOD8110754 Si02
#       8
#     8   8   8   8   4   4   8   8
#     4  11  25  43  65  94 134 175 212 263 326 391
#     4  11  24  41  67  92 129 167 224 266 324 391
#     4  12  27  44  63  91 130 174 220 273 333 392
#     4  11  25  40  65  96 127 165 221 277 328 384
#     4  10  22  37  64 101 138 157 202 262 323 374
#     4  12  23  41  68 101 132 169 218 268 319 382
#     4  11  23  41  69  92 128 169 223 265 326 388
#     4  11  20  39  66 103 126 167 213 271 323 381
#
# _framework density 20.779152
#
# number of rings (size 3 to 8) (size 9 to 14) (size 15 to 20)
#    0.000    0.857    4.286    2.786    2.000    5.714 
#    0.000    0.000    0.000    0.000    0.000    7.000 
#    0.000    0.000    0.000    0.000    0.000    0.000 
#
# Total GULP energy -347094.584246 kJ/mol
# GULP energy per Si atom -12396.235152 kJ/mol
# Density = 2.073186 g / cm^3
# Si number density = 20.779152 Si / 1000 Ang^3
#
#
#
# Elastic Constant Matrix: (Units=GPa)
#
#
# Indices 1 2 3 4 5 6 
#
# 1 77.9729 31.9189 57.0368 0.0000 -12.0771 0.0000
# 2 31.9189 103.4638 44.9062 0.0000 6.0825 0.0000
# 3 57.0368 44.9062 138.8440 0.0000 7.6110 0.0000
# 4 0.0000 0.0000 0.0000 31.3762 0.0000 3.1896
# 5 -12.0771 6.0825 7.6110 0.0000 39.5694 0.0000
# 6 0.0000 0.0000 0.0000 3.1896 0.0000 28.0838
#
#
#
# Elastic Compliance Matrix: (Units=1/GPa)
#
#
# Indices 1 2 3 4 5 6 
#
# 1 0.021673 -0.003639 -0.008206 0.000000 0.008753 0.000000
# 2 -0.003639 0.011897 -0.002215 0.000000 -0.002513 0.000000
# 3 -0.008206 -0.002215 0.011530 0.000000 -0.004382 0.000000
# 4 0.000000 0.000000 0.000000 0.032244 0.000000 -0.003662
# 5 0.008753 -0.002513 -0.004382 0.000000 0.029173 0.000000
# 6 0.000000 0.000000 0.000000 -0.003662 0.000000 0.036024
#
#
# Mechanical properties :
#
#
# Convention : Reuss Voigt Hill
#
# Bulk Modulus (GPa) = 58.89445 65.33382 62.11414
# Shear Modulus (GPa) = 28.35748 32.23380 30.29564
#
# Velocity S-wave (km/s) = 3.69820 3.94287 3.82250
# Velocity P-wave (km/s) = 6.82936 7.22763 7.03132
#
# Compressibility (1/GPa) = 0.01697953
#
# Stress axis : x y z
#
# Youngs Moduli (GPa) = 46.14038 84.05419 86.73044
#
# Poissons Ratio (x) = 0.30588 0.71171
# Poissons Ratio (y) = 0.16791 0.19212
# Poissons Ratio (z) = 0.37863 0.18619
#
# Static dielectric constant tensor:
#      x y z
#    x 3.778650 0.000000 0.273860 
#    y 0.000000 3.857080 0.000000 
#    z 0.273860 0.000000 4.225720 
# 
# 
# High freq. dielectric constant tensor:
#      x y z
#    x 1.795460 0.000000 0.008250 
#    y 0.000000 1.820450 0.000000 
#    z 0.008250 0.000000 1.837010 
# 
# From -- ./inp_files/91692.got.cif
#   From: 2010.06.25/outbox.cif.g09.slc.cpg/sg12_46_cif.got.tgz:91692.got - 2010.06.28 00:19:55.
