data_PCOD8110384
_publ_section_title
;
Structure prediction by ZEFSAII (Michael W. Deem and Ramdas Pophale) SiO2 
 PCOD8110384
Probable space group: C 2/M
;
_chemical_formula_sum "Si O2"
_cell_formula_units_Z 64
_cell_length_a 9.176170
_cell_length_b 27.957212
_cell_length_c 12.368567
_cell_angle_alpha 90.000000
_cell_angle_beta 86.548435
_cell_angle_gamma 90.000000
_cell_volume 3167.278059
_symmetry_space_group_name_H-M "C 2/M"
_symmetry_group_IT_number 12
_symmetry_cell_setting 'monoclinic'
loop_
_space_group_symop_operation_xyz
x,y,z
-x,y,-z
-x,-y,-z
x,-y,z
1/2+x,1/2+y,z
1/2-x,1/2+y,-z
1/2-x,1/2-y,-z
1/2+x,1/2-y,z
loop_
_atom_site_type_symbol
_atom_site_label
_atom_site_fract_x
_atom_site_fract_y
_atom_site_fract_z
Si Si1 0.828154 0.900421 0.498250
Si Si2 0.164750 0.204773 0.464261
Si Si3 0.677247 0.600405 0.121593
Si Si4 0.328642 0.944581 0.696608
Si Si5 0.587349 0.280884 0.885891
Si Si6 0.155669 0.889067 0.879532
Si Si7 0.831537 0.554403 0.303094
Si Si8 0.695196 0.702613 0.211948
O O1 0.797242 0.844487 0.474067
O O2 0.749694 0.933001 0.412850
O O3 0.763353 0.911488 0.617907
O O4 0.000000 0.911049 0.500000
O O5 0.250000 0.250000 0.500000
O O6 0.212730 0.197472 0.338560
O O7 0.000000 0.217242 0.500000
O O8 0.504703 0.595255 0.154479
O O9 0.776890 0.562939 0.182769
O O10 0.731080 0.653224 0.150462
O O11 0.698100 0.589482 0.994115
O O12 0.269945 0.909612 0.790614
O O13 0.499740 0.933593 0.684233
O O14 0.298835 0.000000 0.726625
O O15 0.668308 0.331860 0.889548
O O16 0.472155 0.281793 0.794086
O O17 0.703547 0.240823 0.852346
O O18 0.500000 0.269800 0.000000
O O19 0.800407 0.500000 0.336116
#
# Coordination Sequence:
#
# PCOD8110384 Si02
#       8
#     8   8   8   8   8   8   8   8
#     4  11  24  43  70  95 128 169 219 268 316 381
#     4  11  25  42  62  94 131 169 210 259 318 380
#     4  10  21  42  63  95 126 165 214 267 319 382
#     4  11  26  43  64  96 130 168 214 267 331 388
#     4  11  22  39  64  94 127 169 215 264 318 379
#     4  10  22  41  67  91 130 165 214 268 317 379
#     4  11  24  44  66  93 129 166 210 271 328 389
#     4  11  22  40  62  90 131 165 213 263 318 380
#
# _framework density 20.206624999999999
#
# number of rings (size 3 to 8) (size 9 to 14) (size 15 to 20)
#    0.000    1.250    3.750    2.625    7.000    6.500 
#    0.000    2.500    0.000    0.000    0.000    0.000 
#    0.000    0.000    0.000    0.000    0.000    0.000 
#
# Total GULP energy -396796.327981 kJ/mol
# GULP energy per Si atom -12399.885249 kJ/mol
# Density = 2.016063 g / cm^3
# Si number density = 20.206625 Si / 1000 Ang^3
#
#
#
# Elastic Constant Matrix: (Units=GPa)
#
#
# Indices 1 2 3 4 5 6 
#
# 1 101.0661 59.5765 44.5729 0.0000 1.2403 0.0000
# 2 59.5765 76.2040 29.1106 0.0000 -6.4156 0.0000
# 3 44.5729 29.1106 98.3956 0.0000 1.4301 0.0000
# 4 0.0000 0.0000 0.0000 33.3819 0.0000 0.2029
# 5 1.2403 -6.4156 1.4301 0.0000 35.7696 0.0000
# 6 0.0000 0.0000 0.0000 0.2029 0.0000 38.2011
#
#
#
# Elastic Compliance Matrix: (Units=1/GPa)
#
#
# Indices 1 2 3 4 5 6 
#
# 1 0.020730 -0.014544 -0.005042 0.000000 -0.003126 0.000000
# 2 -0.014544 0.025290 -0.000968 0.000000 0.005079 0.000000
# 3 -0.005042 -0.000968 0.012741 0.000000 -0.000508 0.000000
# 4 0.000000 0.000000 0.000000 0.029957 0.000000 -0.000159
# 5 -0.003126 0.005079 -0.000508 0.000000 0.028996 0.000000
# 6 0.000000 0.000000 0.000000 -0.000159 0.000000 0.026178
#
#
# Mechanical properties :
#
#
# Convention : Reuss Voigt Hill
#
# Bulk Modulus (GPa) = 56.64599 60.24285 58.44442
# Shear Modulus (GPa) = 26.19381 30.96424 28.57903
#
# Velocity S-wave (km/s) = 3.60432 3.91881 3.76485
# Velocity P-wave (km/s) = 6.73912 7.09607 6.91990
#
# Compressibility (1/GPa) = 0.01765350
#
# Stress axis : x y z
#
# Youngs Moduli (GPa) = 48.23957 39.54099 78.48718
#
# Poissons Ratio (x) = 0.57507 0.39576
# Poissons Ratio (y) = 0.70158 0.07596
# Poissons Ratio (z) = 0.24324 0.03827
#
# Static dielectric constant tensor:
#      x y z
#    x 3.685540 0.000000 0.160130 
#    y 0.000000 3.677020 0.000000 
#    z 0.160130 0.000000 3.712560 
# 
# 
# High freq. dielectric constant tensor:
#      x y z
#    x 1.788110 0.000000 0.003920 
#    y 0.000000 1.793000 0.000000 
#    z 0.003920 0.000000 1.800160 
# 
# From -- ./inp_files/125750.got.cif
#   From: 2010.06.25/outbox.cif.g09.slc.cpg/sg12_63_cif.got.tgz:125750.got - 2010.06.28 00:19:55.
