data_PCOD8110992
_publ_section_title
;
Structure prediction by ZEFSAII (Michael W. Deem and Ramdas Pophale) SiO2 
 PCOD8110992
Probable space group: C 2/M
;
_chemical_formula_sum "Si O2"
_cell_formula_units_Z 36
_cell_length_a 5.164533
_cell_length_b 24.436678
_cell_length_c 13.069430
_cell_angle_alpha 90.000000
_cell_angle_beta 110.905184
_cell_angle_gamma 90.000000
_cell_volume 1540.837381
_symmetry_space_group_name_H-M "C 2/M"
_symmetry_group_IT_number 12
_symmetry_cell_setting 'monoclinic'
loop_
_space_group_symop_operation_xyz
x,y,z
-x,y,-z
-x,-y,-z
x,-y,z
1/2+x,1/2+y,z
1/2-x,1/2+y,-z
1/2-x,1/2-y,-z
1/2+x,1/2-y,z
loop_
_atom_site_type_symbol
_atom_site_label
_atom_site_fract_x
_atom_site_fract_y
_atom_site_fract_z
Si Si1 0.833438 0.285769 0.193741
Si Si2 0.580472 0.562111 0.657497
Si Si3 0.776911 0.059404 0.102472
Si Si4 0.500000 0.351083 0.000000
Si Si5 0.471822 0.128296 0.384120
O O1 0.553582 0.261277 0.202144
O O2 0.962169 0.326450 0.295005
O O3 0.759851 0.314387 0.074293
O O4 0.521762 0.500000 0.614692
O O5 0.782413 0.564907 0.785270
O O6 0.294022 0.589257 0.652671
O O7 0.747270 0.592447 0.590814
O O8 0.956827 0.110807 0.092637
O O9 0.923956 0.000000 0.103155
O O10 0.500000 0.062192 0.000000
O O11 0.500000 0.156495 0.500000
#
# Coordination Sequence:
#
# PCOD8110992 Si02
#       5
#     8   8   8   4   8
#     4  12  28  47  70 100 133 178 240 293 348 398
#     4  11  24  44  70 107 146 181 223 276 341 421
#     4  10  22  38  66 103 142 185 221 266 339 424
#     4  12  23  42  72  94 140 176 223 286 344 410
#     4  12  26  47  73 100 138 185 231 287 345 405
#
# _framework density 23.363918999999999
#
# number of rings (size 3 to 8) (size 9 to 14) (size 15 to 20)
#    0.000    0.667    2.222    5.000    3.111    3.556 
#    0.000    0.000    0.000    0.000    0.000    0.000 
#    0.000    0.000    0.000    0.000    0.000    0.000 
#
# Total GULP energy -223186.326789 kJ/mol
# GULP energy per Si atom -12399.240377 kJ/mol
# Density = 2.331074 g / cm^3
# Si number density = 23.363919 Si / 1000 Ang^3
#
#
#
# Elastic Constant Matrix: (Units=GPa)
#
#
# Indices 1 2 3 4 5 6 
#
# 1 94.0678 25.2873 -3.3082 0.0000 -5.9236 0.0000
# 2 25.2873 109.6186 19.3976 0.0000 -3.1474 0.0000
# 3 -3.3082 19.3976 85.3603 0.0000 -6.3543 0.0000
# 4 0.0000 0.0000 0.0000 13.6104 0.0000 -2.0824
# 5 -5.9236 -3.1474 -6.3543 0.0000 33.1302 0.0000
# 6 0.0000 0.0000 0.0000 -2.0824 0.0000 42.7349
#
#
#
# Elastic Compliance Matrix: (Units=1/GPa)
#
#
# Indices 1 2 3 4 5 6 
#
# 1 0.011563 -0.002829 0.001243 0.000000 0.002037 0.000000
# 2 -0.002829 0.010205 -0.002429 0.000000 -0.000002 0.000000
# 3 0.001243 -0.002429 0.012493 0.000000 0.002388 0.000000
# 4 0.000000 0.000000 0.000000 0.074025 0.000000 0.003607
# 5 0.002037 -0.000002 0.002388 0.000000 0.031006 0.000000
# 6 0.000000 0.000000 0.000000 0.003607 0.000000 0.023576
#
#
# Mechanical properties :
#
#
# Convention : Reuss Voigt Hill
#
# Bulk Modulus (GPa) = 38.12316 41.31111 39.71713
# Shear Modulus (GPa) = 27.83329 34.40644 31.11986
#
# Velocity S-wave (km/s) = 3.45526 3.84165 3.65357
# Velocity P-wave (km/s) = 5.68075 6.11536 5.90206
#
# Compressibility (1/GPa) = 0.02623078
#
# Stress axis : x y z
#
# Youngs Moduli (GPa) = 86.48243 97.99285 80.04573
#
# Poissons Ratio (x) = 0.27720 -0.09947
# Poissons Ratio (y) = 0.24464 0.19441
# Poissons Ratio (z) = -0.10746 0.23800
#
# Static dielectric constant tensor:
#      x y z
#    x 4.450480 0.000000 -0.114530 
#    y 0.000000 4.455000 0.000000 
#    z -0.114530 0.000000 4.476900 
# 
# 
# High freq. dielectric constant tensor:
#      x y z
#    x 1.909900 0.000000 0.005830 
#    y 0.000000 1.929760 0.000000 
#    z 0.005830 0.000000 1.948540 
# 
# From -- ./inp_files/114975.got.cif
#   From: 2010.06.25/outbox.cif.g09.slc.cpg/sg12_58_cif.got.tgz:114975.got - 2010.06.28 00:19:55.
