data_PCOD8110609
_publ_section_title
;
Structure prediction by ZEFSAII (Michael W. Deem and Ramdas Pophale) SiO2 
 PCOD8110609
Probable space group: C 2/M
;
_chemical_formula_sum "Si O2"
_cell_formula_units_Z 56
_cell_length_a 25.008374
_cell_length_b 27.248666
_cell_length_c 15.075733
_cell_angle_alpha 90.000000
_cell_angle_beta 162.145134
_cell_angle_gamma 90.000000
_cell_volume 3149.858800
_symmetry_space_group_name_H-M "C 2/M"
_symmetry_group_IT_number 12
_symmetry_cell_setting 'monoclinic'
loop_
_space_group_symop_operation_xyz
x,y,z
-x,y,-z
-x,-y,-z
x,-y,z
1/2+x,1/2+y,z
1/2-x,1/2+y,-z
1/2-x,1/2-y,-z
1/2+x,1/2-y,z
loop_
_atom_site_type_symbol
_atom_site_label
_atom_site_fract_x
_atom_site_fract_y
_atom_site_fract_z
Si Si1 0.759263 0.686494 0.355251
Si Si2 0.761437 0.944954 0.467510
Si Si3 0.129174 0.206433 0.778387
Si Si4 0.176625 0.799425 0.581715
Si Si5 0.383257 0.054860 0.950242
Si Si6 0.087671 0.154054 0.262686
Si Si7 0.368133 0.148159 0.034019
O O1 0.805406 0.742102 0.406669
O O2 0.680430 0.681841 0.328539
O O3 0.933570 0.654420 0.621333
O O4 0.617489 0.667071 0.060161
O O5 0.745794 0.938651 0.336805
O O6 0.896072 0.905030 0.718876
O O7 0.828182 0.000000 0.595105
O O8 0.577863 0.934888 0.224407
O O9 0.000000 0.228404 0.500000
O O10 0.012531 0.187412 0.675695
O O11 0.250000 0.250000 0.000000
O O12 0.240648 0.161253 0.914495
O O13 0.190017 0.828362 0.511188
O O14 0.331493 0.816402 0.891753
O O15 0.366310 0.000000 0.962386
O O16 0.332596 0.092209 0.948698
#
# Coordination Sequence:
#
# PCOD8110609 Si02
#       7
#     8   8   8   8   8   8   8
#     4  11  23  34  50  82 115 146 178 221 273 331
#     4   9  17  33  56  80 107 143 184 224 272 333
#     4  10  22  36  56  79 106 143 189 227 263 319
#     4  11  22  37  55  75 109 152 187 220 266 325
#     4   9  17  32  57  84 105 139 186 229 274 325
#     4  11  22  36  51  81 114 145 182 221 275 329
#     4  11  20  36  58  79 110 144 185 229 271 314
#
# _framework density 17.778575
#
# number of rings (size 3 to 8) (size 9 to 14) (size 15 to 20)
#    0.000    1.714    4.286    2.143    2.000    1.714 
#    0.000    2.143    0.000    4.714    0.000    0.000 
#    0.000    2.857    0.000    0.000    0.000    0.000 
#
# Total GULP energy -347196.823665 kJ/mol
# GULP energy per Si atom -12399.886559 kJ/mol
# Density = 1.773811 g / cm^3
# Si number density = 17.778575 Si / 1000 Ang^3
#
#
#
# Elastic Constant Matrix: (Units=GPa)
#
#
# Indices 1 2 3 4 5 6 
#
# 1 63.1462 46.8127 22.0058 0.0001 5.9438 0.0000
# 2 46.8127 122.9166 27.7818 0.0000 6.3896 0.0000
# 3 22.0058 27.7818 81.9232 -0.0001 8.4597 0.0000
# 4 0.0001 0.0000 -0.0001 6.5500 0.0000 -5.1573
# 5 5.9438 6.3896 8.4597 0.0000 18.0031 0.0000
# 6 0.0000 0.0000 0.0000 -5.1573 0.0000 30.1947
#
#
#
# Elastic Compliance Matrix: (Units=1/GPa)
#
#
# Indices 1 2 3 4 5 6 
#
# 1 0.023127 -0.007915 -0.003184 -0.000001 -0.003330 0.000000
# 2 -0.007915 0.011576 -0.001729 0.000000 -0.000683 0.000000
# 3 -0.003184 -0.001729 0.014164 0.000000 -0.004990 0.000000
# 4 -0.000001 0.000000 0.000000 0.176394 0.000000 0.030128
# 5 -0.003330 -0.000683 -0.004990 0.000000 0.059233 0.000000
# 6 0.000000 0.000000 0.000000 0.030128 0.000000 0.038264
#
#
# Mechanical properties :
#
#
# Convention : Reuss Voigt Hill
#
# Bulk Modulus (GPa) = 43.08467 51.24295 47.16381
# Shear Modulus (GPa) = 14.03896 22.37529 18.20712
#
# Velocity S-wave (km/s) = 2.81313 3.55146 3.20364
# Velocity P-wave (km/s) = 5.90239 6.76037 6.34590
#
# Compressibility (1/GPa) = 0.02321011
#
# Stress axis : x y z
#
# Youngs Moduli (GPa) = 43.23911 86.38268 70.60345
#
# Poissons Ratio (x) = 0.68373 0.22482
# Poissons Ratio (y) = 0.34224 0.12208
# Poissons Ratio (z) = 0.13768 0.14937
#
# Static dielectric constant tensor:
#      x y z
#    x 3.270640 0.000000 -0.030470 
#    y 0.000000 3.320880 0.000000 
#    z -0.030470 0.000000 3.376790 
# 
# 
# High freq. dielectric constant tensor:
#      x y z
#    x 1.672180 0.000000 -0.005030 
#    y 0.000000 1.683620 0.000000 
#    z -0.005030 0.000000 1.683920 
# 
# From -- ./inp_files/242169.got.cif
#   From: 2010.06.25/outbox.cif.g09.slc.cpg/sg12_122_cif.got.tgz:242169.got - 2010.06.28 00:19:55.
