data_PCOD8110172
_publ_section_title
;
Structure prediction by ZEFSAII (Michael W. Deem and Ramdas Pophale) SiO2 
 PCOD8110172
Probable space group: C 2/M
;
_chemical_formula_sum "Si O2"
_cell_formula_units_Z 56
_cell_length_a 11.473069
_cell_length_b 25.991922
_cell_length_c 13.821638
_cell_angle_alpha 90.000000
_cell_angle_beta 43.727163
_cell_angle_gamma 90.000000
_cell_volume 2849.029870
_symmetry_space_group_name_H-M "C 2/M"
_symmetry_group_IT_number 12
_symmetry_cell_setting 'monoclinic'
loop_
_space_group_symop_operation_xyz
x,y,z
-x,y,-z
-x,-y,-z
x,-y,z
1/2+x,1/2+y,z
1/2-x,1/2+y,-z
1/2-x,1/2-y,-z
1/2+x,1/2-y,z
loop_
_atom_site_type_symbol
_atom_site_label
_atom_site_fract_x
_atom_site_fract_y
_atom_site_fract_z
Si Si1 0.425713 0.894554 0.276397
Si Si2 0.042438 0.500000 0.832764
Si Si3 0.631901 0.659972 0.338787
Si Si4 0.983332 0.900313 0.778037
Si Si5 0.779400 0.000000 0.848884
Si Si6 0.660456 0.939726 0.472449
Si Si7 0.187831 0.733132 0.896654
Si Si8 0.737429 0.667364 0.964693
O O1 0.489951 0.950743 0.212531
O O2 0.276098 0.877233 0.294880
O O3 0.362962 0.900615 0.423899
O O4 0.582881 0.856580 0.169536
O O5 0.234106 0.500000 0.761265
O O6 0.903662 0.500000 0.997268
O O7 0.500000 0.673929 0.500000
O O8 0.536510 0.634513 0.305457
O O9 0.711191 0.714571 0.258885
O O10 0.176404 0.916990 0.681361
O O11 0.879431 0.950824 0.820399
O O12 0.907553 0.874389 0.921696
O O13 0.500000 0.935287 0.500000
O O14 0.689632 0.000000 0.485005
O O15 0.263699 0.704630 0.942977
O O16 0.191637 0.795406 0.901969
O O17 0.000000 0.712568 0.000000
#
# Coordination Sequence:
#
# PCOD8110172 Si02
#       8
#     8   4   8   8   4   8   8   8
#     4  12  21  39  63  95 130 164 209 254 308 378
#     4  11  22  31  59 102 136 162 197 259 314 373
#     4  11  22  37  64  99 126 159 198 261 325 374
#     4  11  21  37  62  91 132 160 207 254 305 378
#     4  11  20  31  57 100 134 158 199 255 320 365
#     4  11  25  41  58  86 131 179 211 244 293 369
#     4  10  21  41  63  87 122 159 206 261 312 369
#     4  10  23  38  62  93 119 162 205 257 316 362
#
# _framework density 19.655812999999998
#
# number of rings (size 3 to 8) (size 9 to 14) (size 15 to 20)
#    0.000    1.143    7.143    0.000    0.000    1.143 
#    0.000    5.000    0.000    2.571    0.000    0.000 
#    0.000    0.000    0.000    0.000    0.000    0.000 
#
# Total GULP energy -347018.579067 kJ/mol
# GULP energy per Si atom -12393.520681 kJ/mol
# Density = 1.961108 g / cm^3
# Si number density = 19.655813 Si / 1000 Ang^3
#
#
#
# Elastic Constant Matrix: (Units=GPa)
#
#
# Indices 1 2 3 4 5 6 
#
# 1 60.7387 24.5054 26.1242 0.0000 -15.7866 0.0000
# 2 24.5054 96.3311 50.8524 0.0000 -1.5548 0.0000
# 3 26.1242 50.8524 124.1843 0.0000 -18.2837 0.0000
# 4 0.0000 0.0000 0.0000 23.0298 0.0000 8.7018
# 5 -15.7866 -1.5548 -18.2837 0.0000 30.1767 0.0000
# 6 0.0000 0.0000 0.0000 8.7018 0.0000 13.2518
#
#
#
# Elastic Compliance Matrix: (Units=1/GPa)
#
#
# Indices 1 2 3 4 5 6 
#
# 1 0.021534 -0.004753 -0.001055 0.000000 0.010381 0.000000
# 2 -0.004753 0.014521 -0.005712 0.000000 -0.005199 0.000000
# 3 -0.001055 -0.005712 0.011516 0.000000 0.006131 0.000000
# 4 0.000000 0.000000 0.000000 0.057751 0.000000 -0.037922
# 5 0.010381 -0.005199 0.006131 0.000000 0.042016 0.000000
# 6 0.000000 0.000000 0.000000 -0.037922 0.000000 0.100363
#
#
# Mechanical properties :
#
#
# Convention : Reuss Voigt Hill
#
# Bulk Modulus (GPa) = 40.76563 53.80200 47.28382
# Shear Modulus (GPa) = 17.92639 25.27647 21.60143
#
# Velocity S-wave (km/s) = 3.02323 3.58991 3.31869
# Velocity P-wave (km/s) = 5.74207 6.67943 6.22841
#
# Compressibility (1/GPa) = 0.02453047
#
# Stress axis : x y z
#
# Youngs Moduli (GPa) = 46.43890 68.86367 86.83406
#
# Poissons Ratio (x) = 0.32733 0.09162
# Poissons Ratio (y) = 0.22074 0.49599
# Poissons Ratio (z) = 0.04900 0.39335
#
# Static dielectric constant tensor:
#      x y z
#    x 3.440390 0.000000 -0.009040 
#    y 0.000000 3.909500 0.000000 
#    z -0.009040 0.000000 3.707470 
# 
# 
# High freq. dielectric constant tensor:
#      x y z
#    x 1.753090 0.000000 -0.009750 
#    y 0.000000 1.768600 0.000000 
#    z -0.009750 0.000000 1.769980 
# 
# From -- ./inp_files/80040.got.cif
#   From: 2010.06.25/outbox.cif.g09.slc.cpg/sg12_41_cif.got.tgz:80040.got - 2010.06.28 00:19:55.
