data_PCOD8110738
_publ_section_title
;
Structure prediction by ZEFSAII (Michael W. Deem and Ramdas Pophale) SiO2 
 PCOD8110738
Probable space group: C 2/M
;
_chemical_formula_sum "Si O2"
_cell_formula_units_Z 48
_cell_length_a 19.518681
_cell_length_b 22.178407
_cell_length_c 10.849904
_cell_angle_alpha 90.000000
_cell_angle_beta 31.463496
_cell_angle_gamma 90.000000
_cell_volume 2451.545531
_symmetry_space_group_name_H-M "C 2/M"
_symmetry_group_IT_number 12
_symmetry_cell_setting 'monoclinic'
loop_
_space_group_symop_operation_xyz
x,y,z
-x,y,-z
-x,-y,-z
x,-y,z
1/2+x,1/2+y,z
1/2-x,1/2+y,-z
1/2-x,1/2-y,-z
1/2+x,1/2-y,z
loop_
_atom_site_type_symbol
_atom_site_label
_atom_site_fract_x
_atom_site_fract_y
_atom_site_fract_z
Si Si1 0.167030 0.217451 0.520616
Si Si2 0.691173 0.000000 0.088920
Si Si3 0.524576 0.500000 0.244139
Si Si4 0.147514 0.620050 0.746110
Si Si5 0.767061 0.500000 0.254484
Si Si6 0.332834 0.843384 0.565187
Si Si7 0.045743 0.875594 0.065491
Si Si8 0.500000 0.907866 0.500000
O O1 0.250000 0.250000 0.500000
O O2 0.263602 0.167492 0.313647
O O3 0.133712 0.271943 0.480440
O O4 0.035790 0.182294 0.761736
O O5 0.625031 0.056329 0.257268
O O6 0.661713 0.000000 0.987618
O O7 0.847838 0.000000 0.865255
O O8 0.389307 0.500000 0.528888
O O9 0.522788 0.438173 0.170583
O O10 0.184182 0.554756 0.737267
O O11 0.175681 0.626330 0.557054
O O12 0.000000 0.637552 0.000000
O O13 0.453308 0.870190 0.455075
O O14 0.196643 0.856331 0.842777
O O15 0.000000 0.890628 0.000000
#
# Coordination Sequence:
#
# PCOD8110738 Si02
#       8
#     8   4   4   8   4   8   8   4
#     4  10  22  37  61  92 128 167 204 265 317 377
#     4  11  25  43  67  88 133 175 208 263 324 399
#     4  12  23  42  65  97 131 167 218 268 325 391
#     4  11  23  38  63  96 127 167 210 265 329 378
#     4  12  23  43  62  98 130 159 218 269 329 382
#     4  11  24  41  68  92 130 171 216 266 314 387
#     4  12  21  41  66 101 129 166 220 271 325 375
#     4  11  24  48  64  94 126 175 222 252 324 383
#
# _framework density 19.579484000000001
#
# number of rings (size 3 to 8) (size 9 to 14) (size 15 to 20)
#    0.000    0.833    6.667    1.750    4.667    2.000 
#    0.000    2.500    0.000    0.000    0.000    0.000 
#    0.000    0.000    0.000    0.000    0.000    0.000 
#
# Total GULP energy -297447.331580 kJ/mol
# GULP energy per Si atom -12393.638816 kJ/mol
# Density = 1.953492 g / cm^3
# Si number density = 19.579484 Si / 1000 Ang^3
#
#
#
# Elastic Constant Matrix: (Units=GPa)
#
#
# Indices 1 2 3 4 5 6 
#
# 1 78.8164 45.7946 18.5614 0.0005 -1.0150 -0.0006
# 2 45.7946 143.0225 29.4287 -0.0005 15.8580 0.0008
# 3 18.5614 29.4287 113.9492 0.0012 -3.4315 -0.0006
# 4 0.0005 -0.0005 0.0012 3.1521 0.0003 23.7087
# 5 -1.0150 15.8580 -3.4315 0.0003 25.8522 -0.0002
# 6 -0.0006 0.0008 -0.0006 23.7087 -0.0002 -6.1465
#
#
#
# Elastic Compliance Matrix: (Units=1/GPa)
#
#
# Indices 1 2 3 4 5 6 
#
# 1 0.016106 -0.005341 -0.001131 0.000000 0.003758 -0.000001
# 2 -0.005341 0.009801 -0.001856 0.000000 -0.006468 0.000001
# 3 -0.001131 -0.001856 0.009510 0.000000 0.002356 -0.000001
# 4 0.000000 0.000000 0.000000 0.010570 0.000001 0.040773
# 5 0.003758 -0.006468 0.002356 0.000001 0.043109 -0.000001
# 6 -0.000001 0.000001 -0.000001 0.040773 -0.000001 -0.005421
#
#
# Mechanical properties :
#
#
# Convention : Reuss Voigt Hill
#
# Bulk Modulus (GPa) = 53.30108 58.15081 55.72595
# Shear Modulus (GPa) = 46.91061 20.70513 33.80787
#
# Velocity S-wave (km/s) = 4.90011 3.25544 4.15986
# Velocity P-wave (km/s) = 7.70044 6.62532 7.18302
#
# Compressibility (1/GPa) = 0.01876135
#
# Stress axis : x y z
#
# Youngs Moduli (GPa) = 62.08988 102.02938 105.14836
#
# Poissons Ratio (x) = 0.54493 0.11892
# Poissons Ratio (y) = 0.33162 0.19516
# Poissons Ratio (z) = 0.07022 0.18937
#
# Static dielectric constant tensor:
#      x y z
#    x 3.373250 0.000000 -0.116010 
#    y 0.000000 4.326580 0.000000 
#    z -0.116010 0.000000 3.889870 
# 
# 
# High freq. dielectric constant tensor:
#      x y z
#    x 1.739260 0.000000 -0.017660 
#    y 0.000000 1.782840 0.000000 
#    z -0.017660 0.000000 1.776360 
# 
# From -- ./inp_files/133047.got.cif
#   From: 2010.06.25/outbox.cif.g09.slc.cpg/sg12_67_cif.got.tgz:133047.got - 2010.06.28 00:19:55.
