data_PCOD8110460
_publ_section_title
;
Structure prediction by ZEFSAII (Michael W. Deem and Ramdas Pophale) SiO2 
 PCOD8110460
Probable space group: C 2/M
;
_chemical_formula_sum "Si O2"
_cell_formula_units_Z 36
_cell_length_a 9.512619
_cell_length_b 23.095389
_cell_length_c 9.183624
_cell_angle_alpha 90.000000
_cell_angle_beta 119.323086
_cell_angle_gamma 90.000000
_cell_volume 1759.106840
_symmetry_space_group_name_H-M "C 2/M"
_symmetry_group_IT_number 12
_symmetry_cell_setting 'monoclinic'
loop_
_space_group_symop_operation_xyz
x,y,z
-x,y,-z
-x,-y,-z
x,-y,z
1/2+x,1/2+y,z
1/2-x,1/2+y,-z
1/2-x,1/2-y,-z
1/2+x,1/2-y,z
loop_
_atom_site_type_symbol
_atom_site_label
_atom_site_fract_x
_atom_site_fract_y
_atom_site_fract_z
Si Si1 0.776960 0.280612 0.779938
Si Si2 0.500000 0.350818 0.500000
Si Si3 0.981473 0.064247 0.752387
Si Si4 0.880624 0.683927 0.139346
Si Si5 0.734745 0.935714 0.886030
O O1 0.652066 0.310682 0.609547
O O2 0.723253 0.214266 0.784840
O O3 0.949410 0.282800 0.787058
O O4 0.783639 0.312686 0.938534
O O5 0.546959 0.389625 0.387154
O O6 0.840801 0.072230 0.797186
O O7 0.971944 0.000000 0.679559
O O8 0.154376 0.072300 0.915992
O O9 0.900364 0.615174 0.183192
O O10 0.653514 0.000000 0.846807
#
# Coordination Sequence:
#
# PCOD8110460 Si02
#       5
#     8   4   8   8   8
#     4  10  24  37  64  87 125 163 202 246 319 348
#     4  12  21  38  58  96 125 158 196 262 312 356
#     4   9  19  34  60  92 124 163 203 248 302 365
#     4  10  21  43  59  91 120 165 207 251 289 377
#     4   9  18  37  65  89 118 167 210 243 294 369
#
# _framework density 20.464929000000001
#
# number of rings (size 3 to 8) (size 9 to 14) (size 15 to 20)
#    0.000    2.222    2.222    1.667    3.111    2.667 
#    0.000    4.444    0.000    2.667    0.000    0.000 
#    0.000    0.000    0.000    0.000    0.000    0.000 
#
# Total GULP energy -223133.931152 kJ/mol
# GULP energy per Si atom -12396.329508 kJ/mol
# Density = 2.041835 g / cm^3
# Si number density = 20.464929 Si / 1000 Ang^3
#
#
#
# Elastic Constant Matrix: (Units=GPa)
#
#
# Indices 1 2 3 4 5 6 
#
# 1 85.6581 65.7051 27.3371 0.0000 11.5246 0.0000
# 2 65.7051 166.2229 37.8426 0.0000 -0.6981 0.0000
# 3 27.3371 37.8426 88.7892 0.0000 2.4270 0.0000
# 4 0.0000 0.0000 0.0000 33.1412 0.0000 -1.9639
# 5 11.5246 -0.6981 2.4270 0.0000 20.9520 0.0000
# 6 0.0000 0.0000 0.0000 -1.9639 0.0000 31.9857
#
#
#
# Elastic Compliance Matrix: (Units=1/GPa)
#
#
# Indices 1 2 3 4 5 6 
#
# 1 0.019401 -0.007109 -0.002653 0.000000 -0.010601 0.000000
# 2 -0.007109 0.009274 -0.001885 0.000000 0.004438 0.000000
# 3 -0.002653 -0.001885 0.012886 0.000000 -0.000096 0.000000
# 4 0.000000 0.000000 0.000000 0.030284 0.000000 0.001859
# 5 -0.010601 0.004438 -0.000096 0.000000 0.053718 0.000000
# 6 0.000000 0.000000 0.000000 0.001859 0.000000 0.031378
#
#
# Mechanical properties :
#
#
# Convention : Reuss Voigt Hill
#
# Bulk Modulus (GPa) = 54.75023 66.93774 60.84398
# Shear Modulus (GPa) = 26.83494 31.20147 29.01821
#
# Velocity S-wave (km/s) = 3.62507 3.90889 3.76965
# Velocity P-wave (km/s) = 6.65828 7.29055 6.98158
#
# Compressibility (1/GPa) = 0.01826476
#
# Stress axis : x y z
#
# Youngs Moduli (GPa) = 51.54485 107.82893 77.60559
#
# Poissons Ratio (x) = 0.76657 0.20592
# Poissons Ratio (y) = 0.36644 0.14629
# Poissons Ratio (z) = 0.13677 0.20327
#
# Static dielectric constant tensor:
#      x y z
#    x 3.377150 0.000000 -0.087440 
#    y 0.000000 3.928890 0.000000 
#    z -0.087440 0.000000 3.541670 
# 
# 
# High freq. dielectric constant tensor:
#      x y z
#    x 1.778920 0.000000 -0.012800 
#    y 0.000000 1.815120 0.000000 
#    z -0.012800 0.000000 1.780380 
# 
# From -- ./inp_files/51058.got.cif
#   From: 2010.06.25/outbox.cif.g09.slc.cpg/sg12_26_cif.got.tgz:51058.got - 2010.06.28 00:19:55.
