data_PCOD8110868
_publ_section_title
;
Structure prediction by ZEFSAII (Michael W. Deem and Ramdas Pophale) SiO2 
 PCOD8110868
Probable space group: C 2/M
;
_chemical_formula_sum "Si O2"
_cell_formula_units_Z 56
_cell_length_a 21.687578
_cell_length_b 15.445973
_cell_length_c 22.340090
_cell_angle_alpha 90.000000
_cell_angle_beta 22.134007
_cell_angle_gamma 90.000000
_cell_volume 2819.631227
_symmetry_space_group_name_H-M "C 2/M"
_symmetry_group_IT_number 12
_symmetry_cell_setting 'monoclinic'
loop_
_space_group_symop_operation_xyz
x,y,z
-x,y,-z
-x,-y,-z
x,-y,z
1/2+x,1/2+y,z
1/2-x,1/2+y,-z
1/2-x,1/2-y,-z
1/2+x,1/2-y,z
loop_
_atom_site_type_symbol
_atom_site_label
_atom_site_fract_x
_atom_site_fract_y
_atom_site_fract_z
Si Si1 0.351311 0.400471 0.946687
Si Si2 0.364421 0.169301 0.077311
Si Si3 0.594889 0.712882 0.793540
Si Si4 0.825703 0.686151 0.686673
Si Si5 0.610504 0.402895 0.222753
Si Si6 0.156864 0.243795 0.521673
Si Si7 0.922626 0.399846 0.714978
O O1 0.381996 0.500000 0.932441
O O2 0.516668 0.353588 0.817439
O O3 0.317634 0.380927 0.907410
O O4 0.195895 0.369268 0.124836
O O5 0.231870 0.222833 0.234256
O O6 0.262725 0.098269 0.131966
O O7 0.500000 0.126743 0.000000
O O8 0.453095 0.231113 0.950478
O O9 0.693316 0.658539 0.755662
O O10 0.716784 0.774523 0.646003
O O11 0.833084 0.612760 0.731393
O O12 0.000000 0.701546 0.500000
O O13 0.535494 0.500000 0.291344
O O14 0.472514 0.333874 0.363895
O O15 0.250000 0.250000 0.500000
O O16 0.078005 0.337386 0.579112
O O17 0.976559 0.500000 0.673043
#
# Coordination Sequence:
#
# PCOD8110868 Si02
#       7
#     8   8   8   8   8   8   8
#     4  10  22  38  59  90 125 159 205 254 300 365
#     4  10  22  39  65  91 120 160 211 259 305 365
#     4  11  21  37  62  89 123 162 205 249 304 370
#     4  11  20  38  60  88 124 164 204 246 305 361
#     4  11  23  42  65  90 123 164 208 258 313 364
#     4  12  24  39  63  90 123 167 200 254 311 366
#     4  11  24  41  61  90 126 164 205 248 303 371
#
# _framework density 19.860752999999999
#
# number of rings (size 3 to 8) (size 9 to 14) (size 15 to 20)
#    0.000    1.143    5.714    0.000    2.000    3.429 
#    0.000    2.143    0.000    8.143    0.000    0.000 
#    0.000    0.000    0.000    0.000    0.000    0.000 
#
# Total GULP energy -347194.117147 kJ/mol
# GULP energy per Si atom -12399.789898 kJ/mol
# Density = 1.981555 g / cm^3
# Si number density = 19.860753 Si / 1000 Ang^3
#
#
#
# Elastic Constant Matrix: (Units=GPa)
#
#
# Indices 1 2 3 4 5 6 
#
# 1 137.2740 36.3148 24.8074 -0.0034 -8.0880 0.0010
# 2 36.3148 65.8672 31.5375 -0.0116 -6.1960 0.0034
# 3 24.8074 31.5375 100.8070 -0.0202 14.2371 0.0080
# 4 -0.0034 -0.0116 -0.0202 15.4376 0.0028 1.4727
# 5 -8.0880 -6.1960 14.2371 0.0028 36.9770 -0.0007
# 6 0.0010 0.0034 0.0080 1.4727 -0.0007 26.5595
#
#
#
# Elastic Compliance Matrix: (Units=1/GPa)
#
#
# Indices 1 2 3 4 5 6 
#
# 1 0.008661 -0.004108 -0.001075 -0.000003 0.001620 0.000001
# 2 -0.004108 0.020903 -0.006236 0.000006 0.005005 -0.000001
# 3 -0.001075 -0.006236 0.013024 0.000014 -0.006295 -0.000004
# 4 -0.000003 0.000006 0.000014 0.065121 -0.000010 -0.003611
# 5 0.001620 0.005005 -0.006295 -0.000010 0.030660 0.000003
# 6 0.000001 -0.000001 -0.000004 -0.003611 0.000003 0.037852
#
#
# Mechanical properties :
#
#
# Convention : Reuss Voigt Hill
#
# Bulk Modulus (GPa) = 50.62876 54.36308 52.49592
# Shear Modulus (GPa) = 24.31394 29.88072 27.09733
#
# Velocity S-wave (km/s) = 3.50268 3.88301 3.69774
# Velocity P-wave (km/s) = 6.47345 6.89458 6.68733
#
# Compressibility (1/GPa) = 0.01975162
#
# Stress axis : x y z
#
# Youngs Moduli (GPa) = 115.45765 47.83916 76.77970
#
# Poissons Ratio (x) = 0.19653 0.08254
# Poissons Ratio (y) = 0.47431 0.47876
# Poissons Ratio (z) = 0.12412 0.29830
#
# Static dielectric constant tensor:
#      x y z
#    x 4.062420 0.000000 0.125340 
#    y 0.000000 3.287410 0.000050 
#    z 0.125340 0.000050 3.778330 
# 
# 
# High freq. dielectric constant tensor:
#      x y z
#    x 1.797270 0.000000 0.005970 
#    y 0.000000 1.743490 0.000010 
#    z 0.005970 0.000010 1.784070 
# 
# From -- ./inp_files/349718.got.cif
#   From: 2010.06.25/outbox.cif.g09.slc.cpg/sg12_175_cif.got.tgz:349718.got - 2010.06.28 00:19:55.
