data_PCOD8110250
_publ_section_title
;
Structure prediction by ZEFSAII (Michael W. Deem and Ramdas Pophale) SiO2 
 PCOD8110250
Probable space group: C 2/M
;
_chemical_formula_sum "Si O2"
_cell_formula_units_Z 48
_cell_length_a 21.164267
_cell_length_b 14.616818
_cell_length_c 12.670416
_cell_angle_alpha 90.000000
_cell_angle_beta 37.568103
_cell_angle_gamma 90.000000
_cell_volume 2389.824375
_symmetry_space_group_name_H-M "C 2/M"
_symmetry_group_IT_number 12
_symmetry_cell_setting 'monoclinic'
loop_
_space_group_symop_operation_xyz
x,y,z
-x,y,-z
-x,-y,-z
x,-y,z
1/2+x,1/2+y,z
1/2-x,1/2+y,-z
1/2-x,1/2-y,-z
1/2+x,1/2-y,z
loop_
_atom_site_type_symbol
_atom_site_label
_atom_site_fract_x
_atom_site_fract_y
_atom_site_fract_z
Si Si1 0.878019 0.000000 0.796894
Si Si2 0.106770 0.606812 0.406138
Si Si3 0.623705 0.500000 0.437874
Si Si4 0.335955 0.398147 0.426656
Si Si5 0.205709 0.821030 0.974429
Si Si6 0.615793 0.893698 0.639395
Si Si7 0.505960 0.264371 0.115250
O O1 0.839036 0.910562 0.908993
O O2 0.832710 0.000000 0.737918
O O3 0.000394 0.000000 0.618864
O O4 0.117258 0.500000 0.369224
O O5 0.106292 0.629503 0.529566
O O6 0.000000 0.645734 0.500000
O O7 0.201578 0.656074 0.226099
O O8 0.667262 0.409594 0.441027
O O9 0.355445 0.500000 0.350232
O O10 0.227658 0.358119 0.529363
O O11 0.428363 0.331960 0.276323
O O12 0.119214 0.776628 0.014135
O O13 0.250000 0.750000 0.000000
O O14 0.527668 0.840034 0.819871
O O15 0.599420 0.000000 0.686026
O O16 0.500000 0.287423 0.000000
#
# Coordination Sequence:
#
# PCOD8110250 Si02
#       7
#     4   8   4   8   8   8   8
#     4  11  22  44  65  93 137 161 217 272 311 387
#     4  10  21  41  66  88 122 172 215 263 324 382
#     4   9  20  40  70  93 124 181 205 256 330 372
#     4   9  19  40  64  92 125 167 217 250 319 381
#     4  12  25  43  64 100 128 170 216 269 326 377
#     4  10  22  41  64  91 129 173 216 261 317 389
#     4  12  25  40  63  98 131 167 215 272 320 381
#
# _framework density 20.085158
#
# number of rings (size 3 to 8) (size 9 to 14) (size 15 to 20)
#    0.500    1.000    2.500    2.500    0.000    3.333 
#    4.500    0.000    0.000    0.000    0.000    0.000 
#    0.000    0.000    0.000    0.000    0.000    0.000 
#
# Total GULP energy -297553.019161 kJ/mol
# GULP energy per Si atom -12398.042465 kJ/mol
# Density = 2.003944 g / cm^3
# Si number density = 20.085158 Si / 1000 Ang^3
#
#
#
# Elastic Constant Matrix: (Units=GPa)
#
#
# Indices 1 2 3 4 5 6 
#
# 1 170.3278 28.6897 42.7134 0.0000 -11.6678 0.0000
# 2 28.6897 68.5487 26.5954 0.0000 -5.4420 0.0000
# 3 42.7134 26.5954 67.4483 0.0000 -14.8891 0.0000
# 4 0.0000 0.0000 0.0000 26.2042 0.0000 11.4877
# 5 -11.6678 -5.4420 -14.8891 0.0000 37.3131 0.0000
# 6 0.0000 0.0000 0.0000 11.4877 0.0000 -19.7301
#
#
#
# Elastic Compliance Matrix: (Units=1/GPa)
#
#
# Indices 1 2 3 4 5 6 
#
# 1 0.007107 -0.001454 -0.003820 0.000000 0.000486 0.000000
# 2 -0.001454 0.017522 -0.006058 0.000000 -0.000317 0.000000
# 3 -0.003820 -0.006058 0.021028 0.000000 0.006313 0.000000
# 4 0.000000 0.000000 0.000000 0.030402 0.000000 0.017701
# 5 0.000486 -0.000317 0.006313 0.000000 0.029425 0.000000
# 6 0.000000 0.000000 0.000000 0.017701 0.000000 -0.040378
#
#
# Mechanical properties :
#
#
# Convention : Reuss Voigt Hill
#
# Bulk Modulus (GPa) = 43.49296 55.81354 49.65325
# Shear Modulus (GPa) = 52.39173 22.64587 37.51880
#
# Velocity S-wave (km/s) = 5.11287 3.36146 4.32671
# Velocity P-wave (km/s) = 7.52041 6.55093 7.05235
#
# Compressibility (1/GPa) = 0.02299223
#
# Stress axis : x y z
#
# Youngs Moduli (GPa) = 140.70193 57.07118 47.55608
#
# Poissons Ratio (x) = 0.08297 0.18168
# Poissons Ratio (y) = 0.20455 0.28811
# Poissons Ratio (z) = 0.53752 0.34575
#
# Static dielectric constant tensor:
#      x y z
#    x 3.847300 0.000000 -0.100330 
#    y 0.000000 3.646970 0.000000 
#    z -0.100330 0.000000 3.469340 
# 
# 
# High freq. dielectric constant tensor:
#      x y z
#    x 1.807330 0.000000 -0.003480 
#    y 0.000000 1.782760 0.000000 
#    z -0.003480 0.000000 1.775210 
# 
# From -- ./inp_files/167587.got.cif
#   From: 2010.06.25/outbox.cif.g09.slc.cpg/sg12_84_cif.got.tgz:167587.got - 2010.06.28 00:19:55.
