data_PCOD8110062
_publ_section_title
;
Structure prediction by ZEFSAII (Michael W. Deem and Ramdas Pophale) SiO2 
 PCOD8110062
Probable space group: C 2/M
;
_chemical_formula_sum "Si O2"
_cell_formula_units_Z 40
_cell_length_a 16.780993
_cell_length_b 15.354513
_cell_length_c 10.864384
_cell_angle_alpha 90.000000
_cell_angle_beta 44.200460
_cell_angle_gamma 90.000000
_cell_volume 1951.632472
_symmetry_space_group_name_H-M "C 2/M"
_symmetry_group_IT_number 12
_symmetry_cell_setting 'monoclinic'
loop_
_space_group_symop_operation_xyz
x,y,z
-x,y,-z
-x,-y,-z
x,-y,z
1/2+x,1/2+y,z
1/2-x,1/2+y,-z
1/2-x,1/2-y,-z
1/2+x,1/2-y,z
loop_
_atom_site_type_symbol
_atom_site_label
_atom_site_fract_x
_atom_site_fract_y
_atom_site_fract_z
Si Si1 0.397652 0.331016 0.528712
Si Si2 0.833184 0.098737 0.222873
Si Si3 0.297580 0.094004 0.394583
Si Si4 0.461068 0.749358 0.211290
Si Si5 0.714288 0.738293 0.900967
O O1 0.500000 0.369646 0.500000
O O2 0.326463 0.404969 0.535906
O O3 0.453077 0.265290 0.367283
O O4 0.305339 0.283807 0.714645
O O5 0.724592 0.101072 0.434794
O O6 0.931380 0.160346 0.172095
O O7 0.793584 0.137092 0.134082
O O8 0.878694 0.000000 0.154978
O O9 0.375345 0.173949 0.264723
O O10 0.354762 0.000000 0.301657
O O11 0.587138 0.779680 0.031065
O O12 0.750000 0.750000 0.000000
#
# Coordination Sequence:
#
# PCOD8110062 Si02
#       5
#     8   8   8   8   8
#     4  11  21  40  61  89 127 163 208 256 314 369
#     4  10  21  40  67  95 121 158 214 265 305 362
#     4  10  21  40  67  94 122 167 214 255 311 369
#     4  11  21  39  67  90 124 165 209 259 312 364
#     4  12  23  37  63  92 127 169 201 249 322 373
#
# _framework density 20.495663
#
# number of rings (size 3 to 8) (size 9 to 14) (size 15 to 20)
#    0.000    1.200    6.000    1.800    0.000    2.000 
#    0.000    4.000    0.000    3.600    0.000    0.000 
#    0.000    0.000    0.000    0.000    0.000    0.000 
#
# Total GULP energy -247811.812523 kJ/mol
# GULP energy per Si atom -12390.590626 kJ/mol
# Density = 2.044901 g / cm^3
# Si number density = 20.495663 Si / 1000 Ang^3
#
#
#
# Elastic Constant Matrix: (Units=GPa)
#
#
# Indices 1 2 3 4 5 6 
#
# 1 126.5763 65.9754 39.7430 0.0000 5.5412 0.0000
# 2 65.9754 114.9569 38.7339 0.0000 -2.3186 0.0000
# 3 39.7430 38.7339 113.5009 0.0000 4.4973 0.0000
# 4 0.0000 0.0000 0.0000 14.2747 0.0000 10.1035
# 5 5.5412 -2.3186 4.4973 0.0000 40.9239 0.0000
# 6 0.0000 0.0000 0.0000 10.1035 0.0000 15.3650
#
#
#
# Elastic Compliance Matrix: (Units=1/GPa)
#
#
# Indices 1 2 3 4 5 6 
#
# 1 0.011794 -0.006142 -0.001965 0.000000 -0.001729 0.000000
# 2 -0.006142 0.013063 -0.002380 0.000000 0.001833 0.000000
# 3 -0.001965 -0.002380 0.010351 0.000000 -0.001006 0.000000
# 4 0.000000 0.000000 0.000000 0.131046 0.000000 -0.086171
# 5 -0.001729 0.001833 -0.001006 0.000000 0.024884 0.000000
# 6 0.000000 0.000000 0.000000 -0.086171 0.000000 0.121746
#
#
# Mechanical properties :
#
#
# Convention : Reuss Voigt Hill
#
# Bulk Modulus (GPa) = 70.25547 71.54875 70.90211
# Shear Modulus (GPa) = 14.76660 28.15149 21.45904
#
# Velocity S-wave (km/s) = 2.68708 3.71014 3.23925
# Velocity P-wave (km/s) = 6.63173 7.30332 6.97561
#
# Compressibility (1/GPa) = 0.01423377
#
# Stress axis : x y z
#
# Youngs Moduli (GPa) = 84.78619 76.55483 96.61118
#
# Poissons Ratio (x) = 0.47017 0.18989
# Poissons Ratio (y) = 0.52072 0.22993
# Poissons Ratio (z) = 0.16664 0.18219
#
# Static dielectric constant tensor:
#      x y z
#    x 4.107310 0.000000 0.294000 
#    y 0.000000 3.536320 0.000000 
#    z 0.294000 0.000000 4.027640 
# 
# 
# High freq. dielectric constant tensor:
#      x y z
#    x 1.793820 0.000000 0.011970 
#    y 0.000000 1.771320 0.000000 
#    z 0.011970 0.000000 1.821950 
# 
# From -- ./inp_files/141823.got.cif
#   From: 2010.06.25/outbox.cif.g09.slc.cpg/sg12_71_cif.got.tgz:141823.got - 2010.06.28 00:19:55.
