data_PCOD8110915
_publ_section_title
;
Structure prediction by ZEFSAII (Michael W. Deem and Ramdas Pophale) SiO2 
 PCOD8110915
Probable space group: C 2/M
;
_chemical_formula_sum "Si O2"
_cell_formula_units_Z 40
_cell_length_a 5.228977
_cell_length_b 27.755152
_cell_length_c 12.707582
_cell_angle_alpha 90.000000
_cell_angle_beta 97.270327
_cell_angle_gamma 90.000000
_cell_volume 1829.437061
_symmetry_space_group_name_H-M "C 2/M"
_symmetry_group_IT_number 12
_symmetry_cell_setting 'monoclinic'
loop_
_space_group_symop_operation_xyz
x,y,z
-x,y,-z
-x,-y,-z
x,-y,z
1/2+x,1/2+y,z
1/2-x,1/2+y,-z
1/2-x,1/2-y,-z
1/2+x,1/2-y,z
loop_
_atom_site_type_symbol
_atom_site_label
_atom_site_fract_x
_atom_site_fract_y
_atom_site_fract_z
Si Si1 0.538122 0.780238 0.622546
Si Si2 0.860940 0.946322 0.386408
Si Si3 0.129864 0.946895 0.183893
Si Si4 0.718788 0.621416 0.936013
Si Si5 0.037228 0.627801 0.254343
O O1 0.500000 0.796217 0.500000
O O2 0.279771 0.754714 0.649697
O O3 0.594054 0.826923 0.696432
O O4 0.647635 0.906226 0.352059
O O5 0.000000 0.930272 0.500000
O O6 0.065884 0.947210 0.303553
O O7 0.736406 0.000000 0.391935
O O8 0.339089 0.904874 0.175856
O O9 0.886015 0.932630 0.097232
O O10 0.229668 0.000000 0.155825
O O11 0.750300 0.646212 0.821111
O O12 0.500000 0.647023 0.000000
O O13 0.000000 0.620558 0.000000
#
# Coordination Sequence:
#
# PCOD8110915 Si02
#       5
#     8   8   8   8   8
#     4  10  25  44  68 100 131 164 212 266 323 393
#     4   9  20  35  55  91 136 176 216 259 311 387
#     4  10  22  38  60  95 132 175 224 264 314 385
#     4  11  23  43  63  94 128 175 221 271 322 376
#     4  11  23  39  68  91 131 172 218 267 330 379
#
# _framework density 21.864649
#
# number of rings (size 3 to 8) (size 9 to 14) (size 15 to 20)
#    0.000    1.800    2.000    0.600    8.400    2.400 
#    0.000    3.000    0.000    3.600    0.000    0.000 
#    0.000    0.000    0.000    0.000    0.000    0.000 
#
# Total GULP energy -247781.720922 kJ/mol
# GULP energy per Si atom -12389.086046 kJ/mol
# Density = 2.181488 g / cm^3
# Si number density = 21.864649 Si / 1000 Ang^3
#
#
#
# Elastic Constant Matrix: (Units=GPa)
#
#
# Indices 1 2 3 4 5 6 
#
# 1 109.7226 33.9235 30.0750 0.0000 9.0361 0.0000
# 2 33.9235 91.4746 18.6272 0.0000 -2.5673 0.0000
# 3 30.0750 18.6272 55.3094 0.0000 -1.7484 0.0000
# 4 0.0000 0.0000 0.0000 14.4132 0.0000 -3.8745
# 5 9.0361 -2.5673 -1.7484 0.0000 34.1357 0.0000
# 6 0.0000 0.0000 0.0000 -3.8745 0.0000 21.9505
#
#
#
# Elastic Compliance Matrix: (Units=1/GPa)
#
#
# Indices 1 2 3 4 5 6 
#
# 1 0.011982 -0.003432 -0.005477 0.000000 -0.003710 0.000000
# 2 -0.003432 0.012736 -0.002368 0.000000 0.001745 0.000000
# 3 -0.005477 -0.002368 0.021931 0.000000 0.002395 0.000000
# 4 0.000000 0.000000 0.000000 0.072837 0.000000 0.012857
# 5 -0.003710 0.001745 0.002395 0.000000 0.030531 0.000000
# 6 0.000000 0.000000 0.000000 0.012857 0.000000 0.047826
#
#
# Mechanical properties :
#
#
# Convention : Reuss Voigt Hill
#
# Bulk Modulus (GPa) = 41.50120 46.86201 44.18161
# Shear Modulus (GPa) = 21.88871 25.69194 23.79033
#
# Velocity S-wave (km/s) = 3.16745 3.43161 3.30217
# Velocity P-wave (km/s) = 5.69203 6.09759 5.89829
#
# Compressibility (1/GPa) = 0.02409569
#
# Stress axis : x y z
#
# Youngs Moduli (GPa) = 83.46001 78.51735 45.59727
#
# Poissons Ratio (x) = 0.26950 0.24971
# Poissons Ratio (y) = 0.28647 0.10796
# Poissons Ratio (z) = 0.45707 0.18591
#
# Static dielectric constant tensor:
#      x y z
#    x 4.098930 0.000000 -0.246910 
#    y 0.000000 3.591010 0.000000 
#    z -0.246910 0.000000 4.226120 
# 
# 
# High freq. dielectric constant tensor:
#      x y z
#    x 1.859340 0.000000 -0.007200 
#    y 0.000000 1.815690 0.000000 
#    z -0.007200 0.000000 1.880100 
# 
# From -- ./inp_files/115543.got.cif
#   From: 2010.06.25/outbox.cif.g09.slc.cpg/sg12_58_cif.got.tgz:115543.got - 2010.06.28 00:19:55.
