data_PCOD8110589
_publ_section_title
;
Structure prediction by ZEFSAII (Michael W. Deem and Ramdas Pophale) SiO2 
 PCOD8110589
Probable space group: C 2/M
;
_chemical_formula_sum "Si O2"
_cell_formula_units_Z 56
_cell_length_a 24.911607
_cell_length_b 8.566414
_cell_length_c 16.802146
_cell_angle_alpha 90.000000
_cell_angle_beta 119.916634
_cell_angle_gamma 90.000000
_cell_volume 3107.852551
_symmetry_space_group_name_H-M "C 2/M"
_symmetry_group_IT_number 12
_symmetry_cell_setting 'monoclinic'
loop_
_space_group_symop_operation_xyz
x,y,z
-x,y,-z
-x,-y,-z
x,-y,z
1/2+x,1/2+y,z
1/2-x,1/2+y,-z
1/2-x,1/2-y,-z
1/2+x,1/2-y,z
loop_
_atom_site_type_symbol
_atom_site_label
_atom_site_fract_x
_atom_site_fract_y
_atom_site_fract_z
Si Si1 0.671380 0.817087 0.077645
Si Si2 0.095427 0.684491 0.601511
Si Si3 0.561622 0.318124 0.092979
Si Si4 0.307639 0.683277 0.218238
Si Si5 0.879829 0.183282 0.115988
Si Si6 0.025367 0.684957 0.399340
Si Si7 0.514270 0.183383 0.214719
O O1 0.618317 0.782062 0.102177
O O2 0.736586 0.761857 0.163252
O O3 0.672043 0.000000 0.057265
O O4 0.662789 0.717796 0.991381
O O5 0.098542 0.500000 0.607935
O O6 0.161043 0.751342 0.678400
O O7 0.040711 0.749777 0.618252
O O8 0.080358 0.739428 0.499610
O O9 0.575902 0.500000 0.091747
O O10 0.553805 0.278746 0.179900
O O11 0.500000 0.268740 0.000000
O O12 0.311788 0.500000 0.224041
O O13 0.343989 0.744448 0.167308
O O14 0.942030 0.281573 0.151586
O O15 0.895477 0.000000 0.131218
O O16 0.020648 0.500000 0.396929
O O17 0.037611 0.743004 0.318658
O O18 0.525355 0.000000 0.210654
#
# Coordination Sequence:
#
# PCOD8110589 Si02
#       7
#     8   8   8   8   8   8   8
#     4  11  23  38  55  75 103 143 185 219 256 313
#     4   9  16  31  54  78 107 141 175 212 257 314
#     4  11  23  38  55  77 106 137 174 226 270 306
#     4  10  22  36  51  78 113 142 174 217 263 311
#     4  11  21  34  51  77 112 143 172 214 262 310
#     4   8  16  30  51  81 109 135 174 218 257 305
#     4  11  20  33  56  81 107 140 177 216 259 311
#
# _framework density 18.018872999999999
#
# number of rings (size 3 to 8) (size 9 to 14) (size 15 to 20)
#    0.000    1.857    2.857    3.000    0.000    2.286 
#    0.000    2.857    0.000    0.857    0.000    0.000 
#    0.000    0.000    0.000    0.000    0.000    0.000 
#
# Total GULP energy -347211.217918 kJ/mol
# GULP energy per Si atom -12400.400640 kJ/mol
# Density = 1.797786 g / cm^3
# Si number density = 18.018873 Si / 1000 Ang^3
#
#
#
# Elastic Constant Matrix: (Units=GPa)
#
#
# Indices 1 2 3 4 5 6 
#
# 1 76.8622 12.8427 48.4297 0.0000 6.2006 0.0000
# 2 12.8427 23.8191 14.7504 0.0000 0.1314 0.0000
# 3 48.4297 14.7504 146.9025 0.0000 4.9903 0.0000
# 4 0.0000 0.0000 0.0000 24.8689 0.0000 3.1638
# 5 6.2006 0.1314 4.9903 0.0000 27.7070 0.0000
# 6 0.0000 0.0000 0.0000 3.1638 0.0000 22.9856
#
#
#
# Elastic Compliance Matrix: (Units=1/GPa)
#
#
# Indices 1 2 3 4 5 6 
#
# 1 0.017468 -0.006289 -0.005026 0.000000 -0.002974 0.000000
# 2 -0.006289 0.047041 -0.002707 0.000000 0.001672 0.000000
# 3 -0.005026 -0.002707 0.008751 0.000000 -0.000438 0.000000
# 4 0.000000 0.000000 0.000000 0.040927 0.000000 -0.005633
# 5 -0.002974 0.001672 -0.000438 0.000000 0.036829 0.000000
# 6 0.000000 0.000000 0.000000 -0.005633 0.000000 0.044281
#
#
# Mechanical properties :
#
#
# Convention : Reuss Voigt Hill
#
# Bulk Modulus (GPa) = 22.11632 44.40329 33.25981
# Shear Modulus (GPa) = 20.97198 26.54972 23.76085
#
# Velocity S-wave (km/s) = 3.41528 3.84271 3.63528
# Velocity P-wave (km/s) = 5.27758 6.66218 6.00989
#
# Compressibility (1/GPa) = 0.04521547
#
# Stress axis : x y z
#
# Youngs Moduli (GPa) = 57.24752 21.25798 114.27390
#
# Poissons Ratio (x) = 0.13370 0.57436
# Poissons Ratio (y) = 0.36005 0.30931
# Poissons Ratio (z) = 0.28774 0.05754
#
# Static dielectric constant tensor:
#      x y z
#    x 3.230840 0.000000 -0.037210 
#    y 0.000000 3.139580 0.000000 
#    z -0.037210 0.000000 3.821410 
# 
# 
# High freq. dielectric constant tensor:
#      x y z
#    x 1.674240 0.000000 -0.002510 
#    y 0.000000 1.688910 0.000000 
#    z -0.002510 0.000000 1.705140 
# 
# From -- ./inp_files/244336.got.cif
#   From: 2010.06.25/outbox.cif.g09.slc.cpg/sg12_123_cif.got.tgz:244336.got - 2010.06.28 00:19:55.
