data_PCOD8110432
_publ_section_title
;
Structure prediction by ZEFSAII (Michael W. Deem and Ramdas Pophale) SiO2 
 PCOD8110432
Probable space group: C 2/M
;
_chemical_formula_sum "Si O2"
_cell_formula_units_Z 48
_cell_length_a 9.726115
_cell_length_b 22.419367
_cell_length_c 12.303381
_cell_angle_alpha 90.000000
_cell_angle_beta 116.834010
_cell_angle_gamma 90.000000
_cell_volume 2393.904859
_symmetry_space_group_name_H-M "C 2/M"
_symmetry_group_IT_number 12
_symmetry_cell_setting 'monoclinic'
loop_
_space_group_symop_operation_xyz
x,y,z
-x,y,-z
-x,-y,-z
x,-y,z
1/2+x,1/2+y,z
1/2-x,1/2+y,-z
1/2-x,1/2-y,-z
1/2+x,1/2-y,z
loop_
_atom_site_type_symbol
_atom_site_label
_atom_site_fract_x
_atom_site_fract_y
_atom_site_fract_z
Si Si1 0.344700 0.430239 0.596883
Si Si2 0.329730 0.430142 0.199487
Si Si3 0.690916 0.873111 0.343057
Si Si4 0.155368 0.630080 0.703912
Si Si5 0.674775 0.747183 0.589687
Si Si6 0.180713 0.931963 0.045613
O O1 0.353705 0.500000 0.575600
O O2 0.504910 0.404294 0.702390
O O3 0.315284 0.397385 0.473092
O O4 0.207258 0.418324 0.633330
O O5 0.349170 0.500000 0.198045
O O6 0.194199 0.413419 0.235624
O O7 0.284983 0.407448 0.063444
O O8 0.526715 0.873838 0.343093
O O9 0.743111 0.807878 0.320291
O O10 0.201096 0.695154 0.674745
O O11 0.238435 0.615341 0.846585
O O12 0.500000 0.734847 0.500000
O O13 0.750000 0.750000 0.500000
O O14 0.242623 0.000000 0.086035
O O15 0.000000 0.931481 0.000000
#
# Coordination Sequence:
#
# PCOD8110432 Si02
#       6
#     8   8   8   8   8   8
#     4  11  21  37  63  95 129 165 208 260 319 387
#     4  10  22  40  64  94 128 172 214 253 317 388
#     4  12  25  39  63  96 133 162 209 269 329 379
#     4  12  24  40  63  95 125 166 219 264 314 380
#     4  12  23  43  65  92 129 171 213 262 322 386
#     4  10  21  42  69  93 125 173 217 256 312 385
#
# _framework density 20.050923000000001
#
# number of rings (size 3 to 8) (size 9 to 14) (size 15 to 20)
#    0.000    0.833    5.000    3.000    0.000    5.333 
#    0.000    2.500    0.000    0.000    0.000    0.000 
#    0.000    0.000    0.000    0.000    0.000    0.000 
#
# Total GULP energy -297594.529755 kJ/mol
# GULP energy per Si atom -12399.772073 kJ/mol
# Density = 2.000529 g / cm^3
# Si number density = 20.050923 Si / 1000 Ang^3
#
#
#
# Elastic Constant Matrix: (Units=GPa)
#
#
# Indices 1 2 3 4 5 6 
#
# 1 95.0166 27.4699 27.7135 0.0000 -16.4138 0.0000
# 2 27.4699 66.7031 48.3601 0.0000 2.5363 0.0000
# 3 27.7135 48.3601 130.1524 0.0000 -23.1204 0.0000
# 4 0.0000 0.0000 0.0000 35.2083 0.0000 -5.2408
# 5 -16.4138 2.5363 -23.1204 0.0000 36.8890 0.0000
# 6 0.0000 0.0000 0.0000 -5.2408 0.0000 32.4143
#
#
#
# Elastic Compliance Matrix: (Units=1/GPa)
#
#
# Indices 1 2 3 4 5 6 
#
# 1 0.013296 -0.006232 0.000688 0.000000 0.006776 0.000000
# 2 -0.006232 0.025165 -0.009929 0.000000 -0.010726 0.000000
# 3 0.000688 -0.009929 0.012830 0.000000 0.009030 0.000000
# 4 0.000000 0.000000 0.000000 0.029103 0.000000 0.004705
# 5 0.006776 -0.010726 0.009030 0.000000 0.036520 0.000000
# 6 0.000000 0.000000 0.000000 0.004705 0.000000 0.031611
#
#
# Mechanical properties :
#
#
# Convention : Reuss Voigt Hill
#
# Bulk Modulus (GPa) = 49.15134 55.43991 52.29563
# Shear Modulus (GPa) = 26.84531 33.45757 30.15144
#
# Velocity S-wave (km/s) = 3.66301 4.08932 3.88202
# Velocity P-wave (km/s) = 6.51588 7.07151 6.79937
#
# Compressibility (1/GPa) = 0.02034532
#
# Stress axis : x y z
#
# Youngs Moduli (GPa) = 75.21040 39.73844 77.94225
#
# Poissons Ratio (x) = 0.24766 -0.05364
# Poissons Ratio (y) = 0.46873 0.77386
# Poissons Ratio (z) = -0.05176 0.39455
#
# Static dielectric constant tensor:
#      x y z
#    x 3.744460 0.000000 -0.129830 
#    y 0.000000 -43.093710 0.000000 
#    z -0.129830 0.000000 3.895920 
# 
# 
# High freq. dielectric constant tensor:
#      x y z
#    x 1.794020 0.000000 -0.015060 
#    y 0.000000 1.773040 0.000000 
#    z -0.015060 0.000000 1.777090 
# 
# From -- ./inp_files/121862.got.cif
#   From: 2010.06.25/outbox.cif.g09.slc.cpg/sg12_61_cif.got.tgz:121862.got - 2010.06.28 00:19:55.
