data_PCOD8110203
_publ_section_title
;
Structure prediction by ZEFSAII (Michael W. Deem and Ramdas Pophale) SiO2 
 PCOD8110203
Probable space group: C 2/M
;
_chemical_formula_sum "Si O2"
_cell_formula_units_Z 48
_cell_length_a 29.607337
_cell_length_b 8.885700
_cell_length_c 18.581650
_cell_angle_alpha 90.000000
_cell_angle_beta 29.496627
_cell_angle_gamma 90.000000
_cell_volume 2406.960151
_symmetry_space_group_name_H-M "C 2/M"
_symmetry_group_IT_number 12
_symmetry_cell_setting 'monoclinic'
loop_
_space_group_symop_operation_xyz
x,y,z
-x,y,-z
-x,-y,-z
x,-y,z
1/2+x,1/2+y,z
1/2-x,1/2+y,-z
1/2-x,1/2-y,-z
1/2+x,1/2-y,z
loop_
_atom_site_type_symbol
_atom_site_label
_atom_site_fract_x
_atom_site_fract_y
_atom_site_fract_z
Si Si1 0.950958 0.834494 0.642834
Si Si2 0.556915 0.675736 0.637670
Si Si3 0.397125 0.824654 0.120997
Si Si4 0.730053 0.174274 0.101700
Si Si5 0.894945 0.175547 0.972567
Si Si6 0.258038 0.178852 0.567434
O O1 0.871037 0.719335 0.734243
O O2 0.000000 0.853028 0.500000
O O3 0.015466 0.773633 0.617914
O O4 0.913883 0.000000 0.718825
O O5 0.582892 0.500000 0.600771
O O6 0.484567 0.712006 0.800971
O O7 0.648269 0.770971 0.524134
O O8 0.328100 0.729066 0.265414
O O9 0.373842 0.000000 0.163165
O O10 0.500000 0.785169 0.000000
O O11 0.390391 0.779922 0.047772
O O12 0.737382 0.000000 0.079873
O O13 0.750000 0.250000 0.000000
O O14 0.804703 0.226941 0.055449
O O15 0.892648 0.000000 0.997292
O O16 0.250000 0.250000 0.500000
O O17 0.256869 0.000000 0.561579
#
# Coordination Sequence:
#
# PCOD8110203 Si02
#       6
#     8   8   8   8   8   8
#     4  10  22  40  62  91 127 169 212 258 314 371
#     4  10  21  41  64  91 129 168 209 256 313 372
#     4  11  25  44  67  96 125 158 207 257 309 373
#     4  11  22  39  62  91 126 166 215 260 310 369
#     4  10  22  40  63  92 127 165 207 257 313 370
#     4  12  26  44  67  95 128 164 206 252 311 371
#
# _framework density 19.942164999999999
#
# number of rings (size 3 to 8) (size 9 to 14) (size 15 to 20)
#    0.000    1.333    1.667    3.500    2.333    7.000 
#    0.000    0.000    0.000    0.000    0.000    0.000 
#    0.000    0.000    0.000    0.000    0.000    0.000 
#
# Total GULP energy -297635.626278 kJ/mol
# GULP energy per Si atom -12401.484428 kJ/mol
# Density = 1.989678 g / cm^3
# Si number density = 19.942165 Si / 1000 Ang^3
#
#
#
# Elastic Constant Matrix: (Units=GPa)
#
#
# Indices 1 2 3 4 5 6 
#
# 1 148.2816 71.8577 76.0537 -0.0045 -10.9162 0.0020
# 2 71.8577 85.8275 56.6152 -0.0105 -7.7313 0.0073
# 3 76.0537 56.6152 124.9466 -0.0157 -4.5358 0.0092
# 4 -0.0045 -0.0105 -0.0157 26.8603 0.0027 4.3501
# 5 -10.9162 -7.7313 -4.5358 0.0027 38.6728 -0.0008
# 6 0.0020 0.0073 0.0092 4.3501 -0.0008 30.7000
#
#
#
# Elastic Compliance Matrix: (Units=1/GPa)
#
#
# Indices 1 2 3 4 5 6 
#
# 1 0.012790 -0.007802 -0.004194 -0.000004 0.001559 0.000003
# 2 -0.007802 0.021612 -0.004988 0.000005 0.001533 -0.000004
# 3 -0.004194 -0.004988 0.012791 0.000005 -0.000681 -0.000003
# 4 -0.000004 0.000005 0.000005 0.038104 -0.000002 -0.005399
# 5 0.001559 0.001533 -0.000681 -0.000002 0.026525 0.000001
# 6 0.000003 -0.000004 -0.000003 -0.005399 0.000001 0.033338
#
#
# Mechanical properties :
#
#
# Convention : Reuss Voigt Hill
#
# Bulk Modulus (GPa) = 75.60572 85.34546 80.47559
# Shear Modulus (GPa) = 27.24255 29.54857 28.39556
#
# Velocity S-wave (km/s) = 3.70006 3.85348 3.77755
# Velocity P-wave (km/s) = 7.49991 7.91760 7.71159
#
# Compressibility (1/GPa) = 0.01322651
#
# Stress axis : x y z
#
# Youngs Moduli (GPa) = 78.18352 46.27139 78.17693
#
# Poissons Ratio (x) = 0.36100 0.32785
# Poissons Ratio (y) = 0.60998 0.38995
# Poissons Ratio (z) = 0.32788 0.23080
#
# Static dielectric constant tensor:
#      x y z
#    x 3.690730 0.000020 0.073020 
#    y 0.000020 3.643200 -0.000010 
#    z 0.073020 -0.000010 3.512110 
# 
# 
# High freq. dielectric constant tensor:
#      x y z
#    x 1.796270 0.000000 -0.000580 
#    y 0.000000 1.777830 0.000000 
#    z -0.000580 0.000000 1.788740 
# 
# From -- ./inp_files/295348.got.cif
#   From: 2010.06.25/outbox.cif.g09.slc.cpg/sg12_148_cif.got.tgz:295348.got - 2010.06.28 00:19:55.
