data_PCOD8110229
_publ_section_title
;
Structure prediction by ZEFSAII (Michael W. Deem and Ramdas Pophale) SiO2 
 PCOD8110229
Probable space group: C 2/M
;
_chemical_formula_sum "Si O2"
_cell_formula_units_Z 60
_cell_length_a 30.970871
_cell_length_b 17.411896
_cell_length_c 5.231910
_cell_angle_alpha 90.000000
_cell_angle_beta 116.051404
_cell_angle_gamma 90.000000
_cell_volume 2534.718187
_symmetry_space_group_name_H-M "C 2/M"
_symmetry_group_IT_number 12
_symmetry_cell_setting 'monoclinic'
loop_
_space_group_symop_operation_xyz
x,y,z
-x,y,-z
-x,-y,-z
x,-y,z
1/2+x,1/2+y,z
1/2-x,1/2+y,-z
1/2-x,1/2-y,-z
1/2+x,1/2-y,z
loop_
_atom_site_type_symbol
_atom_site_label
_atom_site_fract_x
_atom_site_fract_y
_atom_site_fract_z
Si Si1 0.467977 0.000000 0.663897
Si Si2 0.550353 0.314551 0.549470
Si Si3 0.449551 0.840458 0.739405
Si Si4 0.366823 0.410954 0.418154
Si Si5 0.318122 0.348359 0.788209
Si Si6 0.153745 0.587147 0.817421
Si Si7 0.783188 0.586746 0.514501
Si Si8 0.116510 0.717948 0.014747
O O1 0.500000 0.000000 0.500000
O O2 0.435205 0.922020 0.565209
O O3 0.500000 0.000000 0.000000
O O4 0.500000 0.354341 0.500000
O O5 0.537800 0.232978 0.394116
O O6 0.580546 0.370683 0.445360
O O7 0.582576 0.292439 0.878544
O O8 0.500000 0.860214 0.000000
O O9 0.403796 0.828356 0.800493
O O10 0.375375 0.500000 0.393216
O O11 0.342520 0.398130 0.628150
O O12 0.333311 0.378007 0.107407
O O13 0.260951 0.354682 0.617696
O O14 0.331801 0.257519 0.792348
O O15 0.132222 0.500000 0.774847
O O16 0.180523 0.602669 0.623123
O O17 0.116721 0.659268 0.769262
O O18 0.189526 0.599302 0.149605
O O19 0.762944 0.500000 0.442621
#
# Coordination Sequence:
#
# PCOD8110229 Si02
#       8
#     4   8   8   8   8   8   8   8
#     4  10  24  40  62  94 120 158 224 270 308 366
#     4  11  23  42  65  89 131 173 215 260 323 379
#     4  11  22  42  66  90 128 172 218 269 317 380
#     4  11  23  40  65  99 130 164 215 266 313 374
#     4  11  23  41  67  97 128 165 212 261 316 381
#     4  10  24  42  63  93 127 165 210 257 321 383
#     4  10  21  41  65  90 124 166 207 258 322 384
#     4  11  25  40  62  94 128 169 211 265 321 374
#
# _framework density 23.671268999999999
#
# number of rings (size 3 to 8) (size 9 to 14) (size 15 to 20)
#    0.000    1.333    2.667    2.400    4.667    2.400 
#    1.200    0.000    0.000    2.800    0.000    0.000 
#    0.000    0.000    0.000    0.000    0.000    0.000 
#
# Total GULP energy -371940.050310 kJ/mol
# GULP energy per Si atom -12398.001677 kJ/mol
# Density = 2.361739 g / cm^3
# Si number density = 23.671269 Si / 1000 Ang^3
#
#
#
# Elastic Constant Matrix: (Units=GPa)
#
#
# Indices 1 2 3 4 5 6 
#
# 1 69.2662 25.1198 4.7766 0.0000 -16.4320 0.0000
# 2 25.1198 110.7673 0.9199 0.0000 -0.2392 0.0000
# 3 4.7766 0.9199 61.7692 0.0000 -9.8315 0.0000
# 4 0.0000 0.0000 0.0000 27.6146 0.0000 2.8009
# 5 -16.4320 -0.2392 -9.8315 0.0000 27.3114 0.0000
# 6 0.0000 0.0000 0.0000 2.8009 0.0000 45.2198
#
#
#
# Elastic Compliance Matrix: (Units=1/GPa)
#
#
# Indices 1 2 3 4 5 6 
#
# 1 0.018616 -0.004201 0.000424 0.000000 0.011316 0.000000
# 2 -0.004201 0.009977 -0.000225 0.000000 -0.002521 0.000000
# 3 0.000424 -0.000225 0.017185 0.000000 0.006439 0.000000
# 4 0.000000 0.000000 0.000000 0.036442 0.000000 -0.002257
# 5 0.011316 -0.002521 0.006439 0.000000 0.045719 0.000000
# 6 0.000000 0.000000 0.000000 -0.002257 0.000000 0.022254
#
#
# Mechanical properties :
#
#
# Convention : Reuss Voigt Hill
#
# Bulk Modulus (GPa) = 26.47304 33.71503 30.09403
# Shear Modulus (GPa) = 29.27623 34.09491 31.68557
#
# Velocity S-wave (km/s) = 3.52061 3.79931 3.66261
# Velocity P-wave (km/s) = 5.26632 5.78967 5.53419
#
# Compressibility (1/GPa) = 0.03777427
#
# Stress axis : x y z
#
# Youngs Moduli (GPa) = 53.71793 100.23046 58.19112
#
# Poissons Ratio (x) = 0.42104 -0.02468
# Poissons Ratio (y) = 0.22566 0.01309
# Poissons Ratio (z) = -0.02278 0.02255
#
# Static dielectric constant tensor:
#      x y z
#    x 4.378290 0.000000 0.287030 
#    y 0.000000 4.749100 0.000000 
#    z 0.287030 0.000000 4.603870 
# 
# 
# High freq. dielectric constant tensor:
#      x y z
#    x 1.939250 0.000000 0.005620 
#    y 0.000000 1.946540 0.000000 
#    z 0.005620 0.000000 1.952030 
# 
# From -- ./inp_files/32066.got.cif
#   From: 2010.06.25/outbox.cif.g09.slc.cpg/sg12_17_cif.got.tgz:32066.got - 2010.06.28 00:19:55.
