data_PCOD8110075
_publ_section_title
;
Structure prediction by ZEFSAII (Michael W. Deem and Ramdas Pophale) SiO2 
 PCOD8110075
Probable space group: C 2/M
;
_chemical_formula_sum "Si O2"
_cell_formula_units_Z 56
_cell_length_a 18.487948
_cell_length_b 8.800708
_cell_length_c 17.897430
_cell_angle_alpha 90.000000
_cell_angle_beta 67.982945
_cell_angle_gamma 90.000000
_cell_volume 2699.669518
_symmetry_space_group_name_H-M "C 2/M"
_symmetry_group_IT_number 12
_symmetry_cell_setting 'monoclinic'
loop_
_space_group_symop_operation_xyz
x,y,z
-x,y,-z
-x,-y,-z
x,-y,z
1/2+x,1/2+y,z
1/2-x,1/2+y,-z
1/2-x,1/2-y,-z
1/2+x,1/2-y,z
loop_
_atom_site_type_symbol
_atom_site_label
_atom_site_fract_x
_atom_site_fract_y
_atom_site_fract_z
Si Si1 0.441007 0.828636 0.963287
Si Si2 0.927928 0.175386 0.476984
Si Si3 0.029046 0.820990 0.202916
Si Si4 0.731103 0.171078 0.930574
Si Si5 0.107599 0.678242 0.664072
Si Si6 0.668059 0.178221 0.231210
Si Si7 0.781962 0.824821 0.637564
O O1 0.437122 0.728369 0.890351
O O2 0.465709 0.000000 0.930621
O O3 0.500000 0.755656 0.000000
O O4 0.361330 0.832030 0.040120
O O5 0.926489 0.270510 0.401976
O O6 0.845421 0.200234 0.548882
O O7 0.000000 0.233561 0.500000
O O8 0.941557 0.000000 0.450739
O O9 0.087017 0.761877 0.244765
O O10 0.942767 0.754730 0.250354
O O11 0.024683 0.000000 0.208316
O O12 0.764190 0.269301 0.850455
O O13 0.766075 0.000000 0.914267
O O14 0.750000 0.250000 0.000000
O O15 0.097663 0.500000 0.674965
O O16 0.197905 0.726350 0.638398
O O17 0.695086 0.216860 0.303619
O O18 0.654665 0.000000 0.227521
O O19 0.780398 0.000000 0.665093
#
# Coordination Sequence:
#
# PCOD8110075 Si02
#       7
#     8   8   8   8   8   8   8
#     4  10  23  42  64  90 123 164 209 259 316 374
#     4  10  21  40  67  96 127 165 211 258 307 367
#     4  12  25  42  64  90 124 165 213 265 316 373
#     4  11  22  39  64  92 125 165 208 260 315 371
#     4  11  24  41  64  93 130 169 209 256 311 373
#     4  12  25  41  64  93 127 165 212 263 313 375
#     4  10  23  42  64  94 131 170 207 254 314 371
#
# _framework density 20.743281
#
# number of rings (size 3 to 8) (size 9 to 14) (size 15 to 20)
#    0.000    1.143    1.429    4.714    2.000    4.000 
#    0.000    0.000    0.000    0.000    0.000    0.000 
#    0.000    0.000    0.000    0.000    0.000    0.000 
#
# Total GULP energy -347349.832626 kJ/mol
# GULP energy per Si atom -12405.351165 kJ/mol
# Density = 2.069607 g / cm^3
# Si number density = 20.743281 Si / 1000 Ang^3
#
#
#
# Elastic Constant Matrix: (Units=GPa)
#
#
# Indices 1 2 3 4 5 6 
#
# 1 120.1342 35.3696 19.7484 0.0000 -5.8250 0.0000
# 2 35.3696 110.1752 30.6520 0.0000 -0.1807 0.0000
# 3 19.7484 30.6520 68.7791 0.0000 -7.9035 0.0000
# 4 0.0000 0.0000 0.0000 39.0930 0.0000 0.6580
# 5 -5.8250 -0.1807 -7.9035 0.0000 40.7922 0.0000
# 6 0.0000 0.0000 0.0000 0.6580 0.0000 28.4951
#
#
#
# Elastic Compliance Matrix: (Units=1/GPa)
#
#
# Indices 1 2 3 4 5 6 
#
# 1 0.009377 -0.002618 -0.001404 0.000000 0.001055 0.000000
# 2 -0.002618 0.011122 -0.004339 0.000000 -0.001165 0.000000
# 3 -0.001404 -0.004339 0.017235 0.000000 0.003119 0.000000
# 4 0.000000 0.000000 0.000000 0.025590 0.000000 -0.000591
# 5 0.001055 -0.001165 0.003119 0.000000 0.025264 0.000000
# 6 0.000000 0.000000 0.000000 -0.000591 0.000000 0.035107
#
#
# Mechanical properties :
#
#
# Convention : Reuss Voigt Hill
#
# Bulk Modulus (GPa) = 47.59343 52.29204 49.94273
# Shear Modulus (GPa) = 33.91641 35.89729 34.90685
#
# Velocity S-wave (km/s) = 4.04797 4.16450 4.10665
# Velocity P-wave (km/s) = 6.69641 6.95615 6.82751
#
# Compressibility (1/GPa) = 0.02101130
#
# Stress axis : x y z
#
# Youngs Moduli (GPa) = 106.64650 89.91145 58.02250
#
# Poissons Ratio (x) = 0.23537 0.08149
# Poissons Ratio (y) = 0.27918 0.25175
# Poissons Ratio (z) = 0.14978 0.39012
#
# Static dielectric constant tensor:
#      x y z
#    x 4.344940 0.000000 -0.397190 
#    y 0.000000 3.750040 0.000000 
#    z -0.397190 0.000000 3.731100 
# 
# 
# High freq. dielectric constant tensor:
#      x y z
#    x 1.825570 0.000000 -0.009010 
#    y 0.000000 1.811350 0.000000 
#    z -0.009010 0.000000 1.817400 
# 
# From -- ./inp_files/275093.got.cif
#   From: 2010.06.25/outbox.cif.g09.slc.cpg/sg12_138_cif.got.tgz:275093.got - 2010.06.28 00:19:55.
