data_PCOD8110579
_publ_section_title
;
Structure prediction by ZEFSAII (Michael W. Deem and Ramdas Pophale) SiO2 
 PCOD8110579
Probable space group: C 2/M
;
_chemical_formula_sum "Si O2"
_cell_formula_units_Z 48
_cell_length_a 20.470494
_cell_length_b 17.137222
_cell_length_c 8.343635
_cell_angle_alpha 90.000000
_cell_angle_beta 118.815124
_cell_angle_gamma 90.000000
_cell_volume 2564.585150
_symmetry_space_group_name_H-M "C 2/M"
_symmetry_group_IT_number 12
_symmetry_cell_setting 'monoclinic'
loop_
_space_group_symop_operation_xyz
x,y,z
-x,y,-z
-x,-y,-z
x,-y,z
1/2+x,1/2+y,z
1/2-x,1/2+y,-z
1/2-x,1/2-y,-z
1/2+x,1/2-y,z
loop_
_atom_site_type_symbol
_atom_site_label
_atom_site_fract_x
_atom_site_fract_y
_atom_site_fract_z
Si Si1 0.459171 0.298608 0.607344
Si Si2 0.918194 0.587299 0.477898
Si Si3 0.839491 0.775374 0.927645
Si Si4 0.049165 0.913677 0.904133
Si Si5 0.563589 0.828687 0.179728
Si Si6 0.329766 0.230028 0.281450
O O1 0.500000 0.263307 0.500000
O O2 0.495240 0.381976 0.695622
O O3 0.476845 0.244521 0.780617
O O4 0.370949 0.290081 0.456828
O O5 0.887864 0.500000 0.422954
O O6 0.910203 0.609744 0.656717
O O7 0.864822 0.644218 0.318235
O O8 0.000000 0.594677 0.500000
O O9 0.872368 0.704394 0.861116
O O10 0.755191 0.780635 0.764262
O O11 0.882872 0.857421 0.963082
O O12 0.839473 0.761634 0.115972
O O13 0.078807 0.000000 0.886171
O O14 0.000000 0.924771 0.000000
O O15 0.500000 0.870876 0.000000
#
# Coordination Sequence:
#
# PCOD8110579 Si02
#       6
#     8   8   8   8   8   8
#     4  11  18  34  56  83 110 143 189 228 270 330
#     4  10  22  37  55  82 111 144 183 227 285 331
#     4  11  20  38  57  86 108 149 192 228 275 334
#     4  11  22  37  58  85 116 149 185 230 283 336
#     4  11  18  33  60  81 110 140 186 232 266 323
#     4  10  22  35  61  81 112 145 190 232 277 329
#
# _framework density 18.716476
#
# number of rings (size 3 to 8) (size 9 to 14) (size 15 to 20)
#    0.000    1.333    5.000    3.000    0.000    4.000 
#    0.000    0.833    0.000    1.000    0.000    0.000 
#    0.000    0.000    0.000    0.000    0.000    0.000 
#
# Total GULP energy -297346.139242 kJ/mol
# GULP energy per Si atom -12389.422468 kJ/mol
# Density = 1.867388 g / cm^3
# Si number density = 18.716476 Si / 1000 Ang^3
#
#
#
# Elastic Constant Matrix: (Units=GPa)
#
#
# Indices 1 2 3 4 5 6 
#
# 1 84.1424 26.0276 20.9265 0.0000 14.9072 0.0000
# 2 26.0276 84.3029 11.4354 0.0000 20.2954 0.0000
# 3 20.9265 11.4354 66.8537 0.0000 19.0683 0.0000
# 4 0.0000 0.0000 0.0000 15.9339 0.0000 -0.8047
# 5 14.9072 20.2954 19.0683 0.0000 32.0073 0.0000
# 6 0.0000 0.0000 0.0000 -0.8047 0.0000 15.5709
#
#
#
# Elastic Compliance Matrix: (Units=1/GPa)
#
#
# Indices 1 2 3 4 5 6 
#
# 1 0.014150 -0.003312 -0.003111 0.000000 -0.002637 0.000000
# 2 -0.003312 0.014776 0.000893 0.000000 -0.008359 0.000000
# 3 -0.003111 0.000893 0.018706 0.000000 -0.010262 0.000000
# 4 0.000000 0.000000 0.000000 0.062924 0.000000 0.003252
# 5 -0.002637 -0.008359 -0.010262 0.000000 0.043885 0.000000
# 6 0.000000 0.000000 0.000000 0.003252 0.000000 0.064390
#
#
# Mechanical properties :
#
#
# Convention : Reuss Voigt Hill
#
# Bulk Modulus (GPa) = 27.34229 39.11978 33.23103
# Shear Modulus (GPa) = 20.65443 24.49639 22.57541
#
# Velocity S-wave (km/s) = 3.32557 3.62168 3.47678
# Velocity P-wave (km/s) = 5.42091 6.19963 5.82330
#
# Compressibility (1/GPa) = 0.03657338
#
# Stress axis : x y z
#
# Youngs Moduli (GPa) = 70.67210 67.67907 53.45952
#
# Poissons Ratio (x) = 0.22414 0.16629
# Poissons Ratio (y) = 0.23405 -0.04776
# Poissons Ratio (z) = 0.21983 -0.06047
#
# Static dielectric constant tensor:
#      x y z
#    x 3.559340 0.000000 0.043500 
#    y 0.000000 3.511760 0.000000 
#    z 0.043500 0.000000 3.658440 
# 
# 
# High freq. dielectric constant tensor:
#      x y z
#    x 1.723030 0.000000 -0.008950 
#    y 0.000000 1.705610 0.000000 
#    z -0.008950 0.000000 1.737640 
# 
# From -- ./inp_files/87433.got.cif
#   From: 2010.06.25/outbox.cif.g09.slc.cpg/sg12_44_cif.got.tgz:87433.got - 2010.06.28 00:19:55.
