data_PCOD8110755
_publ_section_title
;
Structure prediction by ZEFSAII (Michael W. Deem and Ramdas Pophale) SiO2 
 PCOD8110755
Probable space group: C 2/M
;
_chemical_formula_sum "Si O2"
_cell_formula_units_Z 44
_cell_length_a 16.837860
_cell_length_b 25.712735
_cell_length_c 6.584401
_cell_angle_alpha 90.000000
_cell_angle_beta 49.826259
_cell_angle_gamma 90.000000
_cell_volume 2178.196018
_symmetry_space_group_name_H-M "C 2/M"
_symmetry_group_IT_number 12
_symmetry_cell_setting 'monoclinic'
loop_
_space_group_symop_operation_xyz
x,y,z
-x,y,-z
-x,-y,-z
x,-y,z
1/2+x,1/2+y,z
1/2-x,1/2+y,-z
1/2-x,1/2-y,-z
1/2+x,1/2-y,z
loop_
_atom_site_type_symbol
_atom_site_label
_atom_site_fract_x
_atom_site_fract_y
_atom_site_fract_z
Si Si1 0.079011 0.192590 0.538762
Si Si2 0.500000 0.381687 0.000000
Si Si3 0.388422 0.895542 0.208028
Si Si4 0.404175 0.193170 0.504729
Si Si5 0.734676 0.134889 0.973652
Si Si6 0.292789 0.439436 0.224688
O O1 0.114646 0.249296 0.561177
O O2 0.174547 0.158789 0.308771
O O3 0.000000 0.210234 0.500000
O O4 0.011057 0.157216 0.796228
O O5 0.602047 0.416666 0.852923
O O6 0.412404 0.843434 0.295538
O O7 0.353486 0.882587 0.037510
O O8 0.303551 0.930486 0.463566
O O9 0.500000 0.925043 0.000000
O O10 0.500000 0.186147 0.500000
O O11 0.302926 0.177911 0.803173
O O12 0.772852 0.084729 0.036171
O O13 0.309243 0.500000 0.164295
#
# Coordination Sequence:
#
# PCOD8110755 Si02
#       6
#     8   4   8   8   8   8
#     4  11  23  39  62  96 134 168 209 257 315 386
#     4  12  23  44  66  98 132 164 211 264 320 392
#     4  11  23  42  66  94 129 168 216 264 316 379
#     4  10  22  37  64  94 131 172 207 253 311 385
#     4  11  22  43  62  93 130 168 216 264 313 377
#     4  11  26  45  67  94 124 166 219 273 325 377
#
# _framework density 20.200202999999998
#
# number of rings (size 3 to 8) (size 9 to 14) (size 15 to 20)
#    0.000    1.091    5.455    0.818    1.273    1.818 
#    0.000    1.818    0.000    0.000    0.000    0.000 
#    0.000    0.000    0.000    0.000    0.000    0.000 
#
# Total GULP energy -272737.338332 kJ/mol
# GULP energy per Si atom -12397.151742 kJ/mol
# Density = 2.015423 g / cm^3
# Si number density = 20.200203 Si / 1000 Ang^3
#
#
#
# Elastic Constant Matrix: (Units=GPa)
#
#
# Indices 1 2 3 4 5 6 
#
# 1 104.5043 30.1053 22.7469 0.0000 1.1020 0.0000
# 2 30.1053 131.8754 24.3063 0.0000 1.1896 0.0000
# 3 22.7469 24.3063 72.0318 0.0000 -18.2527 0.0000
# 4 0.0000 0.0000 0.0000 5.5220 0.0000 11.8276
# 5 1.1020 1.1896 -18.2527 0.0000 36.8932 0.0000
# 6 0.0000 0.0000 0.0000 11.8276 0.0000 9.5671
#
#
#
# Elastic Compliance Matrix: (Units=1/GPa)
#
#
# Indices 1 2 3 4 5 6 
#
# 1 0.010835 -0.001853 -0.003274 0.000000 -0.001884 0.000000
# 2 -0.001853 0.008514 -0.002679 0.000000 -0.001545 0.000000
# 3 -0.003274 -0.002679 0.018142 0.000000 0.009160 0.000000
# 4 0.000000 0.000000 0.000000 -0.109890 0.000000 0.135853
# 5 -0.001884 -0.001545 0.009160 0.000000 0.031743 0.000000
# 6 0.000000 0.000000 0.000000 0.135853 0.000000 -0.063427
#
#
# Mechanical properties :
#
#
# Convention : Reuss Voigt Hill
#
# Bulk Modulus (GPa) = 45.70617 51.41426 48.56021
# Shear Modulus (GPa) = -61.59275 25.81333 -17.88971
#
# Velocity S-wave (km/s) = -5.52787 3.57862 -2.97917
# Velocity P-wave (km/s) = 4.25058 6.52556 3.50111
#
# Compressibility (1/GPa) = 0.02187888
#
# Stress axis : x y z
#
# Youngs Moduli (GPa) = 92.29134 117.45796 55.12205
#
# Poissons Ratio (x) = 0.21767 0.18045
# Poissons Ratio (y) = 0.17103 0.14767
# Poissons Ratio (z) = 0.30212 0.31467
#
# Static dielectric constant tensor:
#      x y z
#    x 3.742140 0.000000 -0.009010 
#    y 0.000000 3.503320 0.000000 
#    z -0.009010 0.000000 3.850640 
# 
# 
# High freq. dielectric constant tensor:
#      x y z
#    x 1.799020 0.000000 -0.006330 
#    y 0.000000 1.778000 0.000000 
#    z -0.006330 0.000000 1.801960 
# 
# From -- ./inp_files/12099.got.cif
#   From: 2010.06.25/outbox.cif.g09.slc.cpg/sg12_7_cif.got.tgz:12099.got - 2010.06.28 00:19:55.
