data_PCOD8110065
_publ_section_title
;
Structure prediction by ZEFSAII (Michael W. Deem and Ramdas Pophale) SiO2 
 PCOD8110065
Probable space group: C 2/M
;
_chemical_formula_sum "Si O2"
_cell_formula_units_Z 56
_cell_length_a 18.389058
_cell_length_b 8.852345
_cell_length_c 17.913704
_cell_angle_alpha 90.000000
_cell_angle_beta 111.146602
_cell_angle_gamma 90.000000
_cell_volume 2719.736027
_symmetry_space_group_name_H-M "C 2/M"
_symmetry_group_IT_number 12
_symmetry_cell_setting 'monoclinic'
loop_
_space_group_symop_operation_xyz
x,y,z
-x,y,-z
-x,-y,-z
x,-y,z
1/2+x,1/2+y,z
1/2-x,1/2+y,-z
1/2-x,1/2-y,-z
1/2+x,1/2-y,z
loop_
_atom_site_type_symbol
_atom_site_label
_atom_site_fract_x
_atom_site_fract_y
_atom_site_fract_z
Si Si1 0.389243 0.173854 0.167745
Si Si2 0.419011 0.825028 0.008869
Si Si3 0.711887 0.676827 0.132401
Si Si4 0.024295 0.821733 0.299207
Si Si5 0.338169 0.822609 0.733817
Si Si6 0.930282 0.667147 0.530076
Si Si7 0.717954 0.322958 0.562268
O O1 0.298492 0.220181 0.136877
O O2 0.436715 0.272933 0.245206
O O3 0.399609 0.000000 0.194551
O O4 0.424783 0.203823 0.099181
O O5 0.348777 0.721558 0.954131
O O6 0.400434 0.000000 0.984329
O O7 0.500000 0.775989 0.000000
O O8 0.704870 0.500000 0.147391
O O9 0.691530 0.772888 0.197175
O O10 0.082077 0.761708 0.256700
O O11 0.047962 0.756191 0.387661
O O12 0.029359 0.000000 0.305996
O O13 0.271837 0.775720 0.650830
O O14 0.355289 0.000000 0.740245
O O15 0.900088 0.500000 0.543019
O O16 0.867323 0.755373 0.457051
O O17 0.000000 0.649258 0.500000
O O18 0.712316 0.500000 0.550490
O O19 0.750000 0.250000 0.500000
#
# Coordination Sequence:
#
# PCOD8110065 Si02
#       7
#     8   8   8   8   8   8   8
#     4  10  23  42  63  92 132 170 206 253 313 373
#     4  10  21  40  67  94 124 168 212 254 309 372
#     4  11  24  40  63  95 129 166 209 260 310 365
#     4  12  25  41  65  94 125 163 210 262 313 373
#     4  11  24  42  64  90 125 166 210 259 316 377
#     4  11  25  43  64  90 126 169 210 259 317 374
#     4  11  23  40  65  93 123 163 211 264 317 373
#
# _framework density 20.590233999999999
#
# number of rings (size 3 to 8) (size 9 to 14) (size 15 to 20)
#    0.000    1.143    1.429    4.286    2.000    6.000 
#    0.000    0.000    0.000    0.000    0.000    0.000 
#    0.000    0.000    0.000    0.000    0.000    0.000 
#
# Total GULP energy -347346.061379 kJ/mol
# GULP energy per Si atom -12405.216478 kJ/mol
# Density = 2.054337 g / cm^3
# Si number density = 20.590234 Si / 1000 Ang^3
#
#
#
# Elastic Constant Matrix: (Units=GPa)
#
#
# Indices 1 2 3 4 5 6 
#
# 1 105.9441 32.1245 23.6763 0.0000 11.7947 0.0000
# 2 32.1245 88.1838 37.8559 0.0000 13.3100 0.0000
# 3 23.6763 37.8559 77.0185 0.0000 13.1071 0.0000
# 4 0.0000 0.0000 0.0000 37.0434 0.0000 4.6754
# 5 11.7947 13.3100 13.1071 0.0000 42.4633 0.0000
# 6 0.0000 0.0000 0.0000 4.6754 0.0000 35.5554
#
#
#
# Elastic Compliance Matrix: (Units=1/GPa)
#
#
# Indices 1 2 3 4 5 6 
#
# 1 0.010893 -0.003051 -0.001580 0.000000 -0.001582 0.000000
# 2 -0.003051 0.015474 -0.006318 0.000000 -0.002052 0.000000
# 3 -0.001580 -0.006318 0.017059 0.000000 -0.002846 0.000000
# 4 0.000000 0.000000 0.000000 0.027451 0.000000 -0.003610
# 5 -0.001582 -0.002052 -0.002846 0.000000 0.025511 0.000000
# 6 0.000000 0.000000 0.000000 -0.003610 0.000000 0.028600
#
#
# Mechanical properties :
#
#
# Convention : Reuss Voigt Hill
#
# Bulk Modulus (GPa) = 46.45198 50.93998 48.69598
# Shear Modulus (GPa) = 32.45430 34.84509 33.64970
#
# Velocity S-wave (km/s) = 3.97444 4.11823 4.04698
# Velocity P-wave (km/s) = 6.60839 6.88525 6.74824
#
# Compressibility (1/GPa) = 0.02152761
#
# Stress axis : x y z
#
# Youngs Moduli (GPa) = 91.79935 64.62604 58.61857
#
# Poissons Ratio (x) = 0.19720 0.09260
# Poissons Ratio (y) = 0.28012 0.37037
# Poissons Ratio (z) = 0.14502 0.40832
#
# Static dielectric constant tensor:
#      x y z
#    x 4.046410 0.000000 -0.087580 
#    y 0.000000 3.975010 0.000000 
#    z -0.087580 0.000000 3.506370 
# 
# 
# High freq. dielectric constant tensor:
#      x y z
#    x 1.818390 0.000000 0.004860 
#    y 0.000000 1.811050 0.000000 
#    z 0.004860 0.000000 1.813950 
# 
# From -- ./inp_files/275664.got.cif
#   From: 2010.06.25/outbox.cif.g09.slc.cpg/sg12_138_cif.got.tgz:275664.got - 2010.06.28 00:19:55.
