data_PCOD8110387
_publ_section_title
;
Structure prediction by ZEFSAII (Michael W. Deem and Ramdas Pophale) SiO2 
 PCOD8110387
Probable space group: C 2/M
;
_chemical_formula_sum "Si O2"
_cell_formula_units_Z 64
_cell_length_a 30.684678
_cell_length_b 8.682845
_cell_length_c 11.938381
_cell_angle_alpha 90.000000
_cell_angle_beta 91.342743
_cell_angle_gamma 90.000000
_cell_volume 3179.873053
_symmetry_space_group_name_H-M "C 2/M"
_symmetry_group_IT_number 12
_symmetry_cell_setting 'monoclinic'
loop_
_space_group_symop_operation_xyz
x,y,z
-x,y,-z
-x,-y,-z
x,-y,z
1/2+x,1/2+y,z
1/2-x,1/2+y,-z
1/2-x,1/2-y,-z
1/2+x,1/2-y,z
loop_
_atom_site_type_symbol
_atom_site_label
_atom_site_fract_x
_atom_site_fract_y
_atom_site_fract_z
Si Si1 0.882131 0.816839 0.893139
Si Si2 0.956056 0.318821 0.748692
Si Si3 0.303818 0.681664 0.736038
Si Si4 0.372715 0.681597 0.146728
Si Si5 0.206691 0.319106 0.727355
Si Si6 0.455331 0.318037 0.294957
Si Si7 0.327771 0.318232 0.493616
Si Si8 0.579648 0.819276 0.495515
O O1 0.924258 0.736217 0.844277
O O2 0.838904 0.755206 0.826993
O O3 0.887254 0.000000 0.883050
O O4 0.878574 0.760931 0.020391
O O5 0.963723 0.500000 0.757029
O O6 0.936429 0.270123 0.627763
O O7 0.001679 0.231833 0.769755
O O8 0.308416 0.500000 0.727783
O O9 0.255198 0.728028 0.771835
O O10 0.314331 0.749698 0.613716
O O11 0.369486 0.500000 0.150971
O O12 0.327705 0.745817 0.190988
O O13 0.413642 0.739490 0.221635
O O14 0.199828 0.500000 0.727357
O O15 0.202590 0.260176 0.600447
O O16 0.454865 0.500000 0.313713
O O17 0.456077 0.230379 0.414511
O O18 0.321707 0.500000 0.484497
O O19 0.377517 0.276333 0.470780
O O20 0.589161 0.000000 0.503145
#
# Coordination Sequence:
#
# PCOD8110387 Si02
#       8
#     8   8   8   8   8   8   8   8
#     4  10  21  42  65  83 114 157 202 247 292 343
#     4  11  24  40  60  90 123 151 192 244 299 353
#     4   9  20  37  60  89 118 154 197 241 291 353
#     4  10  23  41  61  86 115 154 203 250 289 342
#     4  11  22  37  59  88 122 157 193 240 299 350
#     4  11  23  39  61  88 119 157 200 238 289 354
#     4  11  20  35  60  88 119 154 196 237 287 356
#     4  11  22  37  59  89 122 153 188 240 300 351
#
# _framework density 20.12659
#
# number of rings (size 3 to 8) (size 9 to 14) (size 15 to 20)
#    0.000    1.500    2.500    2.625    0.000    5.000 
#    0.000    5.625    0.000    0.000    0.000    0.000 
#    0.000    0.000    0.000    0.000    0.000    0.000 
#
# Total GULP energy -396946.936147 kJ/mol
# GULP energy per Si atom -12404.591755 kJ/mol
# Density = 2.008078 g / cm^3
# Si number density = 20.126590 Si / 1000 Ang^3
#
#
#
# Elastic Constant Matrix: (Units=GPa)
#
#
# Indices 1 2 3 4 5 6 
#
# 1 119.9552 4.5158 48.3284 0.0000 -16.8057 0.0000
# 2 4.5158 -54.5213 31.9314 0.0000 -6.3543 0.0000
# 3 48.3284 31.9314 136.0514 0.0000 -15.6288 0.0000
# 4 0.0000 0.0000 0.0000 24.0126 0.0000 -5.1013
# 5 -16.8057 -6.3543 -15.6288 0.0000 19.9404 0.0000
# 6 0.0000 0.0000 0.0000 -5.1013 0.0000 29.4587
#
#
#
# Elastic Compliance Matrix: (Units=1/GPa)
#
#
# Indices 1 2 3 4 5 6 
#
# 1 0.010313 -0.001403 -0.002623 0.000000 0.006189 0.000000
# 2 -0.001403 -0.015831 0.003845 0.000000 -0.003214 0.000000
# 3 -0.002623 0.003845 0.007985 0.000000 0.005273 0.000000
# 4 0.000000 0.000000 0.000000 0.043235 0.000000 0.007487
# 5 0.006189 -0.003214 0.005273 0.000000 0.058474 0.000000
# 6 0.000000 0.000000 0.000000 0.007487 0.000000 0.035242
#
#
# Mechanical properties :
#
#
# Convention : Reuss Voigt Hill
#
# Bulk Modulus (GPa) = 475.29946 41.22628 258.26287
# Shear Modulus (GPa) = 35.59133 22.46298 29.02716
#
# Velocity S-wave (km/s) = 4.20977 3.34441 3.80179
# Velocity P-wave (km/s) = 16.13373 5.95327 12.16015
#
# Compressibility (1/GPa) = 0.00210394
#
# Stress axis : x y z
#
# Youngs Moduli (GPa) = 96.96355 -63.16612 125.22995
#
# Poissons Ratio (x) = -0.08865 0.32850
# Poissons Ratio (y) = 0.13608 -0.48150
# Poissons Ratio (z) = 0.25435 0.24287
#
# Static dielectric constant tensor:
#      x y z
#    x 3.907370 0.000000 0.054440 
#    y 0.000000 3.454990 0.000000 
#    z 0.054440 0.000000 3.787150 
# 
# 
# High freq. dielectric constant tensor:
#      x y z
#    x 1.799340 0.000000 -0.003450 
#    y 0.000000 1.774600 0.000000 
#    z -0.003450 0.000000 1.785450 
# 
# From -- ./inp_files/187388.got.cif
#   From: 2010.06.25/outbox.cif.g09.slc.cpg/sg12_94_cif.got.tgz:187388.got - 2010.06.28 00:19:55.
