data_PCOD8110173
_publ_section_title
;
Structure prediction by ZEFSAII (Michael W. Deem and Ramdas Pophale) SiO2 
 PCOD8110173
Probable space group: C 2/M
;
_chemical_formula_sum "Si O2"
_cell_formula_units_Z 56
_cell_length_a 19.047701
_cell_length_b 9.110669
_cell_length_c 28.909148
_cell_angle_alpha 90.000000
_cell_angle_beta 146.335060
_cell_angle_gamma 90.000000
_cell_volume 2780.997605
_symmetry_space_group_name_H-M "C 2/M"
_symmetry_group_IT_number 12
_symmetry_cell_setting 'monoclinic'
loop_
_space_group_symop_operation_xyz
x,y,z
-x,y,-z
-x,-y,-z
x,-y,z
1/2+x,1/2+y,z
1/2-x,1/2+y,-z
1/2-x,1/2-y,-z
1/2+x,1/2-y,z
loop_
_atom_site_type_symbol
_atom_site_label
_atom_site_fract_x
_atom_site_fract_y
_atom_site_fract_z
Si Si1 0.480378 0.669201 0.851857
Si Si2 0.311335 0.666683 0.425471
Si Si3 0.037468 0.331271 0.313211
Si Si4 0.856649 0.172617 0.145665
Si Si5 0.305229 0.170077 0.331001
Si Si6 0.063989 0.327295 0.987906
Si Si7 0.486891 0.327123 0.606750
O O1 0.500048 0.500000 0.875260
O O2 0.584386 0.720415 0.871261
O O3 0.343411 0.699146 0.755184
O O4 0.492038 0.759754 0.905022
O O5 0.346664 0.500000 0.431356
O O6 0.162038 0.683192 0.350664
O O7 0.353598 0.770800 0.406882
O O8 0.386158 0.715106 0.512130
O O9 0.005557 0.500000 0.306937
O O10 0.064474 0.244261 0.374834
O O11 0.920578 0.260324 0.222254
O O12 0.710443 0.218404 0.066274
O O13 0.877622 0.000000 0.165744
O O14 0.376369 0.258738 0.329778
O O15 0.339979 0.000000 0.345979
O O16 0.047089 0.500000 0.975188
O O17 0.000000 0.267767 0.000000
O O18 0.500756 0.500000 0.621263
#
# Coordination Sequence:
#
# PCOD8110173 Si02
#       7
#     8   8   8   8   8   8   8
#     4  10  22  40  62  88 120 159 201 245 296 355
#     4  10  22  41  62  88 120 160 207 252 303 362
#     4  11  23  39  62  92 122 157 206 253 301 360
#     4  10  21  41  63  87 122 162 202 243 298 360
#     4  11  23  39  61  91 124 159 204 253 302 358
#     4  10  23  40  62  93 123 154 197 245 297 359
#     4  11  24  40  60  86 123 165 204 252 308 359
#
# _framework density 20.136657
#
# number of rings (size 3 to 8) (size 9 to 14) (size 15 to 20)
#    0.000    1.571    1.429    2.571    2.000    6.000 
#    0.000    0.000    0.000    0.000    0.000    0.000 
#    0.000    0.000    0.000    0.000    0.000    0.000 
#
# Total GULP energy -347376.658512 kJ/mol
# GULP energy per Si atom -12406.309233 kJ/mol
# Density = 2.009083 g / cm^3
# Si number density = 20.136657 Si / 1000 Ang^3
#
#
#
# Elastic Constant Matrix: (Units=GPa)
#
#
# Indices 1 2 3 4 5 6 
#
# 1 80.2177 28.8619 24.6666 0.0000 -8.2069 0.0000
# 2 28.8619 74.5853 38.8868 -0.0001 -9.2065 0.0001
# 3 24.6666 38.8868 81.0292 0.0000 -15.2247 0.0000
# 4 0.0000 -0.0001 0.0000 33.0213 0.0000 -6.5450
# 5 -8.2069 -9.2065 -15.2247 0.0000 34.2220 0.0000
# 6 0.0000 0.0001 0.0000 -6.5450 0.0000 35.6567
#
#
#
# Elastic Compliance Matrix: (Units=1/GPa)
#
#
# Indices 1 2 3 4 5 6 
#
# 1 0.014872 -0.004479 -0.002110 0.000000 0.001423 0.000000
# 2 -0.004479 0.019268 -0.007760 0.000000 0.000657 0.000000
# 3 -0.002110 -0.007760 0.017700 0.000000 0.005281 0.000000
# 4 0.000000 0.000000 0.000000 0.031427 0.000000 0.005769
# 5 0.001423 0.000657 0.005281 0.000000 0.032088 0.000000
# 6 0.000000 0.000000 0.000000 0.005769 0.000000 0.029104
#
#
# Mechanical properties :
#
#
# Convention : Reuss Voigt Hill
#
# Bulk Modulus (GPa) = 43.21329 46.74032 44.97681
# Shear Modulus (GPa) = 27.64405 30.14114 28.89259
#
# Velocity S-wave (km/s) = 3.70918 3.87308 3.79202
# Velocity P-wave (km/s) = 6.31274 6.57746 6.44646
#
# Compressibility (1/GPa) = 0.02314103
#
# Stress axis : x y z
#
# Youngs Moduli (GPa) = 67.23993 51.90078 56.49761
#
# Poissons Ratio (x) = 0.23246 0.11924
# Poissons Ratio (y) = 0.30117 0.43841
# Poissons Ratio (z) = 0.14191 0.40274
#
# Static dielectric constant tensor:
#      x y z
#    x 3.776920 0.000000 0.073760 
#    y 0.000000 3.628190 0.000000 
#    z 0.073760 0.000000 3.569570 
# 
# 
# High freq. dielectric constant tensor:
#      x y z
#    x 1.798030 0.000000 0.002260 
#    y 0.000000 1.784570 0.000000 
#    z 0.002260 0.000000 1.791050 
# 
# From -- ./inp_files/275250.got.cif
#   From: 2010.06.25/outbox.cif.g09.slc.cpg/sg12_138_cif.got.tgz:275250.got - 2010.06.28 00:19:55.
