data_PCOD8110730
_publ_section_title
;
Structure prediction by ZEFSAII (Michael W. Deem and Ramdas Pophale) SiO2 
 PCOD8110730
Probable space group: C 2/M
;
_chemical_formula_sum "Si O2"
_cell_formula_units_Z 40
_cell_length_a 10.261497
_cell_length_b 29.042703
_cell_length_c 9.491161
_cell_angle_alpha 90.000000
_cell_angle_beta 139.022019
_cell_angle_gamma 90.000000
_cell_volume 1854.889066
_symmetry_space_group_name_H-M "C 2/M"
_symmetry_group_IT_number 12
_symmetry_cell_setting 'monoclinic'
loop_
_space_group_symop_operation_xyz
x,y,z
-x,y,-z
-x,-y,-z
x,-y,z
1/2+x,1/2+y,z
1/2-x,1/2+y,-z
1/2-x,1/2-y,-z
1/2+x,1/2-y,z
loop_
_atom_site_type_symbol
_atom_site_label
_atom_site_fract_x
_atom_site_fract_y
_atom_site_fract_z
Si Si1 0.491386 0.377191 0.152478
Si Si2 0.541416 0.891076 0.876184
Si Si3 0.953969 0.711335 0.115629
Si Si4 0.505521 0.707775 0.674743
Si Si5 0.332216 0.053770 0.475445
O O1 0.272850 0.392821 0.023137
O O2 0.589318 0.338567 0.337647
O O3 0.626174 0.422525 0.266122
O O4 0.500000 0.357633 0.000000
O O5 0.500000 0.906890 0.000000
O O6 0.453382 0.839267 0.785189
O O7 0.411289 0.927382 0.686511
O O8 0.070373 0.742756 0.327361
O O9 0.717739 0.706961 0.928939
O O10 0.000000 0.731889 0.000000
O O11 0.500000 0.706989 0.500000
O O12 0.500000 0.066163 0.500000
O O13 0.289627 0.000000 0.451913
#
# Coordination Sequence:
#
# PCOD8110730 Si02
#       5
#     8   8   8   8   8
#     4  11  23  42  67  96 130 175 214 268 330 388
#     4  10  23  43  67  97 137 169 214 275 322 385
#     4   9  20  39  57  89 129 171 212 257 314 380
#     4  10  22  37  60  93 128 167 216 263 310 379
#     4  11  25  44  69  99 126 168 225 270 333 402
#
# _framework density 21.564632
#
# number of rings (size 3 to 8) (size 9 to 14) (size 15 to 20)
#    0.000    1.800    2.000    0.600    8.400    3.200 
#    3.600    1.000    0.000    0.000    0.000    0.000 
#    0.000    0.000    0.000    0.000    0.000    0.000 
#
# Total GULP energy -247845.515895 kJ/mol
# GULP energy per Si atom -12392.275795 kJ/mol
# Density = 2.151555 g / cm^3
# Si number density = 21.564632 Si / 1000 Ang^3
#
#
#
# Elastic Constant Matrix: (Units=GPa)
#
#
# Indices 1 2 3 4 5 6 
#
# 1 114.2737 42.5380 45.0049 0.0000 -36.5086 0.0000
# 2 42.5380 109.1754 55.4560 0.0000 -23.2134 0.0000
# 3 45.0049 55.4560 110.8776 0.0000 -26.7401 0.0000
# 4 0.0000 0.0000 0.0000 58.9999 0.0000 -24.9547
# 5 -36.5086 -23.2134 -26.7401 0.0000 41.6424 0.0000
# 6 0.0000 0.0000 0.0000 -24.9547 0.0000 17.7480
#
#
#
# Elastic Compliance Matrix: (Units=1/GPa)
#
#
# Indices 1 2 3 4 5 6 
#
# 1 0.013297 -0.002172 -0.002119 0.000000 0.009086 0.000000
# 2 -0.002172 0.013063 -0.005153 0.000000 0.002069 0.000000
# 3 -0.002119 -0.005153 0.013389 0.000000 0.003867 0.000000
# 4 0.000000 0.000000 0.000000 0.041820 0.000000 0.058801
# 5 0.009086 0.002069 0.003867 0.000000 0.035616 0.000000
# 6 0.000000 0.000000 0.000000 0.058801 0.000000 0.139022
#
#
# Mechanical properties :
#
#
# Convention : Reuss Voigt Hill
#
# Bulk Modulus (GPa) = 47.93965 68.92493 58.43229
# Shear Modulus (GPa) = 17.72730 36.43326 27.08028
#
# Velocity S-wave (km/s) = 2.87026 4.11480 3.54753
# Velocity P-wave (km/s) = 5.76745 7.38965 6.62836
#
# Compressibility (1/GPa) = 0.02085956
#
# Stress axis : x y z
#
# Youngs Moduli (GPa) = 75.20449 76.54999 74.68735
#
# Poissons Ratio (x) = 0.16630 0.15830
# Poissons Ratio (y) = 0.16338 0.38487
# Poissons Ratio (z) = 0.15939 0.39447
#
# Static dielectric constant tensor:
#      x y z
#    x 4.011890 0.000000 -0.008930 
#    y 0.000000 4.089190 0.000000 
#    z -0.008930 0.000000 3.770630 
# 
# 
# High freq. dielectric constant tensor:
#      x y z
#    x 1.852620 0.000000 -0.002290 
#    y 0.000000 1.844500 0.000000 
#    z -0.002290 0.000000 1.851360 
# 
# From -- ./inp_files/54439.got.cif
#   From: 2010.06.25/outbox.cif.g09.slc.cpg/sg12_28_cif.got.tgz:54439.got - 2010.06.28 00:19:55.
