data_PCOD8110997
_publ_section_title
;
Structure prediction by ZEFSAII (Michael W. Deem and Ramdas Pophale) SiO2 
 PCOD8110997
Probable space group: C 2/M
;
_chemical_formula_sum "Si O2"
_cell_formula_units_Z 36
_cell_length_a 14.551967
_cell_length_b 10.212857
_cell_length_c 21.161634
_cell_angle_alpha 90.000000
_cell_angle_beta 145.747267
_cell_angle_gamma 90.000000
_cell_volume 1770.135312
_symmetry_space_group_name_H-M "C 2/M"
_symmetry_group_IT_number 12
_symmetry_cell_setting 'monoclinic'
loop_
_space_group_symop_operation_xyz
x,y,z
-x,y,-z
-x,-y,-z
x,-y,z
1/2+x,1/2+y,z
1/2-x,1/2+y,-z
1/2-x,1/2-y,-z
1/2+x,1/2-y,z
loop_
_atom_site_type_symbol
_atom_site_label
_atom_site_fract_x
_atom_site_fract_y
_atom_site_fract_z
Si Si1 0.462426 0.753403 0.282164
Si Si2 0.117993 0.646653 0.901202
Si Si3 0.020628 0.500000 0.396504
Si Si4 0.146364 0.000000 0.354032
Si Si5 0.851333 0.000000 0.788701
Si Si6 0.103388 0.266502 0.121474
O O1 0.442247 0.809115 0.200918
O O2 0.543491 0.869387 0.368163
O O3 0.579821 0.628816 0.350830
O O4 0.291671 0.704377 0.214547
O O5 0.193747 0.500000 0.940086
O O6 0.964670 0.639508 0.862158
O O7 0.250000 0.750000 0.000000
O O8 0.157603 0.500000 0.528767
O O9 0.843853 0.500000 0.327655
O O10 0.084585 0.000000 0.246594
O O11 0.922020 0.879735 0.867884
O O12 0.000000 0.289100 0.000000
#
# Coordination Sequence:
#
# PCOD8110997 Si02
#       6
#     8   8   4   4   4   8
#     4  11  24  42  65  95 129 167 211 261 320 373
#     4  12  26  41  64  93 132 170 208 254 316 380
#     4  10  23  45  64  91 126 172 211 275 313 367
#     4  12  23  41  69  92 122 167 227 262 318 364
#     4  10  22  38  66  95 123 163 218 264 312 374
#     4  11  23  39  62  93 133 166 202 256 318 387
#
# _framework density 20.337429
#
# number of rings (size 3 to 8) (size 9 to 14) (size 15 to 20)
#    0.000    0.889    5.556    1.333    4.667    0.444 
#    0.000    0.000    0.000    1.333    0.000    0.000 
#    0.000    0.000    0.000    0.000    0.000    0.000 
#
# Total GULP energy -223235.539020 kJ/mol
# GULP energy per Si atom -12401.974390 kJ/mol
# Density = 2.029114 g / cm^3
# Si number density = 20.337429 Si / 1000 Ang^3
#
#
#
# Elastic Constant Matrix: (Units=GPa)
#
#
# Indices 1 2 3 4 5 6 
#
# 1 102.1308 15.2304 7.3163 0.0002 -4.7120 0.0001
# 2 15.2304 124.0725 9.3962 0.0003 7.8330 0.0002
# 3 7.3163 9.3962 41.0244 0.0014 -3.5901 0.0010
# 4 0.0002 0.0003 0.0014 19.0773 0.0004 0.7308
# 5 -4.7120 7.8330 -3.5901 0.0004 27.8571 0.0002
# 6 0.0001 0.0002 0.0010 0.7308 0.0002 19.2080
#
#
#
# Elastic Compliance Matrix: (Units=1/GPa)
#
#
# Indices 1 2 3 4 5 6 
#
# 1 0.010165 -0.001265 -0.001357 0.000000 0.001900 0.000000
# 2 -0.001265 0.008547 -0.001983 0.000000 -0.002873 0.000000
# 3 -0.001357 -0.001983 0.025387 -0.000002 0.003600 -0.000001
# 4 0.000000 0.000000 -0.000002 0.052495 -0.000001 -0.001997
# 5 0.001900 -0.002873 0.003600 -0.000001 0.037491 -0.000001
# 6 0.000000 0.000000 -0.000001 -0.001997 -0.000001 0.052138
#
#
# Mechanical properties :
#
#
# Convention : Reuss Voigt Hill
#
# Bulk Modulus (GPa) = 28.66287 36.79037 32.72662
# Shear Modulus (GPa) = 24.14746 28.91415 26.53080
#
# Velocity S-wave (km/s) = 3.44952 3.77466 3.61575
# Velocity P-wave (km/s) = 5.47630 6.09317 5.79295
#
# Compressibility (1/GPa) = 0.03488834
#
# Stress axis : x y z
#
# Youngs Moduli (GPa) = 98.37800 117.00486 39.39027
#
# Poissons Ratio (x) = 0.14801 0.05344
# Poissons Ratio (y) = 0.12445 0.07812
# Poissons Ratio (z) = 0.13348 0.23206
#
# Static dielectric constant tensor:
#      x y z
#    x 4.070460 0.000000 -0.089940 
#    y 0.000000 3.980920 0.000000 
#    z -0.089940 0.000000 3.530970 
# 
# 
# High freq. dielectric constant tensor:
#      x y z
#    x 1.808330 0.000000 -0.002290 
#    y 0.000000 1.803770 0.000000 
#    z -0.002290 0.000000 1.783170 
# 
# From -- ./inp_files/140202.got.cif
#   From: 2010.06.25/outbox.cif.g09.slc.cpg/sg12_71_cif.got.tgz:140202.got - 2010.06.28 00:19:55.
