data_PCOD8110190
_publ_section_title
;
Structure prediction by ZEFSAII (Michael W. Deem and Ramdas Pophale) SiO2 
 PCOD8110190
Probable space group: C 2/M
;
_chemical_formula_sum "Si O2"
_cell_formula_units_Z 64
_cell_length_a 30.042154
_cell_length_b 8.779168
_cell_length_c 16.196138
_cell_angle_alpha 90.000000
_cell_angle_beta 132.962315
_cell_angle_gamma 90.000000
_cell_volume 3126.004186
_symmetry_space_group_name_H-M "C 2/M"
_symmetry_group_IT_number 12
_symmetry_cell_setting 'monoclinic'
loop_
_space_group_symop_operation_xyz
x,y,z
-x,y,-z
-x,-y,-z
x,-y,z
1/2+x,1/2+y,z
1/2-x,1/2+y,-z
1/2-x,1/2-y,-z
1/2+x,1/2-y,z
loop_
_atom_site_type_symbol
_atom_site_label
_atom_site_fract_x
_atom_site_fract_y
_atom_site_fract_z
Si Si1 0.995069 0.821910 0.245053
Si Si2 0.380545 0.178523 0.652248
Si Si3 0.665128 0.820435 0.699315
Si Si4 0.391079 0.825210 0.012398
Si Si5 0.700487 0.319364 0.581967
Si Si6 0.263933 0.174348 0.931406
Si Si7 0.450246 0.678180 0.369792
Si Si8 0.337078 0.820919 0.774165
O O1 0.973219 0.774846 0.308493
O O2 0.055555 0.729428 0.303078
O O3 0.009504 0.000000 0.258086
O O4 0.944904 0.779114 0.114074
O O5 0.325179 0.263878 0.537730
O O6 0.376905 0.221080 0.744466
O O7 0.371804 0.000000 0.627537
O O8 0.656983 0.747657 0.598546
O O9 0.729114 0.762695 0.815524
O O10 0.611176 0.769928 0.691322
O O11 0.665697 0.000000 0.692670
O O12 0.335424 0.814278 0.005555
O O13 0.371235 0.756943 0.898296
O O14 0.413683 0.000000 0.033406
O O15 0.697924 0.500000 0.582582
O O16 0.768891 0.254498 0.679008
O O17 0.241768 0.000000 0.904102
O O18 0.250000 0.250000 0.000000
O O19 0.500000 0.727319 0.500000
O O20 0.435651 0.500000 0.357064
O O21 0.330038 0.000000 0.777763
#
# Coordination Sequence:
#
# PCOD8110190 Si02
#       8
#     8   8   8   8   8   8   8   8
#     4  11  24  41  61  90 125 163 208 258 311 368
#     4  11  23  40  64  93 122 158 207 260 312 371
#     4  12  24  37  59  92 125 159 202 249 304 366
#     4  10  21  41  64  86 119 166 209 251 304 365
#     4  11  21  40  65  91 127 164 203 254 311 372
#     4  11  22  38  61  88 122 160 202 250 304 364
#     4  10  22  41  63  85 117 165 212 255 309 369
#     4   9  20  40  65  91 121 162 208 252 309 372
#
# _framework density 20.473421999999999
#
# number of rings (size 3 to 8) (size 9 to 14) (size 15 to 20)
#    0.000    1.375    1.250    4.500    0.000    5.750 
#    0.000    5.625    0.000    0.000    0.000    0.000 
#    0.000    0.000    0.000    0.000    0.000    0.000 
#
# Total GULP energy -396981.670537 kJ/mol
# GULP energy per Si atom -12405.677204 kJ/mol
# Density = 2.042682 g / cm^3
# Si number density = 20.473422 Si / 1000 Ang^3
#
#
#
# Elastic Constant Matrix: (Units=GPa)
#
#
# Indices 1 2 3 4 5 6 
#
# 1 93.7356 38.8768 36.2173 0.0000 -9.8298 0.0000
# 2 38.8768 86.5604 29.5172 0.0000 -5.6475 0.0000
# 3 36.2173 29.5172 128.6567 0.0000 -8.1544 0.0000
# 4 0.0000 0.0000 0.0000 36.6038 0.0000 0.0070
# 5 -9.8298 -5.6475 -8.1544 0.0000 36.5734 0.0000
# 6 0.0000 0.0000 0.0000 0.0070 0.0000 27.5014
#
#
#
# Elastic Compliance Matrix: (Units=1/GPa)
#
#
# Indices 1 2 3 4 5 6 
#
# 1 0.014125 -0.005298 -0.002609 0.000000 0.002397 0.000000
# 2 -0.005298 0.014583 -0.001828 0.000000 0.000420 0.000000
# 3 -0.002609 -0.001828 0.008991 0.000000 0.001021 0.000000
# 4 0.000000 0.000000 0.000000 0.027320 0.000000 -0.000007
# 5 0.002397 0.000420 0.001021 0.000000 0.028279 0.000000
# 6 0.000000 0.000000 0.000000 -0.000007 0.000000 0.036362
#
#
# Mechanical properties :
#
#
# Convention : Reuss Voigt Hill
#
# Bulk Modulus (GPa) = 54.85486 57.57503 56.21495
# Shear Modulus (GPa) = 32.21554 33.75848 32.98701
#
# Velocity S-wave (km/s) = 3.97108 4.06506 4.01834
# Velocity P-wave (km/s) = 6.91934 7.08631 7.00333
#
# Compressibility (1/GPa) = 0.01822992
#
# Stress axis : x y z
#
# Youngs Moduli (GPa) = 70.79677 68.57427 111.22172
#
# Poissons Ratio (x) = 0.36330 0.29016
# Poissons Ratio (y) = 0.37508 0.20327
# Poissons Ratio (z) = 0.18470 0.12533
#
# Static dielectric constant tensor:
#      x y z
#    x 3.724970 0.000000 -0.096840 
#    y 0.000000 3.580860 0.000000 
#    z -0.096840 0.000000 3.923990 
# 
# 
# High freq. dielectric constant tensor:
#      x y z
#    x 1.807610 0.000000 -0.006360 
#    y 0.000000 1.789770 0.000000 
#    z -0.006360 0.000000 1.812320 
# 
# From -- ./inp_files/249998.got.cif
#   From: 2010.06.25/outbox.cif.g09.slc.cpg/sg12_125_cif.got.tgz:249998.got - 2010.06.28 00:19:55.
