data_PCOD8110906
_publ_section_title
;
Structure prediction by ZEFSAII (Michael W. Deem and Ramdas Pophale) SiO2 
 PCOD8110906
Probable space group: C 2/M
;
_chemical_formula_sum "Si O2"
_cell_formula_units_Z 32
_cell_length_a 12.713139
_cell_length_b 16.703145
_cell_length_c 10.440669
_cell_angle_alpha 90.000000
_cell_angle_beta 140.187557
_cell_angle_gamma 90.000000
_cell_volume 1419.537792
_symmetry_space_group_name_H-M "C 2/M"
_symmetry_group_IT_number 12
_symmetry_cell_setting 'monoclinic'
loop_
_space_group_symop_operation_xyz
x,y,z
-x,y,-z
-x,-y,-z
x,-y,z
1/2+x,1/2+y,z
1/2-x,1/2+y,-z
1/2-x,1/2-y,-z
1/2+x,1/2-y,z
loop_
_atom_site_type_symbol
_atom_site_label
_atom_site_fract_x
_atom_site_fract_y
_atom_site_fract_z
Si Si1 0.375961 0.092801 0.774746
Si Si2 0.914542 0.090339 0.055718
Si Si3 0.887398 0.195642 0.565216
Si Si4 0.946765 0.647261 0.314495
O O1 0.205555 0.142721 0.630847
O O2 0.450557 0.106502 0.703316
O O3 0.336293 0.000000 0.758956
O O4 0.500000 0.124216 0.000000
O O5 0.744301 0.136973 0.889936
O O6 0.881998 0.000000 0.073332
O O7 0.000000 0.090466 0.000000
O O8 0.036620 0.133348 0.265619
O O9 0.750000 0.250000 0.500000
O O10 0.025406 0.256852 0.644458
O O11 0.000000 0.606831 0.500000
#
# Coordination Sequence:
#
# PCOD8110906 Si02
#       4
#     8   8   8   8
#     4  10  22  42  67  95 129 167 208 259 319 380
#     4  11  23  40  64  94 128 167 214 265 316 373
#     4  10  22  38  60  90 126 164 205 254 311 373
#     4  11  24  41  65  95 128 168 212 261 315 375
#
# _framework density 22.542549999999999
#
# number of rings (size 3 to 8) (size 9 to 14) (size 15 to 20)
#    0.000    1.500    0.000    5.250    0.000   14.000 
#    0.000    0.000    0.000    6.000    0.000    0.000 
#    0.000    3.000    0.000    0.000    0.000    0.000 
#
# Total GULP energy -198372.720038 kJ/mol
# GULP energy per Si atom -12398.295002 kJ/mol
# Density = 2.249124 g / cm^3
# Si number density = 22.542550 Si / 1000 Ang^3
#
#
#
# Elastic Constant Matrix: (Units=GPa)
#
#
# Indices 1 2 3 4 5 6 
#
# 1 52.4599 29.2254 24.9028 0.0000 -3.2832 0.0000
# 2 29.2254 151.1943 98.3149 0.0000 15.0807 0.0000
# 3 24.9028 98.3149 198.2108 0.0000 3.1618 0.0000
# 4 0.0000 0.0000 0.0000 49.4654 0.0000 5.3929
# 5 -3.2832 15.0807 3.1618 0.0000 46.2138 0.0000
# 6 0.0000 0.0000 0.0000 5.3929 0.0000 30.5282
#
#
#
# Elastic Compliance Matrix: (Units=1/GPa)
#
#
# Indices 1 2 3 4 5 6 
#
# 1 0.021851 -0.003983 -0.000816 0.000000 0.002908 0.000000
# 2 -0.003983 0.010881 -0.004841 0.000000 -0.003503 0.000000
# 3 -0.000816 -0.004841 0.007533 0.000000 0.001006 0.000000
# 4 0.000000 0.000000 0.000000 0.020613 0.000000 -0.003641
# 5 0.002908 -0.003503 0.001006 0.000000 0.022919 0.000000
# 6 0.000000 0.000000 0.000000 -0.003641 0.000000 0.033400
#
#
# Mechanical properties :
#
#
# Convention : Reuss Voigt Hill
#
# Bulk Modulus (GPa) = 47.65428 78.52790 63.09109
# Shear Modulus (GPa) = 34.85020 41.86961 38.35990
#
# Velocity S-wave (km/s) = 3.93615 4.31438 4.12960
# Velocity P-wave (km/s) = 6.46864 7.72849 7.12646
#
# Compressibility (1/GPa) = 0.02098448
#
# Stress axis : x y z
#
# Youngs Moduli (GPa) = 45.76550 91.90283 132.75443
#
# Poissons Ratio (x) = 0.36606 0.10832
# Poissons Ratio (y) = 0.18229 0.64264
# Poissons Ratio (z) = 0.03734 0.44489
#
# Static dielectric constant tensor:
#      x y z
#    x 3.979020 0.000000 0.058130 
#    y 0.000000 4.654630 0.000000 
#    z 0.058130 0.000000 4.368020 
# 
# 
# High freq. dielectric constant tensor:
#      x y z
#    x 1.877220 0.000000 0.001820 
#    y 0.000000 1.900130 0.000000 
#    z 0.001820 0.000000 1.909680 
# 
# From -- ./inp_files/46723.got.cif
#   From: 2010.06.25/outbox.cif.g09.slc.cpg/sg12_24_cif.got.tgz:46723.got - 2010.06.28 00:19:55.
