data_PCOD8110781
_publ_section_title
;
Structure prediction by ZEFSAII (Michael W. Deem and Ramdas Pophale) SiO2 
 PCOD8110781
Probable space group: C 2/M
;
_chemical_formula_sum "Si O2"
_cell_formula_units_Z 56
_cell_length_a 25.363851
_cell_length_b 8.764015
_cell_length_c 17.271756
_cell_angle_alpha 90.000000
_cell_angle_beta 132.649944
_cell_angle_gamma 90.000000
_cell_volume 2823.849078
_symmetry_space_group_name_H-M "C 2/M"
_symmetry_group_IT_number 12
_symmetry_cell_setting 'monoclinic'
loop_
_space_group_symop_operation_xyz
x,y,z
-x,y,-z
-x,-y,-z
x,-y,z
1/2+x,1/2+y,z
1/2-x,1/2+y,-z
1/2-x,1/2-y,-z
1/2+x,1/2-y,z
loop_
_atom_site_type_symbol
_atom_site_label
_atom_site_fract_x
_atom_site_fract_y
_atom_site_fract_z
Si Si1 0.085297 0.320149 0.197775
Si Si2 0.166439 0.180903 0.711057
Si Si3 0.326338 0.673841 0.579616
Si Si4 0.061100 0.181051 0.909573
Si Si5 0.058675 0.818996 0.732068
Si Si6 0.828566 0.680843 0.868574
Si Si7 0.415630 0.673352 0.516538
O O1 0.075596 0.500000 0.190225
O O2 0.121834 0.265537 0.312608
O O3 0.133804 0.269016 0.173756
O O4 0.007215 0.245478 0.112147
O O5 0.130546 0.227043 0.757162
O O6 0.247247 0.244161 0.787299
O O7 0.118223 0.252404 0.593552
O O8 0.169515 0.000000 0.703434
O O9 0.320523 0.500000 0.602989
O O10 0.250000 0.750000 0.500000
O O11 0.356450 0.681684 0.523721
O O12 0.062291 0.245369 0.822813
O O13 0.057925 0.000000 0.908077
O O14 0.132921 0.239082 0.021386
O O15 0.989555 0.747788 0.618682
O O16 0.049236 0.000000 0.727481
O O17 0.831665 0.500000 0.883269
O O18 0.434531 0.500000 0.513634
#
# Coordination Sequence:
#
# PCOD8110781 Si02
#       7
#     8   8   8   8   8   8   8
#     4  11  22  38  58  81 112 148 189 235 281 331
#     4   9  17  31  54  81 111 145 182 228 280 329
#     4  11  21  34  54  84 120 153 187 228 276 333
#     4  11  22  37  57  84 113 145 186 232 281 339
#     4   9  17  31  53  83 112 140 182 232 278 331
#     4  10  22  38  55  81 112 146 190 235 279 335
#     4   9  16  30  52  80 112 143 181 228 274 325
#
# _framework density 19.831087
#
# number of rings (size 3 to 8) (size 9 to 14) (size 15 to 20)
#    0.000    2.000    1.429    3.000    0.000    7.429 
#    0.000    0.000    0.000    0.857    0.000    1.000 
#    0.000    0.000    0.000    0.000    0.000    0.000 
#
# Total GULP energy -347206.486138 kJ/mol
# GULP energy per Si atom -12400.231648 kJ/mol
# Density = 1.978595 g / cm^3
# Si number density = 19.831087 Si / 1000 Ang^3
#
#
#
# Elastic Constant Matrix: (Units=GPa)
#
#
# Indices 1 2 3 4 5 6 
#
# 1 133.4695 28.2130 57.3941 0.0000 7.7783 0.0000
# 2 28.2130 30.9395 28.5722 0.0000 -1.3693 0.0000
# 3 57.3941 28.5722 124.8087 0.0000 5.2754 0.0000
# 4 0.0000 0.0000 0.0000 30.7512 0.0000 1.5929
# 5 7.7783 -1.3693 5.2754 0.0000 30.4301 0.0000
# 6 0.0000 0.0000 0.0000 1.5929 0.0000 18.2763
#
#
#
# Elastic Compliance Matrix: (Units=1/GPa)
#
#
# Indices 1 2 3 4 5 6 
#
# 1 0.010400 -0.006680 -0.003151 0.000000 -0.002413 0.000000
# 2 -0.006680 0.045650 -0.007593 0.000000 0.005078 0.000000
# 3 -0.003151 -0.007593 0.011263 0.000000 -0.001489 0.000000
# 4 0.000000 0.000000 0.000000 0.032667 0.000000 -0.002847
# 5 -0.002413 0.005078 -0.001489 0.000000 0.033965 0.000000
# 6 0.000000 0.000000 0.000000 -0.002847 0.000000 0.054964
#
#
# Mechanical properties :
#
#
# Convention : Reuss Voigt Hill
#
# Bulk Modulus (GPa) = 30.80430 57.50846 44.15638
# Shear Modulus (GPa) = 21.31482 27.56075 24.43779
#
# Velocity S-wave (km/s) = 3.28200 3.73201 3.51422
# Velocity P-wave (km/s) = 5.47075 6.90164 6.22743
#
# Compressibility (1/GPa) = 0.03246300
#
# Stress axis : x y z
#
# Youngs Moduli (GPa) = 96.15244 21.90598 88.78930
#
# Poissons Ratio (x) = 0.14634 0.27980
# Poissons Ratio (y) = 0.64232 0.67419
# Poissons Ratio (z) = 0.30301 0.16634
#
# Static dielectric constant tensor:
#      x y z
#    x 3.743750 0.000000 -0.029070 
#    y 0.000000 3.204030 0.000000 
#    z -0.029070 0.000000 4.069770 
# 
# 
# High freq. dielectric constant tensor:
#      x y z
#    x 1.785580 0.000000 0.001540 
#    y 0.000000 1.725230 0.000000 
#    z 0.001540 0.000000 1.788280 
# 
# From -- ./inp_files/292522.got.cif
#   From: 2010.06.25/outbox.cif.g09.slc.cpg/sg12_147_cif.got.tgz:292522.got - 2010.06.28 00:19:55.
