data_PCOD8110236
_publ_section_title
;
Structure prediction by ZEFSAII (Michael W. Deem and Ramdas Pophale) SiO2 
 PCOD8110236
Probable space group: C 2/M
;
_chemical_formula_sum "Si O2"
_cell_formula_units_Z 64
_cell_length_a 8.692442
_cell_length_b 29.194191
_cell_length_c 16.646144
_cell_angle_alpha 90.000000
_cell_angle_beta 133.544358
_cell_angle_gamma 90.000000
_cell_volume 3061.926666
_symmetry_space_group_name_H-M "C 2/M"
_symmetry_group_IT_number 12
_symmetry_cell_setting 'monoclinic'
loop_
_space_group_symop_operation_xyz
x,y,z
-x,y,-z
-x,-y,-z
x,-y,z
1/2+x,1/2+y,z
1/2-x,1/2+y,-z
1/2-x,1/2-y,-z
1/2+x,1/2-y,z
loop_
_atom_site_type_symbol
_atom_site_label
_atom_site_fract_x
_atom_site_fract_y
_atom_site_fract_z
Si Si1 0.668629 0.302899 0.631643
Si Si2 0.893859 0.261703 0.247802
Si Si3 0.401627 0.053441 0.698033
Si Si4 0.698585 0.052201 0.513867
Si Si5 0.922843 0.785489 0.097475
Si Si6 0.730799 0.877355 0.064503
Si Si7 0.265264 0.553609 0.939670
Si Si8 0.598266 0.604234 0.700617
O O1 0.500000 0.305240 0.500000
O O2 0.604981 0.259589 0.663113
O O3 0.652504 0.348044 0.678677
O O4 0.913371 0.298700 0.688375
O O5 0.939714 0.222475 0.199009
O O6 0.658272 0.281707 0.143093
O O7 0.359515 0.073651 0.594362
O O8 0.622327 0.071703 0.814294
O O9 0.219045 0.064735 0.695648
O O10 0.416790 0.000000 0.691522
O O11 0.500000 0.051266 0.500000
O O12 0.855294 0.089073 0.609243
O O13 0.790465 0.000000 0.540033
O O14 0.853650 0.837839 0.059991
O O15 0.750000 0.750000 0.000000
O O16 0.845605 0.893870 0.186068
O O17 0.500000 0.856629 0.000000
O O18 0.701236 0.921481 0.998277
O O19 0.232245 0.500000 0.943769
O O20 0.500000 0.566617 0.000000
#
# Coordination Sequence:
#
# PCOD8110236 Si02
#       8
#     8   8   8   8   8   8   8   8
#     4  11  23  43  65  93 128 171 215 268 326 397
#     4  10  23  42  66  93 126 166 218 264 335 388
#     4  10  21  41  65  93 130 172 219 263 322 395
#     4  10  23  43  69  99 131 173 222 278 335 384
#     4  11  23  42  67  97 127 169 214 276 329 391
#     4  12  25  43  64  97 135 169 221 272 327 403
#     4  10  24  42  64  93 131 174 214 267 332 396
#     4  12  24  42  64  98 132 171 220 271 323 394
#
# _framework density 20.901872999999998
#
# number of rings (size 3 to 8) (size 9 to 14) (size 15 to 20)
#    0.000    1.250    2.500    3.000    3.500    4.250 
#    2.250    0.625    0.000    0.000    0.000    0.000 
#    0.000    0.000    0.000    0.000    0.000    0.000 
#
# Total GULP energy -396781.044394 kJ/mol
# GULP energy per Si atom -12399.407637 kJ/mol
# Density = 2.085430 g / cm^3
# Si number density = 20.901873 Si / 1000 Ang^3
#
#
#
# Elastic Constant Matrix: (Units=GPa)
#
#
# Indices 1 2 3 4 5 6 
#
# 1 84.7129 33.0346 39.6155 0.0000 14.4668 0.0000
# 2 33.0346 51.2432 46.6150 0.0000 2.0968 0.0000
# 3 39.6155 46.6150 147.1677 0.0000 2.4828 0.0000
# 4 0.0000 0.0000 0.0000 -75.2977 0.0000 -20.0259
# 5 14.4668 2.0968 2.4828 0.0000 44.1287 0.0000
# 6 0.0000 0.0000 0.0000 -20.0259 0.0000 29.5565
#
#
#
# Elastic Compliance Matrix: (Units=1/GPa)
#
#
# Indices 1 2 3 4 5 6 
#
# 1 0.017045 -0.009391 -0.001528 0.000000 -0.005056 0.000000
# 2 -0.009391 0.032617 -0.007837 0.000000 0.001970 0.000000
# 3 -0.001528 -0.007837 0.009683 0.000000 0.000329 0.000000
# 4 0.000000 0.000000 0.000000 -0.011253 0.000000 -0.007624
# 5 -0.005056 0.001970 0.000329 0.000000 0.024206 0.000000
# 6 0.000000 0.000000 0.000000 -0.007624 0.000000 0.028668
#
#
# Mechanical properties :
#
#
# Convention : Reuss Voigt Hill
#
# Bulk Modulus (GPa) = 45.80235 57.96155 51.88195
# Shear Modulus (GPa) = 34.30396 10.60140 22.45268
#
# Velocity S-wave (km/s) = 4.05556 2.25455 3.28105
# Velocity P-wave (km/s) = 6.62500 5.87944 6.26333
#
# Compressibility (1/GPa) = 0.02183294
#
# Stress axis : x y z
#
# Youngs Moduli (GPa) = 58.66901 30.65876 103.27273
#
# Poissons Ratio (x) = 0.28791 0.15784
# Poissons Ratio (y) = 0.55096 0.80932
# Poissons Ratio (z) = 0.08967 0.24026
#
# Static dielectric constant tensor:
#      x y z
#    x 4.443080 0.000000 -0.361980 
#    y 0.000000 3.660310 0.000000 
#    z -0.361980 0.000000 4.261030 
# 
# 
# High freq. dielectric constant tensor:
#      x y z
#    x 1.825190 0.000000 -0.000410 
#    y 0.000000 1.808720 0.000000 
#    z -0.000410 0.000000 1.834730 
# 
# From -- ./inp_files/260409.got.cif
#   From: 2010.06.25/outbox.cif.g09.slc.cpg/sg12_131_cif.got.tgz:260409.got - 2010.06.28 00:19:55.
