data_PCOD8110974
_publ_section_title
;
Structure prediction by ZEFSAII (Michael W. Deem and Ramdas Pophale) SiO2 
 PCOD8110974
Probable space group: C 2/M
;
_chemical_formula_sum "Si O2"
_cell_formula_units_Z 40
_cell_length_a 9.896611
_cell_length_b 17.443321
_cell_length_c 12.363822
_cell_angle_alpha 90.000000
_cell_angle_beta 65.499502
_cell_angle_gamma 90.000000
_cell_volume 1942.180571
_symmetry_space_group_name_H-M "C 2/M"
_symmetry_group_IT_number 12
_symmetry_cell_setting 'monoclinic'
loop_
_space_group_symop_operation_xyz
x,y,z
-x,y,-z
-x,-y,-z
x,-y,z
1/2+x,1/2+y,z
1/2-x,1/2+y,-z
1/2-x,1/2-y,-z
1/2+x,1/2-y,z
loop_
_atom_site_type_symbol
_atom_site_label
_atom_site_fract_x
_atom_site_fract_y
_atom_site_fract_z
Si Si1 0.653389 0.821451 0.497453
Si Si2 0.786968 0.332970 0.934378
Si Si3 0.657154 0.587072 0.171274
Si Si4 0.149936 0.832852 0.751782
Si Si5 0.380508 0.843181 0.257258
O O1 0.500000 0.790421 0.500000
O O2 0.750000 0.750000 0.500000
O O3 0.741308 0.870442 0.375738
O O4 0.617543 0.870696 0.617818
O O5 0.689908 0.353738 0.861236
O O6 0.958684 0.343347 0.850528
O O7 0.750000 0.250000 0.000000
O O8 0.748736 0.398765 0.031971
O O9 0.600043 0.500000 0.193542
O O10 0.517254 0.643986 0.220877
O O11 0.765870 0.601358 0.235528
O O12 0.179042 0.742719 0.732270
#
# Coordination Sequence:
#
# PCOD8110974 Si02
#       5
#     8   8   8   8   8
#     4  10  22  38  64 103 131 165 223 281 325 379
#     4  12  22  39  67  99 133 177 219 271 326 399
#     4  12  28  43  64 103 138 172 219 274 338 394
#     4  11  22  41  68  96 135 174 220 274 327 390
#     4  11  22  41  68  96 135 174 220 274 327 390
#
# _framework density 20.595407999999999
#
# number of rings (size 3 to 8) (size 9 to 14) (size 15 to 20)
#    0.000    0.800    6.000    1.200    8.400    3.200 
#    0.000    2.000    0.000    1.200    0.000    0.000 
#    0.000    0.000    0.000    0.000    0.000    0.000 
#
# Total GULP energy -247922.367568 kJ/mol
# GULP energy per Si atom -12396.118378 kJ/mol
# Density = 2.054853 g / cm^3
# Si number density = 20.595408 Si / 1000 Ang^3
#
#
#
# Elastic Constant Matrix: (Units=GPa)
#
#
# Indices 1 2 3 4 5 6 
#
# 1 149.2591 7.0202 68.1684 0.0000 8.3513 0.0000
# 2 7.0202 54.8838 17.1391 0.0000 6.2965 0.0000
# 3 68.1684 17.1391 179.3812 0.0000 5.5419 0.0000
# 4 0.0000 0.0000 0.0000 11.3079 0.0000 4.7394
# 5 8.3513 6.2965 5.5419 0.0000 41.4819 0.0000
# 6 0.0000 0.0000 0.0000 4.7394 0.0000 15.1712
#
#
#
# Elastic Compliance Matrix: (Units=1/GPa)
#
#
# Indices 1 2 3 4 5 6 
#
# 1 0.008169 0.000057 -0.003072 0.000000 -0.001243 0.000000
# 2 0.000057 0.019069 -0.001761 0.000000 -0.002671 0.000000
# 3 -0.003072 -0.001761 0.006911 0.000000 -0.000038 0.000000
# 4 0.000000 0.000000 0.000000 0.101757 0.000000 -0.031788
# 5 -0.001243 -0.002671 -0.000038 0.000000 0.024768 0.000000
# 6 0.000000 0.000000 0.000000 -0.031788 0.000000 0.075845
#
#
# Mechanical properties :
#
#
# Convention : Reuss Voigt Hill
#
# Bulk Modulus (GPa) = 40.65278 63.13107 51.89192
# Shear Modulus (GPa) = 19.66405 33.00529 26.33467
#
# Velocity S-wave (km/s) = 3.09330 4.00754 3.57972
# Velocity P-wave (km/s) = 5.70435 7.22034 6.50665
#
# Compressibility (1/GPa) = 0.02459857
#
# Stress axis : x y z
#
# Youngs Moduli (GPa) = 122.40711 52.44013 144.68822
#
# Poissons Ratio (x) = -0.00298 0.44442
# Poissons Ratio (y) = -0.00696 0.25481
# Poissons Ratio (z) = 0.37598 0.09235
#
# Static dielectric constant tensor:
#      x y z
#    x 3.764780 0.000000 0.007010 
#    y 0.000000 2.877840 0.000000 
#    z 0.007010 0.000000 4.905110 
# 
# 
# High freq. dielectric constant tensor:
#      x y z
#    x 1.823250 0.000000 -0.000010 
#    y 0.000000 1.742630 0.000000 
#    z -0.000010 0.000000 1.840270 
# 
# From -- ./inp_files/118868.got.cif
#   From: 2010.06.25/outbox.cif.g09.slc.cpg/sg12_60_cif.got.tgz:118868.got - 2010.06.28 00:19:55.
