data_PCOD8110073
_publ_section_title
;
Structure prediction by ZEFSAII (Michael W. Deem and Ramdas Pophale) SiO2 
 PCOD8110073
Probable space group: C 2/M
;
_chemical_formula_sum "Si O2"
_cell_formula_units_Z 40
_cell_length_a 17.736190
_cell_length_b 18.925641
_cell_length_c 11.145607
_cell_angle_alpha 90.000000
_cell_angle_beta 149.394867
_cell_angle_gamma 90.000000
_cell_volume 1904.730588
_symmetry_space_group_name_H-M "C 2/M"
_symmetry_group_IT_number 12
_symmetry_cell_setting 'monoclinic'
loop_
_space_group_symop_operation_xyz
x,y,z
-x,y,-z
-x,-y,-z
x,-y,z
1/2+x,1/2+y,z
1/2-x,1/2+y,-z
1/2-x,1/2-y,-z
1/2+x,1/2-y,z
loop_
_atom_site_type_symbol
_atom_site_label
_atom_site_fract_x
_atom_site_fract_y
_atom_site_fract_z
Si Si1 0.677577 0.178766 0.036422
Si Si2 0.090763 0.173984 0.832448
Si Si3 0.146957 0.918499 0.128929
Si Si4 0.757843 0.188634 0.408768
Si Si5 0.408038 0.081365 0.671941
O O1 0.835075 0.155229 0.194435
O O2 0.693788 0.211627 0.192295
O O3 0.604351 0.241943 0.862569
O O4 0.570881 0.111846 0.871478
O O5 0.918597 0.156226 0.604595
O O6 0.172162 0.128994 0.046599
O O7 0.296479 0.907121 0.408580
O O8 0.126567 0.000000 0.063153
O O9 0.000000 0.893189 0.000000
O O10 0.750000 0.250000 0.500000
O O11 0.658431 0.122199 0.306435
O O12 0.423491 0.000000 0.727415
#
# Coordination Sequence:
#
# PCOD8110073 Si02
#       5
#     8   8   8   8   8
#     4  11  26  41  60  97 135 167 212 266 324 393
#     4  11  24  41  65  94 130 171 212 266 328 383
#     4  10  21  40  67  96 125 164 219 269 316 382
#     4  12  23  41  68  93 127 174 218 266 321 385
#     4  11  24  42  67  97 129 169 217 268 320 383
#
# _framework density 21.000344999999999
#
# number of rings (size 3 to 8) (size 9 to 14) (size 15 to 20)
#    0.000    1.000    4.000    2.400    0.000    3.200 
#    0.000    2.000    0.000    3.600    0.000    0.000 
#    0.000    0.000    0.000    0.000    0.000    0.000 
#
# Total GULP energy -247962.384733 kJ/mol
# GULP energy per Si atom -12398.119237 kJ/mol
# Density = 2.095255 g / cm^3
# Si number density = 21.000345 Si / 1000 Ang^3
#
#
#
# Elastic Constant Matrix: (Units=GPa)
#
#
# Indices 1 2 3 4 5 6 
#
# 1 142.8297 61.6973 53.3060 0.0000 14.9239 0.0000
# 2 61.6973 100.3396 28.7254 0.0000 3.1263 0.0000
# 3 53.3060 28.7254 87.1008 0.0000 11.3609 0.0000
# 4 0.0000 0.0000 0.0000 35.8986 0.0000 -0.2315
# 5 14.9239 3.1263 11.3609 0.0000 38.7422 0.0000
# 6 0.0000 0.0000 0.0000 -0.2315 0.0000 23.2924
#
#
#
# Elastic Compliance Matrix: (Units=1/GPa)
#
#
# Indices 1 2 3 4 5 6 
#
# 1 0.011501 -0.005601 -0.004858 0.000000 -0.002554 0.000000
# 2 -0.005601 0.013734 -0.001288 0.000000 0.001427 0.000000
# 3 -0.004858 -0.001288 0.015203 0.000000 -0.002483 0.000000
# 4 0.000000 0.000000 0.000000 0.027858 0.000000 0.000277
# 5 -0.002554 0.001427 -0.002483 0.000000 0.027408 0.000000
# 6 0.000000 0.000000 0.000000 0.000277 0.000000 0.042935
#
#
# Mechanical properties :
#
#
# Convention : Reuss Voigt Hill
#
# Bulk Modulus (GPa) = 59.01911 68.63640 63.82776
# Shear Modulus (GPa) = 29.80058 32.02272 30.91165
#
# Velocity S-wave (km/s) = 3.77112 3.90919 3.84077
# Velocity P-wave (km/s) = 6.86489 7.28904 7.08014
#
# Compressibility (1/GPa) = 0.01694366
#
# Stress axis : x y z
#
# Youngs Moduli (GPa) = 86.94969 72.80936 65.77781
#
# Poissons Ratio (x) = 0.40783 0.31956
# Poissons Ratio (y) = 0.48703 0.08470
# Poissons Ratio (z) = 0.42242 0.09375
#
# Static dielectric constant tensor:
#      x y z
#    x 4.071630 0.000000 0.138290 
#    y 0.000000 3.787190 0.000000 
#    z 0.138290 0.000000 3.817310 
# 
# 
# High freq. dielectric constant tensor:
#      x y z
#    x 1.825390 0.000000 0.008220 
#    y 0.000000 1.816100 0.000000 
#    z 0.008220 0.000000 1.827870 
# 
# From -- ./inp_files/158432.got.cif
#   From: 2010.06.25/outbox.cif.g09.slc.cpg/sg12_80_cif.got.tgz:158432.got - 2010.06.28 00:19:55.
