data_PCOD8110803
_publ_section_title
;
Structure prediction by ZEFSAII (Michael W. Deem and Ramdas Pophale) SiO2 
 PCOD8110803
Probable space group: C 2/M
;
_chemical_formula_sum "Si O2"
_cell_formula_units_Z 48
_cell_length_a 9.597160
_cell_length_b 27.609275
_cell_length_c 19.776104
_cell_angle_alpha 90.000000
_cell_angle_beta 27.355798
_cell_angle_gamma 90.000000
_cell_volume 2407.897010
_symmetry_space_group_name_H-M "C 2/M"
_symmetry_group_IT_number 12
_symmetry_cell_setting 'monoclinic'
loop_
_space_group_symop_operation_xyz
x,y,z
-x,y,-z
-x,-y,-z
x,-y,z
1/2+x,1/2+y,z
1/2-x,1/2+y,-z
1/2-x,1/2-y,-z
1/2+x,1/2-y,z
loop_
_atom_site_type_symbol
_atom_site_label
_atom_site_fract_x
_atom_site_fract_y
_atom_site_fract_z
Si Si1 0.553757 0.182052 0.049451
Si Si2 0.216782 0.792676 0.461403
Si Si3 0.141765 0.447427 0.652103
Si Si4 0.629738 0.288846 0.871357
Si Si5 0.204143 0.878342 0.304113
Si Si6 0.700378 0.056376 0.476300
O O1 0.352911 0.230704 0.138150
O O2 0.451299 0.147036 0.152270
O O3 0.500000 0.157001 0.000000
O O4 0.908609 0.193243 0.907062
O O5 0.250000 0.750000 0.500000
O O6 0.534431 0.808623 0.289633
O O7 0.000000 0.768085 0.500000
O O8 0.051292 0.841381 0.558226
O O9 0.500000 0.453803 0.500000
O O10 0.996634 0.500000 0.735462
O O11 0.082899 0.403797 0.730081
O O12 0.038999 0.434480 0.619284
O O13 0.500000 0.306301 0.000000
O O14 0.025547 0.917313 0.335576
O O15 0.500000 0.076610 0.500000
O O16 0.765556 0.000000 0.437164
#
# Coordination Sequence:
#
# PCOD8110803 Si02
#       6
#     8   8   8   8   8   8
#     4  10  22  38  57  77 111 158 199 238 296 363
#     4  12  25  37  56  87 115 147 198 253 288 337
#     4   8  15  30  54  82 113 148 186 232 290 350
#     4  10  22  40  57  75 113 159 195 238 300 357
#     4  11  20  36  57  85 114 150 201 248 286 348
#     4   9  18  32  53  87 124 151 183 241 308 355
#
# _framework density 19.934407
#
# number of rings (size 3 to 8) (size 9 to 14) (size 15 to 20)
#    0.000    2.000    1.667    4.000    4.667    2.000 
#    0.000    0.000    0.000    2.000    0.000    4.667 
#    0.000   54.667    0.000    0.000    0.000    0.333 
#
# Total GULP energy -297386.984206 kJ/mol
# GULP energy per Si atom -12391.124342 kJ/mol
# Density = 1.988904 g / cm^3
# Si number density = 19.934407 Si / 1000 Ang^3
#
#
#
# Elastic Constant Matrix: (Units=GPa)
#
#
# Indices 1 2 3 4 5 6 
#
# 1 164.5157 43.2264 40.4509 -0.0061 13.2312 0.0028
# 2 43.2264 79.3672 33.1038 0.0150 14.0757 -0.0030
# 3 40.4509 33.1038 101.1758 -0.1373 8.5135 -0.1299
# 4 -0.0061 0.0150 -0.1373 19.2770 0.0080 9.9064
# 5 13.2312 14.0757 8.5135 0.0080 28.7718 0.0053
# 6 0.0028 -0.0030 -0.1299 9.9064 0.0053 22.2107
#
#
#
# Elastic Compliance Matrix: (Units=1/GPa)
#
#
# Indices 1 2 3 4 5 6 
#
# 1 0.007446 -0.003029 -0.001869 -0.000002 -0.001389 -0.000011
# 2 -0.003029 0.016859 -0.003824 -0.000038 -0.005723 -0.000001
# 3 -0.001869 -0.003824 0.011950 0.000067 -0.000806 0.000040
# 4 -0.000002 -0.000038 0.000067 0.067302 -0.000013 -0.030018
# 5 -0.001389 -0.005723 -0.000806 -0.000013 0.038434 -0.000009
# 6 -0.000011 -0.000001 0.000040 -0.030018 -0.000009 0.058412
#
#
# Mechanical properties :
#
#
# Convention : Reuss Voigt Hill
#
# Bulk Modulus (GPa) = 53.15865 64.29123 58.72494
# Shear Modulus (GPa) = 22.30986 29.27039 25.79012
#
# Velocity S-wave (km/s) = 3.34902 3.83604 3.60077
# Velocity P-wave (km/s) = 6.45595 7.20706 6.84182
#
# Compressibility (1/GPa) = 0.01881162
#
# Stress axis : x y z
#
# Youngs Moduli (GPa) = 134.30723 59.31397 83.68244
#
# Poissons Ratio (x) = 0.17968 0.15638
# Poissons Ratio (y) = 0.40687 0.31996
# Poissons Ratio (z) = 0.25099 0.22679
#
# Static dielectric constant tensor:
#      x y z
#    x 3.945440 0.000740 0.255370 
#    y 0.000740 3.783080 0.000100 
#    z 0.255370 0.000100 3.271290 
# 
# 
# High freq. dielectric constant tensor:
#      x y z
#    x 1.796470 0.000000 0.009730 
#    y 0.000000 1.775260 0.000010 
#    z 0.009730 0.000010 1.732840 
# 
# From -- ./inp_files/260210.got.cif
#   From: 2010.06.25/outbox.cif.g09.slc.cpg/sg12_131_cif.got.tgz:260210.got - 2010.06.28 00:19:55.
