data_PCOD8110135
_publ_section_title
;
Structure prediction by ZEFSAII (Michael W. Deem and Ramdas Pophale) SiO2 
 PCOD8110135
Probable space group: C 2/M
;
_chemical_formula_sum "Si O2"
_cell_formula_units_Z 56
_cell_length_a 9.219541
_cell_length_b 26.370744
_cell_length_c 14.594320
_cell_angle_alpha 90.000000
_cell_angle_beta 62.591631
_cell_angle_gamma 90.000000
_cell_volume 3149.962083
_symmetry_space_group_name_H-M "C 2/M"
_symmetry_group_IT_number 12
_symmetry_cell_setting 'monoclinic'
loop_
_space_group_symop_operation_xyz
x,y,z
-x,y,-z
-x,-y,-z
x,-y,z
1/2+x,1/2+y,z
1/2-x,1/2+y,-z
1/2-x,1/2-y,-z
1/2+x,1/2-y,z
loop_
_atom_site_type_symbol
_atom_site_label
_atom_site_fract_x
_atom_site_fract_y
_atom_site_fract_z
Si Si1 0.293752 0.350607 0.717185
Si Si2 0.606965 0.319720 0.712632
Si Si3 0.000937 0.307434 0.099849
Si Si4 0.150578 0.801175 0.899322
Si Si5 0.310462 0.219281 0.396250
Si Si6 0.154906 0.628545 0.502857
Si Si7 0.678892 0.555988 0.410155
O O1 0.421213 0.339494 0.761129
O O2 0.106286 0.342391 0.801903
O O3 0.329553 0.310722 0.622238
O O4 0.314451 0.408814 0.681516
O O5 0.675089 0.330455 0.795140
O O6 0.596453 0.258552 0.697072
O O7 0.713029 0.348817 0.606175
O O8 0.906783 0.254851 0.111276
O O9 0.182737 0.300933 0.089714
O O10 0.000000 0.334332 0.000000
O O11 0.000000 0.826545 0.000000
O O12 0.250000 0.250000 0.500000
O O13 0.415659 0.173213 0.409308
O O14 0.220997 0.580983 0.537598
O O15 0.000000 0.604718 0.500000
O O16 0.500000 0.550288 0.500000
O O17 0.748581 0.500000 0.365460
#
# Coordination Sequence:
#
# PCOD8110135 Si02
#       7
#     8   8   8   8   8   8   8
#     4  11  21  35  55  81 106 146 189 226 275 327
#     4  11  21  33  50  76 114 150 180 222 262 323
#     4  11  22  36  54  78 111 147 192 228 267 321
#     4  11  22  35  52  76 111 156 188 222 264 318
#     4   9  21  29  47  71 113 147 182 211 262 311
#     4  10  22  33  51  80 110 144 185 220 268 329
#     4  10  21  41  60  78 108 145 187 233 276 328
#
# _framework density 17.777989999999999
#
# number of rings (size 3 to 8) (size 9 to 14) (size 15 to 20)
#    0.000    1.571    2.857    3.429    8.000    0.286 
#    0.000    0.000    0.000    0.429    0.000    0.000 
#    0.000    2.857    0.000    0.000    0.000    0.000 
#
# Total GULP energy -346866.119060 kJ/mol
# GULP energy per Si atom -12388.075681 kJ/mol
# Density = 1.773753 g / cm^3
# Si number density = 17.777990 Si / 1000 Ang^3
#
#
#
# Elastic Constant Matrix: (Units=GPa)
#
#
# Indices 1 2 3 4 5 6 
#
# 1 141.7831 41.0243 36.3057 0.0000 13.2676 0.0000
# 2 41.0243 107.4879 32.3521 0.0000 6.0905 0.0000
# 3 36.3057 32.3521 86.4655 0.0000 13.1947 0.0000
# 4 0.0000 0.0000 0.0000 18.1252 0.0000 2.7884
# 5 13.2676 6.0905 13.1947 0.0000 32.6650 0.0000
# 6 0.0000 0.0000 0.0000 2.7884 0.0000 16.6640
#
#
#
# Elastic Compliance Matrix: (Units=1/GPa)
#
#
# Indices 1 2 3 4 5 6 
#
# 1 0.008557 -0.002437 -0.002366 0.000000 -0.002066 0.000000
# 2 -0.002437 0.011183 -0.003190 0.000000 0.000193 0.000000
# 3 -0.002366 -0.003190 0.014403 0.000000 -0.004262 0.000000
# 4 0.000000 0.000000 0.000000 0.056630 0.000000 -0.009476
# 5 -0.002066 0.000193 -0.004262 0.000000 0.033138 0.000000
# 6 0.000000 0.000000 0.000000 -0.009476 0.000000 0.061595
#
#
# Mechanical properties :
#
#
# Convention : Reuss Voigt Hill
#
# Bulk Modulus (GPa) = 55.07779 61.67785 58.37782
# Shear Modulus (GPa) = 24.09116 28.56114 26.32615
#
# Velocity S-wave (km/s) = 3.68518 4.01252 3.85233
# Velocity P-wave (km/s) = 7.01110 7.49905 7.25918
#
# Compressibility (1/GPa) = 0.01815614
#
# Stress axis : x y z
#
# Youngs Moduli (GPa) = 116.85960 89.42357 69.43019
#
# Poissons Ratio (x) = 0.21791 0.16428
# Poissons Ratio (y) = 0.28476 0.22152
# Poissons Ratio (z) = 0.27650 0.28531
#
# Static dielectric constant tensor:
#      x y z
#    x 3.099850 0.000000 0.346400 
#    y 0.000000 3.235690 0.000000 
#    z 0.346400 0.000000 3.705340 
# 
# 
# High freq. dielectric constant tensor:
#      x y z
#    x 1.695770 0.000000 0.015590 
#    y 0.000000 1.637020 0.000000 
#    z 0.015590 0.000000 1.692090 
# 
# From -- ./inp_files/199301.got.cif
#   From: 2010.06.25/outbox.cif.g09.slc.cpg/sg12_100_cif.got.tgz:199301.got - 2010.06.28 00:19:55.
