data_PCOD8110551
_publ_section_title
;
Structure prediction by ZEFSAII (Michael W. Deem and Ramdas Pophale) SiO2 
 PCOD8110551
Probable space group: C 2/M
;
_chemical_formula_sum "Si O2"
_cell_formula_units_Z 56
_cell_length_a 9.659923
_cell_length_b 30.499946
_cell_length_c 21.133156
_cell_angle_alpha 90.000000
_cell_angle_beta 26.825052
_cell_angle_gamma 90.000000
_cell_volume 2809.774149
_symmetry_space_group_name_H-M "C 2/M"
_symmetry_group_IT_number 12
_symmetry_cell_setting 'monoclinic'
loop_
_space_group_symop_operation_xyz
x,y,z
-x,y,-z
-x,-y,-z
x,-y,z
1/2+x,1/2+y,z
1/2-x,1/2+y,-z
1/2-x,1/2-y,-z
1/2+x,1/2-y,z
loop_
_atom_site_type_symbol
_atom_site_label
_atom_site_fract_x
_atom_site_fract_y
_atom_site_fract_z
Si Si1 0.319329 0.645608 0.722387
Si Si2 0.159097 0.406336 0.672100
Si Si3 0.631645 0.204728 0.017744
Si Si4 0.357932 0.000000 0.360197
Si Si5 0.755519 0.847186 0.238520
Si Si6 0.203965 0.207294 0.479061
Si Si7 0.813677 0.500000 0.640756
Si Si8 0.299656 0.406947 0.337559
O O1 0.152221 0.610243 0.746563
O O2 0.578702 0.668255 0.573816
O O3 0.431504 0.614659 0.732558
O O4 0.123019 0.685221 0.831548
O O5 0.500000 0.399474 0.500000
O O6 0.036227 0.456109 0.718859
O O7 0.875409 0.379535 0.760144
O O8 0.500000 0.212252 0.000000
O O9 0.750000 0.250000 0.000000
O O10 0.895322 0.167902 0.911536
O O11 0.454917 0.000000 0.394060
O O12 0.000000 0.000000 0.500000
O O13 0.547933 0.803931 0.318289
O O14 0.710351 0.871986 0.322099
O O15 0.250000 0.250000 0.500000
O O16 0.000000 0.215380 0.500000
O O17 0.606553 0.455344 0.728085
O O18 0.000000 0.500000 0.500000
O O19 0.000000 0.415552 0.500000
#
# Coordination Sequence:
#
# PCOD8110551 Si02
#       8
#     8   8   8   4   8   8   4   8
#     4  12  24  43  66  92 130 166 217 264 320 388
#     4  11  21  41  67 101 133 170 213 263 322 381
#     4  12  30  47  65  94 128 171 222 268 325 390
#     4  10  22  34  60  99 142 166 206 269 317 380
#     4  12  22  43  67  89 132 169 212 264 320 384
#     4  12  26  41  63  95 124 160 210 271 326 377
#     4  10  22  34  58 103 137 171 209 260 322 381
#     4  11  21  37  67  97 132 170 213 259 322 379
#
# _framework density 19.930427999999999
#
# number of rings (size 3 to 8) (size 9 to 14) (size 15 to 20)
#    0.000    0.571    7.143    0.857   10.000    2.286 
#    0.000    0.000    0.000    5.143    0.000    0.000 
#    0.000    0.000    0.000    0.000    0.000    0.000 
#
# Total GULP energy -346920.439371 kJ/mol
# GULP energy per Si atom -12390.015692 kJ/mol
# Density = 1.988507 g / cm^3
# Si number density = 19.930428 Si / 1000 Ang^3
#
#
#
# Elastic Constant Matrix: (Units=GPa)
#
#
# Indices 1 2 3 4 5 6 
#
# 1 185.9176 75.1620 20.7992 -0.0038 -8.8838 0.0165
# 2 75.1620 157.6859 20.8413 0.0001 -9.2062 0.0091
# 3 20.7992 20.8413 47.9392 -0.0089 -8.1670 0.0182
# 4 -0.0038 0.0001 -0.0089 24.3582 0.0013 -6.4921
# 5 -8.8838 -9.2062 -8.1670 0.0013 27.6536 -0.0086
# 6 0.0165 0.0091 0.0182 -6.4921 -0.0086 33.7060
#
#
#
# Elastic Compliance Matrix: (Units=1/GPa)
#
#
# Indices 1 2 3 4 5 6 
#
# 1 0.006795 -0.002995 -0.001521 0.000000 0.000737 -0.000002
# 2 -0.002995 0.008104 -0.002030 -0.000001 0.001136 0.000000
# 3 -0.001521 -0.002030 0.023380 0.000006 0.005741 -0.000009
# 4 0.000000 -0.000001 0.000006 0.043276 0.000002 0.008335
# 5 0.000737 0.001136 0.005741 0.000002 0.038472 0.000006
# 6 -0.000002 0.000000 -0.000009 0.008335 0.000006 0.031274
#
#
# Mechanical properties :
#
#
# Convention : Reuss Voigt Hill
#
# Bulk Modulus (GPa) = 39.70198 69.46083 54.58141
# Shear Modulus (GPa) = 28.93739 35.45959 32.19849
#
# Velocity S-wave (km/s) = 3.81454 4.22260 4.02374
# Velocity P-wave (km/s) = 6.27411 7.66166 7.00234
#
# Compressibility (1/GPa) = 0.02518766
#
# Stress axis : x y z
#
# Youngs Moduli (GPa) = 147.17231 123.39784 42.77147
#
# Poissons Ratio (x) = 0.36955 0.06504
# Poissons Ratio (y) = 0.44075 0.08683
# Poissons Ratio (z) = 0.22378 0.25052
#
# Static dielectric constant tensor:
#      x y z
#    x 3.868310 0.000040 -0.125760 
#    y 0.000040 4.244050 -0.000030 
#    z -0.125760 -0.000030 3.371700 
# 
# 
# High freq. dielectric constant tensor:
#      x y z
#    x 1.801480 0.000000 -0.007530 
#    y 0.000000 1.803650 0.000000 
#    z -0.007530 0.000000 1.732970 
# 
# From -- ./inp_files/303022.got.cif
#   From: 2010.06.25/outbox.cif.g09.slc.cpg/sg12_152_cif.got.tgz:303022.got - 2010.06.28 00:19:55.
