data_PCOD8110138
_publ_section_title
;
Structure prediction by ZEFSAII (Michael W. Deem and Ramdas Pophale) SiO2 
 PCOD8110138
Probable space group: C 2/M
;
_chemical_formula_sum "Si O2"
_cell_formula_units_Z 44
_cell_length_a 8.908121
_cell_length_b 17.897593
_cell_length_c 19.511961
_cell_angle_alpha 90.000000
_cell_angle_beta 46.938782
_cell_angle_gamma 90.000000
_cell_volume 2272.877057
_symmetry_space_group_name_H-M "C 2/M"
_symmetry_group_IT_number 12
_symmetry_cell_setting 'monoclinic'
loop_
_space_group_symop_operation_xyz
x,y,z
-x,y,-z
-x,-y,-z
x,-y,z
1/2+x,1/2+y,z
1/2-x,1/2+y,-z
1/2-x,1/2-y,-z
1/2+x,1/2-y,z
loop_
_atom_site_type_symbol
_atom_site_label
_atom_site_fract_x
_atom_site_fract_y
_atom_site_fract_z
Si Si1 0.032559 0.500000 0.160056
Si Si2 0.358628 0.000000 0.724697
Si Si3 0.500000 0.122744 0.500000
Si Si4 0.941231 0.000000 0.675320
Si Si5 0.208972 0.500000 0.523815
Si Si6 0.650634 0.375796 0.700007
Si Si7 0.102899 0.343357 0.071043
Si Si8 0.705810 0.708070 0.122092
O O1 0.173790 0.500000 0.183666
O O2 0.080611 0.428749 0.098897
O O3 0.800095 0.500000 0.257870
O O4 0.607188 0.000000 0.631149
O O5 0.254294 0.073664 0.726186
O O6 0.627063 0.072850 0.512131
O O7 0.670583 0.166829 0.401044
O O8 0.009862 0.926835 0.695444
O O9 0.043499 0.000000 0.566057
O O10 0.513355 0.312635 0.777579
O O11 0.201267 0.295417 0.102380
O O12 0.884659 0.305176 0.121403
O O13 0.251364 0.342054 0.958697
#
# Coordination Sequence:
#
# PCOD8110138 Si02
#       8
#     4   4   4   4   4   8   8   8
#     4  12  22  36  52  92 116 140 185 247 266 320
#     4   9  20  29  50  84 121 144 187 229 280 322
#     4   7  12  24  52  80 104 135 198 224 260 327
#     4   9  16  29  55  79 110 145 192 227 281 323
#     4   7  12  27  44  75 111 150 178 225 272 336
#     4   9  16  33  56  81 106 154 186 227 272 339
#     4  10  24  39  60  83 113 147 188 230 276 338
#     4  10  21  41  61  78 110 152 187 221 289 335
#
# _framework density 19.358723000000001
#
# number of rings (size 3 to 8) (size 9 to 14) (size 15 to 20)
#    0.000    2.727    1.818    2.182    2.545    3.273 
#    0.000    0.909    0.000    3.273    0.000    0.000 
#    0.000    0.000    0.000    0.000    0.000    0.000 
#
# Total GULP energy -272553.700261 kJ/mol
# GULP energy per Si atom -12388.804557 kJ/mol
# Density = 1.931466 g / cm^3
# Si number density = 19.358723 Si / 1000 Ang^3
#
#
#
# Elastic Constant Matrix: (Units=GPa)
#
#
# Indices 1 2 3 4 5 6 
#
# 1 54.2664 26.4896 23.2449 -0.0001 3.4404 -0.0007
# 2 26.4896 83.3094 35.2603 0.0003 1.0946 -0.0003
# 3 23.2449 35.2603 124.2704 0.0006 -21.7058 0.0002
# 4 -0.0001 0.0003 0.0006 23.8433 0.0000 -1.9390
# 5 3.4404 1.0946 -21.7058 0.0000 29.5314 0.0003
# 6 -0.0007 -0.0003 0.0002 -1.9390 0.0003 11.3259
#
#
#
# Elastic Compliance Matrix: (Units=1/GPa)
#
#
# Indices 1 2 3 4 5 6 
#
# 1 0.023097 -0.005763 -0.003577 0.000000 -0.005106 0.000002
# 2 -0.005763 0.015471 -0.003780 0.000000 -0.002680 0.000000
# 3 -0.003577 -0.003780 0.011342 0.000000 0.008893 -0.000001
# 4 0.000000 0.000000 0.000000 0.042533 0.000000 0.007282
# 5 -0.005106 -0.002680 0.008893 0.000000 0.041093 -0.000002
# 6 0.000002 0.000000 -0.000001 0.007282 -0.000002 0.089540
#
#
# Mechanical properties :
#
#
# Convention : Reuss Voigt Hill
#
# Bulk Modulus (GPa) = 42.24783 47.98175 45.11479
# Shear Modulus (GPa) = 19.43979 24.73021 22.08500
#
# Velocity S-wave (km/s) = 3.17233 3.57805 3.38128
# Velocity P-wave (km/s) = 5.94048 6.47374 6.21283
#
# Compressibility (1/GPa) = 0.02366985
#
# Stress axis : x y z
#
# Youngs Moduli (GPa) = 43.29630 64.63747 88.16890
#
# Poissons Ratio (x) = 0.37250 0.31538
# Poissons Ratio (y) = 0.24951 0.33327
# Poissons Ratio (z) = 0.15487 0.24432
#
# Static dielectric constant tensor:
#      x y z
#    x 3.360980 0.000000 -0.175640 
#    y 0.000000 3.087250 0.000000 
#    z -0.175640 0.000000 3.957150 
# 
# 
# High freq. dielectric constant tensor:
#      x y z
#    x 1.740810 0.000000 -0.009710 
#    y 0.000000 1.708550 0.000000 
#    z -0.009710 0.000000 1.773030 
# 
# From -- ./inp_files/256923.got.cif
#   From: 2010.06.25/outbox.cif.g09.slc.cpg/sg12_129_cif.got.tgz:256923.got - 2010.06.28 00:19:55.
