data_PCOD8110127
_publ_section_title
;
Structure prediction by ZEFSAII (Michael W. Deem and Ramdas Pophale) SiO2 
 PCOD8110127
Probable space group: C 2/M
;
_chemical_formula_sum "Si O2"
_cell_formula_units_Z 24
_cell_length_a 13.683130
_cell_length_b 7.777199
_cell_length_c 13.794662
_cell_angle_alpha 90.000000
_cell_angle_beta 44.688132
_cell_angle_gamma 90.000000
_cell_volume 1032.352225
_symmetry_space_group_name_H-M "C 2/M"
_symmetry_group_IT_number 12
_symmetry_cell_setting 'monoclinic'
loop_
_space_group_symop_operation_xyz
x,y,z
-x,y,-z
-x,-y,-z
x,-y,z
1/2+x,1/2+y,z
1/2-x,1/2+y,-z
1/2-x,1/2-y,-z
1/2+x,1/2-y,z
loop_
_atom_site_type_symbol
_atom_site_label
_atom_site_fract_x
_atom_site_fract_y
_atom_site_fract_z
Si Si1 0.402188 0.799164 0.857829
Si Si2 0.841619 0.500000 0.570195
Si Si3 0.549525 0.313940 0.574473
Si Si4 0.557060 0.500000 0.853172
O O1 0.421459 0.757409 0.730092
O O2 0.510571 0.677256 0.836331
O O3 0.432103 0.000000 0.858756
O O4 0.250000 0.750000 0.000000
O O5 0.826884 0.671520 0.513613
O O6 0.724866 0.500000 0.735594
O O7 0.000000 0.500000 0.500000
O O8 0.500000 0.340507 0.500000
O O9 0.601457 0.500000 0.578617
O O10 0.500000 0.500000 0.000000
#
# Coordination Sequence:
#
# PCOD8110127 Si02
#       4
#     8   4   8   4
#     4  12  25  46  76 107 148 192 243 303 369 435
#     4  10  24  44  74 101 144 190 235 298 358 423
#     4  10  21  40  71 105 139 187 240 291 363 426
#     4  12  30  48  73 111 148 193 250 297 371 438
#
# _framework density 23.247878
#
# number of rings (size 3 to 8) (size 9 to 14) (size 15 to 20)
#    0.000    1.000    5.000    0.000    9.333    3.333 
#    0.000    0.000    0.000    0.000    0.000    0.000 
#    0.000    0.000    0.000    0.000    0.000    0.000 
#
# Total GULP energy -148673.099951 kJ/mol
# GULP energy per Si atom -12389.424996 kJ/mol
# Density = 2.319496 g / cm^3
# Si number density = 23.247878 Si / 1000 Ang^3
#
#
#
# Elastic Constant Matrix: (Units=GPa)
#
#
# Indices 1 2 3 4 5 6 
#
# 1 51.6081 37.8290 48.2452 0.0000 -4.5016 0.0000
# 2 37.8290 277.7896 79.8734 0.0000 -6.0327 0.0000
# 3 48.2452 79.8734 248.1858 0.0000 -3.1100 0.0000
# 4 0.0000 0.0000 0.0000 39.6379 0.0000 0.0586
# 5 -4.5016 -6.0327 -3.1100 0.0000 37.6319 0.0000
# 6 0.0000 0.0000 0.0000 0.0586 0.0000 23.2781
#
#
#
# Elastic Compliance Matrix: (Units=1/GPa)
#
#
# Indices 1 2 3 4 5 6 
#
# 1 0.025038 -0.002169 -0.004140 0.000000 0.002305 0.000000
# 2 -0.002169 0.004165 -0.000915 0.000000 0.000333 0.000000
# 3 -0.004140 -0.000915 0.005126 0.000000 -0.000218 0.000000
# 4 0.000000 0.000000 0.000000 0.025228 0.000000 -0.000063
# 5 0.002305 0.000333 -0.000218 0.000000 0.026884 0.000000
# 6 0.000000 0.000000 0.000000 -0.000063 0.000000 0.042959
#
#
# Mechanical properties :
#
#
# Convention : Reuss Voigt Hill
#
# Bulk Modulus (GPa) = 50.29870 101.05320 75.67595
# Shear Modulus (GPa) = 33.22772 47.55196 40.38984
#
# Velocity S-wave (km/s) = 3.78468 4.52755 4.17268
# Velocity P-wave (km/s) = 6.38602 8.41984 7.47245
#
# Compressibility (1/GPa) = 0.01988123
#
# Stress axis : x y z
#
# Youngs Moduli (GPa) = 39.93874 240.06819 195.09450
#
# Poissons Ratio (x) = 0.52075 0.80774
# Poissons Ratio (y) = 0.08663 0.17846
# Poissons Ratio (z) = 0.16536 0.21960
#
# Static dielectric constant tensor:
#      x y z
#    x 3.766950 0.000000 0.477150 
#    y 0.000000 6.882910 0.000000 
#    z 0.477150 0.000000 5.077250 
# 
# 
# High freq. dielectric constant tensor:
#      x y z
#    x 1.877470 0.000000 0.014340 
#    y 0.000000 1.966290 0.000000 
#    z 0.014340 0.000000 1.942470 
# 
# From -- ./inp_files/211508.got.cif
#   From: 2010.06.25/outbox.cif.g09.slc.cpg/sg12_106_cif.got.tgz:211508.got - 2010.06.28 00:19:55.
