data_PCOD8110097
_publ_section_title
;
Structure prediction by ZEFSAII (Michael W. Deem and Ramdas Pophale) SiO2 
 PCOD8110097
Probable space group: C 2/M
;
_chemical_formula_sum "Si O2"
_cell_formula_units_Z 48
_cell_length_a 14.432678
_cell_length_b 9.481179
_cell_length_c 25.127726
_cell_angle_alpha 90.000000
_cell_angle_beta 35.880859
_cell_angle_gamma 90.000000
_cell_volume 2015.280232
_symmetry_space_group_name_H-M "C 2/M"
_symmetry_group_IT_number 12
_symmetry_cell_setting 'monoclinic'
loop_
_space_group_symop_operation_xyz
x,y,z
-x,y,-z
-x,-y,-z
x,-y,z
1/2+x,1/2+y,z
1/2-x,1/2+y,-z
1/2-x,1/2-y,-z
1/2+x,1/2-y,z
loop_
_atom_site_type_symbol
_atom_site_label
_atom_site_fract_x
_atom_site_fract_y
_atom_site_fract_z
Si Si1 0.770941 0.662848 0.572372
Si Si2 0.646987 0.843637 0.714227
Si Si3 0.912482 0.846582 0.985039
Si Si4 0.164601 0.839979 0.149225
Si Si5 0.288350 0.761763 0.203826
Si Si6 0.536218 0.844625 0.615921
O O1 0.738554 0.500000 0.603055
O O2 0.785881 0.759117 0.618324
O O3 0.620483 0.720305 0.609124
O O4 0.929516 0.678343 0.463155
O O5 0.490144 0.754232 0.775925
O O6 0.692370 0.864629 0.754742
O O7 0.623375 0.000000 0.701108
O O8 0.042891 0.816894 0.879136
O O9 0.834325 0.000000 0.009780
O O10 0.777986 0.726262 0.050728
O O11 0.000000 0.853310 0.000000
O O12 0.250274 0.843327 0.166971
O O13 0.125625 0.000000 0.150683
O O14 0.149477 0.653845 0.284357
O O15 0.603200 0.000000 0.600065
#
# Coordination Sequence:
#
# PCOD8110097 Si02
#       6
#     8   8   8   8   8   8
#     4  10  22  40  64  97 132 170 217 267 324 386
#     4  12  26  43  66  97 133 174 220 269 327 389
#     4   9  20  39  65  96 129 169 216 264 322 389
#     4  11  24  44  68  94 130 172 217 273 329 385
#     4  11  24  41  68  99 131 170 221 267 321 386
#     4  10  21  40  68  96 129 173 216 265 324 387
#
# _framework density 23.818027000000001
#
# number of rings (size 3 to 8) (size 9 to 14) (size 15 to 20)
#    0.000    1.500    1.667    2.500    0.000   10.333 
#    0.000    2.500    0.000    0.000    0.000    0.000 
#    0.000    0.000    0.000    0.000    0.000    0.000 
#
# Total GULP energy -297468.502704 kJ/mol
# GULP energy per Si atom -12394.520946 kJ/mol
# Density = 2.376382 g / cm^3
# Si number density = 23.818027 Si / 1000 Ang^3
#
#
#
# Elastic Constant Matrix: (Units=GPa)
#
#
# Indices 1 2 3 4 5 6 
#
# 1 51.0827 20.8957 20.6356 0.0000 11.8836 0.0000
# 2 20.8957 191.9104 62.4236 0.0000 2.9176 0.0000
# 3 20.6356 62.4236 165.0982 0.0000 13.9934 0.0001
# 4 0.0000 0.0000 0.0000 27.5324 0.0000 -3.9801
# 5 11.8836 2.9176 13.9934 0.0000 33.5603 0.0000
# 6 0.0000 0.0000 0.0001 -3.9801 0.0000 12.4732
#
#
#
# Elastic Compliance Matrix: (Units=1/GPa)
#
#
# Indices 1 2 3 4 5 6 
#
# 1 0.022628 -0.001862 -0.001512 0.000000 -0.007220 0.000000
# 2 -0.001862 0.006101 -0.002161 0.000000 0.001030 0.000000
# 3 -0.001512 -0.002161 0.007258 0.000000 -0.002303 0.000000
# 4 0.000000 0.000000 0.000000 0.038077 0.000000 0.012150
# 5 -0.007220 0.001030 -0.002303 0.000000 0.033225 0.000000
# 6 0.000000 0.000000 0.000000 0.012150 0.000000 0.084049
#
#
# Mechanical properties :
#
#
# Convention : Reuss Voigt Hill
#
# Bulk Modulus (GPa) = 40.13450 68.44455 54.28953
# Shear Modulus (GPa) = 23.72873 34.98895 29.35884
#
# Velocity S-wave (km/s) = 3.15977 3.83693 3.51469
# Velocity P-wave (km/s) = 5.49538 6.95904 6.27006
#
# Compressibility (1/GPa) = 0.02491622
#
# Stress axis : x y z
#
# Youngs Moduli (GPa) = 44.19228 163.91086 137.77115
#
# Poissons Ratio (x) = 0.30523 0.20835
# Poissons Ratio (y) = 0.08229 0.29777
# Poissons Ratio (z) = 0.06683 0.35426
#
# Static dielectric constant tensor:
#      x y z
#    x 3.947040 0.000000 0.311380 
#    y 0.000000 4.218620 0.000000 
#    z 0.311380 0.000000 4.789870 
# 
# 
# High freq. dielectric constant tensor:
#      x y z
#    x 1.923200 0.000000 0.017710 
#    y 0.000000 1.939840 0.000000 
#    z 0.017710 0.000000 1.960340 
# 
# From -- ./inp_files/360223.got.cif
#   From: 2010.06.25/outbox.cif.g09.slc.cpg/sg12_181_cif.got.tgz:360223.got - 2010.06.28 00:19:55.
