data_PCOD8110809
_publ_section_title
;
Structure prediction by ZEFSAII (Michael W. Deem and Ramdas Pophale) SiO2 
 PCOD8110809
Probable space group: C 2/M
;
_chemical_formula_sum "Si O2"
_cell_formula_units_Z 64
_cell_length_a 9.774052
_cell_length_b 27.069599
_cell_length_c 20.257180
_cell_angle_alpha 90.000000
_cell_angle_beta 136.954363
_cell_angle_gamma 90.000000
_cell_volume 3658.385318
_symmetry_space_group_name_H-M "C 2/M"
_symmetry_group_IT_number 12
_symmetry_cell_setting 'monoclinic'
loop_
_space_group_symop_operation_xyz
x,y,z
-x,y,-z
-x,-y,-z
x,-y,z
1/2+x,1/2+y,z
1/2-x,1/2+y,-z
1/2-x,1/2-y,-z
1/2+x,1/2-y,z
loop_
_atom_site_type_symbol
_atom_site_label
_atom_site_fract_x
_atom_site_fract_y
_atom_site_fract_z
Si Si1 0.320780 0.202896 0.985701
Si Si2 0.461108 0.151497 0.824469
Si Si3 0.171230 0.201675 0.507474
Si Si4 0.044881 0.699726 0.718190
Si Si5 0.002913 0.944814 0.110241
Si Si6 0.976217 0.816788 0.310127
Si Si7 0.675174 0.055048 0.889895
Si Si8 0.566771 0.652376 0.206118
O O1 0.135992 0.181863 0.879660
O O2 0.500000 0.218236 0.000000
O O3 0.250000 0.250000 0.000000
O O4 0.392076 0.162357 0.063108
O O5 0.505942 0.189650 0.781266
O O6 0.234941 0.156082 0.768087
O O7 0.498209 0.094570 0.817849
O O8 0.250000 0.250000 0.500000
O O9 0.359585 0.176175 0.610941
O O10 0.000000 0.215237 0.500000
O O11 0.079803 0.168400 0.416386
O O12 0.054714 0.758131 0.709183
O O13 0.251993 0.674290 0.772148
O O14 0.035441 0.905447 0.179978
O O15 0.171538 0.936769 0.115202
O O16 0.016864 0.000000 0.145657
O O17 0.788248 0.937475 0.999519
O O18 0.113499 0.839154 0.300047
O O19 0.581895 0.000000 0.854019
#
# Coordination Sequence:
#
# PCOD8110809 Si02
#       8
#     8   8   8   8   8   8   8   8
#     4  12  26  37  50  76 120 160 190 219 266 332
#     4  12  21  36  56  80 113 151 187 226 277 331
#     4  10  22  38  57  81 110 148 190 238 280 323
#     4  11  23  37  58  82 112 153 191 228 275 335
#     4   9  18  35  55  79 109 145 191 241 274 320
#     4  11  23  37  54  80 119 148 184 233 275 335
#     4   9  18  34  56  80 107 145 194 238 274 322
#     4  12  23  36  55  84 113 152 190 226 280 334
#
# _framework density 17.494057000000002
#
# number of rings (size 3 to 8) (size 9 to 14) (size 15 to 20)
#    0.000    1.250    5.000    3.000    7.000    0.000 
#    0.000    0.625    0.000    2.250    0.000    5.250 
#    0.000    0.000    0.000    0.000    0.000    0.000 
#
# Total GULP energy -396768.705129 kJ/mol
# GULP energy per Si atom -12399.022035 kJ/mol
# Density = 1.745424 g / cm^3
# Si number density = 17.494057 Si / 1000 Ang^3
#
#
#
# Elastic Constant Matrix: (Units=GPa)
#
#
# Indices 1 2 3 4 5 6 
#
# 1 80.0397 25.1638 26.0647 0.0000 -8.0593 0.0000
# 2 25.1638 102.4411 24.5373 0.0000 0.0908 0.0000
# 3 26.0647 24.5373 79.5417 0.0000 -5.4695 0.0000
# 4 0.0000 0.0000 0.0000 10.8818 0.0000 -1.3572
# 5 -8.0593 0.0908 -5.4695 0.0000 30.8726 0.0000
# 6 0.0000 0.0000 0.0000 -1.3572 0.0000 20.9795
#
#
#
# Elastic Compliance Matrix: (Units=1/GPa)
#
#
# Indices 1 2 3 4 5 6 
#
# 1 0.014929 -0.002755 -0.003820 0.000000 0.003229 0.000000
# 2 -0.002755 0.011060 -0.002592 0.000000 -0.001211 0.000000
# 3 -0.003820 -0.002592 0.014735 0.000000 0.001621 0.000000
# 4 0.000000 0.000000 0.000000 0.092644 0.000000 0.005993
# 5 0.003229 -0.001211 0.001621 0.000000 0.033525 0.000000
# 6 0.000000 0.000000 0.000000 0.005993 0.000000 0.048053
#
#
# Mechanical properties :
#
#
# Convention : Reuss Voigt Hill
#
# Bulk Modulus (GPa) = 44.66427 45.95047 45.30737
# Shear Modulus (GPa) = 20.76882 24.96388 22.86635
#
# Velocity S-wave (km/s) = 3.44930 3.78165 3.61930
# Velocity P-wave (km/s) = 6.43818 6.73730 6.58944
#
# Compressibility (1/GPa) = 0.02238926
#
# Stress axis : x y z
#
# Youngs Moduli (GPa) = 66.98336 90.41183 67.86548
#
# Poissons Ratio (x) = 0.24909 0.25926
# Poissons Ratio (y) = 0.18454 0.17594
# Poissons Ratio (z) = 0.25589 0.23439
#
# Static dielectric constant tensor:
#      x y z
#    x 3.321860 0.000000 -0.162670 
#    y 0.000000 3.117540 0.000000 
#    z -0.162670 0.000000 3.862610 
# 
# 
# High freq. dielectric constant tensor:
#      x y z
#    x 1.684720 0.000000 -0.003660 
#    y 0.000000 1.650050 0.000000 
#    z -0.003660 0.000000 1.671190 
# 
# From -- ./inp_files/302648.got.cif
#   From: 2010.06.25/outbox.cif.g09.slc.cpg/sg12_152_cif.got.tgz:302648.got - 2010.06.28 00:19:55.
