data_PCOD8110655
_publ_section_title
;
Structure prediction by ZEFSAII (Michael W. Deem and Ramdas Pophale) SiO2 
 PCOD8110655
Probable space group: C 2/M
;
_chemical_formula_sum "Si O2"
_cell_formula_units_Z 56
_cell_length_a 20.418443
_cell_length_b 8.910458
_cell_length_c 17.853330
_cell_angle_alpha 90.000000
_cell_angle_beta 109.076065
_cell_angle_gamma 90.000000
_cell_volume 3069.820577
_symmetry_space_group_name_H-M "C 2/M"
_symmetry_group_IT_number 12
_symmetry_cell_setting 'monoclinic'
loop_
_space_group_symop_operation_xyz
x,y,z
-x,y,-z
-x,-y,-z
x,-y,z
1/2+x,1/2+y,z
1/2-x,1/2+y,-z
1/2-x,1/2-y,-z
1/2+x,1/2-y,z
loop_
_atom_site_type_symbol
_atom_site_label
_atom_site_fract_x
_atom_site_fract_y
_atom_site_fract_z
Si Si1 0.143704 0.174225 0.085773
Si Si2 0.080180 0.665007 0.509520
Si Si3 0.200926 0.321598 0.844031
Si Si4 0.450963 0.673930 0.810297
Si Si5 0.608712 0.820923 0.676976
Si Si6 0.955311 0.679054 0.660998
Si Si7 0.410831 0.822276 0.078586
O O1 0.221608 0.240787 0.116477
O O2 0.110813 0.200091 0.154494
O O3 0.143308 0.000000 0.062910
O O4 0.098375 0.263180 0.008709
O O5 0.113012 0.500000 0.513570
O O6 0.117089 0.747054 0.594881
O O7 0.085240 0.741247 0.428884
O O8 0.000000 0.649449 0.500000
O O9 0.201796 0.500000 0.840906
O O10 0.169490 0.260182 0.753706
O O11 0.153808 0.265856 0.895384
O O12 0.469659 0.500000 0.809354
O O13 0.423317 0.739549 0.721282
O O14 0.518644 0.761419 0.861261
O O15 0.535838 0.773161 0.686352
O O16 0.609892 0.000000 0.670566
O O17 0.947572 0.500000 0.664999
O O18 0.415516 0.000000 0.079769
#
# Coordination Sequence:
#
# PCOD8110655 Si02
#       7
#     8   8   8   8   8   8   8
#     4  10  22  37  50  69  99 133 163 194 239 295
#     4   7  11  19  39  72 101 120 146 196 248 279
#     4   9  17  31  52  75  98 124 160 203 241 284
#     4  11  22  34  49  70 100 135 164 192 236 294
#     4   8  12  23  46  75  99 119 153 202 245 277
#     4   9  15  27  48  74  99 123 159 204 242 276
#     4  11  21  35  56  77  93 118 162 212 251 280
#
# _framework density 18.242108999999999
#
# number of rings (size 3 to 8) (size 9 to 14) (size 15 to 20)
#    0.000    2.714    1.429    3.429    0.000    2.857 
#    0.000    0.714    0.000    4.714    0.000    0.000 
#    0.000    0.000    0.000    0.000    0.000    0.143 
#
# Total GULP energy -346953.615169 kJ/mol
# GULP energy per Si atom -12391.200542 kJ/mol
# Density = 1.820059 g / cm^3
# Si number density = 18.242109 Si / 1000 Ang^3
#
#
#
# Elastic Constant Matrix: (Units=GPa)
#
#
# Indices 1 2 3 4 5 6 
#
# 1 54.9358 21.8107 16.1694 0.0000 -12.7763 0.0000
# 2 21.8107 40.4595 32.0125 0.0000 -8.1903 0.0000
# 3 16.1694 32.0125 139.3118 0.0000 -15.0964 0.0000
# 4 0.0000 0.0000 0.0000 15.1108 0.0000 -3.6512
# 5 -12.7763 -8.1903 -15.0964 0.0000 16.3403 0.0000
# 6 0.0000 0.0000 0.0000 -3.6512 0.0000 15.9350
#
#
#
# Elastic Compliance Matrix: (Units=1/GPa)
#
#
# Indices 1 2 3 4 5 6 
#
# 1 0.026256 -0.012099 0.001445 0.000000 0.015800 0.000000
# 2 -0.012099 0.037233 -0.006839 0.000000 0.002884 0.000000
# 3 0.001445 -0.006839 0.009260 0.000000 0.006257 0.000000
# 4 0.000000 0.000000 0.000000 0.070057 0.000000 0.016052
# 5 0.015800 0.002884 0.006257 0.000000 0.080778 0.000000
# 6 0.000000 0.000000 0.000000 0.016052 0.000000 0.066433
#
#
# Mechanical properties :
#
#
# Convention : Reuss Voigt Hill
#
# Bulk Modulus (GPa) = 26.48067 41.63245 34.05656
# Shear Modulus (GPa) = 14.81086 20.45818 17.63452
#
# Velocity S-wave (km/s) = 2.85249 3.35249 3.11254
# Velocity P-wave (km/s) = 5.03951 6.15283 5.62378
#
# Compressibility (1/GPa) = 0.03776339
#
# Stress axis : x y z
#
# Youngs Moduli (GPa) = 38.08691 26.85776 107.99142
#
# Poissons Ratio (x) = 0.32494 -0.15603
# Poissons Ratio (y) = 0.46080 0.73855
# Poissons Ratio (z) = -0.05503 0.18368
#
# Static dielectric constant tensor:
#      x y z
#    x 3.195390 0.000000 0.007550 
#    y 0.000000 2.936340 0.000000 
#    z 0.007550 0.000000 3.915060 
# 
# 
# High freq. dielectric constant tensor:
#      x y z
#    x 1.671050 0.000000 -0.004000 
#    y 0.000000 1.660300 0.000000 
#    z -0.004000 0.000000 1.735750 
# 
# From -- ./inp_files/280437.got.cif
#   From: 2010.06.25/outbox.cif.g09.slc.cpg/sg12_141_cif.got.tgz:280437.got - 2010.06.28 00:19:55.
