data_PCOD8110840
_publ_section_title
;
Structure prediction by ZEFSAII (Michael W. Deem and Ramdas Pophale) SiO2 
 PCOD8110840
Probable space group: C 2/M
;
_chemical_formula_sum "Si O2"
_cell_formula_units_Z 56
_cell_length_a 11.945642
_cell_length_b 14.169434
_cell_length_c 17.032123
_cell_angle_alpha 90.000000
_cell_angle_beta 66.996113
_cell_angle_gamma 90.000000
_cell_volume 2653.654377
_symmetry_space_group_name_H-M "C 2/M"
_symmetry_group_IT_number 12
_symmetry_cell_setting 'monoclinic'
loop_
_space_group_symop_operation_xyz
x,y,z
-x,y,-z
-x,-y,-z
x,-y,z
1/2+x,1/2+y,z
1/2-x,1/2+y,-z
1/2-x,1/2-y,-z
1/2+x,1/2-y,z
loop_
_atom_site_type_symbol
_atom_site_label
_atom_site_fract_x
_atom_site_fract_y
_atom_site_fract_z
Si Si1 0.916182 0.604523 0.091928
Si Si2 0.750682 0.894478 0.253041
Si Si3 0.474949 0.392895 0.090034
Si Si4 0.529305 0.154934 0.221687
Si Si5 0.313487 0.742779 0.368412
Si Si6 0.134384 0.887151 0.498698
Si Si7 0.195849 0.201466 0.091833
O O1 0.882138 0.500000 0.074215
O O2 0.795192 0.665093 0.125498
O O3 0.971858 0.599961 0.163804
O O4 0.000000 0.648593 0.000000
O O5 0.617013 0.909383 0.251328
O O6 0.738714 0.821376 0.327790
O O7 0.856989 0.850492 0.167008
O O8 0.791152 0.000000 0.269930
O O9 0.440870 0.500000 0.082815
O O10 0.601509 0.383373 0.101208
O O11 0.500000 0.340172 0.000000
O O12 0.430641 0.207861 0.300295
O O13 0.623904 0.225763 0.161314
O O14 0.229533 0.830415 0.418175
O O15 0.359702 0.668332 0.420784
O O16 0.000000 0.877874 0.500000
O O17 0.168625 0.000000 0.496692
O O18 0.250000 0.250000 0.000000
#
# Coordination Sequence:
#
# PCOD8110840 Si02
#       7
#     8   8   8   8   8   8   8
#     4  11  25  42  58  85 126 176 228 278 330 380
#     4  11  23  41  64  94 132 175 222 273 330 390
#     4  10  22  38  58  85 121 169 225 277 321 374
#     4  12  24  40  64  95 132 172 221 276 328 386
#     4  11  23  44  69 101 138 168 214 272 329 403
#     4  10  23  45  74 103 133 170 211 263 331 409
#     4  12  23  37  61  84 123 169 226 273 322 382
#
# _framework density 21.102976000000002
#
# number of rings (size 3 to 8) (size 9 to 14) (size 15 to 20)
#    0.000    1.000    2.857    3.857    2.000    1.143 
#    0.000    1.429    0.000    4.714    0.000    0.000 
#    0.000    0.000    0.000    0.000    0.000    0.000 
#
# Total GULP energy -346909.710311 kJ/mol
# GULP energy per Si atom -12389.632511 kJ/mol
# Density = 2.105494 g / cm^3
# Si number density = 21.102976 Si / 1000 Ang^3
#
#
#
# Elastic Constant Matrix: (Units=GPa)
#
#
# Indices 1 2 3 4 5 6 
#
# 1 134.5745 42.6473 48.4743 0.0000 -1.6114 0.0000
# 2 42.6473 119.1334 42.6748 0.0000 -5.4461 0.0000
# 3 48.4743 42.6748 162.2011 0.0000 -13.5194 0.0000
# 4 0.0000 0.0000 0.0000 46.1520 0.0000 -12.4678
# 5 -1.6114 -5.4461 -13.5194 0.0000 35.5630 0.0000
# 6 0.0000 0.0000 0.0000 -12.4678 0.0000 43.2125
#
#
#
# Elastic Compliance Matrix: (Units=1/GPa)
#
#
# Indices 1 2 3 4 5 6 
#
# 1 0.008964 -0.002497 -0.002086 0.000000 -0.000769 0.000000
# 2 -0.002497 0.009972 -0.001817 0.000000 0.000723 0.000000
# 3 -0.002086 -0.001817 0.007472 0.000000 0.002468 0.000000
# 4 0.000000 0.000000 0.000000 0.023499 0.000000 0.006780
# 5 -0.000769 0.000723 0.002468 0.000000 0.029133 0.000000
# 6 0.000000 0.000000 0.000000 0.006780 0.000000 0.025098
#
#
# Mechanical properties :
#
#
# Convention : Reuss Voigt Hill
#
# Bulk Modulus (GPa) = 73.48540 75.94465 74.71502
# Shear Modulus (GPa) = 41.16073 43.79298 42.47685
#
# Velocity S-wave (km/s) = 4.42120 4.56038 4.49133
# Velocity P-wave (km/s) = 7.80773 7.98719 7.89797
#
# Compressibility (1/GPa) = 0.01360815
#
# Stress axis : x y z
#
# Youngs Moduli (GPa) = 111.55275 100.28335 133.82548
#
# Poissons Ratio (x) = 0.25040 0.27919
# Poissons Ratio (y) = 0.27854 0.24317
# Poissons Ratio (z) = 0.23272 0.18222
#
# Static dielectric constant tensor:
#      x y z
#    x 3.575380 0.000000 -0.026420 
#    y 0.000000 3.830460 0.000000 
#    z -0.026420 0.000000 3.837910 
# 
# 
# High freq. dielectric constant tensor:
#      x y z
#    x 1.837030 0.000000 -0.002930 
#    y 0.000000 1.840810 0.000000 
#    z -0.002930 0.000000 1.820610 
# 
# From -- ./inp_files/263246.got.cif
#   From: 2010.06.25/outbox.cif.g09.slc.cpg/sg12_132_cif.got.tgz:263246.got - 2010.06.28 00:19:55.
