data_PCOD8110020
_publ_section_title
;
Structure prediction by ZEFSAII (Michael W. Deem and Ramdas Pophale) SiO2 
 PCOD8110020
Probable space group: C 2/M
;
_chemical_formula_sum "Si O2"
_cell_formula_units_Z 56
_cell_length_a 24.156861
_cell_length_b 15.082565
_cell_length_c 15.865593
_cell_angle_alpha 90.000000
_cell_angle_beta 28.024694
_cell_angle_gamma 90.000000
_cell_volume 2716.021181
_symmetry_space_group_name_H-M "C 2/M"
_symmetry_group_IT_number 12
_symmetry_cell_setting 'monoclinic'
loop_
_space_group_symop_operation_xyz
x,y,z
-x,y,-z
-x,-y,-z
x,-y,z
1/2+x,1/2+y,z
1/2-x,1/2+y,-z
1/2-x,1/2-y,-z
1/2+x,1/2-y,z
loop_
_atom_site_type_symbol
_atom_site_label
_atom_site_fract_x
_atom_site_fract_y
_atom_site_fract_z
Si Si1 0.888083 0.396115 0.198070
Si Si2 0.988844 0.185068 0.710695
Si Si3 0.629381 0.597852 0.826541
Si Si4 0.371995 0.254249 0.710301
Si Si5 0.685325 0.603196 0.346840
Si Si6 0.806473 0.901234 0.069052
Si Si7 0.171340 0.686824 0.552370
O O1 0.890182 0.500000 0.184833
O O2 0.775523 0.360701 0.296958
O O3 0.890001 0.376043 0.295352
O O4 0.000000 0.353383 0.000000
O O5 0.884204 0.221228 0.792123
O O6 0.058629 0.113402 0.560609
O O7 0.071179 0.265494 0.631833
O O8 0.930351 0.135010 0.867194
O O9 0.608808 0.500000 0.815666
O O10 0.679938 0.593279 0.850740
O O11 0.733767 0.640138 0.633508
O O12 0.500000 0.646686 0.000000
O O13 0.500000 0.234830 0.500000
O O14 0.306304 0.333471 0.746860
O O15 0.300725 0.163413 0.806491
O O16 0.705387 0.500000 0.293782
O O17 0.779922 0.000000 0.068339
O O18 0.250000 0.750000 0.500000
#
# Coordination Sequence:
#
# PCOD8110020 Si02
#       7
#     8   8   8   8   8   8   8
#     4  10  23  41  62  93 128 167 215 268 324 386
#     4  11  23  40  61  95 126 163 212 262 320 384
#     4  10  22  39  60  89 125 166 212 262 313 377
#     4  10  23  42  63  92 126 160 217 267 316 385
#     4  10  21  40  66  92 127 168 210 266 323 377
#     4  11  24  42  64  89 126 169 212 262 316 381
#     4  12  23  38  63  93 124 170 207 262 324 379
#
# _framework density 20.618395
#
# number of rings (size 3 to 8) (size 9 to 14) (size 15 to 20)
#    0.000    1.429    1.429    3.857    2.000    4.000 
#    0.000    1.429    0.000    0.000    0.000    0.000 
#    0.000    0.000    0.000    0.000    0.000    0.000 
#
# Total GULP energy -347060.703093 kJ/mol
# GULP energy per Si atom -12395.025110 kJ/mol
# Density = 2.057147 g / cm^3
# Si number density = 20.618395 Si / 1000 Ang^3
#
#
#
# Elastic Constant Matrix: (Units=GPa)
#
#
# Indices 1 2 3 4 5 6 
#
# 1 113.4370 53.6399 34.6427 0.0000 5.8685 0.0000
# 2 53.6399 107.1105 58.4771 0.0000 -4.2745 0.0000
# 3 34.6427 58.4771 125.1853 0.0000 12.9608 0.0000
# 4 0.0000 0.0000 0.0000 27.4359 0.0000 -9.5975
# 5 5.8685 -4.2745 12.9608 0.0000 30.2166 0.0000
# 6 0.0000 0.0000 0.0000 -9.5975 0.0000 32.2166
#
#
#
# Elastic Compliance Matrix: (Units=1/GPa)
#
#
# Indices 1 2 3 4 5 6 
#
# 1 0.011845 -0.005958 -0.000178 0.000000 -0.003067 0.000000
# 2 -0.005958 0.016137 -0.006536 0.000000 0.006243 0.000000
# 3 -0.000178 -0.006536 0.011702 0.000000 -0.005909 0.000000
# 4 0.000000 0.000000 0.000000 0.040689 0.000000 0.012121
# 5 -0.003067 0.006243 -0.005909 0.000000 0.037108 0.000000
# 6 0.000000 0.000000 0.000000 0.012121 0.000000 0.034651
#
#
# Mechanical properties :
#
#
# Convention : Reuss Voigt Hill
#
# Bulk Modulus (GPa) = 69.72081 71.02803 70.37442
# Shear Modulus (GPa) = 27.43412 31.23870 29.33641
#
# Velocity S-wave (km/s) = 3.65165 3.89664 3.77613
# Velocity P-wave (km/s) = 7.18802 7.40059 7.29508
#
# Compressibility (1/GPa) = 0.01434292
#
# Stress axis : x y z
#
# Youngs Moduli (GPa) = 84.42048 61.96952 85.45483
#
# Poissons Ratio (x) = 0.36919 0.01517
# Poissons Ratio (y) = 0.50294 0.55851
# Poissons Ratio (z) = 0.01499 0.40501
#
# Static dielectric constant tensor:
#      x y z
#    x 3.431110 0.000000 -0.335190 
#    y 0.000000 3.679060 0.000000 
#    z -0.335190 0.000000 3.576250 
# 
# 
# High freq. dielectric constant tensor:
#      x y z
#    x 1.812080 0.000000 0.003140 
#    y 0.000000 1.804280 0.000000 
#    z 0.003140 0.000000 1.815270 
# 
# From -- ./inp_files/240857.got.cif
#   From: 2010.06.25/outbox.cif.g09.slc.cpg/sg12_121_cif.got.tgz:240857.got - 2010.06.28 00:19:55.
