data_PCOD8110573
_publ_section_title
;
Structure prediction by ZEFSAII (Michael W. Deem and Ramdas Pophale) SiO2 
 PCOD8110573
Probable space group: C 2/M
;
_chemical_formula_sum "Si O2"
_cell_formula_units_Z 44
_cell_length_a 22.999511
_cell_length_b 13.518298
_cell_length_c 9.063334
_cell_angle_alpha 90.000000
_cell_angle_beta 130.247988
_cell_angle_gamma 90.000000
_cell_volume 2150.791698
_symmetry_space_group_name_H-M "C 2/M"
_symmetry_group_IT_number 12
_symmetry_cell_setting 'monoclinic'
loop_
_space_group_symop_operation_xyz
x,y,z
-x,y,-z
-x,-y,-z
x,-y,z
1/2+x,1/2+y,z
1/2-x,1/2+y,-z
1/2-x,1/2-y,-z
1/2+x,1/2-y,z
loop_
_atom_site_type_symbol
_atom_site_label
_atom_site_fract_x
_atom_site_fract_y
_atom_site_fract_z
Si Si1 0.655042 0.000000 0.620158
Si Si2 0.171281 0.788658 0.305529
Si Si3 0.896701 0.286718 0.538930
Si Si4 0.896109 0.000000 0.195110
Si Si5 0.174255 0.000000 0.225102
Si Si6 0.500000 0.666801 0.500000
Si Si7 0.772095 0.500000 0.958577
Si Si8 0.757713 0.288338 0.846772
O O1 0.607222 0.904095 0.493293
O O2 0.739047 0.000000 0.689880
O O3 0.663032 0.000000 0.809668
O O4 0.250000 0.750000 0.500000
O O5 0.102356 0.735145 0.282015
O O6 0.174980 0.767385 0.134301
O O7 0.161629 0.906015 0.309702
O O8 0.823188 0.229436 0.359023
O O9 0.968905 0.238904 0.577044
O O10 0.810748 0.000000 0.109056
O O11 0.936239 0.098766 0.320300
O O12 0.890438 0.000000 0.008472
O O13 0.781617 0.402783 0.875360
O O14 0.750000 0.250000 0.000000
#
# Coordination Sequence:
#
# PCOD8110573 Si02
#       8
#     4   8   8   4   4   4   4   8
#     4  11  20  35  63  90 116 154 196 253 310 353
#     4  10  22  35  58  93 126 152 184 255 312 360
#     4  11  23  39  57  85 123 158 205 240 298 359
#     4  10  22  37  62  91 118 162 203 248 294 359
#     4  11  19  37  65  90 128 147 196 250 324 358
#     4  11  24  41  58  82 126 171 208 237 282 360
#     4  11  19  32  62  97 114 145 195 259 312 357
#     4  11  19  34  60  90 118 150 191 252 314 354
#
# _framework density 20.457585000000002
#
# number of rings (size 3 to 8) (size 9 to 14) (size 15 to 20)
#    0.000    1.273    7.273    1.091    0.000    5.455 
#    0.000    1.818    0.000    0.000    0.000    2.545 
#    0.000    0.000    0.000    0.000    0.000    0.000 
#
# Total GULP energy -272690.320710 kJ/mol
# GULP energy per Si atom -12395.014578 kJ/mol
# Density = 2.041102 g / cm^3
# Si number density = 20.457585 Si / 1000 Ang^3
#
#
#
# Elastic Constant Matrix: (Units=GPa)
#
#
# Indices 1 2 3 4 5 6 
#
# 1 119.8989 44.3473 21.1494 0.0000 -29.9883 0.0000
# 2 44.3473 193.9601 31.2247 0.0000 -14.9498 0.0000
# 3 21.1494 31.2247 51.6063 0.0000 -15.5026 0.0000
# 4 0.0000 0.0000 0.0000 -113.4319 0.0000 -53.8783
# 5 -29.9883 -14.9498 -15.5026 0.0000 26.2196 0.0000
# 6 0.0000 0.0000 0.0000 -53.8783 0.0000 13.1465
#
#
#
# Elastic Compliance Matrix: (Units=1/GPa)
#
#
# Indices 1 2 3 4 5 6 
#
# 1 0.012256 -0.001796 -0.000040 0.000000 0.012969 0.000000
# 2 -0.001796 0.006023 -0.003032 0.000000 -0.000413 0.000000
# 3 -0.000040 -0.003032 0.025165 0.000000 0.013105 0.000000
# 4 0.000000 0.000000 0.000000 -0.002992 0.000000 -0.012261
# 5 0.012969 -0.000413 0.013105 0.000000 0.060486 0.000000
# 6 0.000000 0.000000 0.000000 -0.012261 0.000000 0.025815
#
#
# Mechanical properties :
#
#
# Convention : Reuss Voigt Hill
#
# Bulk Modulus (GPa) = 29.66713 62.10090 45.88402
# Shear Modulus (GPa) = 33.84708 3.10311 18.47510
#
# Velocity S-wave (km/s) = 4.07197 1.23294 3.00841
# Velocity P-wave (km/s) = 6.05319 5.69638 5.87749
#
# Compressibility (1/GPa) = 0.03370733
#
# Stress axis : x y z
#
# Youngs Moduli (GPa) = 81.59588 166.04028 39.73773
#
# Poissons Ratio (x) = 0.29822 0.00158
# Poissons Ratio (y) = 0.14655 0.12049
# Poissons Ratio (z) = 0.00325 0.50344
#
# Static dielectric constant tensor:
#      x y z
#    x 6.909300 0.000000 -2.280760 
#    y 0.000000 4.155240 0.000000 
#    z -2.280760 0.000000 4.747260 
# 
# 
# High freq. dielectric constant tensor:
#      x y z
#    x 1.781650 0.000000 -0.028770 
#    y 0.000000 1.819030 0.000000 
#    z -0.028770 0.000000 1.773900 
# 
# From -- ./inp_files/94882.got.cif
#   From: 2010.06.25/outbox.cif.g09.slc.cpg/sg12_48_cif.got.tgz:94882.got - 2010.06.28 00:19:55.
