data_PCOD8110037
_publ_section_title
;
Structure prediction by ZEFSAII (Michael W. Deem and Ramdas Pophale) SiO2 
 PCOD8110037
Probable space group: C 2/M
;
_chemical_formula_sum "Si O2"
_cell_formula_units_Z 40
_cell_length_a 24.405165
_cell_length_b 8.510985
_cell_length_c 18.604724
_cell_angle_alpha 90.000000
_cell_angle_beta 150.155043
_cell_angle_gamma 90.000000
_cell_volume 1923.148911
_symmetry_space_group_name_H-M "C 2/M"
_symmetry_group_IT_number 12
_symmetry_cell_setting 'monoclinic'
loop_
_space_group_symop_operation_xyz
x,y,z
-x,y,-z
-x,-y,-z
x,-y,z
1/2+x,1/2+y,z
1/2-x,1/2+y,-z
1/2-x,1/2-y,-z
1/2+x,1/2-y,z
loop_
_atom_site_type_symbol
_atom_site_label
_atom_site_fract_x
_atom_site_fract_y
_atom_site_fract_z
Si Si1 0.586263 0.318320 0.397319
Si Si2 0.797209 0.183024 0.873707
Si Si3 0.981011 0.319073 0.827365
Si Si4 0.068859 0.183829 0.647059
Si Si5 0.704217 0.317364 0.292760
O O1 0.577546 0.500000 0.365356
O O2 0.562241 0.211920 0.301643
O O3 0.499243 0.274172 0.359636
O O4 0.708782 0.285001 0.564117
O O5 0.682011 0.221240 0.780547
O O6 0.794053 0.238721 0.787552
O O7 0.823350 0.000000 0.909787
O O8 0.890721 0.277020 0.022491
O O9 0.962330 0.500000 0.825069
O O10 0.916074 0.214202 0.811570
O O11 0.000000 0.242686 0.500000
O O12 0.094904 0.000000 0.670023
O O13 0.734627 0.500000 0.333771
#
# Coordination Sequence:
#
# PCOD8110037 Si02
#       5
#     8   8   8   8   8
#     4  11  23  41  66  93 126 164 205 254 307 365
#     4  11  24  41  65  94 126 163 205 255 309 366
#     4  12  26  42  62  90 127 166 208 256 309 366
#     4  10  21  40  66  94 123 159 206 254 304 366
#     4  11  23  41  65  93 126 163 207 254 306 368
#
# _framework density 20.799219999999998
#
# number of rings (size 3 to 8) (size 9 to 14) (size 15 to 20)
#    0.000    1.000    2.000    4.800    0.000    7.600 
#    0.000    0.000    0.000    0.000    0.000    0.000 
#    0.000    0.000    0.000    0.000    0.000    0.000 
#
# Total GULP energy -248199.978193 kJ/mol
# GULP energy per Si atom -12409.998910 kJ/mol
# Density = 2.075188 g / cm^3
# Si number density = 20.799220 Si / 1000 Ang^3
#
#
#
# Elastic Constant Matrix: (Units=GPa)
#
#
# Indices 1 2 3 4 5 6 
#
# 1 67.1156 23.4883 8.7851 0.0000 16.5925 0.0000
# 2 23.4883 60.4184 21.3922 0.0000 -3.0365 0.0000
# 3 8.7851 21.3922 95.2607 0.0000 12.5359 0.0000
# 4 0.0000 0.0000 0.0000 34.8245 0.0000 6.7562
# 5 16.5925 -3.0365 12.5359 0.0000 34.2698 0.0000
# 6 0.0000 0.0000 0.0000 6.7562 0.0000 25.2813
#
#
#
# Elastic Compliance Matrix: (Units=1/GPa)
#
#
# Indices 1 2 3 4 5 6 
#
# 1 0.020750 -0.009235 0.001670 0.000000 -0.011476 0.000000
# 2 -0.009235 0.022437 -0.005292 0.000000 0.008395 0.000000
# 3 0.001670 -0.005292 0.012292 0.000000 -0.005774 0.000000
# 4 0.000000 0.000000 0.000000 0.030286 0.000000 -0.008094
# 5 -0.011476 0.008395 -0.005774 0.000000 0.037593 0.000000
# 6 0.000000 0.000000 0.000000 -0.008094 0.000000 0.041718
#
#
# Mechanical properties :
#
#
# Convention : Reuss Voigt Hill
#
# Bulk Modulus (GPa) = 33.59511 36.68063 35.13787
# Shear Modulus (GPa) = 24.91166 30.15039 27.53103
#
# Velocity S-wave (km/s) = 3.46457 3.81148 3.64216
# Velocity P-wave (km/s) = 5.67375 6.08636 5.88367
#
# Compressibility (1/GPa) = 0.02976624
#
# Stress axis : x y z
#
# Youngs Moduli (GPa) = 48.19259 44.56930 81.35639
#
# Poissons Ratio (x) = 0.41160 -0.13590
# Poissons Ratio (y) = 0.44506 0.43051
# Poissons Ratio (z) = -0.08050 0.23584
#
# Static dielectric constant tensor:
#      x y z
#    x 3.806040 0.000000 0.031030 
#    y 0.000000 3.636340 0.000000 
#    z 0.031030 0.000000 3.730390 
# 
# 
# High freq. dielectric constant tensor:
#      x y z
#    x 1.822090 0.000000 0.005140 
#    y 0.000000 1.816250 0.000000 
#    z 0.005140 0.000000 1.821340 
# 
# From -- ./inp_files/151648.got.cif
#   From: 2010.06.25/outbox.cif.g09.slc.cpg/sg12_76_cif.got.tgz:151648.got - 2010.06.28 00:19:55.
