data_PCOD8110644
_publ_section_title
;
Structure prediction by ZEFSAII (Michael W. Deem and Ramdas Pophale) SiO2 
 PCOD8110644
Probable space group: C 2/M
;
_chemical_formula_sum "Si O2"
_cell_formula_units_Z 48
_cell_length_a 12.670738
_cell_length_b 19.406372
_cell_length_c 13.982952
_cell_angle_alpha 90.000000
_cell_angle_beta 39.946778
_cell_angle_gamma 90.000000
_cell_volume 2207.655993
_symmetry_space_group_name_H-M "C 2/M"
_symmetry_group_IT_number 12
_symmetry_cell_setting 'monoclinic'
loop_
_space_group_symop_operation_xyz
x,y,z
-x,y,-z
-x,-y,-z
x,-y,z
1/2+x,1/2+y,z
1/2-x,1/2+y,-z
1/2-x,1/2-y,-z
1/2+x,1/2-y,z
loop_
_atom_site_type_symbol
_atom_site_label
_atom_site_fract_x
_atom_site_fract_y
_atom_site_fract_z
Si Si1 0.306254 0.189909 0.531115
Si Si2 0.189234 0.710211 0.262471
Si Si3 0.819990 0.132291 0.781730
Si Si4 0.062008 0.421284 0.836485
Si Si5 0.338075 0.577757 0.492502
Si Si6 0.232752 0.330572 0.032188
O O1 0.250000 0.250000 0.500000
O O2 0.500473 0.190072 0.399633
O O3 0.228101 0.197088 0.691940
O O4 0.242761 0.117502 0.538841
O O5 0.213261 0.790103 0.225978
O O6 0.267349 0.662498 0.122364
O O7 0.642587 0.092570 0.887279
O O8 0.974687 0.101692 0.618288
O O9 0.855521 0.130295 0.872754
O O10 0.994339 0.500000 0.873873
O O11 0.234249 0.411676 0.660192
O O12 0.944951 0.362967 0.872716
O O13 0.341639 0.500000 0.455507
O O14 0.250000 0.250000 0.000000
#
# Coordination Sequence:
#
# PCOD8110644 Si02
#       6
#     8   8   8   8   8   8
#     4  11  20  38  65  90 121 161 214 267 312 371
#     4  10  22  36  62  93 119 163 215 264 312 370
#     4  11  22  37  63  95 130 163 209 265 321 385
#     4  11  23  40  63  93 132 171 211 265 326 381
#     4  11  23  39  62  93 128 165 212 266 318 380
#     4  10  23  42  59  90 129 169 211 255 317 383
#
# _framework density 21.742518
#
# number of rings (size 3 to 8) (size 9 to 14) (size 15 to 20)
#    0.000    1.333    3.333    2.500    2.333    3.333 
#    0.000    3.333    0.000    1.000    0.000    0.000 
#    0.000    0.000    0.000    0.000    0.000    0.000 
#
# Total GULP energy -297323.439649 kJ/mol
# GULP energy per Si atom -12388.476652 kJ/mol
# Density = 2.169303 g / cm^3
# Si number density = 21.742518 Si / 1000 Ang^3
#
#
#
# Elastic Constant Matrix: (Units=GPa)
#
#
# Indices 1 2 3 4 5 6 
#
# 1 102.4059 39.1115 -0.8032 0.0006 24.6528 -0.0017
# 2 39.1115 112.8854 11.4863 0.0020 -4.9558 -0.0021
# 3 -0.8032 11.4863 15.9162 0.0005 3.8789 -0.0051
# 4 0.0006 0.0020 0.0005 29.0830 -0.0017 2.8026
# 5 24.6528 -4.9558 3.8789 -0.0017 49.4775 0.0024
# 6 -0.0017 -0.0021 -0.0051 2.8026 0.0024 21.0924
#
#
#
# Elastic Compliance Matrix: (Units=1/GPa)
#
#
# Indices 1 2 3 4 5 6 
#
# 1 0.014045 -0.005933 0.006974 -0.000001 -0.008139 0.000003
# 2 -0.005933 0.012182 -0.010305 0.000000 0.004984 -0.000002
# 3 0.006974 -0.010305 0.073113 -0.000003 -0.010239 0.000019
# 4 -0.000001 0.000000 -0.000003 0.034830 0.000002 -0.004628
# 5 -0.008139 0.004984 -0.010239 0.000002 0.025569 -0.000006
# 6 0.000003 -0.000002 0.000019 -0.004628 -0.000006 0.048026
#
#
# Mechanical properties :
#
#
# Convention : Reuss Voigt Hill
#
# Bulk Modulus (GPa) = 12.37444 36.75518 24.56481
# Shear Modulus (GPa) = 19.74486 32.02477 25.88481
#
# Velocity S-wave (km/s) = 3.01678 3.84201 3.45413
# Velocity P-wave (km/s) = 4.22354 6.05168 5.21829
#
# Compressibility (1/GPa) = 0.08081171
#
# Stress axis : x y z
#
# Youngs Moduli (GPa) = 71.19857 82.09086 13.67738
#
# Poissons Ratio (x) = 0.48706 -0.09539
# Poissons Ratio (y) = 0.42244 0.14095
# Poissons Ratio (z) = -0.49655 0.84597
#
# Static dielectric constant tensor:
#      x y z
#    x 4.214600 -0.000010 0.542570 
#    y -0.000010 3.838650 0.000020 
#    z 0.542570 0.000020 4.567180 
# 
# 
# High freq. dielectric constant tensor:
#      x y z
#    x 1.846190 0.000000 0.020300 
#    y 0.000000 1.834160 0.000000 
#    z 0.020300 0.000000 1.883860 
# 
# From -- ./inp_files/207912.got.cif
#   From: 2010.06.25/outbox.cif.g09.slc.cpg/sg12_104_cif.got.tgz:207912.got - 2010.06.28 00:19:55.
