data_PCOD8110395
_publ_section_title
;
Structure prediction by ZEFSAII (Michael W. Deem and Ramdas Pophale) SiO2 
 PCOD8110395
Probable space group: C 2/M
;
_chemical_formula_sum "Si O2"
_cell_formula_units_Z 36
_cell_length_a 18.264852
_cell_length_b 13.101061
_cell_length_c 7.098312
_cell_angle_alpha 90.000000
_cell_angle_beta 61.616710
_cell_angle_gamma 90.000000
_cell_volume 1494.360481
_symmetry_space_group_name_H-M "C 2/M"
_symmetry_group_IT_number 12
_symmetry_cell_setting 'monoclinic'
loop_
_space_group_symop_operation_xyz
x,y,z
-x,y,-z
-x,-y,-z
x,-y,z
1/2+x,1/2+y,z
1/2-x,1/2+y,-z
1/2-x,1/2-y,-z
1/2+x,1/2-y,z
loop_
_atom_site_type_symbol
_atom_site_label
_atom_site_fract_x
_atom_site_fract_y
_atom_site_fract_z
Si Si1 0.925868 0.890617 0.455395
Si Si2 0.139248 0.707050 0.975221
Si Si3 0.934713 0.500000 0.865984
Si Si4 0.000000 0.153666 0.000000
Si Si5 0.383317 0.000000 0.494374
Si Si6 0.306442 0.210525 0.663267
O O1 0.954356 0.915686 0.208079
O O2 0.861049 0.800686 0.512177
O O3 0.000000 0.853769 0.500000
O O4 0.889600 0.000000 0.576202
O O5 0.211085 0.751688 0.747794
O O6 0.105650 0.594073 0.969868
O O7 0.175815 0.702087 0.138730
O O8 0.060767 0.779735 0.056199
O O9 0.912733 0.500000 0.673483
O O10 0.036545 0.500000 0.745783
O O11 0.327615 0.896943 0.531983
#
# Coordination Sequence:
#
# PCOD8110395 Si02
#       6
#     8   8   4   4   4   8
#     4  11  24  43  68  97 133 178 216 273 333 403
#     4  10  22  38  66  98 135 167 227 273 331 393
#     4   9  18  35  62  96 127 177 213 272 327 399
#     4  12  23  43  66  98 132 173 224 277 320 404
#     4   9  18  34  66  93 131 170 221 266 332 391
#     4  10  21  42  65  99 131 176 219 275 332 398
#
# _framework density 24.090575000000001
#
# number of rings (size 3 to 8) (size 9 to 14) (size 15 to 20)
#    0.000    1.778    2.222    1.667    4.667    1.333 
#    6.000    1.111    0.000    0.000    0.000    0.000 
#    0.000    0.000    0.000    0.000    0.000    0.000 
#
# Total GULP energy -223039.515005 kJ/mol
# GULP energy per Si atom -12391.084167 kJ/mol
# Density = 2.403574 g / cm^3
# Si number density = 24.090575 Si / 1000 Ang^3
#
#
#
# Elastic Constant Matrix: (Units=GPa)
#
#
# Indices 1 2 3 4 5 6 
#
# 1 76.2459 59.7412 22.1140 0.0000 -27.6332 0.0000
# 2 59.7412 201.2526 56.9034 0.0000 -40.9838 0.0000
# 3 22.1140 56.9034 94.3872 0.0000 -38.6889 0.0000
# 4 0.0000 0.0000 0.0000 51.5676 0.0000 -42.1171
# 5 -27.6332 -40.9838 -38.6889 0.0000 38.1983 0.0000
# 6 0.0000 0.0000 0.0000 -42.1171 0.0000 67.6419
#
#
#
# Elastic Compliance Matrix: (Units=1/GPa)
#
#
# Indices 1 2 3 4 5 6 
#
# 1 0.020388 -0.004229 0.003349 0.000000 0.013604 0.000000
# 2 -0.004229 0.007414 -0.002517 0.000000 0.002346 0.000000
# 3 0.003349 -0.002517 0.019174 0.000000 0.019142 0.000000
# 4 0.000000 0.000000 0.000000 0.039458 0.000000 0.024568
# 5 0.013604 0.002346 0.019142 0.000000 0.057924 0.000000
# 6 0.000000 0.000000 0.000000 0.024568 0.000000 0.030081
#
#
# Mechanical properties :
#
#
# Convention : Reuss Voigt Hill
#
# Bulk Modulus (GPa) = 24.88755 72.15586 48.52170
# Shear Modulus (GPa) = 25.69025 47.02338 36.35682
#
# Velocity S-wave (km/s) = 3.26912 4.42287 3.88902
# Velocity P-wave (km/s) = 4.96012 7.48995 6.35225
#
# Compressibility (1/GPa) = 0.04018074
#
# Stress axis : x y z
#
# Youngs Moduli (GPa) = 49.04920 134.88886 52.15449
#
# Poissons Ratio (x) = 0.57039 -0.17465
# Poissons Ratio (y) = 0.20741 0.13129
# Poissons Ratio (z) = -0.16425 0.33955
#
# Static dielectric constant tensor:
#      x y z
#    x 4.254970 0.000000 -0.160130 
#    y 0.000000 4.466820 0.000000 
#    z -0.160130 0.000000 4.346740 
# 
# 
# High freq. dielectric constant tensor:
#      x y z
#    x 1.950070 0.000000 0.010040 
#    y 0.000000 1.967800 0.000000 
#    z 0.010040 0.000000 1.955530 
# 
# From -- ./inp_files/83322.got.cif
#   From: 2010.06.25/outbox.cif.g09.slc.cpg/sg12_42_cif.got.tgz:83322.got - 2010.06.28 00:19:55.
