data_PCOD8110006
_publ_section_title
;
Structure prediction by ZEFSAII (Michael W. Deem and Ramdas Pophale) SiO2 
 PCOD8110006
Probable space group: C 2/M
;
_chemical_formula_sum "Si O2"
_cell_formula_units_Z 64
_cell_length_a 14.180480
_cell_length_b 29.118987
_cell_length_c 11.077350
_cell_angle_alpha 90.000000
_cell_angle_beta 137.662979
_cell_angle_gamma 90.000000
_cell_volume 3080.593555
_symmetry_space_group_name_H-M "C 2/M"
_symmetry_group_IT_number 12
_symmetry_cell_setting 'monoclinic'
loop_
_space_group_symop_operation_xyz
x,y,z
-x,y,-z
-x,-y,-z
x,-y,z
1/2+x,1/2+y,z
1/2-x,1/2+y,-z
1/2-x,1/2-y,-z
1/2+x,1/2-y,z
loop_
_atom_site_type_symbol
_atom_site_label
_atom_site_fract_x
_atom_site_fract_y
_atom_site_fract_z
Si Si1 0.638724 0.196215 0.560466
Si Si2 0.644384 0.141663 0.190012
Si Si3 0.374622 0.052854 0.199628
Si Si4 0.832222 0.599311 0.531746
Si Si5 0.522004 0.215519 0.214609
Si Si6 0.854715 0.052518 0.812981
Si Si7 0.380892 0.303688 0.970910
Si Si8 0.217376 0.358456 0.005849
O O1 0.500000 0.204584 0.500000
O O2 0.656518 0.143661 0.541256
O O3 0.622551 0.227048 0.423675
O O4 0.762222 0.212657 0.765099
O O5 0.689522 0.111283 0.347271
O O6 0.619808 0.195425 0.200999
O O7 0.757170 0.143953 0.186497
O O8 0.500000 0.120355 0.000000
O O9 0.536769 0.065982 0.373832
O O10 0.279663 0.059694 0.228012
O O11 0.365229 0.000000 0.145525
O O12 0.313499 0.087924 0.043537
O O13 0.688174 0.574894 0.355326
O O14 0.434878 0.259272 0.092841
O O15 0.419231 0.172742 0.153789
O O16 0.886720 0.000000 0.816904
O O17 0.000000 0.074812 0.000000
O O18 0.500000 0.326273 0.000000
O O19 0.338741 0.340994 0.031451
#
# Coordination Sequence:
#
# PCOD8110006 Si02
#       8
#     8   8   8   8   8   8   8   8
#     4  11  21  37  61  90 123 164 207 256 320 369
#     4   9  18  37  63  91 123 167 204 254 329 373
#     4  11  21  36  63  96 125 159 214 269 313 369
#     4  11  19  36  64  91 117 160 212 264 314 374
#     4  10  21  40  66  89 124 171 209 259 319 383
#     4  10  22  37  56  87 129 167 203 260 321 370
#     4  12  25  39  65  96 123 165 217 265 308 380
#     4  11  20  39  62  91 130 167 203 258 325 377
#
# _framework density 20.775216
#
# number of rings (size 3 to 8) (size 9 to 14) (size 15 to 20)
#    0.000    1.375    5.000    3.750    0.000    3.500 
#    0.000    1.875    0.000    5.250    0.000    2.625 
#    0.000    0.000    0.000    0.000    0.000    0.000 
#
# Total GULP energy -396516.129473 kJ/mol
# GULP energy per Si atom -12391.129046 kJ/mol
# Density = 2.072793 g / cm^3
# Si number density = 20.775216 Si / 1000 Ang^3
#
#
#
# Elastic Constant Matrix: (Units=GPa)
#
#
# Indices 1 2 3 4 5 6 
#
# 1 122.1962 42.7053 68.5801 0.0000 -9.8227 0.0000
# 2 42.7053 111.5929 54.7692 0.0000 -8.1448 0.0000
# 3 68.5801 54.7692 144.6324 0.0000 -1.3723 0.0000
# 4 0.0000 0.0000 0.0000 26.9085 0.0000 -7.3161
# 5 -9.8227 -8.1448 -1.3723 0.0000 16.4740 0.0000
# 6 0.0000 0.0000 0.0000 -7.3161 0.0000 19.8363
#
#
#
# Elastic Compliance Matrix: (Units=1/GPa)
#
#
# Indices 1 2 3 4 5 6 
#
# 1 0.012080 -0.001727 -0.005018 0.000000 0.005931 0.000000
# 2 -0.001727 0.011699 -0.003569 0.000000 0.004457 0.000000
# 3 -0.005018 -0.003569 0.010608 0.000000 -0.003872 0.000000
# 4 0.000000 0.000000 0.000000 0.041305 0.000000 0.015234
# 5 0.005931 0.004457 -0.003872 0.000000 0.066119 0.000000
# 6 0.000000 0.000000 0.000000 0.015234 0.000000 0.056031
#
#
# Mechanical properties :
#
#
# Convention : Reuss Voigt Hill
#
# Bulk Modulus (GPa) = 72.67742 78.94785 75.81264
# Shear Modulus (GPa) = 22.41588 26.80155 24.60872
#
# Velocity S-wave (km/s) = 3.28833 3.59566 3.44542
# Velocity P-wave (km/s) = 7.03393 7.43786 7.23872
#
# Compressibility (1/GPa) = 0.01375943
#
# Stress axis : x y z
#
# Youngs Moduli (GPa) = 82.78154 85.47705 94.26922
#
# Poissons Ratio (x) = 0.14766 0.47300
# Poissons Ratio (y) = 0.14300 0.33643
# Poissons Ratio (z) = 0.41536 0.30505
#
# Static dielectric constant tensor:
#      x y z
#    x 3.962860 0.000000 -0.171120 
#    y 0.000000 3.728700 0.000000 
#    z -0.171120 0.000000 3.828890 
# 
# 
# High freq. dielectric constant tensor:
#      x y z
#    x 1.808250 0.000000 -0.014810 
#    y 0.000000 1.802420 0.000000 
#    z -0.014810 0.000000 1.807260 
# 
# From -- ./inp_files/150309.got.cif
#   From: 2010.06.25/outbox.cif.g09.slc.cpg/sg12_76_cif.got.tgz:150309.got - 2010.06.28 00:19:55.
