data_PCOD8110724
_publ_section_title
;
Structure prediction by ZEFSAII (Michael W. Deem and Ramdas Pophale) SiO2 
 PCOD8110724
Probable space group: C 2/M
;
_chemical_formula_sum "Si O2"
_cell_formula_units_Z 56
_cell_length_a 18.247691
_cell_length_b 13.856699
_cell_length_c 14.359386
_cell_angle_alpha 90.000000
_cell_angle_beta 130.550765
_cell_angle_gamma 90.000000
_cell_volume 2758.799562
_symmetry_space_group_name_H-M "C 2/M"
_symmetry_group_IT_number 12
_symmetry_cell_setting 'monoclinic'
loop_
_space_group_symop_operation_xyz
x,y,z
-x,y,-z
-x,-y,-z
x,-y,z
1/2+x,1/2+y,z
1/2-x,1/2+y,-z
1/2-x,1/2-y,-z
1/2+x,1/2-y,z
loop_
_atom_site_type_symbol
_atom_site_label
_atom_site_fract_x
_atom_site_fract_y
_atom_site_fract_z
Si Si1 0.316809 0.389617 0.730287
Si Si2 0.603102 0.770151 0.089540
Si Si3 0.429605 0.304746 0.285687
Si Si4 0.784798 0.888862 0.303376
Si Si5 0.821243 0.827089 0.019935
Si Si6 0.668490 0.105950 0.763691
Si Si7 0.364877 0.389210 0.563249
O O1 0.348946 0.500000 0.775223
O O2 0.398040 0.317283 0.836441
O O3 0.215816 0.367863 0.701464
O O4 0.307414 0.369667 0.611904
O O5 0.690533 0.841481 0.181452
O O6 0.500000 0.824910 0.000000
O O7 0.607793 0.725189 0.991764
O O8 0.383485 0.349375 0.340227
O O9 0.384208 0.363205 0.159768
O O10 0.406971 0.188926 0.268273
O O11 0.543915 0.318975 0.375813
O O12 0.789263 0.868674 0.417683
O O13 0.775763 0.000000 0.272440
O O14 0.750000 0.750000 0.000000
O O15 0.756566 0.905186 0.910998
O O16 0.617702 0.000000 0.717328
O O17 0.401507 0.500000 0.588596
#
# Coordination Sequence:
#
# PCOD8110724 Si02
#       7
#     8   8   8   8   8   8   8
#     4   9  18  37  60  86 116 148 188 239 291 336
#     4  11  21  37  58  85 117 147 187 236 289 349
#     4  11  19  37  58  86 117 153 192 240 287 340
#     4  11  23  39  57  81 115 154 196 240 286 338
#     4   9  17  34  54  81 115 149 187 229 277 338
#     4   9  18  33  58  88 118 152 189 235 293 347
#     4  10  22  37  60  88 113 147 199 246 284 337
#
# _framework density 20.298683
#
# number of rings (size 3 to 8) (size 9 to 14) (size 15 to 20)
#    0.000    2.000    4.286    1.714    0.000    3.429 
#    0.000    2.857    0.000    5.143    0.000    0.000 
#    0.000    0.000    0.000    0.000    0.000    0.000 
#
# Total GULP energy -346929.797999 kJ/mol
# GULP energy per Si atom -12390.349929 kJ/mol
# Density = 2.025248 g / cm^3
# Si number density = 20.298683 Si / 1000 Ang^3
#
#
#
# Elastic Constant Matrix: (Units=GPa)
#
#
# Indices 1 2 3 4 5 6 
#
# 1 52.8007 20.1059 17.8323 0.0000 -18.6194 0.0000
# 2 20.1059 80.8087 14.3648 0.0000 -2.1615 0.0000
# 3 17.8323 14.3648 52.4224 0.0000 -18.2707 0.0000
# 4 0.0000 0.0000 0.0000 13.9470 0.0000 -2.4271
# 5 -18.6194 -2.1615 -18.2707 0.0000 40.0244 0.0000
# 6 0.0000 0.0000 0.0000 -2.4271 0.0000 24.5820
#
#
#
# Elastic Compliance Matrix: (Units=1/GPa)
#
#
# Indices 1 2 3 4 5 6 
#
# 1 0.025833 -0.005484 -0.003805 0.000000 0.009985 0.000000
# 2 -0.005484 0.014214 -0.003153 0.000000 -0.003223 0.000000
# 3 -0.003805 -0.003153 0.024447 0.000000 0.009220 0.000000
# 4 0.000000 0.000000 0.000000 0.072954 0.000000 0.007203
# 5 0.009985 -0.003223 0.009220 0.000000 0.033664 0.000000
# 6 0.000000 0.000000 0.000000 0.007203 0.000000 0.041391
#
#
# Mechanical properties :
#
#
# Convention : Reuss Voigt Hill
#
# Bulk Modulus (GPa) = 25.24538 32.29308 28.76923
# Shear Modulus (GPa) = 19.95289 24.62595 22.28942
#
# Velocity S-wave (km/s) = 3.13863 3.48685 3.31731
# Velocity P-wave (km/s) = 5.05951 5.67048 5.37368
#
# Compressibility (1/GPa) = 0.03961120
#
# Stress axis : x y z
#
# Youngs Moduli (GPa) = 38.70957 70.35522 40.90432
#
# Poissons Ratio (x) = 0.38584 0.15564
# Poissons Ratio (y) = 0.21229 0.12895
# Poissons Ratio (z) = 0.14729 0.22180
#
# Static dielectric constant tensor:
#      x y z
#    x 3.692180 0.000000 -0.616820 
#    y 0.000000 3.792970 0.000000 
#    z -0.616820 0.000000 4.811460 
# 
# 
# High freq. dielectric constant tensor:
#      x y z
#    x 1.788940 0.000000 -0.027040 
#    y 0.000000 1.782530 0.000000 
#    z -0.027040 0.000000 1.783290 
# 
# From -- ./inp_files/225405.got.cif
#   From: 2010.06.25/outbox.cif.g09.slc.cpg/sg12_113_cif.got.tgz:225405.got - 2010.06.28 00:19:55.
