data_PCOD8110044
_publ_section_title
;
Structure prediction by ZEFSAII (Michael W. Deem and Ramdas Pophale) SiO2 
 PCOD8110044
Probable space group: C 2/M
;
_chemical_formula_sum "Si O2"
_cell_formula_units_Z 56
_cell_length_a 31.427516
_cell_length_b 8.780830
_cell_length_c 19.897002
_cell_angle_alpha 90.000000
_cell_angle_beta 150.063034
_cell_angle_gamma 90.000000
_cell_volume 2740.152067
_symmetry_space_group_name_H-M "C 2/M"
_symmetry_group_IT_number 12
_symmetry_cell_setting 'monoclinic'
loop_
_space_group_symop_operation_xyz
x,y,z
-x,y,-z
-x,-y,-z
x,-y,z
1/2+x,1/2+y,z
1/2-x,1/2+y,-z
1/2-x,1/2-y,-z
1/2+x,1/2-y,z
loop_
_atom_site_type_symbol
_atom_site_label
_atom_site_fract_x
_atom_site_fract_y
_atom_site_fract_z
Si Si1 0.991529 0.320959 0.673621
Si Si2 0.565246 0.323728 0.646680
Si Si3 0.412465 0.678828 0.073918
Si Si4 0.740001 0.676712 0.813105
Si Si5 0.294345 0.175655 0.624046
Si Si6 0.299438 0.179216 0.381841
Si Si7 0.509543 0.175701 0.089626
O O1 0.997188 0.500000 0.694809
O O2 0.895809 0.266475 0.526919
O O3 0.051894 0.277086 0.694300
O O4 0.019540 0.233422 0.778462
O O5 0.500000 0.268470 0.500000
O O6 0.548346 0.500000 0.641141
O O7 0.661015 0.294210 0.754084
O O8 0.397979 0.500000 0.059807
O O9 0.446602 0.720479 0.046857
O O10 0.323336 0.763886 0.965818
O O11 0.748801 0.500000 0.806673
O O12 0.729147 0.770593 0.730502
O O13 0.250000 0.250000 0.500000
O O14 0.263904 0.248780 0.651351
O O15 0.394843 0.200220 0.753838
O O16 0.269605 0.000000 0.591695
O O17 0.291914 0.000000 0.377443
O O18 0.481338 0.000000 0.058573
O O19 0.500000 0.229499 0.000000
#
# Coordination Sequence:
#
# PCOD8110044 Si02
#       7
#     8   8   8   8   8   8   8
#     4  11  24  41  64  92 128 169 207 254 312 369
#     4  10  21  40  66  96 125 159 207 256 306 368
#     4  12  26  42  63  92 127 165 210 259 308 368
#     4  11  23  41  66  92 125 163 202 253 310 369
#     4  11  23  38  60  89 122 161 204 255 311 367
#     4  11  23  39  62  93 125 160 207 257 306 368
#     4  10  22  42  65  88 119 161 208 255 309 369
#
# _framework density 20.436820999999998
#
# number of rings (size 3 to 8) (size 9 to 14) (size 15 to 20)
#    0.000    1.143    1.429    4.714    0.000    9.714 
#    0.000    0.000    0.000    0.000    0.000    0.000 
#    0.000    0.000    0.000    0.000    0.000    0.000 
#
# Total GULP energy -347433.189150 kJ/mol
# GULP energy per Si atom -12408.328184 kJ/mol
# Density = 2.039031 g / cm^3
# Si number density = 20.436821 Si / 1000 Ang^3
#
#
#
# Elastic Constant Matrix: (Units=GPa)
#
#
# Indices 1 2 3 4 5 6 
#
# 1 80.2115 26.9009 11.8521 0.0000 4.6730 0.0000
# 2 26.9009 74.9104 27.0550 0.0000 11.5793 0.0000
# 3 11.8521 27.0550 70.4520 0.0000 0.6669 0.0000
# 4 0.0000 0.0000 0.0000 34.4472 0.0000 -2.9443
# 5 4.6730 11.5793 0.6669 0.0000 34.7244 0.0000
# 6 0.0000 0.0000 0.0000 -2.9443 0.0000 40.3880
#
#
#
# Elastic Compliance Matrix: (Units=1/GPa)
#
#
# Indices 1 2 3 4 5 6 
#
# 1 0.014192 -0.004867 -0.000516 0.000000 -0.000277 0.000000
# 2 -0.004867 0.018109 -0.006086 0.000000 -0.005267 0.000000
# 3 -0.000516 -0.006086 0.016601 0.000000 0.001780 0.000000
# 4 0.000000 0.000000 0.000000 0.029212 0.000000 0.002130
# 5 -0.000277 -0.005267 0.001780 0.000000 0.030558 0.000000
# 6 0.000000 0.000000 0.000000 0.002130 0.000000 0.024915
#
#
# Mechanical properties :
#
#
# Convention : Reuss Voigt Hill
#
# Bulk Modulus (GPa) = 38.51390 39.68775 39.10082
# Shear Modulus (GPa) = 30.27025 32.56298 31.41662
#
# Velocity S-wave (km/s) = 3.85276 3.99601 3.92504
# Velocity P-wave (km/s) = 6.21916 6.38378 6.30201
#
# Compressibility (1/GPa) = 0.02596465
#
# Stress axis : x y z
#
# Youngs Moduli (GPa) = 70.46349 55.22055 60.23750
#
# Poissons Ratio (x) = 0.26878 0.03107
# Poissons Ratio (y) = 0.34297 0.36658
# Poissons Ratio (z) = 0.03634 0.33605
#
# Static dielectric constant tensor:
#      x y z
#    x 3.723930 0.000000 0.086610 
#    y 0.000000 3.711120 0.000000 
#    z 0.086610 0.000000 3.873620 
# 
# 
# High freq. dielectric constant tensor:
#      x y z
#    x 1.807150 0.000000 0.002740 
#    y 0.000000 1.802940 0.000000 
#    z 0.002740 0.000000 1.812690 
# 
# From -- ./inp_files/329660.got.cif
#   From: 2010.06.25/outbox.cif.g09.slc.cpg/sg12_165_cif.got.tgz:329660.got - 2010.06.28 00:19:55.
