data_PCOD8110081
_publ_section_title
;
Structure prediction by ZEFSAII (Michael W. Deem and Ramdas Pophale) SiO2 
 PCOD8110081
Probable space group: C 2/M
;
_chemical_formula_sum "Si O2"
_cell_formula_units_Z 48
_cell_length_a 9.287349
_cell_length_b 27.796944
_cell_length_c 9.217600
_cell_angle_alpha 90.000000
_cell_angle_beta 89.860090
_cell_angle_gamma 90.000000
_cell_volume 2379.607785
_symmetry_space_group_name_H-M "C 2/M"
_symmetry_group_IT_number 12
_symmetry_cell_setting 'monoclinic'
loop_
_space_group_symop_operation_xyz
x,y,z
-x,y,-z
-x,-y,-z
x,-y,z
1/2+x,1/2+y,z
1/2-x,1/2+y,-z
1/2-x,1/2-y,-z
1/2+x,1/2-y,z
loop_
_atom_site_type_symbol
_atom_site_label
_atom_site_fract_x
_atom_site_fract_y
_atom_site_fract_z
Si Si1 0.364386 0.056946 0.186633
Si Si2 0.328122 0.947686 0.502436
Si Si3 0.641252 0.117381 0.249356
Si Si4 0.026931 0.717349 0.333600
Si Si5 0.832841 0.876741 0.983319
Si Si6 0.742237 0.721903 0.151340
O O1 0.285182 0.067969 0.340297
O O2 0.516861 0.085115 0.173041
O O3 0.394360 0.000000 0.165149
O O4 0.250775 0.075796 0.069882
O O5 0.500000 0.949424 0.500000
O O6 0.272533 0.912137 0.627089
O O7 0.263638 0.000000 0.539436
O O8 0.575757 0.162403 0.333227
O O9 0.759383 0.136674 0.136468
O O10 0.143251 0.753532 0.270515
O O11 0.000000 0.732842 0.500000
O O12 0.896538 0.720842 0.223110
O O13 0.814341 0.832025 0.875128
O O14 0.000000 0.889385 0.000000
O O15 0.750000 0.750000 0.000000
#
# Coordination Sequence:
#
# PCOD8110081 Si02
#       6
#     8   8   8   8   8   8
#     4  10  21  40  67  97 127 162 213 271 322 385
#     4   8  16  34  62  95 124 155 201 265 327 375
#     4  11  21  38  68  95 125 164 216 267 321 385
#     4  12  25  43  69 101 130 166 221 275 325 382
#     4  12  26  42  59  91 130 176 218 260 322 388
#     4  12  25  45  67  93 132 176 215 266 325 393
#
# _framework density 20.171391
#
# number of rings (size 3 to 8) (size 9 to 14) (size 15 to 20)
#    0.000    1.167    3.333    5.500    0.000    2.333 
#    0.000    0.833    0.000    2.000    0.000    0.000 
#    0.000    0.000    0.000    0.000    0.000    0.000 
#
# Total GULP energy -297571.126067 kJ/mol
# GULP energy per Si atom -12398.796919 kJ/mol
# Density = 2.012548 g / cm^3
# Si number density = 20.171391 Si / 1000 Ang^3
#
#
#
# Elastic Constant Matrix: (Units=GPa)
#
#
# Indices 1 2 3 4 5 6 
#
# 1 48.9028 15.9894 5.8143 0.0000 -1.9128 0.0000
# 2 15.9894 93.9697 22.5206 0.0000 -14.1322 0.0000
# 3 5.8143 22.5206 89.1767 0.0000 -3.7072 0.0000
# 4 0.0000 0.0000 0.0000 40.4711 0.0000 -0.4492
# 5 -1.9128 -14.1322 -3.7072 0.0000 22.1499 0.0000
# 6 0.0000 0.0000 0.0000 -0.4492 0.0000 22.6482
#
#
#
# Elastic Compliance Matrix: (Units=1/GPa)
#
#
# Indices 1 2 3 4 5 6 
#
# 1 0.021681 -0.003647 -0.000515 0.000000 -0.000541 0.000000
# 2 -0.003647 0.013057 -0.002745 0.000000 0.007556 0.000000
# 3 -0.000515 -0.002745 0.011949 0.000000 0.000204 0.000000
# 4 0.000000 0.000000 0.000000 0.024714 0.000000 0.000490
# 5 -0.000541 0.007556 0.000204 0.000000 0.049955 0.000000
# 6 0.000000 0.000000 0.000000 0.000490 0.000000 0.044163
#
#
# Mechanical properties :
#
#
# Convention : Reuss Voigt Hill
#
# Bulk Modulus (GPa) = 30.42112 35.63308 33.02710
# Shear Modulus (GPa) = 26.27536 29.56883 27.92209
#
# Velocity S-wave (km/s) = 3.61308 3.83283 3.72458
# Velocity P-wave (km/s) = 5.70262 6.10664 5.90808
#
# Compressibility (1/GPa) = 0.03287189
#
# Stress axis : x y z
#
# Youngs Moduli (GPa) = 46.12273 76.58954 83.68849
#
# Poissons Ratio (x) = 0.27933 0.04310
# Poissons Ratio (y) = 0.16821 0.22976
# Poissons Ratio (z) = 0.02376 0.21027
#
# Static dielectric constant tensor:
#      x y z
#    x 3.269560 0.000000 0.033870 
#    y 0.000000 3.780920 0.000000 
#    z 0.033870 0.000000 4.031150 
# 
# 
# High freq. dielectric constant tensor:
#      x y z
#    x 1.752330 0.000000 0.001110 
#    y 0.000000 1.799780 0.000000 
#    z 0.001110 0.000000 1.804830 
# 
# From -- ./inp_files/42164.got.cif
#   From: 2010.06.25/outbox.cif.g09.slc.cpg/sg12_22_cif.got.tgz:42164.got - 2010.06.28 00:19:55.
