data_PCOD8110292
_publ_section_title
;
Structure prediction by ZEFSAII (Michael W. Deem and Ramdas Pophale) SiO2 
 PCOD8110292
Probable space group: C 2/M
;
_chemical_formula_sum "Si O2"
_cell_formula_units_Z 48
_cell_length_a 9.894629
_cell_length_b 14.785269
_cell_length_c 17.824738
_cell_angle_alpha 90.000000
_cell_angle_beta 74.514938
_cell_angle_gamma 90.000000
_cell_volume 2513.007598
_symmetry_space_group_name_H-M "C 2/M"
_symmetry_group_IT_number 12
_symmetry_cell_setting 'monoclinic'
loop_
_space_group_symop_operation_xyz
x,y,z
-x,y,-z
-x,-y,-z
x,-y,z
1/2+x,1/2+y,z
1/2-x,1/2+y,-z
1/2-x,1/2-y,-z
1/2+x,1/2-y,z
loop_
_atom_site_type_symbol
_atom_site_label
_atom_site_fract_x
_atom_site_fract_y
_atom_site_fract_z
Si Si1 0.366805 0.840363 0.345499
Si Si2 0.644163 0.604036 0.167438
Si Si3 0.901600 0.754893 0.944240
Si Si4 0.428980 0.500000 0.431124
Si Si5 0.456791 0.102279 0.168238
Si Si6 0.942253 0.173182 0.663230
Si Si7 0.371083 0.000000 0.462970
O O1 0.433937 0.879089 0.259474
O O2 0.206267 0.810108 0.355703
O O3 0.457842 0.758304 0.363732
O O4 0.370745 0.913557 0.409917
O O5 0.596347 0.500000 0.175623
O O6 0.581794 0.651278 0.103044
O O7 0.811999 0.612946 0.144435
O O8 0.578677 0.657815 0.246018
O O9 0.930727 0.670240 0.884565
O O10 0.750000 0.750000 0.000000
O O11 0.000000 0.755895 0.000000
O O12 0.500000 0.500000 0.500000
O O13 0.478521 0.587259 0.379889
O O14 0.262489 0.500000 0.462927
O O15 0.514048 0.000000 0.150880
O O16 0.500000 0.000000 0.500000
#
# Coordination Sequence:
#
# PCOD8110292 Si02
#       7
#     8   8   8   4   8   8   4
#     4  11  23  43  69  98 128 173 220 265 323 393
#     4  10  21  41  67  94 126 175 220 257 322 392
#     4  12  24  40  63  99 134 162 211 277 328 371
#     4  12  24  46  66  98 134 166 213 274 331 377
#     4  10  21  41  70  92 125 174 222 259 314 399
#     4  11  23  41  71  96 128 174 222 264 322 395
#     4  12  28  46  66 100 140 167 213 280 330 379
#
# _framework density 19.100618999999998
#
# number of rings (size 3 to 8) (size 9 to 14) (size 15 to 20)
#    0.000    1.000    6.667    0.000    2.333    2.667 
#    0.000    0.000    0.000    0.000    0.000    0.000 
#    0.000    0.000    0.000    0.000    0.000    0.000 
#
# Total GULP energy -297651.831982 kJ/mol
# GULP energy per Si atom -12402.159666 kJ/mol
# Density = 1.905715 g / cm^3
# Si number density = 19.100619 Si / 1000 Ang^3
#
#
#
# Elastic Constant Matrix: (Units=GPa)
#
#
# Indices 1 2 3 4 5 6 
#
# 1 124.9071 57.6465 62.7048 0.0000 -7.7162 0.0000
# 2 57.6465 139.6199 39.8333 0.0000 -6.2480 0.0000
# 3 62.7048 39.8333 89.1488 0.0000 -1.1087 0.0000
# 4 0.0000 0.0000 0.0000 48.3425 0.0000 -1.9241
# 5 -7.7162 -6.2480 -1.1087 0.0000 35.4566 0.0000
# 6 0.0000 0.0000 0.0000 -1.9241 0.0000 32.2829
#
#
#
# Elastic Compliance Matrix: (Units=1/GPa)
#
#
# Indices 1 2 3 4 5 6 
#
# 1 0.013751 -0.003242 -0.008196 0.000000 0.002165 0.000000
# 2 -0.003242 0.009037 -0.001747 0.000000 0.000832 0.000000
# 3 -0.008196 -0.001747 0.017744 0.000000 -0.001537 0.000000
# 4 0.000000 0.000000 0.000000 0.020735 0.000000 0.001236
# 5 0.002165 0.000832 -0.001537 0.000000 0.028773 0.000000
# 6 0.000000 0.000000 0.000000 0.001236 0.000000 0.031050
#
#
# Mechanical properties :
#
#
# Convention : Reuss Voigt Hill
#
# Bulk Modulus (GPa) = 70.62027 74.89390 72.75708
# Shear Modulus (GPa) = 32.85598 36.11581 34.48590
#
# Velocity S-wave (km/s) = 4.15197 4.35307 4.25371
# Velocity P-wave (km/s) = 7.74843 8.03498 7.89301
#
# Compressibility (1/GPa) = 0.01416024
#
# Stress axis : x y z
#
# Youngs Moduli (GPa) = 72.72426 110.66177 56.35821
#
# Poissons Ratio (x) = 0.35878 0.46192
# Poissons Ratio (y) = 0.23578 0.09845
# Poissons Ratio (z) = 0.59606 0.19332
#
# Static dielectric constant tensor:
#      x y z
#    x 3.439910 0.000000 -0.007300 
#    y 0.000000 2.590460 0.000000 
#    z -0.007300 0.000000 3.528300 
# 
# 
# High freq. dielectric constant tensor:
#      x y z
#    x 1.736640 0.000000 -0.002290 
#    y 0.000000 1.753980 0.000000 
#    z -0.002290 0.000000 1.757880 
# 
# From -- ./inp_files/262122.got.cif
#   From: 2010.06.25/outbox.cif.g09.slc.cpg/sg12_132_cif.got.tgz:262122.got - 2010.06.28 00:19:55.
