data_PCOD8110476
_publ_section_title
;
Structure prediction by ZEFSAII (Michael W. Deem and Ramdas Pophale) SiO2 
 PCOD8110476
Probable space group: C 2/M
;
_chemical_formula_sum "Si O2"
_cell_formula_units_Z 48
_cell_length_a 15.788633
_cell_length_b 25.226573
_cell_length_c 10.832205
_cell_angle_alpha 90.000000
_cell_angle_beta 143.939318
_cell_angle_gamma 90.000000
_cell_volume 2539.631588
_symmetry_space_group_name_H-M "C 2/M"
_symmetry_group_IT_number 12
_symmetry_cell_setting 'monoclinic'
loop_
_space_group_symop_operation_xyz
x,y,z
-x,y,-z
-x,-y,-z
x,-y,z
1/2+x,1/2+y,z
1/2-x,1/2+y,-z
1/2-x,1/2-y,-z
1/2+x,1/2-y,z
loop_
_atom_site_type_symbol
_atom_site_label
_atom_site_fract_x
_atom_site_fract_y
_atom_site_fract_z
Si Si1 0.159899 0.635972 0.158635
Si Si2 0.344020 0.825275 0.346600
Si Si3 0.084221 0.146831 0.861020
Si Si4 0.719361 0.686815 0.455019
Si Si5 0.364302 0.559169 0.253403
Si Si6 0.705993 0.279609 0.825893
O O1 0.241412 0.652970 0.378905
O O2 0.236360 0.588702 0.175553
O O3 0.157516 0.688891 0.070350
O O4 0.000000 0.617178 0.000000
O O5 0.500000 0.850807 0.500000
O O6 0.308967 0.837497 0.446987
O O7 0.355940 0.761287 0.346910
O O8 0.222750 0.846675 0.111565
O O9 0.086560 0.085794 0.819448
O O10 0.089010 0.177642 0.733783
O O11 0.946649 0.171058 0.769589
O O12 0.750000 0.750000 0.500000
O O13 0.500000 0.556567 0.500000
O O14 0.309795 0.500000 0.157395
O O15 0.750000 0.250000 0.000000
#
# Coordination Sequence:
#
# PCOD8110476 Si02
#       6
#     8   8   8   8   8   8
#     4  11  24  36  56  90 122 152 198 246 297 355
#     4  11  23  35  55  82 120 166 200 235 293 355
#     4  10  22  39  57  85 118 154 205 248 294 355
#     4  12  23  34  56  85 127 166 199 233 286 357
#     4  10  21  43  69  88 112 149 198 260 310 351
#     4   9  20  33  52  77 121 159 197 228 284 349
#
# _framework density 18.900379000000001
#
# number of rings (size 3 to 8) (size 9 to 14) (size 15 to 20)
#    0.000    1.500    3.333    1.500   11.667    0.333 
#    0.000    0.000    0.000    3.500    0.000    0.000 
#    0.000    0.000    0.000    0.000    0.000    0.000 
#
# Total GULP energy -297381.521112 kJ/mol
# GULP energy per Si atom -12390.896713 kJ/mol
# Density = 1.885736 g / cm^3
# Si number density = 18.900379 Si / 1000 Ang^3
#
#
#
# Elastic Constant Matrix: (Units=GPa)
#
#
# Indices 1 2 3 4 5 6 
#
# 1 124.4441 45.9059 37.4019 0.0000 14.9013 0.0000
# 2 45.9059 106.0750 37.6118 0.0000 1.1372 0.0000
# 3 37.4019 37.6118 98.2095 0.0000 20.5721 0.0000
# 4 0.0000 0.0000 0.0000 16.6364 0.0000 0.3263
# 5 14.9013 1.1372 20.5721 0.0000 36.4785 0.0000
# 6 0.0000 0.0000 0.0000 0.3263 0.0000 26.1076
#
#
#
# Elastic Compliance Matrix: (Units=1/GPa)
#
#
# Indices 1 2 3 4 5 6 
#
# 1 0.010359 -0.003795 -0.001849 0.000000 -0.003071 0.000000
# 2 -0.003795 0.012469 -0.004052 0.000000 0.003447 0.000000
# 3 -0.001849 -0.004052 0.013895 0.000000 -0.006955 0.000000
# 4 0.000000 0.000000 0.000000 0.060124 0.000000 -0.000751
# 5 -0.003071 0.003447 -0.006955 0.000000 0.032482 0.000000
# 6 0.000000 0.000000 0.000000 -0.000751 0.000000 0.038312
#
#
# Mechanical properties :
#
#
# Convention : Reuss Voigt Hill
#
# Bulk Modulus (GPa) = 57.69566 63.39640 60.54603
# Shear Modulus (GPa) = 25.93224 29.69844 27.81534
#
# Velocity S-wave (km/s) = 3.70814 3.96828 3.84041
# Velocity P-wave (km/s) = 6.99472 7.38996 7.19506
#
# Compressibility (1/GPa) = 0.01733232
#
# Stress axis : x y z
#
# Youngs Moduli (GPa) = 96.53634 80.19651 71.96797
#
# Poissons Ratio (x) = 0.30431 0.13304
# Poissons Ratio (y) = 0.36631 0.29164
# Poissons Ratio (z) = 0.17845 0.32498
#
# Static dielectric constant tensor:
#      x y z
#    x 3.835090 0.000000 0.115900 
#    y 0.000000 3.977760 0.000000 
#    z 0.115900 0.000000 3.294890 
# 
# 
# High freq. dielectric constant tensor:
#      x y z
#    x 1.749660 0.000000 0.002560 
#    y 0.000000 1.700020 0.000000 
#    z 0.002560 0.000000 1.728850 
# 
# From -- ./inp_files/149882.got.cif
#   From: 2010.06.25/outbox.cif.g09.slc.cpg/sg12_75_cif.got.tgz:149882.got - 2010.06.28 00:19:55.
