data_PCOD8110367
_publ_section_title
;
Structure prediction by ZEFSAII (Michael W. Deem and Ramdas Pophale) SiO2 
 PCOD8110367
Probable space group: C 2/M
;
_chemical_formula_sum "Si O2"
_cell_formula_units_Z 56
_cell_length_a 9.125325
_cell_length_b 27.907448
_cell_length_c 19.470969
_cell_angle_alpha 90.000000
_cell_angle_beta 37.196653
_cell_angle_gamma 90.000000
_cell_volume 2997.713418
_symmetry_space_group_name_H-M "C 2/M"
_symmetry_group_IT_number 12
_symmetry_cell_setting 'monoclinic'
loop_
_space_group_symop_operation_xyz
x,y,z
-x,y,-z
-x,-y,-z
x,-y,z
1/2+x,1/2+y,z
1/2-x,1/2+y,-z
1/2-x,1/2-y,-z
1/2+x,1/2-y,z
loop_
_atom_site_type_symbol
_atom_site_label
_atom_site_fract_x
_atom_site_fract_y
_atom_site_fract_z
Si Si1 0.001626 0.854522 0.690577
Si Si2 0.464259 0.686881 0.934187
Si Si3 0.618099 0.946227 0.623854
Si Si4 0.917746 0.054457 0.643501
Si Si5 0.695338 0.698919 0.488188
Si Si6 0.675943 0.141679 0.299519
Si Si7 0.047347 0.707464 0.904144
O O1 0.907750 0.908854 0.711943
O O2 0.792607 0.820493 0.797925
O O3 0.085770 0.835814 0.585771
O O4 0.224980 0.852185 0.660061
O O5 0.611484 0.649086 0.834526
O O6 0.543495 0.738985 0.873141
O O7 0.500000 0.678441 0.000000
O O8 0.178515 0.676083 0.035849
O O9 0.712986 0.931796 0.664167
O O10 0.398610 0.913060 0.682805
O O11 0.826143 0.941292 0.489691
O O12 0.517451 0.000000 0.662990
O O13 0.879509 0.000000 0.684907
O O14 0.500000 0.703526 0.500000
O O15 0.750000 0.750000 0.500000
O O16 0.949224 0.676644 0.367609
O O17 0.000000 0.718677 0.000000
#
# Coordination Sequence:
#
# PCOD8110367 Si02
#       7
#     8   8   8   8   8   8   8
#     4  12  23  37  62  88 124 156 192 247 298 363
#     4  10  23  38  63  85 113 159 209 247 282 346
#     4   9  19  37  60  85 118 153 199 247 292 356
#     4   9  19  37  60  86 115 156 199 242 298 357
#     4  12  26  40  57  85 123 161 194 239 300 356
#     4  12  23  38  59  92 123 152 197 244 302 357
#     4  10  21  42  59  83 117 157 203 247 290 338
#
# _framework density 18.680904999999999
#
# number of rings (size 3 to 8) (size 9 to 14) (size 15 to 20)
#    0.000    1.429    2.857    3.857    4.000    0.571 
#    0.000    1.429    0.000    1.714    0.000    0.000 
#    0.000    0.000    0.000    0.000    0.000    0.000 
#
# Total GULP energy -347130.584829 kJ/mol
# GULP energy per Si atom -12397.520887 kJ/mol
# Density = 1.863839 g / cm^3
# Si number density = 18.680905 Si / 1000 Ang^3
#
#
#
# Elastic Constant Matrix: (Units=GPa)
#
#
# Indices 1 2 3 4 5 6 
#
# 1 137.8737 41.7412 26.6132 0.0000 -8.7920 0.0000
# 2 41.7412 93.7964 18.3688 0.0000 -4.4780 0.0000
# 3 26.6132 18.3688 48.7388 -0.0005 -0.4967 0.0002
# 4 0.0000 0.0000 -0.0005 26.9050 0.0002 -2.8921
# 5 -8.7920 -4.4780 -0.4967 0.0002 26.8341 -0.0001
# 6 0.0000 0.0000 0.0002 -2.8921 -0.0001 36.3588
#
#
#
# Elastic Compliance Matrix: (Units=1/GPa)
#
#
# Indices 1 2 3 4 5 6 
#
# 1 0.009095 -0.003203 -0.003735 0.000000 0.002376 0.000000
# 2 -0.003203 0.012730 -0.003039 0.000000 0.001019 0.000000
# 3 -0.003735 -0.003039 0.023689 0.000000 -0.001292 0.000000
# 4 0.000000 0.000000 0.000000 0.037488 0.000000 0.002982
# 5 0.002376 0.001019 -0.001292 0.000000 0.038191 0.000000
# 6 0.000000 0.000000 0.000000 0.002982 0.000000 0.027741
#
#
# Mechanical properties :
#
#
# Convention : Reuss Voigt Hill
#
# Bulk Modulus (GPa) = 39.12088 50.42838 44.77463
# Shear Modulus (GPa) = 28.18367 30.93197 29.55782
#
# Velocity S-wave (km/s) = 3.88840 4.07357 3.98206
# Velocity P-wave (km/s) = 6.41456 7.01274 6.72031
#
# Compressibility (1/GPa) = 0.02556179
#
# Stress axis : x y z
#
# Youngs Moduli (GPa) = 109.94933 78.55256 42.21358
#
# Poissons Ratio (x) = 0.25157 0.15767
# Poissons Ratio (y) = 0.35212 0.12827
# Poissons Ratio (z) = 0.41067 0.23870
#
# Static dielectric constant tensor:
#      x y z
#    x 3.583500 0.000000 -0.099260 
#    y 0.000000 3.690360 0.000000 
#    z -0.099260 0.000000 3.315950 
# 
# 
# High freq. dielectric constant tensor:
#      x y z
#    x 1.739070 0.000000 -0.002570 
#    y 0.000000 1.724280 0.000000 
#    z -0.002570 0.000000 1.702140 
# 
# From -- ./inp_files/124273.got.cif
#   From: 2010.06.25/outbox.cif.g09.slc.cpg/sg12_63_cif.got.tgz:124273.got - 2010.06.28 00:19:55.
