data_PCOD8110647
_publ_section_title
;
Structure prediction by ZEFSAII (Michael W. Deem and Ramdas Pophale) SiO2 
 PCOD8110647
Probable space group: C 2/M
;
_chemical_formula_sum "Si O2"
_cell_formula_units_Z 48
_cell_length_a 30.055387
_cell_length_b 15.128208
_cell_length_c 15.038724
_cell_angle_alpha 90.000000
_cell_angle_beta 160.922543
_cell_angle_gamma 90.000000
_cell_volume 2234.930829
_symmetry_space_group_name_H-M "C 2/M"
_symmetry_group_IT_number 12
_symmetry_cell_setting 'monoclinic'
loop_
_space_group_symop_operation_xyz
x,y,z
-x,y,-z
-x,-y,-z
x,-y,z
1/2+x,1/2+y,z
1/2-x,1/2+y,-z
1/2-x,1/2-y,-z
1/2+x,1/2-y,z
loop_
_atom_site_type_symbol
_atom_site_label
_atom_site_fract_x
_atom_site_fract_y
_atom_site_fract_z
Si Si1 0.217960 0.847435 0.632189
Si Si2 0.304936 0.858742 0.425313
Si Si3 0.928796 0.097764 0.140765
Si Si4 0.934700 0.599357 0.185441
Si Si5 0.605719 0.740812 0.772506
Si Si6 0.158098 0.664814 0.313014
O O1 0.172851 0.746162 0.537705
O O2 0.284647 0.884873 0.666608
O O3 0.085667 0.902046 0.408573
O O4 0.328048 0.857149 0.917067
O O5 0.416787 0.906609 0.576902
O O6 0.323732 0.892714 0.562759
O O7 0.156578 0.884794 0.110098
O O8 0.889299 0.169962 0.139182
O O9 0.896552 0.000000 0.117841
O O10 0.890526 0.500000 0.129667
O O11 0.940885 0.662443 0.282730
O O12 0.500000 0.705561 0.500000
O O13 0.750000 0.750000 0.000000
O O14 0.250000 0.750000 0.500000
O O15 0.000000 0.690365 0.000000
#
# Coordination Sequence:
#
# PCOD8110647 Si02
#       6
#     8   8   8   8   8   8
#     4  11  21  42  68  97 140 182 225 276 329 391
#     4  11  21  42  68  97 140 180 223 279 327 387
#     4  12  26  45  70 102 135 177 226 276 338 409
#     4  12  24  43  70 100 131 175 222 274 337 405
#     4  12  26  46  72  97 132 171 216 284 348 403
#     4  10  22  36  65 104 136 183 236 273 321 386
#
# _framework density 21.477174999999999
#
# number of rings (size 3 to 8) (size 9 to 14) (size 15 to 20)
#    0.000    0.667    5.000    3.000    7.000    1.333 
#    0.000    5.000    0.000    0.000    0.000    0.000 
#    0.000    0.000    0.000    0.000    0.000    0.000 
#
# Total GULP energy -297633.186734 kJ/mol
# GULP energy per Si atom -12401.382781 kJ/mol
# Density = 2.142829 g / cm^3
# Si number density = 21.477175 Si / 1000 Ang^3
#
#
#
# Elastic Constant Matrix: (Units=GPa)
#
#
# Indices 1 2 3 4 5 6 
#
# 1 122.8168 35.4338 46.9356 0.0000 10.8897 0.0000
# 2 35.4338 111.9948 -0.2909 0.0000 -4.3436 0.0000
# 3 46.9356 -0.2909 128.3164 0.0000 -3.1705 0.0000
# 4 0.0000 0.0000 0.0000 18.9627 0.0000 7.0372
# 5 10.8897 -4.3436 -3.1705 0.0000 42.3993 0.0000
# 6 0.0000 0.0000 0.0000 7.0372 0.0000 2.2538
#
#
#
# Elastic Compliance Matrix: (Units=1/GPa)
#
#
# Indices 1 2 3 4 5 6 
#
# 1 0.011100 -0.003660 -0.004156 0.000000 -0.003537 0.000000
# 2 -0.003660 0.010172 0.001413 0.000000 0.002088 0.000000
# 3 -0.004156 0.001413 0.009364 0.000000 0.001912 0.000000
# 4 0.000000 0.000000 0.000000 -0.332195 0.000000 1.037247
# 5 -0.003537 0.002088 0.001912 0.000000 0.024850 0.000000
# 6 0.000000 0.000000 0.000000 1.037247 0.000000 -2.795004
#
#
# Mechanical properties :
#
#
# Convention : Reuss Voigt Hill
#
# Bulk Modulus (GPa) = 56.08317 58.58721 57.33519
# Shear Modulus (GPa) = -1.63775 31.45979 14.91102
#
# Velocity S-wave (km/s) = -0.87419 3.83142 2.63776
# Velocity P-wave (km/s) = 5.01504 6.84917 6.00257
#
# Compressibility (1/GPa) = 0.01783066
#
# Stress axis : x y z
#
# Youngs Moduli (GPa) = 90.09143 98.31349 106.79428
#
# Poissons Ratio (x) = 0.35981 0.44381
# Poissons Ratio (y) = 0.32972 -0.15094
# Poissons Ratio (z) = 0.37440 -0.13895
#
# Static dielectric constant tensor:
#      x y z
#    x 4.342200 0.000000 -0.071670 
#    y 0.000000 3.789570 0.000000 
#    z -0.071670 0.000000 3.945790 
# 
# 
# High freq. dielectric constant tensor:
#      x y z
#    x 1.846620 0.000000 -0.001330 
#    y 0.000000 1.828710 0.000000 
#    z -0.001330 0.000000 1.861670 
# 
# From -- ./inp_files/251488.got.cif
#   From: 2010.06.25/outbox.cif.g09.slc.cpg/sg12_126_cif.got.tgz:251488.got - 2010.06.28 00:19:55.
