data_PCOD8110505
_publ_section_title
;
Structure prediction by ZEFSAII (Michael W. Deem and Ramdas Pophale) SiO2 
 PCOD8110505
Probable space group: C 2/M
;
_chemical_formula_sum "Si O2"
_cell_formula_units_Z 48
_cell_length_a 13.267328
_cell_length_b 22.321454
_cell_length_c 9.277594
_cell_angle_alpha 90.000000
_cell_angle_beta 56.779030
_cell_angle_gamma 90.000000
_cell_volume 2298.478283
_symmetry_space_group_name_H-M "C 2/M"
_symmetry_group_IT_number 12
_symmetry_cell_setting 'monoclinic'
loop_
_space_group_symop_operation_xyz
x,y,z
-x,y,-z
-x,-y,-z
x,-y,z
1/2+x,1/2+y,z
1/2-x,1/2+y,-z
1/2-x,1/2-y,-z
1/2+x,1/2-y,z
loop_
_atom_site_type_symbol
_atom_site_label
_atom_site_fract_x
_atom_site_fract_y
_atom_site_fract_z
Si Si1 0.478728 0.735770 0.855335
Si Si2 0.813967 0.140584 0.323325
Si Si3 0.988853 0.930501 0.348650
Si Si4 0.691294 0.368677 0.008873
Si Si5 0.431250 0.069060 0.904955
Si Si6 0.947687 0.345700 0.385685
O O1 0.586098 0.691036 0.733636
O O2 0.481673 0.792013 0.747972
O O3 0.500000 0.759785 0.000000
O O4 0.350356 0.700890 0.936621
O O5 0.796354 0.119707 0.172060
O O6 0.694063 0.166004 0.491397
O O7 0.858587 0.083989 0.382161
O O8 0.000000 0.900538 0.500000
O O9 0.004225 0.000000 0.355898
O O10 0.090001 0.910022 0.157161
O O11 0.816113 0.386086 0.989276
O O12 0.526877 0.091030 0.711504
O O13 0.393023 0.000000 0.906137
O O14 0.500000 0.075904 0.000000
O O15 0.000000 0.351570 0.500000
#
# Coordination Sequence:
#
# PCOD8110505 Si02
#       6
#     8   8   8   8   8   8
#     4   9  21  42  68  94 125 165 211 269 322 379
#     4  10  22  42  63  93 133 165 211 264 320 387
#     4  10  22  38  63  96 125 164 219 274 320 369
#     4  10  21  44  67  93 126 167 216 266 319 381
#     4  11  26  45  65  91 130 177 219 263 317 382
#     4  12  24  43  63  98 131 171 213 260 321 388
#
# _framework density 20.883381
#
# number of rings (size 3 to 8) (size 9 to 14) (size 15 to 20)
#    0.000    1.667    1.667    3.000    2.333    6.333 
#    3.000    0.000    0.000    0.000    0.000    0.000 
#    0.000    0.000    0.000    0.000    0.000    0.000 
#
# Total GULP energy -297523.804126 kJ/mol
# GULP energy per Si atom -12396.825172 kJ/mol
# Density = 2.083585 g / cm^3
# Si number density = 20.883381 Si / 1000 Ang^3
#
#
#
# Elastic Constant Matrix: (Units=GPa)
#
#
# Indices 1 2 3 4 5 6 
#
# 1 108.1343 43.1992 52.0973 0.0000 5.0942 0.0000
# 2 43.1992 83.2404 66.5087 0.0000 14.4219 0.0000
# 3 52.0973 66.5087 124.6542 0.0000 6.6688 0.0000
# 4 0.0000 0.0000 0.0000 43.9019 0.0000 15.7001
# 5 5.0942 14.4219 6.6688 0.0000 35.9718 0.0000
# 6 0.0000 0.0000 0.0000 15.7001 0.0000 42.6927
#
#
#
# Elastic Compliance Matrix: (Units=1/GPa)
#
#
# Indices 1 2 3 4 5 6 
#
# 1 0.012293 -0.004066 -0.002992 0.000000 0.000444 0.000000
# 2 -0.004066 0.023846 -0.010649 0.000000 -0.007011 0.000000
# 3 -0.002992 -0.010649 0.014850 0.000000 0.001940 0.000000
# 4 0.000000 0.000000 0.000000 0.026227 0.000000 -0.009645
# 5 0.000444 -0.007011 0.001940 0.000000 0.030188 0.000000
# 6 0.000000 0.000000 0.000000 -0.009645 0.000000 0.026970
#
#
# Mechanical properties :
#
#
# Convention : Reuss Voigt Hill
#
# Bulk Modulus (GPa) = 64.20022 71.07103 67.63562
# Shear Modulus (GPa) = 28.57467 34.79487 31.68477
#
# Velocity S-wave (km/s) = 3.70306 4.08628 3.89938
# Velocity P-wave (km/s) = 7.00661 7.50798 7.26162
#
# Compressibility (1/GPa) = 0.01557627
#
# Stress axis : x y z
#
# Youngs Moduli (GPa) = 81.34974 41.93489 67.33788
#
# Poissons Ratio (x) = 0.17050 0.20147
# Poissons Ratio (y) = 0.33076 0.71707
# Poissons Ratio (z) = 0.24339 0.44656
#
# Static dielectric constant tensor:
#      x y z
#    x 4.178990 0.000000 -0.291170 
#    y 0.000000 3.780150 0.000000 
#    z -0.291170 0.000000 4.446620 
# 
# 
# High freq. dielectric constant tensor:
#      x y z
#    x 1.823870 0.000000 0.000080 
#    y 0.000000 1.809940 0.000000 
#    z 0.000080 0.000000 1.830490 
# 
# From -- ./inp_files/51320.got.cif
#   From: 2010.06.25/outbox.cif.g09.slc.cpg/sg12_26_cif.got.tgz:51320.got - 2010.06.28 00:19:55.
