data_PCOD8110362
_publ_section_title
;
Structure prediction by ZEFSAII (Michael W. Deem and Ramdas Pophale) SiO2 
 PCOD8110362
Probable space group: C 2/M
;
_chemical_formula_sum "Si O2"
_cell_formula_units_Z 40
_cell_length_a 13.785898
_cell_length_b 21.950522
_cell_length_c 10.865592
_cell_angle_alpha 90.000000
_cell_angle_beta 32.713210
_cell_angle_gamma 90.000000
_cell_volume 1776.954183
_symmetry_space_group_name_H-M "C 2/M"
_symmetry_group_IT_number 12
_symmetry_cell_setting 'monoclinic'
loop_
_space_group_symop_operation_xyz
x,y,z
-x,y,-z
-x,-y,-z
x,-y,z
1/2+x,1/2+y,z
1/2-x,1/2+y,-z
1/2-x,1/2-y,-z
1/2+x,1/2-y,z
loop_
_atom_site_type_symbol
_atom_site_label
_atom_site_fract_x
_atom_site_fract_y
_atom_site_fract_z
Si Si1 0.206550 0.158356 0.279527
Si Si2 0.375288 0.067524 0.902942
Si Si3 0.700298 0.202671 0.309130
Si Si4 0.726813 0.864635 0.519250
Si Si5 0.419274 0.402777 0.963011
O O1 0.223893 0.229633 0.229875
O O2 0.303542 0.152670 0.307207
O O3 0.000000 0.137922 0.500000
O O4 0.307390 0.117068 0.073156
O O5 0.569433 0.088906 0.646860
O O6 0.391492 0.000000 0.945540
O O7 0.240674 0.060550 0.930820
O O8 0.500000 0.178942 0.500000
O O9 0.730956 0.194050 0.423665
O O10 0.843712 0.163425 0.080989
O O11 0.919413 0.897538 0.306404
O O12 0.500000 0.435218 0.000000
#
# Coordination Sequence:
#
# PCOD8110362 Si02
#       5
#     8   8   8   8   8
#     4  11  24  42  68 104 134 181 219 275 338 399
#     4  12  27  46  68  97 136 183 229 273 325 398
#     4  10  21  41  72 102 138 167 218 279 342 405
#     4  11  23  43  68 100 135 177 223 273 339 396
#     4  10  23  44  69 102 133 174 221 281 341 393
#
# _framework density 22.510428000000001
#
# number of rings (size 3 to 8) (size 9 to 14) (size 15 to 20)
#    0.000    1.200    4.000    1.200    0.000   10.400 
#    0.000    7.000    0.000    0.000    0.000    0.000 
#    0.000    0.000    0.000    0.000    0.000    0.000 
#
# Total GULP energy -247912.574669 kJ/mol
# GULP energy per Si atom -12395.628733 kJ/mol
# Density = 2.245919 g / cm^3
# Si number density = 22.510428 Si / 1000 Ang^3
#
#
#
# Elastic Constant Matrix: (Units=GPa)
#
#
# Indices 1 2 3 4 5 6 
#
# 1 111.2249 31.0612 38.6572 0.0014 -6.6611 -0.0036
# 2 31.0612 120.4712 52.2007 -0.0012 2.9961 -0.0003
# 3 38.6572 52.2007 125.5756 -0.0044 -18.6054 0.0019
# 4 0.0014 -0.0012 -0.0044 13.0525 0.0016 3.7724
# 5 -6.6611 2.9961 -18.6054 0.0016 44.1150 0.0013
# 6 -0.0036 -0.0003 0.0019 3.7724 0.0013 0.0587
#
#
#
# Elastic Compliance Matrix: (Units=1/GPa)
#
#
# Indices 1 2 3 4 5 6 
#
# 1 0.010321 -0.001638 -0.002399 0.000011 0.000658 -0.000046
# 2 -0.001638 0.010678 -0.004350 0.000002 -0.002807 -0.000008
# 3 -0.002399 -0.004350 0.011200 -0.000010 0.004657 0.000046
# 4 0.000011 0.000002 -0.000010 -0.004358 -0.000011 0.280158
# 5 0.000658 -0.002807 0.004657 -0.000011 0.024922 0.000031
# 6 -0.000046 -0.000008 0.000046 0.280158 0.000031 -0.969337
#
#
# Mechanical properties :
#
#
# Convention : Reuss Voigt Hill
#
# Bulk Modulus (GPa) = 64.83076 66.78999 65.81037
# Shear Modulus (GPa) = -5.58874 27.13539 10.77333
#
# Velocity S-wave (km/s) = -1.57738 3.47574 2.19005
# Velocity P-wave (km/s) = 5.05424 6.77073 5.97445
#
# Compressibility (1/GPa) = 0.01542478
#
# Stress axis : x y z
#
# Youngs Moduli (GPa) = 96.88584 93.65086 89.28398
#
# Poissons Ratio (x) = 0.15341 0.21419
# Poissons Ratio (y) = 0.15871 0.38842
# Poissons Ratio (z) = 0.23242 0.40742
#
# Static dielectric constant tensor:
#      x y z
#    x 4.421900 0.000000 -0.330780 
#    y 0.000000 3.651320 0.000000 
#    z -0.330780 0.000000 4.059330 
# 
# 
# High freq. dielectric constant tensor:
#      x y z
#    x 1.902310 0.000000 -0.019910 
#    y 0.000000 1.859460 0.000000 
#    z -0.019910 0.000000 1.895760 
# 
# From -- ./inp_files/63791.got.cif
#   From: 2010.06.25/outbox.cif.g09.slc.cpg/sg12_32_cif.got.tgz:63791.got - 2010.06.28 00:19:55.
