data_PCOD8110153
_publ_section_title
;
Structure prediction by ZEFSAII (Michael W. Deem and Ramdas Pophale) SiO2 
 PCOD8110153
Probable space group: C 2/M
;
_chemical_formula_sum "Si O2"
_cell_formula_units_Z 64
_cell_length_a 19.960756
_cell_length_b 8.718365
_cell_length_c 31.041081
_cell_angle_alpha 90.000000
_cell_angle_beta 143.419712
_cell_angle_gamma 90.000000
_cell_volume 3219.272222
_symmetry_space_group_name_H-M "C 2/M"
_symmetry_group_IT_number 12
_symmetry_cell_setting 'monoclinic'
loop_
_space_group_symop_operation_xyz
x,y,z
-x,y,-z
-x,-y,-z
x,-y,z
1/2+x,1/2+y,z
1/2-x,1/2+y,-z
1/2-x,1/2-y,-z
1/2+x,1/2-y,z
loop_
_atom_site_type_symbol
_atom_site_label
_atom_site_fract_x
_atom_site_fract_y
_atom_site_fract_z
Si Si1 0.471189 0.819746 0.922152
Si Si2 0.009209 0.320088 0.607688
Si Si3 0.665356 0.319858 0.074261
Si Si4 0.935179 0.177610 0.656358
Si Si5 0.689767 0.819007 0.557001
Si Si6 0.948240 0.680231 0.811048
Si Si7 0.296711 0.680700 0.344639
Si Si8 0.401529 0.323048 0.180335
O O1 0.374890 0.734136 0.899482
O O2 0.453975 0.775479 0.863892
O O3 0.458522 0.000000 0.923523
O O4 0.594166 0.765745 0.000626
O O5 0.025442 0.500000 0.611261
O O6 0.987767 0.278511 0.645917
O O7 0.904760 0.262304 0.524987
O O8 0.122742 0.238798 0.651498
O O9 0.646196 0.500000 0.059691
O O10 0.795004 0.280661 0.135678
O O11 0.809314 0.237070 0.600469
O O12 0.006084 0.207063 0.735660
O O13 0.936005 0.000000 0.642953
O O14 0.662403 0.745769 0.588793
O O15 0.689455 0.000000 0.563169
O O16 0.966408 0.500000 0.813066
O O17 0.829068 0.736515 0.730828
O O18 0.046968 0.772458 0.838564
O O19 0.302792 0.500000 0.349053
O O20 0.365037 0.500000 0.159334
#
# Coordination Sequence:
#
# PCOD8110153 Si02
#       8
#     8   8   8   8   8   8   8   8
#     4  10  21  41  66  92 124 161 201 243 296 352
#     4  11  24  38  59  88 119 156 201 249 302 358
#     4  11  23  40  63  94 128 159 198 245 292 349
#     4  10  22  40  61  86 118 155 200 249 300 356
#     4  10  21  41  62  85 118 157 199 249 303 358
#     4  10  23  41  62  89 120 156 199 250 297 350
#     4  11  23  39  60  88 121 157 200 248 300 356
#     4  11  23  40  64  89 119 161 201 244 299 357
#
# _framework density 19.880268999999998
#
# number of rings (size 3 to 8) (size 9 to 14) (size 15 to 20)
#    0.000    1.500    1.250    4.125    1.750    6.000 
#    0.000    0.000    0.000    0.000    0.000    0.000 
#    0.000    0.000    0.000    0.000    0.000    0.000 
#
# Total GULP energy -397022.884579 kJ/mol
# GULP energy per Si atom -12406.965143 kJ/mol
# Density = 1.983502 g / cm^3
# Si number density = 19.880269 Si / 1000 Ang^3
#
#
#
# Elastic Constant Matrix: (Units=GPa)
#
#
# Indices 1 2 3 4 5 6 
#
# 1 112.4023 29.2010 35.6554 0.0001 1.0894 -0.0004
# 2 29.2010 43.5748 22.2933 0.0003 -3.4527 -0.0008
# 3 35.6554 22.2933 70.6454 0.0001 -1.0943 -0.0003
# 4 0.0001 0.0003 0.0001 24.6139 0.0000 3.4849
# 5 1.0894 -3.4527 -1.0943 0.0000 41.8191 0.0001
# 6 -0.0004 -0.0008 -0.0003 3.4849 0.0001 38.0528
#
#
#
# Elastic Compliance Matrix: (Units=1/GPa)
#
#
# Indices 1 2 3 4 5 6 
#
# 1 0.011717 -0.005832 -0.004087 0.000000 -0.000894 0.000000
# 2 -0.005832 0.030444 -0.006625 0.000000 0.002492 0.000001
# 3 -0.004087 -0.006625 0.018309 0.000000 0.000039 0.000000
# 4 0.000000 0.000000 0.000000 0.041161 0.000000 -0.003770
# 5 -0.000894 0.002492 0.000039 0.000000 0.024143 0.000000
# 6 0.000000 0.000001 0.000000 -0.003770 0.000000 0.026624
#
#
# Mechanical properties :
#
#
# Convention : Reuss Voigt Hill
#
# Bulk Modulus (GPa) = 36.52018 44.54688 40.53353
# Shear Modulus (GPa) = 25.69194 30.19535 27.94365
#
# Velocity S-wave (km/s) = 3.59880 3.90148 3.75320
# Velocity P-wave (km/s) = 5.97315 6.53848 6.26219
#
# Compressibility (1/GPa) = 0.02738212
#
# Stress axis : x y z
#
# Youngs Moduli (GPa) = 85.34778 32.84723 54.61702
#
# Poissons Ratio (x) = 0.19155 0.22323
# Poissons Ratio (y) = 0.49771 0.36185
# Poissons Ratio (z) = 0.34883 0.21762
#
# Static dielectric constant tensor:
#      x y z
#    x 3.622600 0.000000 0.042970 
#    y 0.000000 3.573420 0.000000 
#    z 0.042970 0.000000 3.714600 
# 
# 
# High freq. dielectric constant tensor:
#      x y z
#    x 1.786890 0.000000 0.002070 
#    y 0.000000 1.777730 0.000000 
#    z 0.002070 0.000000 1.781270 
# 
# From -- ./inp_files/378349.got.cif
#   From: 2010.06.25/outbox.cif.g09.slc.cpg/sg12_190_cif.got.tgz:378349.got - 2010.06.28 00:19:55.
