data_PCOD8110705
_publ_section_title
;
Structure prediction by ZEFSAII (Michael W. Deem and Ramdas Pophale) SiO2 
 PCOD8110705
Probable space group: C 2/M
;
_chemical_formula_sum "Si O2"
_cell_formula_units_Z 56
_cell_length_a 9.301474
_cell_length_b 28.361679
_cell_length_c 17.322217
_cell_angle_alpha 90.000000
_cell_angle_beta 39.451548
_cell_angle_gamma 90.000000
_cell_volume 2903.700425
_symmetry_space_group_name_H-M "C 2/M"
_symmetry_group_IT_number 12
_symmetry_cell_setting 'monoclinic'
loop_
_space_group_symop_operation_xyz
x,y,z
-x,y,-z
-x,-y,-z
x,-y,z
1/2+x,1/2+y,z
1/2-x,1/2+y,-z
1/2-x,1/2-y,-z
1/2+x,1/2-y,z
loop_
_atom_site_type_symbol
_atom_site_label
_atom_site_fract_x
_atom_site_fract_y
_atom_site_fract_z
Si Si1 0.241985 0.870018 0.600550
Si Si2 0.036558 0.192393 0.806501
Si Si3 0.290854 0.643835 0.032687
Si Si4 0.707210 0.700494 0.474726
Si Si5 0.117183 0.551920 0.061268
Si Si6 0.872202 0.281407 0.793368
Si Si7 0.879226 0.052297 0.800741
O O1 0.500000 0.889328 0.500000
O O2 0.226108 0.833684 0.677899
O O3 0.181345 0.842954 0.545640
O O4 0.060704 0.911667 0.689279
O O5 0.151784 0.219585 0.830190
O O6 0.913350 0.227602 0.799159
O O7 0.858722 0.154559 0.915255
O O8 0.145983 0.596299 0.105547
O O9 0.156147 0.689520 0.116500
O O10 0.500000 0.634975 0.000000
O O11 0.500000 0.703612 0.500000
O O12 0.750000 0.750000 0.500000
O O13 0.927208 0.691719 0.332791
O O14 0.142868 0.500000 0.089865
O O15 0.865748 0.557543 0.135073
O O16 0.323040 0.558056 0.914548
O O17 0.977765 0.000000 0.743910
#
# Coordination Sequence:
#
# PCOD8110705 Si02
#       7
#     8   8   8   8   8   8   8
#     4  12  23  39  63  87 122 159 203 248 295 357
#     4  11  22  39  56  86 116 161 199 245 297 345
#     4  10  22  37  57  87 124 154 193 248 304 359
#     4  12  24  38  57  85 117 160 202 242 287 348
#     4   9  18  37  63  91 117 147 194 247 304 361
#     4  11  23  38  56  80 125 157 202 242 290 350
#     4   9  20  38  63  91 116 148 195 249 301 358
#
# _framework density 19.285737000000001
#
# number of rings (size 3 to 8) (size 9 to 14) (size 15 to 20)
#    0.000    1.429    4.286    2.571    2.000    0.571 
#    0.000    0.000    0.000    1.286    0.000    0.000 
#    0.000    0.000    0.000    0.000    0.000    0.000 
#
# Total GULP energy -346924.208203 kJ/mol
# GULP energy per Si atom -12390.150293 kJ/mol
# Density = 1.924184 g / cm^3
# Si number density = 19.285737 Si / 1000 Ang^3
#
#
#
# Elastic Constant Matrix: (Units=GPa)
#
#
# Indices 1 2 3 4 5 6 
#
# 1 66.4359 44.6460 34.0037 0.0000 2.2314 0.0000
# 2 44.6460 118.9019 32.6519 0.0000 -12.8404 0.0000
# 3 34.0037 32.6519 69.9343 0.0000 -8.3845 0.0000
# 4 0.0000 0.0000 0.0000 29.2216 0.0000 -3.7615
# 5 2.2314 -12.8404 -8.3845 0.0000 22.1408 0.0000
# 6 0.0000 0.0000 0.0000 -3.7615 0.0000 22.4062
#
#
#
# Elastic Compliance Matrix: (Units=1/GPa)
#
#
# Indices 1 2 3 4 5 6 
#
# 1 0.026228 -0.008254 -0.010255 0.000000 -0.011314 0.000000
# 2 -0.008254 0.012609 -0.000940 0.000000 0.007788 0.000000
# 3 -0.010255 -0.000940 0.020724 0.000000 0.008336 0.000000
# 4 0.000000 0.000000 0.000000 0.034977 0.000000 0.005872
# 5 -0.011314 0.007788 0.008336 0.000000 0.053979 0.000000
# 6 0.000000 0.000000 0.000000 0.005872 0.000000 0.045616
#
#
# Mechanical properties :
#
#
# Convention : Reuss Voigt Hill
#
# Bulk Modulus (GPa) = 48.39773 53.09724 50.74748
# Shear Modulus (GPa) = 20.84045 24.35175 22.59610
#
# Velocity S-wave (km/s) = 3.29084 3.55728 3.42665
# Velocity P-wave (km/s) = 6.29198 6.66813 6.48278
#
# Compressibility (1/GPa) = 0.02066213
#
# Stress axis : x y z
#
# Youngs Moduli (GPa) = 38.12778 79.31089 48.25363
#
# Poissons Ratio (x) = 0.65460 0.49485
# Poissons Ratio (y) = 0.31469 0.04536
# Poissons Ratio (z) = 0.39101 0.07456
#
# Static dielectric constant tensor:
#      x y z
#    x 3.447850 0.000000 0.152660 
#    y 0.000000 3.647400 0.000000 
#    z 0.152660 0.000000 3.811990 
# 
# 
# High freq. dielectric constant tensor:
#      x y z
#    x 1.738730 0.000000 -0.003300 
#    y 0.000000 1.752300 0.000000 
#    z -0.003300 0.000000 1.751820 
# 
# From -- ./inp_files/125345.got.cif
#   From: 2010.06.25/outbox.cif.g09.slc.cpg/sg12_63_cif.got.tgz:125345.got - 2010.06.28 00:19:55.
