data_PCOD8110862
_publ_section_title
;
Structure prediction by ZEFSAII (Michael W. Deem and Ramdas Pophale) SiO2 
 PCOD8110862
Probable space group: C 2/M
;
_chemical_formula_sum "Si O2"
_cell_formula_units_Z 48
_cell_length_a 21.507913
_cell_length_b 12.671534
_cell_length_c 24.246943
_cell_angle_alpha 90.000000
_cell_angle_beta 158.830625
_cell_angle_gamma 90.000000
_cell_volume 2386.401072
_symmetry_space_group_name_H-M "C 2/M"
_symmetry_group_IT_number 12
_symmetry_cell_setting 'monoclinic'
loop_
_space_group_symop_operation_xyz
x,y,z
-x,y,-z
-x,-y,-z
x,-y,z
1/2+x,1/2+y,z
1/2-x,1/2+y,-z
1/2-x,1/2-y,-z
1/2+x,1/2-y,z
loop_
_atom_site_type_symbol
_atom_site_label
_atom_site_fract_x
_atom_site_fract_y
_atom_site_fract_z
Si Si1 0.848242 0.122468 0.506133
Si Si2 0.662745 0.249109 0.799634
Si Si3 0.689401 0.288666 0.639239
Si Si4 0.197149 0.876427 0.181545
Si Si5 0.524260 0.118645 0.781342
Si Si6 0.966791 0.618252 0.083688
O O1 0.818076 0.208759 0.432989
O O2 0.677640 0.127715 0.403261
O O3 0.015441 0.161603 0.676656
O O4 0.871153 0.000000 0.504538
O O5 0.668535 0.169355 0.752669
O O6 0.642943 0.188834 0.840726
O O7 0.845224 0.306523 0.948238
O O8 0.500000 0.326855 0.500000
O O9 0.749315 0.177079 0.715596
O O10 0.839075 0.371726 0.779906
O O11 0.231837 0.000000 0.217208
O O12 0.000000 0.855566 0.000000
O O13 0.543138 0.152474 0.860525
O O14 0.590446 0.000000 0.828217
O O15 0.902994 0.500000 0.022818
#
# Coordination Sequence:
#
# PCOD8110862 Si02
#       6
#     8   8   8   8   8   8
#     4  10  22  38  59  88 122 153 190 243 289 341
#     4  12  20  38  61  88 114 159 196 237 291 348
#     4  11  21  41  60  85 116 156 193 231 296 344
#     4  11  24  42  60  85 119 149 192 244 287 342
#     4   9  20  38  59  84 115 155 195 239 294 341
#     4  10  22  38  59  88 120 151 194 246 288 343
#
# _framework density 20.113969999999998
#
# number of rings (size 3 to 8) (size 9 to 14) (size 15 to 20)
#    0.000    1.500    3.333    3.500    0.000    1.667 
#    0.000    0.833    0.000    4.000    0.000    0.000 
#    0.000    0.000    0.000    0.000    0.000    0.000 
#
# Total GULP energy -297379.932236 kJ/mol
# GULP energy per Si atom -12390.830510 kJ/mol
# Density = 2.006819 g / cm^3
# Si number density = 20.113970 Si / 1000 Ang^3
#
#
#
# Elastic Constant Matrix: (Units=GPa)
#
#
# Indices 1 2 3 4 5 6 
#
# 1 57.9534 49.5284 12.8174 0.0105 2.4188 0.0018
# 2 49.5284 102.8941 35.1775 0.0440 -6.5989 0.0142
# 3 12.8174 35.1775 82.8500 0.0321 4.3074 0.0078
# 4 0.0105 0.0440 0.0321 32.5511 0.0208 -2.3787
# 5 2.4188 -6.5989 4.3074 0.0208 25.1763 -0.0016
# 6 0.0018 0.0142 0.0078 -2.3787 -0.0016 28.9016
#
#
#
# Elastic Compliance Matrix: (Units=1/GPa)
#
#
# Indices 1 2 3 4 5 6 
#
# 1 0.030870 -0.016205 0.002502 0.000015 -0.007641 0.000006
# 2 -0.016205 0.020256 -0.006508 -0.000021 0.007980 -0.000008
# 3 0.002502 -0.006508 0.014678 -0.000004 -0.004458 -0.000001
# 4 0.000015 -0.000021 -0.000004 0.030907 -0.000032 0.002544
# 5 -0.007641 0.007980 -0.004458 -0.000032 0.043308 -0.000003
# 6 0.000006 -0.000008 -0.000001 0.002544 -0.000003 0.034810
#
#
# Mechanical properties :
#
#
# Convention : Reuss Voigt Hill
#
# Bulk Modulus (GPa) = 39.39893 48.74933 44.07413
# Shear Modulus (GPa) = 22.35030 27.07074 24.71052
#
# Velocity S-wave (km/s) = 3.33706 3.67259 3.50883
# Velocity P-wave (km/s) = 5.87182 6.50177 6.19481
#
# Compressibility (1/GPa) = 0.02538140
#
# Stress axis : x y z
#
# Youngs Moduli (GPa) = 32.39425 49.36877 68.12872
#
# Poissons Ratio (x) = 0.80000 -0.17045
# Poissons Ratio (y) = 0.52494 0.44341
# Poissons Ratio (z) = -0.08105 0.32131
#
# Static dielectric constant tensor:
#      x y z
#    x 3.481340 -0.000020 0.141430 
#    y -0.000020 3.527030 -0.000110 
#    z 0.141430 -0.000110 3.819940 
# 
# 
# High freq. dielectric constant tensor:
#      x y z
#    x 1.770350 0.000000 0.010580 
#    y 0.000000 1.776580 -0.000010 
#    z 0.010580 -0.000010 1.795030 
# 
# From -- ./inp_files/94920.got.cif
#   From: 2010.06.25/outbox.cif.g09.slc.cpg/sg12_48_cif.got.tgz:94920.got - 2010.06.28 00:19:55.
