data_PCOD8110333
_publ_section_title
;
Structure prediction by ZEFSAII (Michael W. Deem and Ramdas Pophale) SiO2 
 PCOD8110333
Probable space group: C 2/M
;
_chemical_formula_sum "Si O2"
_cell_formula_units_Z 56
_cell_length_a 16.245907
_cell_length_b 21.261175
_cell_length_c 11.551001
_cell_angle_alpha 90.000000
_cell_angle_beta 135.730311
_cell_angle_gamma 90.000000
_cell_volume 2785.024502
_symmetry_space_group_name_H-M "C 2/M"
_symmetry_group_IT_number 12
_symmetry_cell_setting 'monoclinic'
loop_
_space_group_symop_operation_xyz
x,y,z
-x,y,-z
-x,-y,-z
x,-y,z
1/2+x,1/2+y,z
1/2-x,1/2+y,-z
1/2-x,1/2-y,-z
1/2+x,1/2-y,z
loop_
_atom_site_type_symbol
_atom_site_label
_atom_site_fract_x
_atom_site_fract_y
_atom_site_fract_z
Si Si1 0.649264 0.569897 0.024536
Si Si2 0.736129 0.277923 0.360496
Si Si3 0.674517 0.930203 0.373291
Si Si4 0.301594 0.820582 0.060925
Si Si5 0.033946 0.353985 0.411862
Si Si6 0.639078 0.836745 0.134034
Si Si7 0.882470 0.096850 0.746618
O O1 0.691837 0.500000 0.024301
O O2 0.515324 0.579643 0.848358
O O3 0.723573 0.628617 0.051637
O O4 0.657159 0.567801 0.171241
O O5 0.750000 0.250000 0.500000
O O6 0.860238 0.307317 0.449105
O O7 0.702298 0.227697 0.231139
O O8 0.630537 0.328112 0.258494
O O9 0.574331 0.905214 0.359281
O O10 0.682032 0.890956 0.263216
O O11 0.800713 0.930133 0.562737
O O12 0.638233 0.000000 0.300483
O O13 0.426915 0.814008 0.250790
O O14 0.250000 0.750000 0.000000
O O15 0.319335 0.851943 0.953192
O O16 0.000000 0.387017 0.500000
O O17 0.500000 0.827944 0.000000
#
# Coordination Sequence:
#
# PCOD8110333 Si02
#       7
#     8   8   8   8   8   8   8
#     4  11  24  41  66  98 135 173 214 271 332 393
#     4  11  21  40  67  92 123 162 211 270 324 384
#     4  11  23  41  66  91 125 174 222 262 312 391
#     4  12  26  42  64  97 133 170 216 272 325 388
#     4  11  23  42  62  95 128 161 212 270 330 380
#     4  12  24  43  64  94 129 170 216 262 330 389
#     4  10  21  41  68  98 127 168 219 268 325 393
#
# _framework density 20.107543
#
# number of rings (size 3 to 8) (size 9 to 14) (size 15 to 20)
#    0.000    0.857    4.286    5.143    6.000    1.714 
#    0.000    0.714    0.000    1.714    0.000    0.000 
#    0.000    0.000    0.000    0.000    0.000    0.000 
#
# Total GULP energy -347167.263047 kJ/mol
# GULP energy per Si atom -12398.830823 kJ/mol
# Density = 2.006178 g / cm^3
# Si number density = 20.107543 Si / 1000 Ang^3
#
#
#
# Elastic Constant Matrix: (Units=GPa)
#
#
# Indices 1 2 3 4 5 6 
#
# 1 81.1954 26.9652 31.7449 0.0000 -5.0960 0.0000
# 2 26.9652 148.7923 39.2050 0.0000 10.5767 0.0000
# 3 31.7449 39.2050 109.3027 0.0000 3.9014 0.0000
# 4 0.0000 0.0000 0.0000 20.8647 0.0000 -0.9051
# 5 -5.0960 10.5767 3.9014 0.0000 37.3336 0.0000
# 6 0.0000 0.0000 0.0000 -0.9051 0.0000 15.4541
#
#
#
# Elastic Compliance Matrix: (Units=1/GPa)
#
#
# Indices 1 2 3 4 5 6 
#
# 1 0.014552 -0.001880 -0.003655 0.000000 0.002901 0.000000
# 2 -0.001880 0.007792 -0.002169 0.000000 -0.002237 0.000000
# 3 -0.003655 -0.002169 0.011026 0.000000 -0.001037 0.000000
# 4 0.000000 0.000000 0.000000 0.048050 0.000000 0.002814
# 5 0.002901 -0.002237 -0.001037 0.000000 0.027924 0.000000
# 6 0.000000 0.000000 0.000000 0.002814 0.000000 0.064872
#
#
# Mechanical properties :
#
#
# Convention : Reuss Voigt Hill
#
# Bulk Modulus (GPa) = 55.67899 59.45787 57.56843
# Shear Modulus (GPa) = 25.56093 30.82216 28.19154
#
# Velocity S-wave (km/s) = 3.56927 3.91943 3.74844
# Velocity P-wave (km/s) = 6.68857 7.07932 6.88672
#
# Compressibility (1/GPa) = 0.01796010
#
# Stress axis : x y z
#
# Youngs Moduli (GPa) = 68.72098 128.33570 90.69874
#
# Poissons Ratio (x) = 0.24130 0.33154
# Poissons Ratio (y) = 0.12921 0.19672
# Poissons Ratio (z) = 0.25120 0.27835
#
# Static dielectric constant tensor:
#      x y z
#    x 3.434560 0.000000 -0.222330 
#    y 0.000000 3.397880 0.000000 
#    z -0.222330 0.000000 3.728890 
# 
# 
# High freq. dielectric constant tensor:
#      x y z
#    x 1.775310 0.000000 -0.001600 
#    y 0.000000 1.787110 0.000000 
#    z -0.001600 0.000000 1.805250 
# 
# From -- ./inp_files/160334.got.cif
#   From: 2010.06.25/outbox.cif.g09.slc.cpg/sg12_81_cif.got.tgz:160334.got - 2010.06.28 00:19:55.
