data_PCOD8110530
_publ_section_title
;
Structure prediction by ZEFSAII (Michael W. Deem and Ramdas Pophale) SiO2 
 PCOD8110530
Probable space group: C 2/M
;
_chemical_formula_sum "Si O2"
_cell_formula_units_Z 60
_cell_length_a 8.544648
_cell_length_b 18.084352
_cell_length_c 25.844945
_cell_angle_alpha 90.000000
_cell_angle_beta 58.513245
_cell_angle_gamma 90.000000
_cell_volume 3405.650158
_symmetry_space_group_name_H-M "C 2/M"
_symmetry_group_IT_number 12
_symmetry_cell_setting 'monoclinic'
loop_
_space_group_symop_operation_xyz
x,y,z
-x,y,-z
-x,-y,-z
x,-y,z
1/2+x,1/2+y,z
1/2-x,1/2+y,-z
1/2-x,1/2-y,-z
1/2+x,1/2-y,z
loop_
_atom_site_type_symbol
_atom_site_label
_atom_site_fract_x
_atom_site_fract_y
_atom_site_fract_z
Si Si1 0.798388 0.309477 0.377503
Si Si2 0.000000 0.264904 0.000000
Si Si3 0.638407 0.914853 0.169763
Si Si4 0.380004 0.195151 0.915263
Si Si5 0.240054 0.584959 0.705712
Si Si6 0.874228 0.196099 0.189263
Si Si7 0.054263 0.715617 0.543277
Si Si8 0.962302 0.198605 0.730724
O O1 0.778269 0.384973 0.349336
O O2 0.923297 0.329353 0.406735
O O3 0.595652 0.280605 0.425770
O O4 0.896562 0.246163 0.327121
O O5 0.983623 0.316283 0.951975
O O6 0.169494 0.210139 0.963971
O O7 0.601854 0.880259 0.119826
O O8 0.455204 0.903130 0.234085
O O9 0.807939 0.875300 0.169014
O O10 0.690395 0.000000 0.153859
O O11 0.460517 0.264891 0.869795
O O12 0.299307 0.500000 0.693373
O O13 0.398777 0.628050 0.708898
O O14 0.709961 0.253568 0.222446
O O15 0.938023 0.169688 0.234814
O O16 0.250000 0.750000 0.500000
O O17 0.000000 0.668951 0.500000
#
# Coordination Sequence:
#
# PCOD8110530 Si02
#       8
#     8   4   8   8   8   8   8   8
#     4  11  17  33  57  82 111 145 182 234 272 323
#     4  10  22  32  62  84 100 136 210 232 264 314
#     4  11  23  38  56  84 120 148 175 227 293 343
#     4  11  19  37  57  84 105 144 184 240 266 329
#     4  11  23  36  54  87 121 148 176 224 292 346
#     4  12  19  34  60  83 111 144 187 225 277 342
#     4   9  19  31  53  87 107 137 194 241 262 302
#     4  12  19  32  59  89 106 146 190 226 273 340
#
# _framework density 17.617781999999998
#
# number of rings (size 3 to 8) (size 9 to 14) (size 15 to 20)
#    0.000    1.067    8.000    0.000    0.000    0.533 
#    0.000    0.667    0.000    4.000    0.000    0.000 
#    0.000    0.000    0.000    0.000    0.000    0.000 
#
# Total GULP energy -371903.812165 kJ/mol
# GULP energy per Si atom -12396.793739 kJ/mol
# Density = 1.757768 g / cm^3
# Si number density = 17.617782 Si / 1000 Ang^3
#
#
#
# Elastic Constant Matrix: (Units=GPa)
#
#
# Indices 1 2 3 4 5 6 
#
# 1 101.9994 37.3860 43.2813 0.0001 34.5839 -0.0001
# 2 37.3860 97.1548 34.5988 0.0000 15.8007 0.0000
# 3 43.2813 34.5988 95.1991 0.0000 22.2733 0.0000
# 4 0.0001 0.0000 0.0000 4.4926 -0.0001 9.6535
# 5 34.5839 15.8007 22.2733 -0.0001 56.5487 0.0001
# 6 -0.0001 0.0000 0.0000 9.6535 0.0001 21.6988
#
#
#
# Elastic Compliance Matrix: (Units=1/GPa)
#
#
# Indices 1 2 3 4 5 6 
#
# 1 0.014972 -0.003228 -0.004078 -0.000015 -0.006648 0.000007
# 2 -0.003228 0.012683 -0.003056 0.000001 -0.000366 0.000000
# 3 -0.004078 -0.003056 0.013974 0.000003 -0.002156 -0.000002
# 4 -0.000015 0.000001 0.000003 5.054901 0.000017 -2.248866
# 5 -0.006648 -0.000366 -0.002156 0.000017 0.022701 -0.000008
# 6 0.000007 0.000000 -0.000002 -2.248866 -0.000008 1.046580
#
#
# Mechanical properties :
#
#
# Convention : Reuss Voigt Hill
#
# Bulk Modulus (GPa) = 47.83863 58.32059 53.07961
# Shear Modulus (GPa) = 0.80730 28.48717 14.64723
#
# Velocity S-wave (km/s) = 0.67766 4.02550 2.88651
# Velocity P-wave (km/s) = 5.27493 7.40144 6.42675
#
# Compressibility (1/GPa) = 0.02090361
#
# Stress axis : x y z
#
# Youngs Moduli (GPa) = 66.79300 78.84666 71.56362
#
# Poissons Ratio (x) = 0.25449 0.29185
# Poissons Ratio (y) = 0.21559 0.21872
# Poissons Ratio (z) = 0.27240 0.24098
#
# Static dielectric constant tensor:
#      x y z
#    x 3.810070 0.000000 0.339680 
#    y 0.000000 2.980820 0.000000 
#    z 0.339680 0.000000 3.771890 
# 
# 
# High freq. dielectric constant tensor:
#      x y z
#    x 1.704040 0.000000 0.007330 
#    y 0.000000 1.629200 0.000000 
#    z 0.007330 0.000000 1.701480 
# 
# From -- ./inp_files/356471.got.cif
#   From: 2010.06.25/outbox.cif.g09.slc.cpg/sg12_179_cif.got.tgz:356471.got - 2010.06.28 00:19:55.
