data_PCOD8110897
_publ_section_title
;
Structure prediction by ZEFSAII (Michael W. Deem and Ramdas Pophale) SiO2 
 PCOD8110897
Probable space group: C 2/M
;
_chemical_formula_sum "Si O2"
_cell_formula_units_Z 36
_cell_length_a 19.322455
_cell_length_b 9.587565
_cell_length_c 12.013930
_cell_angle_alpha 90.000000
_cell_angle_beta 43.994746
_cell_angle_gamma 90.000000
_cell_volume 1545.915504
_symmetry_space_group_name_H-M "C 2/M"
_symmetry_group_IT_number 12
_symmetry_cell_setting 'monoclinic'
loop_
_space_group_symop_operation_xyz
x,y,z
-x,y,-z
-x,-y,-z
x,-y,z
1/2+x,1/2+y,z
1/2-x,1/2+y,-z
1/2-x,1/2-y,-z
1/2+x,1/2-y,z
loop_
_atom_site_type_symbol
_atom_site_label
_atom_site_fract_x
_atom_site_fract_y
_atom_site_fract_z
Si Si1 0.224061 0.000000 0.802737
Si Si2 0.935212 0.786855 0.972475
Si Si3 0.553552 0.237533 0.624688
Si Si4 0.700985 0.000000 0.518158
Si Si5 0.166545 0.000000 0.416365
Si Si6 0.088861 0.500000 0.271339
Si Si7 0.844099 0.500000 0.051825
O O1 0.339694 0.000000 0.704493
O O2 0.220226 0.000000 0.673566
O O3 0.169918 0.864902 0.913563
O O4 0.994590 0.815751 0.790724
O O5 0.908770 0.626973 0.022777
O O6 0.000000 0.844523 0.000000
O O7 0.636354 0.140815 0.587320
O O8 0.600350 0.358647 0.492988
O O9 0.479063 0.138417 0.641113
O O10 0.759508 0.000000 0.565201
O O11 0.231119 0.000000 0.228156
O O12 0.156973 0.500000 0.081438
#
# Coordination Sequence:
#
# PCOD8110897 Si02
#       7
#     4   8   8   4   4   4   4
#     4  12  24  40  64  86 122 160 206 245 282 363
#     4  11  21  39  63  92 119 156 198 248 302 352
#     4  10  22  38  60  88 125 156 195 246 299 356
#     4  11  22  38  61  94 124 157 189 246 316 354
#     4  12  20  37  65  98 119 147 201 260 300 341
#     4   9  24  46  58  81 120 174 203 227 297 361
#     4  10  22  38  64  89 123 157 194 245 299 358
#
# _framework density 23.287171000000001
#
# number of rings (size 3 to 8) (size 9 to 14) (size 15 to 20)
#    0.000    1.333    0.000    6.667    0.000    5.333 
#    0.000    3.333    0.000    4.000    0.000    0.000 
#    0.000    0.000    0.000    0.000    0.000    0.000 
#
# Total GULP energy -223283.614088 kJ/mol
# GULP energy per Si atom -12404.645227 kJ/mol
# Density = 2.323417 g / cm^3
# Si number density = 23.287171 Si / 1000 Ang^3
#
#
#
# Elastic Constant Matrix: (Units=GPa)
#
#
# Indices 1 2 3 4 5 6 
#
# 1 67.2353 27.3901 10.8184 0.0000 -16.6190 0.0000
# 2 27.3901 126.1188 39.6737 0.0000 -15.1363 -0.0001
# 3 10.8184 39.6737 156.9278 0.0000 -1.2803 0.0000
# 4 0.0000 0.0000 0.0000 59.9015 0.0000 -2.5701
# 5 -16.6190 -15.1363 -1.2803 0.0000 30.1176 0.0000
# 6 0.0000 -0.0001 0.0000 -2.5701 0.0000 21.5866
#
#
#
# Elastic Compliance Matrix: (Units=1/GPa)
#
#
# Indices 1 2 3 4 5 6 
#
# 1 0.018214 -0.002766 -0.000486 0.000000 0.008640 0.000000
# 2 -0.002766 0.009611 -0.002213 0.000000 0.003210 0.000000
# 3 -0.000486 -0.002213 0.006956 0.000000 -0.001085 0.000000
# 4 0.000000 0.000000 0.000000 0.016780 0.000000 0.001998
# 5 0.008640 0.003210 -0.001085 0.000000 0.039538 0.000000
# 6 0.000000 0.000000 0.000000 0.001998 0.000000 0.046563
#
#
# Mechanical properties :
#
#
# Convention : Reuss Voigt Hill
#
# Bulk Modulus (GPa) = 41.92554 56.22737 49.07645
# Shear Modulus (GPa) = 31.94039 40.48111 36.21075
#
# Velocity S-wave (km/s) = 3.70751 4.17387 3.94758
# Velocity P-wave (km/s) = 6.03078 6.88664 6.47287
#
# Compressibility (1/GPa) = 0.02385181
#
# Stress axis : x y z
#
# Youngs Moduli (GPa) = 54.90406 104.04635 143.75087
#
# Poissons Ratio (x) = 0.28777 0.06985
# Poissons Ratio (y) = 0.15185 0.31812
# Poissons Ratio (z) = 0.02668 0.23025
#
# Static dielectric constant tensor:
#      x y z
#    x 3.692140 0.000000 -0.065110 
#    y 0.000000 3.964890 0.000000 
#    z -0.065110 0.000000 4.484370 
# 
# 
# High freq. dielectric constant tensor:
#      x y z
#    x 1.893570 0.000000 -0.001860 
#    y 0.000000 1.931340 0.000000 
#    z -0.001860 0.000000 1.943830 
# 
# From -- ./inp_files/230827.got.cif
#   From: 2010.06.25/outbox.cif.g09.slc.cpg/sg12_116_cif.got.tgz:230827.got - 2010.06.28 00:19:55.
