data_PCOD8110667
_publ_section_title
;
Structure prediction by ZEFSAII (Michael W. Deem and Ramdas Pophale) SiO2 
 PCOD8110667
Probable space group: C 2/M
;
_chemical_formula_sum "Si O2"
_cell_formula_units_Z 40
_cell_length_a 9.025476
_cell_length_b 12.714153
_cell_length_c 24.389269
_cell_angle_alpha 90.000000
_cell_angle_beta 43.496730
_cell_angle_gamma 90.000000
_cell_volume 1926.382019
_symmetry_space_group_name_H-M "C 2/M"
_symmetry_group_IT_number 12
_symmetry_cell_setting 'monoclinic'
loop_
_space_group_symop_operation_xyz
x,y,z
-x,y,-z
-x,-y,-z
x,-y,z
1/2+x,1/2+y,z
1/2-x,1/2+y,-z
1/2-x,1/2-y,-z
1/2+x,1/2-y,z
loop_
_atom_site_type_symbol
_atom_site_label
_atom_site_fract_x
_atom_site_fract_y
_atom_site_fract_z
Si Si1 0.075980 0.700180 0.708470
Si Si2 0.521298 0.384062 0.436101
Si Si3 0.241650 0.378107 0.413839
Si Si4 0.892927 0.242210 0.180091
Si Si5 0.812504 0.377447 0.093080
O O1 0.225757 0.606987 0.646093
O O2 0.194907 0.809398 0.656749
O O3 0.068751 0.689627 0.776004
O O4 0.834948 0.682916 0.751253
O O5 0.500000 0.321801 0.500000
O O6 0.421577 0.500000 0.470628
O O7 0.390600 0.329406 0.422351
O O8 0.298005 0.500000 0.385268
O O9 0.000000 0.367452 0.500000
O O10 0.873770 0.317039 0.132359
O O11 0.090778 0.160307 0.123704
O O12 0.791099 0.500000 0.113030
O O13 0.000000 0.354519 0.000000
#
# Coordination Sequence:
#
# PCOD8110667 Si02
#       5
#     8   8   8   8   8
#     4  11  21  37  58  85 121 161 196 254 315 359
#     4  10  22  37  53  77 113 158 205 254 305 355
#     4  10  22  38  57  80 111 161 216 261 305 361
#     4  10  23  38  62  98 126 156 206 256 306 374
#     4  10  22  44  71  95 127 167 201 246 309 376
#
# _framework density 20.764313999999999
#
# number of rings (size 3 to 8) (size 9 to 14) (size 15 to 20)
#    0.000    1.800    2.000    1.200    2.800    6.400 
#    0.000    3.000    0.000   10.800    0.000    0.000 
#    0.000    0.000    0.000    0.000    0.000    0.000 
#
# Total GULP energy -247819.124195 kJ/mol
# GULP energy per Si atom -12390.956210 kJ/mol
# Density = 2.071705 g / cm^3
# Si number density = 20.764314 Si / 1000 Ang^3
#
#
#
# Elastic Constant Matrix: (Units=GPa)
#
#
# Indices 1 2 3 4 5 6 
#
# 1 140.1210 36.6318 57.8465 0.0007 -13.8050 0.0001
# 2 36.6318 70.6976 29.2282 0.0006 5.8418 0.0004
# 3 57.8465 29.2282 115.8382 0.0015 -13.3102 0.0005
# 4 0.0007 0.0006 0.0015 -59.7014 -0.0005 -19.3492
# 5 -13.8050 5.8418 -13.3102 -0.0005 45.1233 -0.0003
# 6 0.0001 0.0004 0.0005 -19.3492 -0.0003 24.0798
#
#
#
# Elastic Compliance Matrix: (Units=1/GPa)
#
#
# Indices 1 2 3 4 5 6 
#
# 1 0.009898 -0.003797 -0.003706 0.000000 0.002427 0.000000
# 2 -0.003797 0.017748 -0.003084 0.000000 -0.004369 0.000000
# 3 -0.003706 -0.003084 0.011569 0.000000 0.002678 0.000000
# 4 0.000000 0.000000 0.000000 -0.013289 0.000000 -0.010678
# 5 0.002427 -0.004369 0.002678 0.000000 0.024260 0.000000
# 6 0.000000 0.000000 0.000000 -0.010678 0.000000 0.032948
#
#
# Mechanical properties :
#
#
# Convention : Reuss Voigt Hill
#
# Bulk Modulus (GPa) = 55.42795 63.78555 59.60675
# Shear Modulus (GPa) = 45.32146 15.43035 30.37591
#
# Velocity S-wave (km/s) = 4.67696 2.72898 3.82892
# Velocity P-wave (km/s) = 7.47778 6.38085 6.95099
#
# Compressibility (1/GPa) = 0.01804144
#
# Stress axis : x y z
#
# Youngs Moduli (GPa) = 101.02568 56.34338 86.43536
#
# Poissons Ratio (x) = 0.21395 0.32034
# Poissons Ratio (y) = 0.38361 0.26657
# Poissons Ratio (z) = 0.37441 0.17377
#
# Static dielectric constant tensor:
#      x y z
#    x 4.058290 0.000000 -0.034260 
#    y 0.000000 3.541800 0.000000 
#    z -0.034260 0.000000 3.915650 
# 
# 
# High freq. dielectric constant tensor:
#      x y z
#    x 1.829920 0.000000 -0.001790 
#    y 0.000000 1.793680 0.000000 
#    z -0.001790 0.000000 1.819030 
# 
# From -- ./inp_files/194562.got.cif
#   From: 2010.06.25/outbox.cif.g09.slc.cpg/sg12_98_cif.got.tgz:194562.got - 2010.06.28 00:19:55.
