data_PCOD8110184
_publ_section_title
;
Structure prediction by ZEFSAII (Michael W. Deem and Ramdas Pophale) SiO2 
 PCOD8110184
Probable space group: C 2/M
;
_chemical_formula_sum "Si O2"
_cell_formula_units_Z 48
_cell_length_a 8.716032
_cell_length_b 24.773712
_cell_length_c 20.030599
_cell_angle_alpha 90.000000
_cell_angle_beta 28.003769
_cell_angle_gamma 90.000000
_cell_volume 2030.798592
_symmetry_space_group_name_H-M "C 2/M"
_symmetry_group_IT_number 12
_symmetry_cell_setting 'monoclinic'
loop_
_space_group_symop_operation_xyz
x,y,z
-x,y,-z
-x,-y,-z
x,-y,z
1/2+x,1/2+y,z
1/2-x,1/2+y,-z
1/2-x,1/2-y,-z
1/2+x,1/2-y,z
loop_
_atom_site_type_symbol
_atom_site_label
_atom_site_fract_x
_atom_site_fract_y
_atom_site_fract_z
Si Si1 0.855187 0.602728 0.870358
Si Si2 0.999727 0.560479 0.669311
Si Si3 0.284594 0.585585 0.938929
Si Si4 0.287306 0.303185 0.754538
Si Si5 0.228683 0.833134 0.472579
Si Si6 0.526950 0.696654 0.813480
O O1 0.974225 0.573700 0.757896
O O2 0.138264 0.641764 0.785188
O O3 0.500000 0.631880 0.000000
O O4 0.798272 0.562176 0.955495
O O5 0.134565 0.500000 0.607585
O O6 0.634099 0.564577 0.778154
O O7 0.251737 0.600663 0.534328
O O8 0.298744 0.652263 0.938047
O O9 0.000000 0.565384 0.000000
O O10 0.612246 0.301310 0.583329
O O11 0.416386 0.304224 0.779608
O O12 0.010178 0.257003 0.849951
O O13 0.598039 0.816972 0.316103
O O14 0.000000 0.813341 0.500000
#
# Coordination Sequence:
#
# PCOD8110184 Si02
#       6
#     8   8   8   8   8   8
#     4  10  22  39  63  89 130 162 208 262 312 373
#     4  10  23  43  69  95 121 163 217 269 323 381
#     4  10  21  41  63  94 131 167 202 263 315 377
#     4  12  23  40  61  93 126 175 211 261 310 381
#     4  11  22  42  64  90 126 163 211 269 318 375
#     4  11  25  38  64  92 129 170 221 250 315 375
#
# _framework density 23.636021
#
# number of rings (size 3 to 8) (size 9 to 14) (size 15 to 20)
#    0.000    1.333    3.333    2.000    4.667    5.000 
#    0.000    0.000    0.000    8.000    0.000    0.000 
#    0.000    0.000    0.000    0.000    0.000    0.000 
#
# Total GULP energy -297323.333020 kJ/mol
# GULP energy per Si atom -12388.472209 kJ/mol
# Density = 2.358222 g / cm^3
# Si number density = 23.636021 Si / 1000 Ang^3
#
#
#
# Elastic Constant Matrix: (Units=GPa)
#
#
# Indices 1 2 3 4 5 6 
#
# 1 160.7317 11.7308 11.9203 -0.0098 -17.8058 -0.0025
# 2 11.7308 80.0795 -11.6233 -0.0038 6.1180 0.0013
# 3 11.9203 -11.6233 36.0067 -0.0279 -4.2819 -0.0098
# 4 -0.0098 -0.0038 -0.0279 15.1487 0.0042 0.2360
# 5 -17.8058 6.1180 -4.2819 0.0042 40.2881 -0.0045
# 6 -0.0025 0.0013 -0.0098 0.2360 -0.0045 15.3343
#
#
#
# Elastic Compliance Matrix: (Units=1/GPa)
#
#
# Indices 1 2 3 4 5 6 
#
# 1 0.006850 -0.001585 -0.002421 -0.000001 0.003011 0.000001
# 2 -0.001585 0.013566 0.004634 0.000012 -0.002268 0.000001
# 3 -0.002421 0.004634 0.030242 0.000055 0.001440 0.000018
# 4 -0.000001 0.000012 0.000055 0.066028 -0.000003 -0.001016
# 5 0.003011 -0.002268 0.001440 -0.000003 0.026649 0.000010
# 6 0.000001 0.000001 0.000018 -0.001016 0.000010 0.065229
#
#
# Mechanical properties :
#
#
# Convention : Reuss Voigt Hill
#
# Bulk Modulus (GPa) = 19.26301 33.43037 26.34669
# Shear Modulus (GPa) = 22.26052 31.80690 27.03371
#
# Velocity S-wave (km/s) = 3.07221 3.67235 3.38561
# Velocity P-wave (km/s) = 4.55546 5.67063 5.14336
#
# Compressibility (1/GPa) = 0.05191296
#
# Stress axis : x y z
#
# Youngs Moduli (GPa) = 145.97770 73.71536 33.06712
#
# Poissons Ratio (x) = 0.11684 0.08007
# Poissons Ratio (y) = 0.23138 -0.15324
# Poissons Ratio (z) = 0.35348 -0.34161
#
# Static dielectric constant tensor:
#      x y z
#    x 4.401380 -0.000020 -0.025790 
#    y -0.000020 4.360450 0.000050 
#    z -0.025790 0.000050 4.505310 
# 
# 
# High freq. dielectric constant tensor:
#      x y z
#    x 1.947900 0.000000 -0.017610 
#    y 0.000000 1.913980 0.000000 
#    z -0.017610 0.000000 1.936370 
# 
# From -- ./inp_files/302726.got.cif
#   From: 2010.06.25/outbox.cif.g09.slc.cpg/sg12_152_cif.got.tgz:302726.got - 2010.06.28 00:19:55.
