data_PCOD8110302
_publ_section_title
;
Structure prediction by ZEFSAII (Michael W. Deem and Ramdas Pophale) SiO2 
 PCOD8110302
Probable space group: C 2/M
;
_chemical_formula_sum "Si O2"
_cell_formula_units_Z 40
_cell_length_a 13.193493
_cell_length_b 17.475133
_cell_length_c 19.139596
_cell_angle_alpha 90.000000
_cell_angle_beta 154.893324
_cell_angle_gamma 90.000000
_cell_volume 1872.367656
_symmetry_space_group_name_H-M "C 2/M"
_symmetry_group_IT_number 12
_symmetry_cell_setting 'monoclinic'
loop_
_space_group_symop_operation_xyz
x,y,z
-x,y,-z
-x,-y,-z
x,-y,z
1/2+x,1/2+y,z
1/2-x,1/2+y,-z
1/2-x,1/2-y,-z
1/2+x,1/2-y,z
loop_
_atom_site_type_symbol
_atom_site_label
_atom_site_fract_x
_atom_site_fract_y
_atom_site_fract_z
Si Si1 0.297034 0.589404 0.989067
Si Si2 0.508004 0.160146 0.687591
Si Si3 0.172173 0.586109 0.663649
Si Si4 0.990833 0.200549 0.414641
Si Si5 0.074360 0.587952 0.122376
O O1 0.297195 0.500000 0.964174
O O2 0.188216 0.646698 0.863768
O O3 0.154453 0.598734 0.971553
O O4 0.563031 0.622585 0.168114
O O5 0.539876 0.088133 0.655840
O O6 0.578891 0.233122 0.683713
O O7 0.242241 0.163789 0.550450
O O8 0.211255 0.500000 0.662827
O O9 0.000000 0.628535 0.500000
O O10 0.796359 0.134207 0.290730
O O11 0.000000 0.231714 0.500000
O O12 0.156187 0.500000 0.170069
O O13 0.000000 0.618490 0.000000
#
# Coordination Sequence:
#
# PCOD8110302 Si02
#       5
#     8   8   8   8   8
#     4  10  21  41  67  96 128 166 214 262 316 379
#     4  11  23  40  65  91 128 170 209 265 310 381
#     4  10  22  39  64  96 127 165 212 262 318 377
#     4  11  24  44  63  93 129 167 216 260 319 377
#     4  10  23  42  65  94 129 166 212 264 316 379
#
# _framework density 21.363327000000002
#
# number of rings (size 3 to 8) (size 9 to 14) (size 15 to 20)
#    0.000    1.600    2.000    1.800    2.800    5.200 
#    0.000    2.000    0.000    0.000    0.000    0.000 
#    0.000    0.000    0.000    0.000    0.000    0.000 
#
# Total GULP energy -247953.557061 kJ/mol
# GULP energy per Si atom -12397.677853 kJ/mol
# Density = 2.131470 g / cm^3
# Si number density = 21.363327 Si / 1000 Ang^3
#
#
#
# Elastic Constant Matrix: (Units=GPa)
#
#
# Indices 1 2 3 4 5 6 
#
# 1 150.7475 36.1762 75.2546 0.0038 -2.2774 0.0035
# 2 36.1762 63.3399 56.7167 -0.1112 0.6833 0.0207
# 3 75.2546 56.7167 173.6686 -0.1188 -1.5351 0.0302
# 4 0.0038 -0.1112 -0.1188 26.9225 0.0295 -6.1913
# 5 -2.2774 0.6833 -1.5351 0.0295 43.5288 0.0147
# 6 0.0035 0.0207 0.0302 -6.1913 0.0147 23.5106
#
#
#
# Elastic Compliance Matrix: (Units=1/GPa)
#
#
# Indices 1 2 3 4 5 6 
#
# 1 0.008692 -0.002260 -0.003025 -0.000025 0.000384 -0.000002
# 2 -0.002260 0.022916 -0.006511 0.000069 -0.000708 0.000007
# 3 -0.003025 -0.006511 0.009198 0.000013 0.000268 -0.000002
# 4 -0.000025 0.000069 0.000013 0.039538 -0.000032 0.010412
# 5 0.000384 -0.000708 0.000268 -0.000032 0.023014 -0.000023
# 6 -0.000002 0.000007 -0.000002 0.010412 -0.000023 0.045276
#
#
# Mechanical properties :
#
#
# Convention : Reuss Voigt Hill
#
# Bulk Modulus (GPa) = 58.09128 80.45011 69.27070
# Shear Modulus (GPa) = 28.09556 33.43293 30.76424
#
# Velocity S-wave (km/s) = 3.63041 3.96026 3.79892
# Velocity P-wave (km/s) = 6.69509 7.65842 7.19290
#
# Compressibility (1/GPa) = 0.01721429
#
# Stress axis : x y z
#
# Youngs Moduli (GPa) = 115.05087 43.63671 108.72339
#
# Poissons Ratio (x) = 0.09861 0.32889
# Poissons Ratio (y) = 0.25999 0.70790
# Poissons Ratio (z) = 0.34803 0.28412
#
# Static dielectric constant tensor:
#      x y z
#    x 4.056170 0.000070 -0.035230 
#    y 0.000070 3.722130 -0.000040 
#    z -0.035230 -0.000040 4.002780 
# 
# 
# High freq. dielectric constant tensor:
#      x y z
#    x 1.854260 0.000000 -0.001170 
#    y 0.000000 1.826530 0.000000 
#    z -0.001170 0.000000 1.846400 
# 
# From -- ./inp_files/61368.got.cif
#   From: 2010.06.25/outbox.cif.g09.slc.cpg/sg12_31_cif.got.tgz:61368.got - 2010.06.28 00:19:55.
