data_PCOD8110646
_publ_section_title
;
Structure prediction by ZEFSAII (Michael W. Deem and Ramdas Pophale) SiO2 
 PCOD8110646
Probable space group: C 2/M
;
_chemical_formula_sum "Si O2"
_cell_formula_units_Z 52
_cell_length_a 9.518350
_cell_length_b 28.171103
_cell_length_c 14.639607
_cell_angle_alpha 90.000000
_cell_angle_beta 139.514027
_cell_angle_gamma 90.000000
_cell_volume 2548.677219
_symmetry_space_group_name_H-M "C 2/M"
_symmetry_group_IT_number 12
_symmetry_cell_setting 'monoclinic'
loop_
_space_group_symop_operation_xyz
x,y,z
-x,y,-z
-x,-y,-z
x,-y,z
1/2+x,1/2+y,z
1/2-x,1/2+y,-z
1/2-x,1/2-y,-z
1/2+x,1/2-y,z
loop_
_atom_site_type_symbol
_atom_site_label
_atom_site_fract_x
_atom_site_fract_y
_atom_site_fract_z
Si Si1 0.300829 0.602586 0.839574
Si Si2 0.496127 0.813828 0.684034
Si Si3 0.315929 0.000000 0.482749
Si Si4 0.627702 0.000000 0.794241
Si Si5 0.471683 0.578660 0.737475
Si Si6 0.703999 0.000000 0.038681
Si Si7 0.803316 0.239936 0.333801
Si Si8 0.034578 0.153709 0.411343
O O1 0.102198 0.636814 0.771588
O O2 0.258444 0.546656 0.830369
O O3 0.349929 0.608296 0.756130
O O4 0.500000 0.618517 0.000000
O O5 0.419513 0.776152 0.725338
O O6 0.691290 0.788369 0.722906
O O7 0.284901 0.829565 0.520560
O O8 0.500000 0.000000 0.500000
O O9 0.182757 0.952966 0.400696
O O10 0.399280 0.000000 0.628349
O O11 0.596987 0.000000 0.886529
O O12 0.659306 0.547667 0.877196
O O13 0.554612 0.614819 0.702515
O O14 0.500000 0.000000 0.000000
O O15 0.000000 0.245984 0.500000
O O16 0.874372 0.196398 0.304690
O O17 0.000000 0.137625 0.500000
#
# Coordination Sequence:
#
# PCOD8110646 Si02
#       8
#     8   8   4   4   8   4   8   8
#     4  12  24  39  65  90 125 169 218 260 322 379
#     4  10  22  36  64  94 126 168 214 261 332 377
#     4  11  21  35  60  98 120 153 209 270 321 366
#     4  12  22  44  64  89 132 162 205 276 314 374
#     4  11  23  39  63  96 125 163 221 266 310 385
#     4  11  26  44  64  86 129 182 219 251 325 395
#     4   9  19  38  60  93 131 162 204 264 329 385
#     4   9  20  38  62  95 130 162 206 269 323 378
#
# _framework density 20.402740000000001
#
# number of rings (size 3 to 8) (size 9 to 14) (size 15 to 20)
#    0.000    1.846    3.077    3.462    4.308    3.692 
#    0.000    2.308    0.000    0.000    0.000    0.000 
#    0.000    0.000    0.000    0.000    0.000    0.000 
#
# Total GULP energy -322093.244673 kJ/mol
# GULP energy per Si atom -12388.201718 kJ/mol
# Density = 2.035630 g / cm^3
# Si number density = 20.402740 Si / 1000 Ang^3
#
#
#
# Elastic Constant Matrix: (Units=GPa)
#
#
# Indices 1 2 3 4 5 6 
#
# 1 102.1951 52.2805 34.9907 0.0000 -6.6955 0.0000
# 2 52.2805 108.1150 25.2317 0.0000 -6.2752 0.0000
# 3 34.9907 25.2317 91.7954 0.0000 -14.2050 0.0000
# 4 0.0000 0.0000 0.0000 9.4455 0.0000 -4.4264
# 5 -6.6955 -6.2752 -14.2050 0.0000 32.7000 0.0000
# 6 0.0000 0.0000 0.0000 -4.4264 0.0000 39.6031
#
#
#
# Elastic Compliance Matrix: (Units=1/GPa)
#
#
# Indices 1 2 3 4 5 6 
#
# 1 0.014111 -0.005947 -0.003724 0.000000 0.000130 0.000000
# 2 -0.005947 0.012408 -0.001033 0.000000 0.000715 0.000000
# 3 -0.003724 -0.001033 0.013346 0.000000 0.004837 0.000000
# 4 0.000000 0.000000 0.000000 0.111722 0.000000 0.012487
# 5 0.000130 0.000715 0.004837 0.000000 0.032846 0.000000
# 6 0.000000 0.000000 0.000000 0.012487 0.000000 0.026646
#
#
# Mechanical properties :
#
#
# Convention : Reuss Voigt Hill
#
# Bulk Modulus (GPa) = 54.18167 58.56791 56.37479
# Shear Modulus (GPa) = 20.95210 28.98988 24.97099
#
# Velocity S-wave (km/s) = 3.20805 3.77355 3.50223
# Velocity P-wave (km/s) = 6.35105 6.91046 6.63665
#
# Compressibility (1/GPa) = 0.01845643
#
# Stress axis : x y z
#
# Youngs Moduli (GPa) = 70.86582 80.59499 74.93017
#
# Poissons Ratio (x) = 0.47930 0.27905
# Poissons Ratio (y) = 0.42144 0.07741
# Poissons Ratio (z) = 0.26391 0.08326
#
# Static dielectric constant tensor:
#      x y z
#    x 3.722390 0.000000 -0.041840 
#    y 0.000000 3.885860 0.000000 
#    z -0.041840 0.000000 3.311950 
# 
# 
# High freq. dielectric constant tensor:
#      x y z
#    x 1.792940 0.000000 -0.004380 
#    y 0.000000 1.811470 0.000000 
#    z -0.004380 0.000000 1.764930 
# 
# From -- ./inp_files/201381.got.cif
#   From: 2010.06.25/outbox.cif.g09.slc.cpg/sg12_101_cif.got.tgz:201381.got - 2010.06.28 00:19:55.
