data_PCOD8110117
_publ_section_title
;
Structure prediction by ZEFSAII (Michael W. Deem and Ramdas Pophale) SiO2 
 PCOD8110117
Probable space group: C 2/M
;
_chemical_formula_sum "Si O2"
_cell_formula_units_Z 56
_cell_length_a 30.231183
_cell_length_b 8.402975
_cell_length_c 11.062676
_cell_angle_alpha 90.000000
_cell_angle_beta 65.751691
_cell_angle_gamma 90.000000
_cell_volume 2562.333704
_symmetry_space_group_name_H-M "C 2/M"
_symmetry_group_IT_number 12
_symmetry_cell_setting 'monoclinic'
loop_
_space_group_symop_operation_xyz
x,y,z
-x,y,-z
-x,-y,-z
x,-y,z
1/2+x,1/2+y,z
1/2-x,1/2+y,-z
1/2-x,1/2-y,-z
1/2+x,1/2-y,z
loop_
_atom_site_type_symbol
_atom_site_label
_atom_site_fract_x
_atom_site_fract_y
_atom_site_fract_z
Si Si1 0.176071 0.315509 0.905329
Si Si2 0.020639 0.688620 0.847587
Si Si3 0.210909 0.685091 0.452748
Si Si4 0.871475 0.684092 0.276705
Si Si5 0.123446 0.679848 0.195329
Si Si6 0.524302 0.683435 0.349204
Si Si7 0.218719 0.181954 0.190810
O O1 0.188580 0.500000 0.870350
O O2 0.159927 0.235315 0.796765
O O3 0.227199 0.247049 0.902555
O O4 0.130114 0.290452 0.044704
O O5 0.019597 0.500000 0.851417
O O6 0.074997 0.759396 0.772479
O O7 0.991456 0.737388 0.759626
O O8 0.000000 0.753800 0.000000
O O9 0.220401 0.500000 0.408729
O O10 0.250000 0.750000 0.500000
O O11 0.156692 0.705488 0.566647
O O12 0.214644 0.805629 0.338802
O O13 0.878047 0.500000 0.234228
O O14 0.107258 0.500000 0.241377
O O15 0.082421 0.794134 0.295957
O O16 0.176832 0.706307 0.187484
O O17 0.500000 0.755202 0.500000
O O18 0.510610 0.500000 0.356642
O O19 0.210753 0.000000 0.157593
#
# Coordination Sequence:
#
# PCOD8110117 Si02
#       7
#     8   8   8   8   8   8   8
#     4   9  18  36  61  90 124 160 196 244 300 359
#     4  10  21  40  69  98 123 158 209 265 319 378
#     4  11  21  36  57  85 121 162 205 249 298 359
#     4   9  18  34  59  89 119 153 195 246 301 355
#     4  11  23  40  65  91 118 157 208 254 302 366
#     4  11  26  46  64  89 128 169 211 263 321 378
#     4  11  22  38  60  87 126 164 199 247 303 361
#
# _framework density 21.855077999999999
#
# number of rings (size 3 to 8) (size 9 to 14) (size 15 to 20)
#    0.000    1.714    1.429    3.000    2.000    3.714 
#    0.000    2.857    0.000    0.000    0.000    0.000 
#    0.000    0.000    0.000    0.000    0.000    0.000 
#
# Total GULP energy -347022.355787 kJ/mol
# GULP energy per Si atom -12393.655564 kJ/mol
# Density = 2.180533 g / cm^3
# Si number density = 21.855078 Si / 1000 Ang^3
#
#
#
# Elastic Constant Matrix: (Units=GPa)
#
#
# Indices 1 2 3 4 5 6 
#
# 1 100.4347 1.5102 31.3634 0.0000 -18.1607 0.0000
# 2 1.5102 30.6498 15.6187 0.0000 -6.7570 0.0000
# 3 31.3634 15.6187 108.4242 0.0000 -18.2189 0.0000
# 4 0.0000 0.0000 0.0000 26.2020 0.0000 2.0173
# 5 -18.1607 -6.7570 -18.2189 0.0000 42.2968 0.0000
# 6 0.0000 0.0000 0.0000 2.0173 0.0000 27.3286
#
#
#
# Elastic Compliance Matrix: (Units=1/GPa)
#
#
# Indices 1 2 3 4 5 6 
#
# 1 0.011568 0.001806 -0.002936 0.000000 0.003991 0.000000
# 2 0.001806 0.036041 -0.004977 0.000000 0.004389 0.000000
# 3 -0.002936 -0.004977 0.011259 0.000000 0.002794 0.000000
# 4 0.000000 0.000000 0.000000 0.038383 0.000000 -0.002833
# 5 0.003991 0.004389 0.002794 0.000000 0.027261 0.000000
# 6 0.000000 0.000000 0.000000 -0.002833 0.000000 0.036801
#
#
# Mechanical properties :
#
#
# Convention : Reuss Voigt Hill
#
# Bulk Modulus (GPa) = 21.43401 37.38815 29.41108
# Shear Modulus (GPa) = 26.44421 31.89991 29.17206
#
# Velocity S-wave (km/s) = 3.48225 3.82463 3.65745
# Velocity P-wave (km/s) = 5.09870 6.05377 5.59665
#
# Compressibility (1/GPa) = 0.04665483
#
# Stress axis : x y z
#
# Youngs Moduli (GPa) = 86.44573 27.74590 88.82080
#
# Poissons Ratio (x) = -0.05010 0.26076
# Poissons Ratio (y) = -0.15611 0.44203
# Poissons Ratio (z) = 0.25378 0.13808
#
# Static dielectric constant tensor:
#      x y z
#    x 4.138450 0.000000 0.113480 
#    y 0.000000 3.518470 0.000000 
#    z 0.113480 0.000000 4.778040 
# 
# 
# High freq. dielectric constant tensor:
#      x y z
#    x 1.868370 0.000000 -0.004380 
#    y 0.000000 1.819670 0.000000 
#    z -0.004380 0.000000 1.874820 
# 
# From -- ./inp_files/187246.got.cif
#   From: 2010.06.25/outbox.cif.g09.slc.cpg/sg12_94_cif.got.tgz:187246.got - 2010.06.28 00:19:55.
