data_PCOD8110437
_publ_section_title
;
Structure prediction by ZEFSAII (Michael W. Deem and Ramdas Pophale) SiO2 
 PCOD8110437
Probable space group: C 2/M
;
_chemical_formula_sum "Si O2"
_cell_formula_units_Z 48
_cell_length_a 18.808542
_cell_length_b 29.417303
_cell_length_c 8.782328
_cell_angle_alpha 90.000000
_cell_angle_beta 27.577374
_cell_angle_gamma 90.000000
_cell_volume 2249.562224
_symmetry_space_group_name_H-M "C 2/M"
_symmetry_group_IT_number 12
_symmetry_cell_setting 'monoclinic'
loop_
_space_group_symop_operation_xyz
x,y,z
-x,y,-z
-x,-y,-z
x,-y,z
1/2+x,1/2+y,z
1/2-x,1/2+y,-z
1/2-x,1/2-y,-z
1/2+x,1/2-y,z
loop_
_atom_site_type_symbol
_atom_site_label
_atom_site_fract_x
_atom_site_fract_y
_atom_site_fract_z
Si Si1 0.341226 0.127593 0.383093
Si Si2 0.648165 0.450418 0.620121
Si Si3 0.173587 0.794345 0.218853
Si Si4 0.837009 0.376980 0.740115
Si Si5 0.427179 0.449965 0.796128
Si Si6 0.843260 0.791286 0.385938
O O1 0.278510 0.077395 0.462666
O O2 0.364709 0.139891 0.515456
O O3 0.216675 0.160225 0.549102
O O4 0.500000 0.136155 0.000000
O O5 0.721027 0.500000 0.441663
O O6 0.569778 0.426869 0.619799
O O7 0.500000 0.457709 0.000000
O O8 0.162796 0.789411 0.420370
O O9 0.000000 0.800831 0.500000
O O10 0.250000 0.750000 0.000000
O O11 0.270070 0.837725 0.976526
O O12 0.000000 0.393426 0.500000
O O13 0.721661 0.418870 0.939958
O O14 0.500000 0.460037 0.500000
O O15 0.380680 0.500000 0.954415
O O16 0.750000 0.750000 0.500000
O O17 0.000000 0.785317 0.000000
#
# Coordination Sequence:
#
# PCOD8110437 Si02
#       6
#     8   8   8   8   8   8
#     4  12  26  42  66  99 135 178 227 281 335 398
#     4  10  21  42  69  96 131 178 229 281 336 400
#     4  12  26  46  71 100 136 177 220 274 336 402
#     4  12  26  43  66  97 138 179 224 277 339 402
#     4  10  23  42  68  98 133 177 228 280 338 404
#     4  12  26  46  72 100 135 174 224 276 332 397
#
# _framework density 21.337485000000001
#
# number of rings (size 3 to 8) (size 9 to 14) (size 15 to 20)
#    0.000    0.667    1.667    6.000    7.000    0.667 
#    0.000    0.000    0.000    0.000    0.000    0.000 
#    0.000    0.000    0.000    0.000    0.000    0.000 
#
# Total GULP energy -297333.645717 kJ/mol
# GULP energy per Si atom -12388.901905 kJ/mol
# Density = 2.128892 g / cm^3
# Si number density = 21.337485 Si / 1000 Ang^3
#
#
#
# Elastic Constant Matrix: (Units=GPa)
#
#
# Indices 1 2 3 4 5 6 
#
# 1 178.7108 37.9530 53.5051 0.0005 19.0877 -0.0002
# 2 37.9530 91.1062 35.0360 0.0004 2.5219 -0.0002
# 3 53.5051 35.0360 126.9434 0.0002 13.4921 -0.0003
# 4 0.0005 0.0004 0.0002 22.6819 -0.0004 -0.3414
# 5 19.0877 2.5219 13.4921 -0.0004 44.4129 0.0003
# 6 -0.0002 -0.0002 -0.0003 -0.3414 0.0003 39.5266
#
#
#
# Elastic Compliance Matrix: (Units=1/GPa)
#
#
# Indices 1 2 3 4 5 6 
#
# 1 0.006889 -0.001994 -0.002119 0.000000 -0.002204 0.000000
# 2 -0.001994 0.012862 -0.002814 0.000000 0.000981 0.000000
# 3 -0.002119 -0.002814 0.009748 0.000000 -0.001891 0.000000
# 4 0.000000 0.000000 0.000000 0.044094 0.000000 0.000381
# 5 -0.002204 0.000981 -0.001891 0.000000 0.023982 0.000000
# 6 0.000000 0.000000 0.000000 0.000381 0.000000 0.025303
#
#
# Mechanical properties :
#
#
# Convention : Reuss Voigt Hill
#
# Bulk Modulus (GPa) = 63.91594 72.19430 68.05512
# Shear Modulus (GPa) = 35.22479 39.34204 37.28341
#
# Velocity S-wave (km/s) = 4.06746 4.29861 4.18463
# Velocity P-wave (km/s) = 7.21656 7.65149 7.43721
#
# Compressibility (1/GPa) = 0.01564555
#
# Stress axis : x y z
#
# Youngs Moduli (GPa) = 145.16145 77.75035 102.58277
#
# Poissons Ratio (x) = 0.15502 0.21738
# Poissons Ratio (y) = 0.28943 0.28864
# Poissons Ratio (z) = 0.30761 0.21877
#
# Static dielectric constant tensor:
#      x y z
#    x 4.109610 -0.000010 0.237380 
#    y -0.000010 3.993380 -0.000010 
#    z 0.237380 -0.000010 3.938360 
# 
# 
# High freq. dielectric constant tensor:
#      x y z
#    x 1.864480 0.000000 0.009850 
#    y 0.000000 1.844510 0.000000 
#    z 0.009850 0.000000 1.839420 
# 
# From -- ./inp_files/80626.got.cif
#   From: 2010.06.25/outbox.cif.g09.slc.cpg/sg12_41_cif.got.tgz:80626.got - 2010.06.28 00:19:55.
