data_PCOD8110899
_publ_section_title
;
Structure prediction by ZEFSAII (Michael W. Deem and Ramdas Pophale) SiO2 
 PCOD8110899
Probable space group: C 2/M
;
_chemical_formula_sum "Si O2"
_cell_formula_units_Z 40
_cell_length_a 9.135394
_cell_length_b 27.976529
_cell_length_c 15.336001
_cell_angle_alpha 90.000000
_cell_angle_beta 31.967372
_cell_angle_gamma 90.000000
_cell_volume 2075.137654
_symmetry_space_group_name_H-M "C 2/M"
_symmetry_group_IT_number 12
_symmetry_cell_setting 'monoclinic'
loop_
_space_group_symop_operation_xyz
x,y,z
-x,y,-z
-x,-y,-z
x,-y,z
1/2+x,1/2+y,z
1/2-x,1/2+y,-z
1/2-x,1/2-y,-z
1/2+x,1/2-y,z
loop_
_atom_site_type_symbol
_atom_site_label
_atom_site_fract_x
_atom_site_fract_y
_atom_site_fract_z
Si Si1 0.471675 0.274424 0.611278
Si Si2 0.672112 0.610921 0.001771
Si Si3 0.020236 0.786799 0.091687
Si Si4 0.325426 0.622291 0.677055
Si Si5 0.827114 0.946481 0.831778
O O1 0.500000 0.291935 0.500000
O O2 0.375114 0.325552 0.700254
O O3 0.750000 0.250000 0.500000
O O4 0.260227 0.231181 0.724955
O O5 0.002114 0.613542 0.816466
O O6 0.500000 0.600896 0.000000
O O7 0.587759 0.660570 0.091130
O O8 0.577845 0.572126 0.120994
O O9 0.250000 0.750000 0.000000
O O10 0.000000 0.789305 0.000000
O O11 0.500000 0.614304 0.500000
O O12 0.429723 0.584822 0.697605
O O13 0.944119 0.000000 0.760157
O O14 0.500000 0.945690 0.000000
#
# Coordination Sequence:
#
# PCOD8110899 Si02
#       5
#     8   8   8   8   8
#     4  11  24  37  54  85 120 160 195 238 291 346
#     4  10  22  38  60  89 119 155 198 245 292 353
#     4  11  22  35  56  83 116 158 197 233 285 345
#     4  10  22  39  59  88 122 154 197 245 295 351
#     4   9  20  40  66  89 114 155 202 246 298 351
#
# _framework density 19.275828000000001
#
# number of rings (size 3 to 8) (size 9 to 14) (size 15 to 20)
#    0.000    1.800    2.000    1.200   14.000    0.800 
#    0.000    1.000    0.000    1.200    0.000    0.000 
#    0.000    0.000    0.000    0.000    0.000    0.000 
#
# Total GULP energy -247778.670778 kJ/mol
# GULP energy per Si atom -12388.933539 kJ/mol
# Density = 1.923196 g / cm^3
# Si number density = 19.275828 Si / 1000 Ang^3
#
#
#
# Elastic Constant Matrix: (Units=GPa)
#
#
# Indices 1 2 3 4 5 6 
#
# 1 109.2437 61.0894 34.6958 0.0000 -2.8314 0.0000
# 2 61.0894 146.8924 42.8464 0.0000 10.5100 0.0000
# 3 34.6958 42.8464 100.8094 0.0000 -3.4488 0.0000
# 4 0.0000 0.0000 0.0000 26.2194 0.0000 7.2019
# 5 -2.8314 10.5100 -3.4488 0.0000 35.0751 0.0000
# 6 0.0000 0.0000 0.0000 7.2019 0.0000 30.0644
#
#
#
# Elastic Compliance Matrix: (Units=1/GPa)
#
#
# Indices 1 2 3 4 5 6 
#
# 1 0.012569 -0.004732 -0.002239 0.000000 0.002212 0.000000
# 2 -0.004732 0.009809 -0.002663 0.000000 -0.003583 0.000000
# 3 -0.002239 -0.002663 0.011883 0.000000 0.001786 0.000000
# 4 0.000000 0.000000 0.000000 0.040826 0.000000 -0.009780
# 5 0.002212 -0.003583 0.001786 0.000000 0.029938 0.000000
# 6 0.000000 0.000000 0.000000 -0.009780 0.000000 0.035605
#
#
# Mechanical properties :
#
#
# Convention : Reuss Voigt Hill
#
# Bulk Modulus (GPa) = 66.69895 70.46765 68.58330
# Shear Modulus (GPa) = 30.32245 32.82604 31.57424
#
# Velocity S-wave (km/s) = 3.97051 4.13117 4.05164
# Velocity P-wave (km/s) = 7.46307 7.70664 7.58584
#
# Compressibility (1/GPa) = 0.01499274
#
# Stress axis : x y z
#
# Youngs Moduli (GPa) = 79.56394 101.94889 84.15330
#
# Poissons Ratio (x) = 0.48245 0.18840
# Poissons Ratio (y) = 0.37652 0.22409
# Poissons Ratio (z) = 0.17812 0.27147
#
# Static dielectric constant tensor:
#      x y z
#    x 3.408230 0.000000 0.148190 
#    y 0.000000 3.804670 0.000000 
#    z 0.148190 0.000000 3.448790 
# 
# 
# High freq. dielectric constant tensor:
#      x y z
#    x 1.752510 0.000000 0.006550 
#    y 0.000000 1.757180 0.000000 
#    z 0.006550 0.000000 1.740140 
# 
# From -- ./inp_files/40317.got.cif
#   From: 2010.06.25/outbox.cif.g09.slc.cpg/sg12_21_cif.got.tgz:40317.got - 2010.06.28 00:19:55.
