data_PCOD8110295
_publ_section_title
;
Structure prediction by ZEFSAII (Michael W. Deem and Ramdas Pophale) SiO2 
 PCOD8110295
Probable space group: C 2/M
;
_chemical_formula_sum "Si O2"
_cell_formula_units_Z 48
_cell_length_a 12.187701
_cell_length_b 18.777601
_cell_length_c 11.426332
_cell_angle_alpha 90.000000
_cell_angle_beta 108.754243
_cell_angle_gamma 90.000000
_cell_volume 2476.143176
_symmetry_space_group_name_H-M "C 2/M"
_symmetry_group_IT_number 12
_symmetry_cell_setting 'monoclinic'
loop_
_space_group_symop_operation_xyz
x,y,z
-x,y,-z
-x,-y,-z
x,-y,z
1/2+x,1/2+y,z
1/2-x,1/2+y,-z
1/2-x,1/2-y,-z
1/2+x,1/2-y,z
loop_
_atom_site_type_symbol
_atom_site_label
_atom_site_fract_x
_atom_site_fract_y
_atom_site_fract_z
Si Si1 0.396093 0.329428 0.760907
Si Si2 0.617614 0.582341 0.473416
Si Si3 0.773111 0.419510 0.740262
Si Si4 0.764314 0.680006 0.086445
Si Si5 0.517862 0.186574 0.141043
Si Si6 0.392834 0.581498 0.108552
O O1 0.360063 0.364403 0.626222
O O2 0.283745 0.308363 0.799347
O O3 0.461078 0.254176 0.767483
O O4 0.481850 0.382458 0.858684
O O5 0.500000 0.603393 0.500000
O O6 0.608726 0.500000 0.427275
O O7 0.730105 0.593332 0.593532
O O8 0.817783 0.500000 0.772942
O O9 0.659300 0.406160 0.779928
O O10 0.879088 0.369704 0.812784
O O11 0.896730 0.654295 0.143293
O O12 0.750000 0.750000 0.000000
O O13 0.696456 0.613464 0.012926
O O14 0.500000 0.211182 0.000000
O O15 0.410185 0.500000 0.082811
#
# Coordination Sequence:
#
# PCOD8110295 Si02
#       6
#     8   8   8   8   8   8
#     4  12  23  37  64  92 128 167 210 268 324 381
#     4  10  21  41  67  94 128 169 216 271 320 371
#     4  10  22  41  65  93 126 169 219 263 313 385
#     4  12  23  40  58  91 133 172 205 260 328 384
#     4  12  23  40  64  89 130 173 210 258 324 390
#     4  11  21  36  63  95 125 159 210 270 323 378
#
# _framework density 19.384985
#
# number of rings (size 3 to 8) (size 9 to 14) (size 15 to 20)
#    0.000    0.833    6.667    1.000    0.000    3.667 
#    0.000    0.833    0.000    2.000    0.000    0.000 
#    0.000    0.000    0.000    0.000    0.000    0.000 
#
# Total GULP energy -297593.087194 kJ/mol
# GULP energy per Si atom -12399.711966 kJ/mol
# Density = 1.934086 g / cm^3
# Si number density = 19.384985 Si / 1000 Ang^3
#
#
#
# Elastic Constant Matrix: (Units=GPa)
#
#
# Indices 1 2 3 4 5 6 
#
# 1 107.3044 37.6077 29.1106 0.0000 -4.9779 0.0000
# 2 37.6077 100.5565 38.6063 0.0000 0.3549 0.0000
# 3 29.1106 38.6063 89.7319 0.0000 -9.2024 0.0000
# 4 0.0000 0.0000 0.0000 39.8964 0.0000 0.1985
# 5 -4.9779 0.3549 -9.2024 0.0000 29.0786 0.0000
# 6 0.0000 0.0000 0.0000 0.1985 0.0000 29.3357
#
#
#
# Elastic Compliance Matrix: (Units=1/GPa)
#
#
# Indices 1 2 3 4 5 6 
#
# 1 0.011114 -0.003388 -0.002014 0.000000 0.001307 0.000000
# 2 -0.003388 0.013040 -0.004741 0.000000 -0.002239 0.000000
# 3 -0.002014 -0.004741 0.014271 0.000000 0.004229 0.000000
# 4 0.000000 0.000000 0.000000 0.025066 0.000000 -0.000170
# 5 0.001307 -0.002239 0.004229 0.000000 0.035979 0.000000
# 6 0.000000 0.000000 0.000000 -0.000170 0.000000 0.034089
#
#
# Mechanical properties :
#
#
# Convention : Reuss Voigt Hill
#
# Bulk Modulus (GPa) = 55.12876 56.47132 55.80004
# Shear Modulus (GPa) = 31.27150 32.48002 31.87576
#
# Velocity S-wave (km/s) = 4.02080 4.09776 4.05946
# Velocity P-wave (km/s) = 7.07506 7.18217 7.12881
#
# Compressibility (1/GPa) = 0.01813935
#
# Stress axis : x y z
#
# Youngs Moduli (GPa) = 89.97982 76.68872 70.07187
#
# Poissons Ratio (x) = 0.25981 0.14111
# Poissons Ratio (y) = 0.30484 0.33220
# Poissons Ratio (z) = 0.18121 0.36357
#
# Static dielectric constant tensor:
#      x y z
#    x 3.677810 0.000000 -0.049610 
#    y 0.000000 3.526530 0.000000 
#    z -0.049610 0.000000 3.496650 
# 
# 
# High freq. dielectric constant tensor:
#      x y z
#    x 1.756220 0.000000 0.002670 
#    y 0.000000 1.756690 0.000000 
#    z 0.002670 0.000000 1.741660 
# 
# From -- ./inp_files/131655.got.cif
#   From: 2010.06.25/outbox.cif.g09.slc.cpg/sg12_66_cif.got.tgz:131655.got - 2010.06.28 00:19:55.
