data_PCOD8110839
_publ_section_title
;
Structure prediction by ZEFSAII (Michael W. Deem and Ramdas Pophale) SiO2 
 PCOD8110839
Probable space group: C 2/M
;
_chemical_formula_sum "Si O2"
_cell_formula_units_Z 48
_cell_length_a 10.083418
_cell_length_b 9.527933
_cell_length_c 23.732553
_cell_angle_alpha 90.000000
_cell_angle_beta 105.758110
_cell_angle_gamma 90.000000
_cell_volume 2194.391553
_symmetry_space_group_name_H-M "C 2/M"
_symmetry_group_IT_number 12
_symmetry_cell_setting 'monoclinic'
loop_
_space_group_symop_operation_xyz
x,y,z
-x,y,-z
-x,-y,-z
x,-y,z
1/2+x,1/2+y,z
1/2-x,1/2+y,-z
1/2-x,1/2-y,-z
1/2+x,1/2-y,z
loop_
_atom_site_type_symbol
_atom_site_label
_atom_site_fract_x
_atom_site_fract_y
_atom_site_fract_z
Si Si1 0.850457 0.162220 0.745276
Si Si2 0.161439 0.149108 0.412885
Si Si3 0.590039 0.340027 0.684447
Si Si4 0.915121 0.836934 0.878174
Si Si5 0.681184 0.164976 0.941849
Si Si6 0.862439 0.847250 0.464710
O O1 0.720455 0.240043 0.703060
O O2 0.880907 0.216280 0.811537
O O3 0.983245 0.193564 0.722505
O O4 0.811726 0.000000 0.743263
O O5 0.210553 0.128231 0.483079
O O6 0.266984 0.271815 0.406043
O O7 0.999952 0.189499 0.383845
O O8 0.186512 0.000000 0.383020
O O9 0.641857 0.500000 0.694243
O O10 0.776634 0.817872 0.898152
O O11 0.033178 0.735322 0.915033
O O12 0.964769 0.000000 0.885268
O O13 0.662846 0.000000 0.955070
O O14 0.750000 0.250000 0.000000
O O15 0.000000 0.763784 0.500000
O O16 0.900558 0.000000 0.442520
#
# Coordination Sequence:
#
# PCOD8110839 Si02
#       6
#     8   8   8   8   8   8
#     4  10  22  40  60  85 115 151 193 236 284 337
#     4   9  19  34  49  73 105 135 173 225 277 331
#     4  10  22  38  58  85 115 146 189 240 286 337
#     4  10  22  40  60  84 119 155 192 238 282 333
#     4  11  23  38  60  90 120 154 194 234 282 336
#     4   9  18  32  51  73  99 134 176 217 271 337
#
# _framework density 21.873944000000002
#
# number of rings (size 3 to 8) (size 9 to 14) (size 15 to 20)
#    0.000    2.167    0.000    2.000    2.333    5.667 
#    0.000    0.000    0.000    0.000    0.000    0.000 
#    0.000    0.000    0.000    0.000    0.000    0.000 
#
# Total GULP energy -297335.762694 kJ/mol
# GULP energy per Si atom -12388.990112 kJ/mol
# Density = 2.182416 g / cm^3
# Si number density = 21.873944 Si / 1000 Ang^3
#
#
#
# Elastic Constant Matrix: (Units=GPa)
#
#
# Indices 1 2 3 4 5 6 
#
# 1 48.1305 19.7133 -1.3662 0.0000 18.1173 0.0000
# 2 19.7133 83.7732 23.8143 0.0000 25.5877 0.0000
# 3 -1.3662 23.8143 88.4530 0.0000 15.0408 0.0000
# 4 0.0000 0.0000 0.0000 25.0239 0.0000 12.5018
# 5 18.1173 25.5877 15.0408 0.0000 37.0100 0.0000
# 6 0.0000 0.0000 0.0000 12.5018 0.0000 36.5870
#
#
#
# Elastic Compliance Matrix: (Units=1/GPa)
#
#
# Indices 1 2 3 4 5 6 
#
# 1 0.026899 -0.003624 0.003442 0.000000 -0.012061 0.000000
# 2 -0.003624 0.016139 -0.003014 0.000000 -0.008159 0.000000
# 3 0.003442 -0.003014 0.013001 0.000000 -0.004885 0.000000
# 4 0.000000 0.000000 0.000000 0.048188 0.000000 -0.016466
# 5 -0.012061 -0.008159 -0.004885 0.000000 0.040550 0.000000
# 6 0.000000 0.000000 0.000000 -0.016466 0.000000 0.032958
#
#
# Mechanical properties :
#
#
# Convention : Reuss Voigt Hill
#
# Bulk Modulus (GPa) = 20.14254 33.85328 26.99791
# Shear Modulus (GPa) = 24.91591 31.60387 28.25989
#
# Velocity S-wave (km/s) = 3.37867 3.80520 3.59826
# Velocity P-wave (km/s) = 4.94459 5.90052 5.44358
#
# Compressibility (1/GPa) = 0.04964617
#
# Stress axis : x y z
#
# Youngs Moduli (GPa) = 37.17620 61.96323 76.91944
#
# Poissons Ratio (x) = 0.22458 -0.26477
# Poissons Ratio (y) = 0.13474 0.23181
# Poissons Ratio (z) = -0.12797 0.18674
#
# Static dielectric constant tensor:
#      x y z
#    x 3.934430 0.000000 -0.071250 
#    y 0.000000 4.419830 0.000000 
#    z -0.071250 0.000000 4.260230 
# 
# 
# High freq. dielectric constant tensor:
#      x y z
#    x 1.865260 0.000000 -0.007190 
#    y 0.000000 1.855260 0.000000 
#    z -0.007190 0.000000 1.871640 
# 
# From -- ./inp_files/334820.got.cif
#   From: 2010.06.25/outbox.cif.g09.slc.cpg/sg12_168_cif.got.tgz:334820.got - 2010.06.28 00:19:55.
