data_PCOD8110116
_publ_section_title
;
Structure prediction by ZEFSAII (Michael W. Deem and Ramdas Pophale) SiO2 
 PCOD8110116
Probable space group: C 2/M
;
_chemical_formula_sum "Si O2"
_cell_formula_units_Z 56
_cell_length_a 24.148084
_cell_length_b 18.256452
_cell_length_c 8.732849
_cell_angle_alpha 90.000000
_cell_angle_beta 44.501120
_cell_angle_gamma 90.000000
_cell_volume 2698.518796
_symmetry_space_group_name_H-M "C 2/M"
_symmetry_group_IT_number 12
_symmetry_cell_setting 'monoclinic'
loop_
_space_group_symop_operation_xyz
x,y,z
-x,y,-z
-x,-y,-z
x,-y,z
1/2+x,1/2+y,z
1/2-x,1/2+y,-z
1/2-x,1/2-y,-z
1/2+x,1/2-y,z
loop_
_atom_site_type_symbol
_atom_site_label
_atom_site_fract_x
_atom_site_fract_y
_atom_site_fract_z
Si Si1 0.603269 0.831245 0.159547
Si Si2 0.271510 0.914363 0.263940
Si Si3 0.070878 0.699089 0.554586
Si Si4 0.478629 0.419288 0.867921
Si Si5 0.881589 0.138425 0.586746
Si Si6 0.653191 0.329795 0.013347
Si Si7 0.714463 0.820787 0.480767
O O1 0.519656 0.823743 0.235355
O O2 0.596647 0.847352 0.353933
O O3 0.652032 0.756732 0.041936
O O4 0.652201 0.897728 0.990343
O O5 0.196935 0.865707 0.359301
O O6 0.289210 0.890705 0.401920
O O7 0.251348 0.000000 0.294799
O O8 0.074525 0.783997 0.502382
O O9 0.124728 0.689112 0.598434
O O10 0.440503 0.500000 0.925445
O O11 0.554347 0.418241 0.605402
O O12 0.417173 0.355437 0.956189
O O13 0.500000 0.404190 0.000000
O O14 0.854667 0.123084 0.814677
O O15 0.735647 0.344182 0.766261
O O16 0.750000 0.750000 0.500000
#
# Coordination Sequence:
#
# PCOD8110116 Si02
#       7
#     8   8   8   8   8   8   8
#     4  10  21  42  66  96 125 164 216 271 316 381
#     4  12  26  43  63  94 134 171 210 265 333 387
#     4  10  21  40  69  98 122 160 222 270 313 377
#     4  11  24  38  57  92 135 173 208 255 323 394
#     4  11  21  40  66  95 129 165 212 269 316 384
#     4  11  22  38  65  93 126 168 219 262 316 382
#     4  12  23  40  63  96 126 169 216 267 319 381
#
# _framework density 20.752123999999998
#
# number of rings (size 3 to 8) (size 9 to 14) (size 15 to 20)
#    0.000    1.000    4.286    2.571    0.000    6.286 
#    0.000    5.000    0.000    0.000    0.000    0.000 
#    0.000    0.000    0.000    0.000    0.000    0.000 
#
# Total GULP energy -347171.649113 kJ/mol
# GULP energy per Si atom -12398.987468 kJ/mol
# Density = 2.070489 g / cm^3
# Si number density = 20.752124 Si / 1000 Ang^3
#
#
#
# Elastic Constant Matrix: (Units=GPa)
#
#
# Indices 1 2 3 4 5 6 
#
# 1 98.0330 9.9007 4.8579 0.0000 -5.1201 0.0000
# 2 9.9007 48.9515 15.7697 0.0000 4.5641 0.0000
# 3 4.8579 15.7697 79.8952 0.0000 1.5998 0.0000
# 4 0.0000 0.0000 0.0000 26.1083 0.0000 -4.1514
# 5 -5.1201 4.5641 1.5998 0.0000 37.7809 0.0000
# 6 0.0000 0.0000 0.0000 -4.1514 0.0000 2.6699
#
#
#
# Elastic Compliance Matrix: (Units=1/GPa)
#
#
# Indices 1 2 3 4 5 6 
#
# 1 0.010525 -0.002211 -0.000238 0.000000 0.001703 0.000000
# 2 -0.002211 0.022510 -0.004252 0.000000 -0.002839 0.000000
# 3 -0.000238 -0.004252 0.013372 0.000000 -0.000085 0.000000
# 4 0.000000 0.000000 0.000000 0.050883 0.000000 0.079119
# 5 0.001703 -0.002839 -0.000085 0.000000 0.027046 0.000000
# 6 0.000000 0.000000 0.000000 0.079119 0.000000 0.497575
#
#
# Mechanical properties :
#
#
# Convention : Reuss Voigt Hill
#
# Bulk Modulus (GPa) = 30.29776 31.99292 31.14534
# Shear Modulus (GPa) = 7.73620 26.40191 17.06906
#
# Velocity S-wave (km/s) = 1.93287 3.57073 2.87107
# Velocity P-wave (km/s) = 4.42864 5.69652 5.10212
#
# Compressibility (1/GPa) = 0.03300574
#
# Stress axis : x y z
#
# Youngs Moduli (GPa) = 95.01478 44.42480 74.78451
#
# Poissons Ratio (x) = 0.09822 0.01777
# Poissons Ratio (y) = 0.21007 0.31796
# Poissons Ratio (z) = 0.02258 0.18888
#
# Static dielectric constant tensor:
#      x y z
#    x 3.781730 0.000000 0.107610 
#    y 0.000000 3.391770 0.000000 
#    z 0.107610 0.000000 3.990500 
# 
# 
# High freq. dielectric constant tensor:
#      x y z
#    x 1.818580 0.000000 0.003520 
#    y 0.000000 1.778170 0.000000 
#    z 0.003520 0.000000 1.823860 
# 
# From -- ./inp_files/105980.got.cif
#   From: 2010.06.25/outbox.cif.g09.slc.cpg/sg12_53_cif.got.tgz:105980.got - 2010.06.28 00:19:55.
