data_PCOD8110287
_publ_section_title
;
Structure prediction by ZEFSAII (Michael W. Deem and Ramdas Pophale) SiO2 
 PCOD8110287
Probable space group: C 2/M
;
_chemical_formula_sum "Si O2"
_cell_formula_units_Z 56
_cell_length_a 30.160008
_cell_length_b 8.879571
_cell_length_c 17.964083
_cell_angle_alpha 90.000000
_cell_angle_beta 144.299820
_cell_angle_gamma 90.000000
_cell_volume 2807.384649
_symmetry_space_group_name_H-M "C 2/M"
_symmetry_group_IT_number 12
_symmetry_cell_setting 'monoclinic'
loop_
_space_group_symop_operation_xyz
x,y,z
-x,y,-z
-x,-y,-z
x,-y,z
1/2+x,1/2+y,z
1/2-x,1/2+y,-z
1/2-x,1/2-y,-z
1/2+x,1/2-y,z
loop_
_atom_site_type_symbol
_atom_site_label
_atom_site_fract_x
_atom_site_fract_y
_atom_site_fract_z
Si Si1 0.670224 0.176356 0.873524
Si Si2 0.912692 0.678256 0.389603
Si Si3 0.736661 0.822780 0.561903
Si Si4 0.614037 0.326321 0.495375
Si Si5 0.954594 0.171031 0.206763
Si Si6 0.016959 0.328432 0.903719
Si Si7 0.876695 0.328488 0.816880
O O1 0.635611 0.231568 0.747760
O O2 0.612579 0.219544 0.860274
O O3 0.681887 0.000000 0.889036
O O4 0.750000 0.250000 0.000000
O O5 0.909514 0.500000 0.396650
O O6 0.872114 0.756025 0.404539
O O7 0.000000 0.732142 0.500000
O O8 0.750000 0.750000 0.500000
O O9 0.660173 0.760810 0.494714
O O10 0.806659 0.784006 0.711455
O O11 0.728615 0.000000 0.540900
O O12 0.639526 0.500000 0.530177
O O13 0.525434 0.306680 0.357728
O O14 0.978931 0.210971 0.156858
O O15 0.925327 0.000000 0.168891
O O16 0.014669 0.500000 0.871148
O O17 0.940480 0.290279 0.843416
O O18 0.089963 0.304784 0.055566
O O19 0.848552 0.500000 0.768278
#
# Coordination Sequence:
#
# PCOD8110287 Si02
#       7
#     8   8   8   8   8   8   8
#     4  11  24  42  65  91 124 161 200 252 311 370
#     4  10  21  41  67  93 122 160 207 257 311 370
#     4  12  25  40  60  87 123 162 203 253 307 362
#     4  11  24  40  63  93 123 161 207 255 308 368
#     4  11  23  38  59  89 121 154 200 249 301 365
#     4   9  19  36  61  87 115 156 200 244 300 363
#     4   9  19  38  60  85 117 155 200 248 301 362
#
# _framework density 19.947391
#
# number of rings (size 3 to 8) (size 9 to 14) (size 15 to 20)
#    0.000    1.571    1.429    4.286    0.000    7.714 
#    0.000    1.429    0.000    0.000    0.000    0.000 
#    0.000    0.000    0.000    0.000    0.000    0.000 
#
# Total GULP energy -347340.442206 kJ/mol
# GULP energy per Si atom -12405.015793 kJ/mol
# Density = 1.990199 g / cm^3
# Si number density = 19.947391 Si / 1000 Ang^3
#
#
#
# Elastic Constant Matrix: (Units=GPa)
#
#
# Indices 1 2 3 4 5 6 
#
# 1 95.9539 42.7173 28.3238 0.0000 -9.0706 0.0000
# 2 42.7173 93.0806 43.9668 0.0000 -0.3319 0.0000
# 3 28.3238 43.9668 98.5938 0.0000 -0.8821 0.0000
# 4 0.0000 0.0000 0.0000 31.3670 0.0000 -0.2564
# 5 -9.0706 -0.3319 -0.8821 0.0000 32.2688 0.0000
# 6 0.0000 0.0000 0.0000 -0.2564 0.0000 37.0793
#
#
#
# Elastic Compliance Matrix: (Units=1/GPa)
#
#
# Indices 1 2 3 4 5 6 
#
# 1 0.013685 -0.005607 -0.001397 0.000000 0.003751 0.000000
# 2 -0.005607 0.015907 -0.005497 0.000000 -0.001563 0.000000
# 3 -0.001397 -0.005497 0.012995 0.000000 -0.000094 0.000000
# 4 0.000000 0.000000 0.000000 0.031882 0.000000 0.000220
# 5 0.003751 -0.001563 -0.000094 0.000000 0.032025 0.000000
# 6 0.000000 0.000000 0.000000 0.000220 0.000000 0.026971
#
#
# Mechanical properties :
#
#
# Convention : Reuss Voigt Hill
#
# Bulk Modulus (GPa) = 56.86930 57.51602 57.19266
# Shear Modulus (GPa) = 30.42664 31.65105 31.03885
#
# Velocity S-wave (km/s) = 3.90980 3.98769 3.94894
# Velocity P-wave (km/s) = 6.99669 7.07805 7.03748
#
# Compressibility (1/GPa) = 0.01758418
#
# Stress axis : x y z
#
# Youngs Moduli (GPa) = 73.07345 62.86345 76.95523
#
# Poissons Ratio (x) = 0.35247 0.10754
# Poissons Ratio (y) = 0.40972 0.42302
# Poissons Ratio (z) = 0.10212 0.34556
#
# Static dielectric constant tensor:
#      x y z
#    x 3.542000 0.000000 -0.037920 
#    y 0.000000 3.585750 0.000000 
#    z -0.037920 0.000000 3.724110 
# 
# 
# High freq. dielectric constant tensor:
#      x y z
#    x 1.781410 0.000000 -0.003950 
#    y 0.000000 1.778350 0.000000 
#    z -0.003950 0.000000 1.784470 
# 
# From -- ./inp_files/280938.got.cif
#   From: 2010.06.25/outbox.cif.g09.slc.cpg/sg12_141_cif.got.tgz:280938.got - 2010.06.28 00:19:55.
