data_PCOD8110779
_publ_section_title
;
Structure prediction by ZEFSAII (Michael W. Deem and Ramdas Pophale) SiO2 
 PCOD8110779
Probable space group: C 2/M
;
_chemical_formula_sum "Si O2"
_cell_formula_units_Z 64
_cell_length_a 30.425060
_cell_length_b 13.852494
_cell_length_c 9.837496
_cell_angle_alpha 90.000000
_cell_angle_beta 60.552551
_cell_angle_gamma 90.000000
_cell_volume 3610.487799
_symmetry_space_group_name_H-M "C 2/M"
_symmetry_group_IT_number 12
_symmetry_cell_setting 'monoclinic'
loop_
_space_group_symop_operation_xyz
x,y,z
-x,y,-z
-x,-y,-z
x,-y,z
1/2+x,1/2+y,z
1/2-x,1/2+y,-z
1/2-x,1/2-y,-z
1/2+x,1/2-y,z
loop_
_atom_site_type_symbol
_atom_site_label
_atom_site_fract_x
_atom_site_fract_y
_atom_site_fract_z
Si Si1 0.938491 0.224522 0.738370
Si Si2 0.134729 0.390290 0.460416
Si Si3 0.789475 0.761893 0.557548
Si Si4 0.135287 0.113433 0.963811
Si Si5 0.054864 0.767830 0.582928
Si Si6 0.718909 0.762501 0.912209
Si Si7 0.877687 0.113057 0.327517
Si Si8 0.864158 0.391791 0.854908
O O1 0.934026 0.194396 0.586811
O O2 0.913529 0.327934 0.804673
O O3 0.995590 0.238759 0.699361
O O4 0.910636 0.141893 0.867075
O O5 0.129226 0.500000 0.521642
O O6 0.178109 0.336372 0.479502
O O7 0.080958 0.336920 0.562382
O O8 0.152054 0.387751 0.277748
O O9 0.750000 0.750000 0.500000
O O10 0.759570 0.788283 0.737735
O O11 0.825648 0.851468 0.472176
O O12 0.187171 0.166171 0.926225
O O13 0.119745 0.143129 0.834536
O O14 0.145622 0.000000 0.960357
O O15 0.075530 0.841973 0.662654
O O16 0.750000 0.750000 0.000000
O O17 0.681301 0.852732 0.983900
O O18 0.880932 0.000000 0.341122
O O19 0.877116 0.500000 0.881428
#
# Coordination Sequence:
#
# PCOD8110779 Si02
#       8
#     8   8   8   8   8   8   8   8
#     4   9  19  36  57  81 110 139 173 221 272 319
#     4   9  18  33  55  80 106 139 178 215 259 317
#     4  11  21  36  55  78 108 144 178 218 265 310
#     4  10  22  38  56  79 107 142 182 220 263 319
#     4   9  19  36  57  82 109 138 174 222 272 315
#     4  11  21  36  55  80 110 142 178 218 266 315
#     4  10  22  38  55  79 108 141 183 222 261 317
#     4   9  18  33  54  81 108 137 176 219 260 312
#
# _framework density 17.726136
#
# number of rings (size 3 to 8) (size 9 to 14) (size 15 to 20)
#    0.000    2.250    2.500    0.000    1.750    4.000 
#    0.000    5.000    0.000    0.000    0.000    3.500 
#    0.000    0.000    0.000    0.000    0.000    0.000 
#
# Total GULP energy -396824.306301 kJ/mol
# GULP energy per Si atom -12400.759572 kJ/mol
# Density = 1.768579 g / cm^3
# Si number density = 17.726136 Si / 1000 Ang^3
#
#
#
# Elastic Constant Matrix: (Units=GPa)
#
#
# Indices 1 2 3 4 5 6 
#
# 1 139.0023 54.4432 54.3689 0.0000 5.4109 0.0000
# 2 54.4432 112.1710 44.7660 0.0000 7.3800 0.0000
# 3 54.3689 44.7660 103.0703 0.0000 0.1229 0.0000
# 4 0.0000 0.0000 0.0000 21.7835 0.0000 5.4008
# 5 5.4109 7.3800 0.1229 0.0000 27.6884 0.0000
# 6 0.0000 0.0000 0.0000 5.4008 0.0000 17.5370
#
#
#
# Elastic Compliance Matrix: (Units=1/GPa)
#
#
# Indices 1 2 3 4 5 6 
#
# 1 0.010024 -0.003248 -0.003876 0.000000 -0.001076 0.000000
# 2 -0.003248 0.012067 -0.003525 0.000000 -0.002566 0.000000
# 3 -0.003876 -0.003525 0.013275 0.000000 0.001638 0.000000
# 4 0.000000 0.000000 0.000000 0.049701 0.000000 -0.015306
# 5 -0.001076 -0.002566 0.001638 0.000000 0.037003 0.000000
# 6 0.000000 0.000000 0.000000 -0.015306 0.000000 0.061736
#
#
# Mechanical properties :
#
#
# Convention : Reuss Voigt Hill
#
# Bulk Modulus (GPa) = 71.07356 73.48885 72.28120
# Shear Modulus (GPa) = 23.83303 26.77949 25.30626
#
# Velocity S-wave (km/s) = 3.67074 3.89103 3.78249
# Velocity P-wave (km/s) = 7.62549 7.85715 7.74219
#
# Compressibility (1/GPa) = 0.01406993
#
# Stress axis : x y z
#
# Youngs Moduli (GPa) = 99.76085 82.87257 75.32701
#
# Poissons Ratio (x) = 0.26914 0.29195
# Poissons Ratio (y) = 0.32399 0.26550
# Poissons Ratio (z) = 0.38665 0.29210
#
# Static dielectric constant tensor:
#      x y z
#    x 3.447500 0.000000 -0.021600 
#    y 0.000000 3.262660 0.000000 
#    z -0.021600 0.000000 3.369030 
# 
# 
# High freq. dielectric constant tensor:
#      x y z
#    x 1.692650 0.000000 -0.002140 
#    y 0.000000 1.680050 0.000000 
#    z -0.002140 0.000000 1.686700 
# 
# From -- ./inp_files/111607.got.cif
#   From: 2010.06.25/outbox.cif.g09.slc.cpg/sg12_56_cif.got.tgz:111607.got - 2010.06.28 00:19:55.
