data_PCOD8110639
_publ_section_title
;
Structure prediction by ZEFSAII (Michael W. Deem and Ramdas Pophale) SiO2 
 PCOD8110639
Probable space group: C 2/M
;
_chemical_formula_sum "Si O2"
_cell_formula_units_Z 40
_cell_length_a 14.036428
_cell_length_b 29.745929
_cell_length_c 5.365994
_cell_angle_alpha 90.000000
_cell_angle_beta 69.347488
_cell_angle_gamma 90.000000
_cell_volume 2096.466729
_symmetry_space_group_name_H-M "C 2/M"
_symmetry_group_IT_number 12
_symmetry_cell_setting 'monoclinic'
loop_
_space_group_symop_operation_xyz
x,y,z
-x,y,-z
-x,-y,-z
x,-y,z
1/2+x,1/2+y,z
1/2-x,1/2+y,-z
1/2-x,1/2-y,-z
1/2+x,1/2-y,z
loop_
_atom_site_type_symbol
_atom_site_label
_atom_site_fract_x
_atom_site_fract_y
_atom_site_fract_z
Si Si1 0.730116 0.844178 0.739011
Si Si2 0.885983 0.328044 0.664963
Si Si3 0.605016 0.722513 0.276538
Si Si4 0.000000 0.833621 0.000000
Si Si5 0.064774 0.000000 0.692666
Si Si6 0.600519 0.594931 0.561739
O O1 0.675731 0.842458 0.522081
O O2 0.793759 0.797958 0.696685
O O3 0.805058 0.887102 0.688004
O O4 0.653879 0.850998 0.043584
O O5 0.881533 0.275391 0.732387
O O6 0.000000 0.343581 0.500000
O O7 0.500000 0.706482 0.500000
O O8 0.587766 0.699715 0.024636
O O9 0.926823 0.865814 0.223109
O O10 0.132000 0.953921 0.645315
O O11 0.000000 0.000000 0.500000
O O12 0.000000 0.000000 0.000000
O O13 0.500000 0.585569 0.500000
#
# Coordination Sequence:
#
# PCOD8110639 Si02
#       6
#     8   8   8   4   4   8
#     4  12  22  40  60  84 111 160 201 249 292 352
#     4  11  27  40  56  78 117 157 214 256 291 318
#     4  11  23  34  56  85 119 157 197 243 290 352
#     4  12  18  35  58  82 132 156 192 223 290 344
#     4  10  22  36  60  90 129 156 175 226 294 376
#     4  11  22  37  60  92 125 154 188 232 298 370
#
# _framework density 19.079722
#
# number of rings (size 3 to 8) (size 9 to 14) (size 15 to 20)
#    0.000    0.800    5.000    3.000    5.600    0.000 
#    0.000    0.000    0.000    0.000    0.000    4.200 
#    0.000    0.000    0.000    0.000    0.000    0.000 
#
# Total GULP energy -247766.097237 kJ/mol
# GULP energy per Si atom -12388.304862 kJ/mol
# Density = 1.903630 g / cm^3
# Si number density = 19.079722 Si / 1000 Ang^3
#
#
#
# Elastic Constant Matrix: (Units=GPa)
#
#
# Indices 1 2 3 4 5 6 
#
# 1 83.8357 36.5583 38.3245 0.0000 -3.0437 0.0000
# 2 36.5583 104.3810 48.4779 0.0000 -9.4364 0.0000
# 3 38.3245 48.4779 137.6060 0.0000 -10.8338 0.0000
# 4 0.0000 0.0000 0.0000 31.1107 0.0000 -10.2584
# 5 -3.0437 -9.4364 -10.8338 0.0000 41.2149 0.0000
# 6 0.0000 0.0000 0.0000 -10.2584 0.0000 17.7746
#
#
#
# Elastic Compliance Matrix: (Units=1/GPa)
#
#
# Indices 1 2 3 4 5 6 
#
# 1 0.014921 -0.003976 -0.002798 0.000000 -0.000544 0.000000
# 2 -0.003976 0.012617 -0.003200 0.000000 0.001754 0.000000
# 3 -0.002798 -0.003200 0.009292 0.000000 0.001503 0.000000
# 4 0.000000 0.000000 0.000000 0.039698 0.000000 0.022911
# 5 -0.000544 0.001754 0.001503 0.000000 0.025020 0.000000
# 6 0.000000 0.000000 0.000000 0.022911 0.000000 0.069483
#
#
# Mechanical properties :
#
#
# Convention : Reuss Voigt Hill
#
# Bulk Modulus (GPa) = 59.22787 63.61598 61.42193
# Shear Modulus (GPa) = 25.43166 31.51751 28.47459
#
# Velocity S-wave (km/s) = 3.65487 4.06875 3.86735
# Velocity P-wave (km/s) = 6.99432 7.44900 7.22523
#
# Compressibility (1/GPa) = 0.01688394
#
# Stress axis : x y z
#
# Youngs Moduli (GPa) = 67.01950 79.25606 107.62040
#
# Poissons Ratio (x) = 0.31510 0.30110
# Poissons Ratio (y) = 0.26645 0.34435
# Poissons Ratio (z) = 0.18751 0.25359
#
# Static dielectric constant tensor:
#      x y z
#    x 3.611830 0.000000 -0.068450 
#    y 0.000000 3.698210 0.000000 
#    z -0.068450 0.000000 3.909900 
# 
# 
# High freq. dielectric constant tensor:
#      x y z
#    x 1.727530 0.000000 0.003920 
#    y 0.000000 1.724050 0.000000 
#    z 0.003920 0.000000 1.756810 
# 
# From -- ./inp_files/8346.got.cif
#   From: 2010.06.25/outbox.cif.g09.slc.cpg/sg12_5_cif.got.tgz:8346.got - 2010.06.28 00:19:55.
