data_PCOD8110053
_publ_section_title
;
Structure prediction by ZEFSAII (Michael W. Deem and Ramdas Pophale) SiO2 
 PCOD8110053
Probable space group: C 2/M
;
_chemical_formula_sum "Si O2"
_cell_formula_units_Z 64
_cell_length_a 30.798179
_cell_length_b 18.820749
_cell_length_c 14.960160
_cell_angle_alpha 90.000000
_cell_angle_beta 160.368025
_cell_angle_gamma 90.000000
_cell_volume 2913.453237
_symmetry_space_group_name_H-M "C 2/M"
_symmetry_group_IT_number 12
_symmetry_cell_setting 'monoclinic'
loop_
_space_group_symop_operation_xyz
x,y,z
-x,y,-z
-x,-y,-z
x,-y,z
1/2+x,1/2+y,z
1/2-x,1/2+y,-z
1/2-x,1/2-y,-z
1/2+x,1/2-y,z
loop_
_atom_site_type_symbol
_atom_site_label
_atom_site_fract_x
_atom_site_fract_y
_atom_site_fract_z
Si Si1 0.751704 0.313678 0.162872
Si Si2 0.646262 0.918124 0.781885
Si Si3 0.622787 0.717580 0.296153
Si Si4 0.189021 0.081188 0.724823
Si Si5 0.138814 0.341418 0.445664
Si Si6 0.244006 0.418397 0.474567
Si Si7 0.519530 0.292173 0.433697
Si Si8 0.114547 0.419701 0.040817
O O1 0.768187 0.376142 0.123414
O O2 0.754673 0.345219 0.269252
O O3 0.867257 0.257762 0.381812
O O4 0.614202 0.276178 0.877619
O O5 0.500000 0.888444 0.500000
O O6 0.647539 0.000000 0.755260
O O7 0.705443 0.905634 0.993784
O O8 0.750000 0.750000 0.500000
O O9 0.611599 0.758438 0.368674
O O10 0.637283 0.631850 0.328966
O O11 0.500000 0.738862 0.000000
O O12 0.060986 0.126884 0.493849
O O13 0.256332 0.103585 0.761829
O O14 0.141744 0.000000 0.631141
O O15 0.187928 0.389738 0.458876
O O16 0.004176 0.371829 0.220819
O O17 0.291899 0.500000 0.577991
O O18 0.134193 0.413352 0.185572
O O19 0.500000 0.278796 0.500000
O O20 0.080584 0.500000 0.947240
#
# Coordination Sequence:
#
# PCOD8110053 Si02
#       8
#     8   8   8   8   8   8   8   8
#     4  12  28  42  68 101 136 178 224 281 337 402
#     4  10  21  40  67 100 134 171 219 276 338 401
#     4  10  22  41  65  94 128 175 226 275 331 391
#     4  10  23  43  69  98 134 177 224 276 340 408
#     4  11  23  40  68  98 138 176 229 277 333 399
#     4  10  22  41  66  99 137 179 224 276 337 402
#     4  12  27  47  69  96 135 180 227 281 339 409
#     4  10  21  40  69 104 136 177 225 280 337 400
#
# _framework density 21.967058000000002
#
# number of rings (size 3 to 8) (size 9 to 14) (size 15 to 20)
#    0.000    1.375    1.250    3.750    5.250    6.000 
#    0.000    0.000    0.000    0.000    0.000    0.000 
#    0.000    0.000    0.000    0.000    0.000    0.000 
#
# Total GULP energy -396841.308856 kJ/mol
# GULP energy per Si atom -12401.290902 kJ/mol
# Density = 2.191706 g / cm^3
# Si number density = 21.967058 Si / 1000 Ang^3
#
#
#
# Elastic Constant Matrix: (Units=GPa)
#
#
# Indices 1 2 3 4 5 6 
#
# 1 94.6640 35.3534 38.5805 0.0000 -18.8685 0.0000
# 2 35.3534 111.3692 38.0477 0.0000 4.7548 0.0000
# 3 38.5805 38.0477 140.7456 0.0000 -3.9062 0.0000
# 4 0.0000 0.0000 0.0000 35.7626 0.0000 11.3953
# 5 -18.8685 4.7548 -3.9062 0.0000 31.9829 0.0000
# 6 0.0000 0.0000 0.0000 11.3953 0.0000 32.3173
#
#
#
# Elastic Compliance Matrix: (Units=1/GPa)
#
#
# Indices 1 2 3 4 5 6 
#
# 1 0.015102 -0.004253 -0.002734 0.000000 0.009208 0.000000
# 2 -0.004253 0.011195 -0.001983 0.000000 -0.004416 0.000000
# 3 -0.002734 -0.001983 0.008382 0.000000 -0.000295 0.000000
# 4 0.000000 0.000000 0.000000 0.031502 0.000000 -0.011108
# 5 0.009208 -0.004416 -0.000295 0.000000 0.037319 0.000000
# 6 0.000000 0.000000 0.000000 -0.011108 0.000000 0.034860
#
#
# Mechanical properties :
#
#
# Convention : Reuss Voigt Hill
#
# Bulk Modulus (GPa) = 59.74242 63.41579 61.57911
# Shear Modulus (GPa) = 30.88703 35.66570 33.27636
#
# Velocity S-wave (km/s) = 3.75382 4.03376 3.89630
# Velocity P-wave (km/s) = 6.78554 7.11521 6.95233
#
# Compressibility (1/GPa) = 0.01673853
#
# Stress axis : x y z
#
# Youngs Moduli (GPa) = 66.21811 89.32377 119.29630
#
# Poissons Ratio (x) = 0.37988 0.32620
# Poissons Ratio (y) = 0.28162 0.23659
# Poissons Ratio (z) = 0.18106 0.17715
#
# Static dielectric constant tensor:
#      x y z
#    x 4.011570 0.000000 -0.043560 
#    y 0.000000 4.356520 0.000000 
#    z -0.043560 0.000000 3.856710 
# 
# 
# High freq. dielectric constant tensor:
#      x y z
#    x 1.866710 0.000000 -0.006120 
#    y 0.000000 1.873600 0.000000 
#    z -0.006120 0.000000 1.852770 
# 
# From -- ./inp_files/251950.got.cif
#   From: 2010.06.25/outbox.cif.g09.slc.cpg/sg12_126_cif.got.tgz:251950.got - 2010.06.28 00:19:55.
