data_PCOD8110523
_publ_section_title
;
Structure prediction by ZEFSAII (Michael W. Deem and Ramdas Pophale) SiO2 
 PCOD8110523
Probable space group: C 2/M
;
_chemical_formula_sum "Si O2"
_cell_formula_units_Z 40
_cell_length_a 18.518086
_cell_length_b 28.279129
_cell_length_c 5.300912
_cell_angle_alpha 90.000000
_cell_angle_beta 60.459035
_cell_angle_gamma 90.000000
_cell_volume 2415.091958
_symmetry_space_group_name_H-M "C 2/M"
_symmetry_group_IT_number 12
_symmetry_cell_setting 'monoclinic'
loop_
_space_group_symop_operation_xyz
x,y,z
-x,y,-z
-x,-y,-z
x,-y,z
1/2+x,1/2+y,z
1/2-x,1/2+y,-z
1/2-x,1/2-y,-z
1/2+x,1/2-y,z
loop_
_atom_site_type_symbol
_atom_site_label
_atom_site_fract_x
_atom_site_fract_y
_atom_site_fract_z
Si Si1 0.206645 0.799304 0.534126
Si Si2 0.077525 0.743155 0.519165
Si Si3 0.788376 0.673992 0.884122
Si Si4 0.000000 0.666150 0.000000
Si Si5 0.413583 0.899311 0.797070
Si Si6 0.945014 0.500000 0.842838
O O1 0.250000 0.750000 0.500000
O O2 0.110177 0.785718 0.642738
O O3 0.221302 0.827805 0.769640
O O4 0.241882 0.827315 0.232038
O O5 0.153198 0.721553 0.219516
O O6 0.045049 0.697575 0.718080
O O7 0.000000 0.764750 0.500000
O O8 0.840623 0.625244 0.762490
O O9 0.926639 0.633966 0.016645
O O10 0.500000 0.901057 0.500000
O O11 0.388807 0.952377 0.930506
O O12 0.000000 0.500000 0.500000
O O13 0.000000 0.500000 0.000000
#
# Coordination Sequence:
#
# PCOD8110523 Si02
#       6
#     8   8   8   4   8   4
#     4  10  22  32  45  64  92 117 158 199 233 263
#     4  11  21  29  46  68  88 126 162 201 225 267
#     4  11  20  34  47  64  90 124 156 195 231 278
#     4  12  18  29  50  64  96 120 170 191 228 264
#     4  11  20  32  48  69  93 125 163 195 233 272
#     4  10  22  32  48  70  96 116 153 207 232 266
#
# _framework density 16.562515999999999
#
# number of rings (size 3 to 8) (size 9 to 14) (size 15 to 20)
#    0.000    1.200    5.000    4.800    2.800    0.000 
#    0.000    0.000    0.000    0.000    0.000    0.000 
#    0.000    0.000    0.000    5.400    0.000    0.100 
#
# Total GULP energy -247820.768168 kJ/mol
# GULP energy per Si atom -12391.038408 kJ/mol
# Density = 1.652482 g / cm^3
# Si number density = 16.562516 Si / 1000 Ang^3
#
#
#
# Elastic Constant Matrix: (Units=GPa)
#
#
# Indices 1 2 3 4 5 6 
#
# 1 137.6473 57.1926 23.5713 0.0000 17.6739 0.0000
# 2 57.1926 90.3307 13.0816 0.0000 6.1886 0.0000
# 3 23.5713 13.0816 51.2032 0.0000 20.5165 0.0000
# 4 0.0000 0.0000 0.0000 -243.1425 0.0000 47.6018
# 5 17.6739 6.1886 20.5165 0.0000 24.2552 0.0000
# 6 0.0000 0.0000 0.0000 47.6018 0.0000 13.7855
#
#
#
# Elastic Compliance Matrix: (Units=1/GPa)
#
#
# Indices 1 2 3 4 5 6 
#
# 1 0.010750 -0.006268 -0.001285 0.000000 -0.005147 0.000000
# 2 -0.006268 0.015157 -0.001917 0.000000 0.002321 0.000000
# 3 -0.001285 -0.001917 0.030315 0.000000 -0.024216 0.000000
# 4 0.000000 0.000000 0.000000 -0.002454 0.000000 0.008473
# 5 -0.005147 0.002321 -0.024216 0.000000 0.064870 0.000000
# 6 0.000000 0.000000 0.000000 0.008473 0.000000 0.043281
#
#
# Mechanical properties :
#
#
# Convention : Reuss Voigt Hill
#
# Bulk Modulus (GPa) = 26.82268 51.87470 39.34869
# Shear Modulus (GPa) = 25.86823 -28.66466 -1.39822
#
# Velocity S-wave (km/s) = 3.95632 -4.16468 -0.91980
# Velocity P-wave (km/s) = 6.09097 2.87446 4.76248
#
# Compressibility (1/GPa) = 0.03728188
#
# Stress axis : x y z
#
# Youngs Moduli (GPa) = 93.02231 65.97436 32.98719
#
# Poissons Ratio (x) = 0.41350 0.04239
# Poissons Ratio (y) = 0.58303 0.06325
# Poissons Ratio (z) = 0.11955 0.12650
#
# Static dielectric constant tensor:
#      x y z
#    x 4.495780 0.000000 0.191100 
#    y 0.000000 3.354420 0.000000 
#    z 0.191100 0.000000 3.111010 
# 
# 
# High freq. dielectric constant tensor:
#      x y z
#    x 1.631030 0.000000 0.033390 
#    y 0.000000 1.595720 0.000000 
#    z 0.033390 0.000000 1.629070 
# 
# From -- ./inp_files/17106.got.cif
#   From: 2010.06.25/outbox.cif.g09.slc.cpg/sg12_9_cif.got.tgz:17106.got - 2010.06.28 00:19:55.
