data_PCOD8110002
_publ_section_title
;
Structure prediction by ZEFSAII (Michael W. Deem and Ramdas Pophale) SiO2 
 PCOD8110002
Probable space group: C 2/M
;
_chemical_formula_sum "Si O2"
_cell_formula_units_Z 56
_cell_length_a 5.524748
_cell_length_b 29.105621
_cell_length_c 13.701383
_cell_angle_alpha 90.000000
_cell_angle_beta 77.050987
_cell_angle_gamma 90.000000
_cell_volume 2147.171461
_symmetry_space_group_name_H-M "C 2/M"
_symmetry_group_IT_number 12
_symmetry_cell_setting 'monoclinic'
loop_
_space_group_symop_operation_xyz
x,y,z
-x,y,-z
-x,-y,-z
x,-y,z
1/2+x,1/2+y,z
1/2-x,1/2+y,-z
1/2-x,1/2-y,-z
1/2+x,1/2-y,z
loop_
_atom_site_type_symbol
_atom_site_label
_atom_site_fract_x
_atom_site_fract_y
_atom_site_fract_z
Si Si1 0.444323 0.272796 0.368859
Si Si2 0.936556 0.949302 0.642510
Si Si3 0.936361 0.949302 0.142506
Si Si4 0.738471 0.867100 0.913123
Si Si5 0.500093 0.102471 0.749997
Si Si6 0.761602 0.367085 0.586900
Si Si7 0.555737 0.272796 0.131029
O O1 0.672142 0.250993 0.411144
O O2 0.430650 0.325376 0.407572
O O3 0.500029 0.268944 0.249944
O O4 0.000122 0.952000 0.749997
O O5 0.127911 0.915219 0.570119
O O6 0.658391 0.929301 0.661258
O O7 0.951183 0.000000 0.593258
O O8 0.658219 0.929291 0.161248
O O9 0.127767 0.915229 0.070112
O O10 0.950947 0.000000 0.093262
O O11 0.668405 0.865802 0.803986
O O12 0.930611 0.825378 0.907665
O O13 0.500000 0.859421 0.000000
O O14 0.331803 0.134203 0.696011
O O15 0.000000 0.359377 0.500000
O O16 0.327908 0.250997 0.088740
#
# Coordination Sequence:
#
# PCOD8110002 Si02
#       7
#     8   8   8   8   8   8   8
#     4  10  23  42  70  97 132 177 225 277 337 397
#     4   9  19  38  64  93 126 168 217 266 326 391
#     4   9  19  38  64  93 126 168 217 266 326 391
#     4  11  25  41  63  96 131 168 216 270 329 399
#     4  10  21  40  66  88 130 172 212 270 327 388
#     4  11  25  41  63  96 131 168 216 270 329 399
#     4  10  23  42  70  97 132 177 225 277 337 397
#
# _framework density 26.080822999999999
#
# number of rings (size 3 to 8) (size 9 to 14) (size 15 to 20)
#    0.000    2.000    0.000    3.000   10.000    4.000 
#    0.000    1.429    0.000    0.000    0.000    0.000 
#    0.000    0.000    0.000    0.000    0.000    0.000 
#
# Total GULP energy -347239.416622 kJ/mol
# GULP energy per Si atom -12401.407737 kJ/mol
# Density = 2.602146 g / cm^3
# Si number density = 26.080823 Si / 1000 Ang^3
#
#
#
# Elastic Constant Matrix: (Units=GPa)
#
#
# Indices 1 2 3 4 5 6 
#
# 1 135.0362 51.4053 36.2041 0.0000 -21.6834 0.0000
# 2 51.4053 186.2467 25.5052 0.0000 -22.2268 0.0000
# 3 36.2041 25.5052 59.4046 0.0000 -19.8674 0.0000
# 4 0.0000 0.0000 0.0000 2.9587 0.0000 -30.7737
# 5 -21.6834 -22.2268 -19.8674 0.0000 44.8604 0.0000
# 6 0.0000 0.0000 0.0000 -30.7737 0.0000 6.1669
#
#
#
# Elastic Compliance Matrix: (Units=1/GPa)
#
#
# Indices 1 2 3 4 5 6 
#
# 1 0.009579 -0.001823 -0.004471 0.000000 0.001747 0.000000
# 2 -0.001823 0.006216 -0.000965 0.000000 0.001771 0.000000
# 3 -0.004471 -0.000965 0.022409 0.000000 0.007285 0.000000
# 4 0.000000 0.000000 0.000000 -0.006640 0.000000 -0.033134
# 5 0.001747 0.001771 0.007285 0.000000 0.027240 0.000000
# 6 0.000000 0.000000 0.000000 -0.033134 0.000000 -0.003186
#
#
# Mechanical properties :
#
#
# Convention : Reuss Voigt Hill
#
# Bulk Modulus (GPa) = 42.22016 67.43519 54.82767
# Shear Modulus (GPa) = 64.07659 28.63538 46.35598
#
# Velocity S-wave (km/s) = 4.96204 3.31712 4.22049
# Velocity P-wave (km/s) = 7.00374 6.37051 6.69462
#
# Compressibility (1/GPa) = 0.02368537
#
# Stress axis : x y z
#
# Youngs Moduli (GPa) = 104.40024 160.87600 44.62414
#
# Poissons Ratio (x) = 0.29329 0.19950
# Poissons Ratio (y) = 0.19033 0.04308
# Poissons Ratio (z) = 0.46675 0.15531
#
# Static dielectric constant tensor:
#      x y z
#    x 4.873340 0.000000 -0.243680 
#    y 0.000000 4.919940 0.000000 
#    z -0.243680 0.000000 4.467660 
# 
# 
# High freq. dielectric constant tensor:
#      x y z
#    x 2.047950 0.000000 -0.005840 
#    y 0.000000 2.040280 0.000000 
#    z -0.005840 0.000000 2.050450 
# 
# From -- ./inp_files/253637.got.cif
#   From: 2010.06.25/outbox.cif.g09.slc.cpg/sg12_127_cif.got.tgz:253637.got - 2010.06.28 00:19:55.
