data_PCOD8110275
_publ_section_title
;
Structure prediction by ZEFSAII (Michael W. Deem and Ramdas Pophale) SiO2 
 PCOD8110275
Probable space group: C 2/M
;
_chemical_formula_sum "Si O2"
_cell_formula_units_Z 64
_cell_length_a 17.635556
_cell_length_b 13.648255
_cell_length_c 19.068124
_cell_angle_alpha 90.000000
_cell_angle_beta 144.058203
_cell_angle_gamma 90.000000
_cell_volume 2693.922317
_symmetry_space_group_name_H-M "C 2/M"
_symmetry_group_IT_number 12
_symmetry_cell_setting 'monoclinic'
loop_
_space_group_symop_operation_xyz
x,y,z
-x,y,-z
-x,-y,-z
x,-y,z
1/2+x,1/2+y,z
1/2-x,1/2+y,-z
1/2-x,1/2-y,-z
1/2+x,1/2-y,z
loop_
_atom_site_type_symbol
_atom_site_label
_atom_site_fract_x
_atom_site_fract_y
_atom_site_fract_z
Si Si1 0.997331 0.885051 0.329854
Si Si2 0.088547 0.616490 0.631563
Si Si3 0.215014 0.361021 0.977277
Si Si4 0.257009 0.616704 0.399754
Si Si5 0.986176 0.610045 0.698956
Si Si6 0.206644 0.610297 0.130318
Si Si7 0.001505 0.108015 0.824542
Si Si8 0.329189 0.255236 0.784629
O O1 0.105910 0.851036 0.465459
O O2 0.022118 0.842006 0.270048
O O3 0.856236 0.856673 0.252603
O O4 0.002907 0.000000 0.321873
O O5 0.103611 0.500000 0.649114
O O6 0.025918 0.663423 0.655983
O O7 0.230722 0.659051 0.730024
O O8 0.000000 0.646812 0.500000
O O9 0.167672 0.389399 0.019584
O O10 0.346242 0.415032 0.052495
O O11 0.250000 0.250000 0.000000
O O12 0.101170 0.389368 0.840561
O O13 0.249402 0.500000 0.379424
O O14 0.240903 0.675065 0.316147
O O15 0.144834 0.654717 0.367916
O O16 0.952657 0.500000 0.652636
O O17 0.181671 0.500000 0.140476
O O18 0.125547 0.691312 0.113656
O O19 0.951701 0.189022 0.842505
O O20 0.933737 0.000000 0.782617
#
# Coordination Sequence:
#
# PCOD8110275 Si02
#       8
#     8   8   8   8   8   8   8   8
#     4   8  18  38  62  88 122 166 215 265 322 385
#     4  10  24  43  61  88 128 170 209 259 324 384
#     4  11  21  41  70  96 123 161 220 271 317 385
#     4  10  22  39  61  93 129 165 213 270 322 381
#     4  10  21  41  67  89 118 164 212 258 312 377
#     4  10  22  41  65  94 132 175 213 263 328 386
#     4  10  22  41  65  93 126 168 218 273 325 377
#     4  12  24  37  61  95 129 169 216 263 319 389
#
# _framework density 23.757180999999999
#
# number of rings (size 3 to 8) (size 9 to 14) (size 15 to 20)
#    0.000    1.875    0.000    4.125    3.500    1.500 
#    0.000    7.500    0.000    9.000    0.000    0.000 
#    0.000    0.000    0.000    0.000    0.000    0.000 
#
# Total GULP energy -396702.165701 kJ/mol
# GULP energy per Si atom -12396.942678 kJ/mol
# Density = 2.370311 g / cm^3
# Si number density = 23.757181 Si / 1000 Ang^3
#
#
#
# Elastic Constant Matrix: (Units=GPa)
#
#
# Indices 1 2 3 4 5 6 
#
# 1 112.9755 19.8583 30.7590 -0.0005 -29.2015 -0.0002
# 2 19.8583 83.2711 -3.7356 -0.0003 -10.9832 -0.0001
# 3 30.7590 -3.7356 102.2226 -0.0010 -19.7136 -0.0005
# 4 -0.0005 -0.0003 -0.0010 24.8049 -0.0005 -5.2146
# 5 -29.2015 -10.9832 -19.7136 -0.0005 23.4805 -0.0002
# 6 -0.0002 -0.0001 -0.0005 -5.2146 -0.0002 33.6676
#
#
#
# Elastic Compliance Matrix: (Units=1/GPa)
#
#
# Indices 1 2 3 4 5 6 
#
# 1 0.013239 -0.001241 -0.001152 0.000001 0.014916 0.000000
# 2 -0.001241 0.013244 0.002093 0.000000 0.006409 0.000000
# 3 -0.001152 0.002093 0.012073 0.000001 0.009682 0.000000
# 4 0.000001 0.000000 0.000001 0.041672 0.000003 0.006454
# 5 0.014916 0.006409 0.009682 0.000003 0.072266 0.000001
# 6 0.000000 0.000000 0.000000 0.006454 0.000001 0.030702
#
#
# Mechanical properties :
#
#
# Convention : Reuss Voigt Hill
#
# Bulk Modulus (GPa) = 26.34657 43.58141 34.96399
# Shear Modulus (GPa) = 25.45198 33.16310 29.30754
#
# Velocity S-wave (km/s) = 3.27668 3.74025 3.51612
# Velocity P-wave (km/s) = 5.04277 6.08580 5.58867
#
# Compressibility (1/GPa) = 0.03795561
#
# Stress axis : x y z
#
# Youngs Moduli (GPa) = 75.53442 75.50453 82.82900
#
# Poissons Ratio (x) = 0.09374 0.09545
# Poissons Ratio (y) = 0.09377 -0.17340
# Poissons Ratio (z) = 0.08704 -0.15807
#
# Static dielectric constant tensor:
#      x y z
#    x 4.414500 0.000000 -0.051410 
#    y 0.000000 4.319220 0.000000 
#    z -0.051410 0.000000 4.137370 
# 
# 
# High freq. dielectric constant tensor:
#      x y z
#    x 1.939010 0.000000 -0.002840 
#    y 0.000000 1.960820 0.000000 
#    z -0.002840 0.000000 1.928420 
# 
# From -- ./inp_files/278196.got.cif
#   From: 2010.06.25/outbox.cif.g09.slc.cpg/sg12_140_cif.got.tgz:278196.got - 2010.06.28 00:19:55.
