data_PCOD8110305
_publ_section_title
;
Structure prediction by ZEFSAII (Michael W. Deem and Ramdas Pophale) SiO2 
 PCOD8110305
Probable space group: C 2/M
;
_chemical_formula_sum "Si O2"
_cell_formula_units_Z 40
_cell_length_a 17.576035
_cell_length_b 14.747069
_cell_length_c 11.709364
_cell_angle_alpha 90.000000
_cell_angle_beta 36.667725
_cell_angle_gamma 90.000000
_cell_volume 1812.426436
_symmetry_space_group_name_H-M "C 2/M"
_symmetry_group_IT_number 12
_symmetry_cell_setting 'monoclinic'
loop_
_space_group_symop_operation_xyz
x,y,z
-x,y,-z
-x,-y,-z
x,-y,z
1/2+x,1/2+y,z
1/2-x,1/2+y,-z
1/2-x,1/2-y,-z
1/2+x,1/2-y,z
loop_
_atom_site_type_symbol
_atom_site_label
_atom_site_fract_x
_atom_site_fract_y
_atom_site_fract_z
Si Si1 0.713283 0.395394 0.246893
Si Si2 0.892768 0.777002 0.808287
Si Si3 0.742486 0.851664 0.550831
Si Si4 0.013362 0.899454 0.855831
Si Si5 0.471904 0.100610 0.798812
O O1 0.671912 0.500000 0.295924
O O2 0.604901 0.339872 0.306966
O O3 0.707783 0.355511 0.379921
O O4 0.855169 0.383313 0.025933
O O5 0.971198 0.681387 0.704324
O O6 0.941209 0.831853 0.859191
O O7 0.750000 0.750000 0.000000
O O8 0.750000 0.750000 0.500000
O O9 0.838067 0.908089 0.355777
O O10 0.602333 0.894216 0.713172
O O11 0.951540 0.000000 0.923479
O O12 0.000000 0.860478 0.000000
O O13 0.460971 0.000000 0.755536
#
# Coordination Sequence:
#
# PCOD8110305 Si02
#       5
#     8   8   8   8   8
#     4  10  22  41  69  99 129 164 212 271 322 375
#     4  10  22  39  67  96 130 167 208 259 324 383
#     4  12  24  39  67  95 129 167 216 264 321 377
#     4  11  25  44  65  91 129 173 215 262 316 379
#     4  10  21  41  67  97 128 164 213 266 320 378
#
# _framework density 22.069861
#
# number of rings (size 3 to 8) (size 9 to 14) (size 15 to 20)
#    0.000    1.400    2.000    3.000    5.600    3.200 
#    0.000    2.000    0.000    1.200    0.000    0.000 
#    0.000    0.000    0.000    0.000    0.000    0.000 
#
# Total GULP energy -247932.875897 kJ/mol
# GULP energy per Si atom -12396.643795 kJ/mol
# Density = 2.201963 g / cm^3
# Si number density = 22.069861 Si / 1000 Ang^3
#
#
#
# Elastic Constant Matrix: (Units=GPa)
#
#
# Indices 1 2 3 4 5 6 
#
# 1 160.2332 93.6101 52.1036 0.0000 18.7687 0.0000
# 2 93.6101 196.3363 34.1737 0.0000 21.2319 0.0000
# 3 52.1036 34.1737 78.1990 0.0000 17.3822 0.0000
# 4 0.0000 0.0000 0.0000 26.9924 0.0000 0.1645
# 5 18.7687 21.2319 17.3822 0.0000 27.5819 0.0000
# 6 0.0000 0.0000 0.0000 0.1645 0.0000 31.9205
#
#
#
# Elastic Compliance Matrix: (Units=1/GPa)
#
#
# Indices 1 2 3 4 5 6 
#
# 1 0.010235 -0.003934 -0.004914 0.000000 -0.000840 0.000000
# 2 -0.003934 0.007274 0.000107 0.000000 -0.002990 0.000000
# 3 -0.004914 0.000107 0.017781 0.000000 -0.007944 0.000000
# 4 0.000000 0.000000 0.000000 0.037049 0.000000 -0.000191
# 5 -0.000840 -0.002990 -0.007944 0.000000 0.044135 0.000000
# 6 0.000000 0.000000 0.000000 -0.000191 0.000000 0.031329
#
#
# Mechanical properties :
#
#
# Convention : Reuss Voigt Hill
#
# Bulk Modulus (GPa) = 56.15306 88.28259 72.21783
# Shear Modulus (GPa) = 29.20212 34.29103 31.74658
#
# Velocity S-wave (km/s) = 3.64148 3.94604 3.79682
# Velocity P-wave (km/s) = 6.57108 7.80063 7.21211
#
# Compressibility (1/GPa) = 0.01780847
#
# Stress axis : x y z
#
# Youngs Moduli (GPa) = 97.69972 137.48318 56.23941
#
# Poissons Ratio (x) = 0.54085 0.27636
# Poissons Ratio (y) = 0.38435 -0.00602
# Poissons Ratio (z) = 0.48009 -0.01472
#
# Static dielectric constant tensor:
#      x y z
#    x 4.544980 0.000000 0.058700 
#    y 0.000000 5.198290 0.000000 
#    z 0.058700 0.000000 4.937940 
# 
# 
# High freq. dielectric constant tensor:
#      x y z
#    x 1.863830 0.000000 -0.017610 
#    y 0.000000 1.894210 0.000000 
#    z -0.017610 0.000000 1.856470 
# 
# From -- ./inp_files/142506.got.cif
#   From: 2010.06.25/outbox.cif.g09.slc.cpg/sg12_72_cif.got.tgz:142506.got - 2010.06.28 00:19:55.
