data_PCOD8110810
_publ_section_title
;
Structure prediction by ZEFSAII (Michael W. Deem and Ramdas Pophale) SiO2 
 PCOD8110810
Probable space group: C 2/M
;
_chemical_formula_sum "Si O2"
_cell_formula_units_Z 64
_cell_length_a 29.098442
_cell_length_b 9.001414
_cell_length_c 14.397322
_cell_angle_alpha 90.000000
_cell_angle_beta 117.232787
_cell_angle_gamma 90.000000
_cell_volume 3353.045900
_symmetry_space_group_name_H-M "C 2/M"
_symmetry_group_IT_number 12
_symmetry_cell_setting 'monoclinic'
loop_
_space_group_symop_operation_xyz
x,y,z
-x,y,-z
-x,-y,-z
x,-y,z
1/2+x,1/2+y,z
1/2-x,1/2+y,-z
1/2-x,1/2-y,-z
1/2+x,1/2-y,z
loop_
_atom_site_type_symbol
_atom_site_label
_atom_site_fract_x
_atom_site_fract_y
_atom_site_fract_z
Si Si1 0.774618 0.173587 0.269665
Si Si2 0.407156 0.325520 0.069292
Si Si3 0.629448 0.671042 0.764344
Si Si4 0.167916 0.175676 0.162584
Si Si5 0.122195 0.671158 0.295109
Si Si6 0.032740 0.324804 0.615113
Si Si7 0.293419 0.172290 0.478641
Si Si8 0.494254 0.825224 0.778691
O O1 0.813034 0.200937 0.218978
O O2 0.721418 0.245618 0.187404
O O3 0.797177 0.250393 0.382450
O O4 0.766685 0.000000 0.283777
O O5 0.415859 0.500000 0.073687
O O6 0.376229 0.276858 0.133789
O O7 0.463625 0.250425 0.115160
O O8 0.374162 0.270180 0.951129
O O9 0.614214 0.500000 0.741233
O O10 0.590411 0.761492 0.663066
O O11 0.150527 0.223972 0.248365
O O12 0.176009 0.000000 0.166963
O O13 0.124890 0.500000 0.264360
O O14 0.150892 0.688562 0.420394
O O15 0.063302 0.726590 0.248826
O O16 0.036647 0.500000 0.611088
O O17 0.004961 0.272994 0.683712
O O18 0.000000 0.258152 0.500000
O O19 0.250000 0.250000 0.500000
O O20 0.278410 0.000000 0.451688
O O21 0.500287 0.000000 0.794891
#
# Coordination Sequence:
#
# PCOD8110810 Si02
#       8
#     8   8   8   8   8   8   8   8
#     4  11  23  38  57  84 115 149 188 231 280 336
#     4   9  20  40  60  81 111 146 185 236 286 330
#     4   9  20  38  57  79 112 148 184 228 279 334
#     4  11  23  38  59  83 109 145 191 237 284 336
#     4  10  22  38  57  82 115 149 185 228 277 335
#     4   9  18  32  54  81 110 143 183 230 274 324
#     4  11  22  37  59  83 114 153 187 230 280 330
#     4   9  19  36  56  82 111 146 186 225 278 334
#
# _framework density 19.087122999999998
#
# number of rings (size 3 to 8) (size 9 to 14) (size 15 to 20)
#    0.000    2.125    1.250    1.125    1.750    4.250 
#    0.000    2.500    0.000    0.000    0.000    0.000 
#    0.000    0.000    0.000    0.000    0.000    0.000 
#
# Total GULP energy -396882.654572 kJ/mol
# GULP energy per Si atom -12402.582955 kJ/mol
# Density = 1.904368 g / cm^3
# Si number density = 19.087123 Si / 1000 Ang^3
#
#
#
# Elastic Constant Matrix: (Units=GPa)
#
#
# Indices 1 2 3 4 5 6 
#
# 1 86.1825 27.1761 19.4275 0.0000 25.6410 0.0000
# 2 27.1761 57.6507 27.7668 0.0000 10.2250 0.0000
# 3 19.4275 27.7668 104.6156 0.0000 22.6543 0.0000
# 4 0.0000 0.0000 0.0000 31.5291 0.0000 3.9967
# 5 25.6410 10.2250 22.6543 0.0000 28.1605 0.0000
# 6 0.0000 0.0000 0.0000 3.9967 0.0000 26.7744
#
#
#
# Elastic Compliance Matrix: (Units=1/GPa)
#
#
# Indices 1 2 3 4 5 6 
#
# 1 0.017801 -0.006520 0.001722 0.000000 -0.015227 0.000000
# 2 -0.006520 0.022583 -0.005199 0.000000 0.001919 0.000000
# 3 0.001722 -0.005199 0.012775 0.000000 -0.009958 0.000000
# 4 0.000000 0.000000 0.000000 0.032328 0.000000 -0.004826
# 5 -0.015227 0.001919 -0.009958 0.000000 0.056689 0.000000
# 6 0.000000 0.000000 0.000000 -0.004826 0.000000 0.038070
#
#
# Mechanical properties :
#
#
# Convention : Reuss Voigt Hill
#
# Bulk Modulus (GPa) = 30.15155 44.13216 37.14186
# Shear Modulus (GPa) = 23.66358 28.89801 26.28080
#
# Velocity S-wave (km/s) = 3.52485 3.89524 3.71467
# Velocity P-wave (km/s) = 5.69185 6.58803 6.15627
#
# Compressibility (1/GPa) = 0.03316579
#
# Stress axis : x y z
#
# Youngs Moduli (GPa) = 56.17552 44.28133 78.27703
#
# Poissons Ratio (x) = 0.28872 -0.13480
# Poissons Ratio (y) = 0.36628 0.40694
# Poissons Ratio (z) = -0.09674 0.23020
#
# Static dielectric constant tensor:
#      x y z
#    x 3.521980 0.000000 0.068380 
#    y 0.000000 3.471560 0.000000 
#    z 0.068380 0.000000 3.699880 
# 
# 
# High freq. dielectric constant tensor:
#      x y z
#    x 1.742400 0.000000 0.006800 
#    y 0.000000 1.740490 0.000000 
#    z 0.006800 0.000000 1.747200 
# 
# From -- ./inp_files/249900.got.cif
#   From: 2010.06.25/outbox.cif.g09.slc.cpg/sg12_125_cif.got.tgz:249900.got - 2010.06.28 00:19:55.
