data_PCOD8110080
_publ_section_title
;
Structure prediction by ZEFSAII (Michael W. Deem and Ramdas Pophale) SiO2 
 PCOD8110080
Probable space group: C 2/M
;
_chemical_formula_sum "Si O2"
_cell_formula_units_Z 64
_cell_length_a 13.614614
_cell_length_b 18.152588
_cell_length_c 14.580211
_cell_angle_alpha 90.000000
_cell_angle_beta 61.953189
_cell_angle_gamma 90.000000
_cell_volume 3180.195156
_symmetry_space_group_name_H-M "C 2/M"
_symmetry_group_IT_number 12
_symmetry_cell_setting 'monoclinic'
loop_
_space_group_symop_operation_xyz
x,y,z
-x,y,-z
-x,-y,-z
x,-y,z
1/2+x,1/2+y,z
1/2-x,1/2+y,-z
1/2-x,1/2-y,-z
1/2+x,1/2-y,z
loop_
_atom_site_type_symbol
_atom_site_label
_atom_site_fract_x
_atom_site_fract_y
_atom_site_fract_z
Si Si1 0.124999 0.914043 0.467027
Si Si2 0.402776 0.370835 0.834701
Si Si3 0.225086 0.354645 0.752836
Si Si4 0.006526 0.418897 0.104570
Si Si5 0.875633 0.076734 0.041053
Si Si6 0.856088 0.083515 0.330245
Si Si7 0.146720 0.717928 0.106701
Si Si8 0.781055 0.188640 0.215585
O O1 0.210420 0.866522 0.370248
O O2 0.154717 0.896632 0.558723
O O3 0.000000 0.887581 0.500000
O O4 0.137876 0.000000 0.437108
O O5 0.308171 0.375340 0.798789
O O6 0.514625 0.411322 0.755178
O O7 0.437595 0.286551 0.845151
O O8 0.345869 0.406994 0.948604
O O9 0.115497 0.404430 0.800660
O O10 0.180641 0.270839 0.776726
O O11 0.044893 0.500000 0.124378
O O12 0.094706 0.354774 0.086642
O O13 0.000000 0.421070 0.000000
O O14 0.864108 0.147200 0.110637
O O15 0.809628 0.000000 0.096955
O O16 0.000000 0.054349 0.000000
O O17 0.774283 0.138685 0.310400
O O18 0.817097 0.000000 0.328456
O O19 0.170789 0.694590 0.201924
O O20 0.250000 0.750000 0.000000
#
# Coordination Sequence:
#
# PCOD8110080 Si02
#       8
#     8   8   8   8   8   8   8   8
#     4  10  21  40  67  97 127 162 209 271 327 377
#     4  11  21  35  60  91 123 166 208 254 317 384
#     4  11  24  41  65  91 128 170 210 257 324 388
#     4  11  25  40  59  90 126 166 213 259 310 386
#     4  11  22  33  54  92 130 165 206 254 315 383
#     4  11  22  38  63  96 127 157 210 270 323 377
#     4  11  23  42  59  83 121 173 217 256 311 376
#     4  11  23  37  58  89 125 170 208 258 316 377
#
# _framework density 20.124551
#
# number of rings (size 3 to 8) (size 9 to 14) (size 15 to 20)
#    0.000    1.125    3.750    3.375    0.000    3.000 
#    0.000    0.000    0.000    0.000    0.000    2.625 
#    0.000    0.000    0.000    0.000    0.000    0.000 
#
# Total GULP energy -396429.331431 kJ/mol
# GULP energy per Si atom -12388.416607 kJ/mol
# Density = 2.007875 g / cm^3
# Si number density = 20.124551 Si / 1000 Ang^3
#
#
#
# Elastic Constant Matrix: (Units=GPa)
#
#
# Indices 1 2 3 4 5 6 
#
# 1 59.3169 40.0658 37.3507 0.0000 12.7579 0.0000
# 2 40.0658 135.4721 55.6955 0.0000 7.5372 0.0000
# 3 37.3507 55.6955 122.1700 0.0000 11.9126 0.0000
# 4 0.0000 0.0000 0.0000 31.0412 0.0000 9.1252
# 5 12.7579 7.5372 11.9126 0.0000 35.3233 0.0000
# 6 0.0000 0.0000 0.0000 9.1252 0.0000 33.5747
#
#
#
# Elastic Compliance Matrix: (Units=1/GPa)
#
#
# Indices 1 2 3 4 5 6 
#
# 1 0.024467 -0.005002 -0.004594 0.000000 -0.006221 0.000000
# 2 -0.005002 0.010117 -0.003153 0.000000 0.000711 0.000000
# 3 -0.004594 -0.003153 0.011167 0.000000 -0.001434 0.000000
# 4 0.000000 0.000000 0.000000 0.035013 0.000000 -0.009516
# 5 -0.006221 0.000711 -0.001434 0.000000 0.030889 0.000000
# 6 0.000000 0.000000 0.000000 -0.009516 0.000000 0.032371
#
#
# Mechanical properties :
#
#
# Convention : Reuss Voigt Hill
#
# Bulk Modulus (GPa) = 49.36820 64.79812 57.08316
# Shear Modulus (GPa) = 28.36542 32.24431 30.30486
#
# Velocity S-wave (km/s) = 3.75839 4.00714 3.88476
# Velocity P-wave (km/s) = 6.58928 7.32653 6.96766
#
# Compressibility (1/GPa) = 0.02025595
#
# Stress axis : x y z
#
# Youngs Moduli (GPa) = 40.87077 98.84021 89.55159
#
# Poissons Ratio (x) = 0.49436 0.41137
# Poissons Ratio (y) = 0.20442 0.28231
# Poissons Ratio (z) = 0.18775 0.31160
#
# Static dielectric constant tensor:
#      x y z
#    x 3.663180 0.000000 0.248350 
#    y 0.000000 5.511010 0.000000 
#    z 0.248350 0.000000 3.566630 
# 
# 
# High freq. dielectric constant tensor:
#      x y z
#    x 1.772620 0.000000 0.023360 
#    y 0.000000 1.809640 0.000000 
#    z 0.023360 0.000000 1.764890 
# 
# From -- ./inp_files/216359.got.cif
#   From: 2010.06.25/outbox.cif.g09.slc.cpg/sg12_109_cif.got.tgz:216359.got - 2010.06.28 00:19:55.
