data_PCOD8110690
_publ_section_title
;
Structure prediction by ZEFSAII (Michael W. Deem and Ramdas Pophale) SiO2 
 PCOD8110690
Probable space group: C 2/M
;
_chemical_formula_sum "Si O2"
_cell_formula_units_Z 64
_cell_length_a 11.871373
_cell_length_b 14.884326
_cell_length_c 27.496593
_cell_angle_alpha 90.000000
_cell_angle_beta 40.633345
_cell_angle_gamma 90.000000
_cell_volume 3163.982435
_symmetry_space_group_name_H-M "C 2/M"
_symmetry_group_IT_number 12
_symmetry_cell_setting 'monoclinic'
loop_
_space_group_symop_operation_xyz
x,y,z
-x,y,-z
-x,-y,-z
x,-y,z
1/2+x,1/2+y,z
1/2-x,1/2+y,-z
1/2-x,1/2-y,-z
1/2+x,1/2-y,z
loop_
_atom_site_type_symbol
_atom_site_label
_atom_site_fract_x
_atom_site_fract_y
_atom_site_fract_z
Si Si1 0.359890 0.399623 0.688172
Si Si2 0.524635 0.234623 0.684567
Si Si3 0.363441 0.400764 0.080514
Si Si4 0.285339 0.602985 0.211110
Si Si5 0.675101 0.602260 0.414246
Si Si6 0.461621 0.687648 0.807213
Si Si7 0.096303 0.396460 0.920790
Si Si8 0.485436 0.859543 0.853778
O O1 0.428122 0.500000 0.678632
O O2 0.495033 0.327687 0.665634
O O3 0.356560 0.385407 0.632136
O O4 0.168561 0.391672 0.772943
O O5 0.369650 0.167395 0.723401
O O6 0.692145 0.179473 0.611774
O O7 0.545876 0.259466 0.734434
O O8 0.439934 0.500000 0.063277
O O9 0.358043 0.357018 0.135974
O O10 0.171212 0.409127 0.121798
O O11 0.500000 0.348881 0.000000
O O12 0.222562 0.500000 0.224986
O O13 0.423860 0.605239 0.209967
O O14 0.500000 0.621407 0.500000
O O15 0.741824 0.500000 0.403079
O O16 0.271839 0.657572 0.853962
O O17 0.458109 0.753982 0.854503
O O18 0.144219 0.500000 0.912566
O O19 0.973023 0.381998 0.914916
O O20 0.000000 0.359005 0.000000
#
# Coordination Sequence:
#
# PCOD8110690 Si02
#       8
#     8   8   8   8   8   8   8   8
#     4  11  22  39  65  92 123 167 211 253 306 375
#     4  12  21  41  63  94 125 162 210 252 302 375
#     4  10  22  37  56  82 113 155 206 263 324 381
#     4  11  22  38  59  87 120 157 200 259 319 370
#     4  10  22  41  67 100 133 163 200 251 308 370
#     4  12  23  39  59  89 122 159 209 267 312 377
#     4  11  26  43  60  85 120 168 219 271 325 377
#     4  12  22  40  63  84 120 161 215 260 312 379
#
# _framework density 20.227674
#
# number of rings (size 3 to 8) (size 9 to 14) (size 15 to 20)
#    0.000    0.875    5.000    1.875    1.750    4.000 
#    0.000    0.000    0.000    0.375    0.000    0.000 
#    0.000    0.000    0.000    0.000    0.000    0.000 
#
# Total GULP energy -396729.299763 kJ/mol
# GULP energy per Si atom -12397.790618 kJ/mol
# Density = 2.018163 g / cm^3
# Si number density = 20.227674 Si / 1000 Ang^3
#
#
#
# Elastic Constant Matrix: (Units=GPa)
#
#
# Indices 1 2 3 4 5 6 
#
# 1 96.8976 31.2599 27.3604 0.0000 -5.0929 -0.0001
# 2 31.2599 114.6151 27.2827 0.0000 -13.0053 0.0000
# 3 27.3604 27.2827 83.7942 0.0006 -8.2277 0.0001
# 4 0.0000 0.0000 0.0006 23.3874 0.0001 -2.8026
# 5 -5.0929 -13.0053 -8.2277 0.0001 23.7761 -0.0001
# 6 -0.0001 0.0000 0.0001 -2.8026 -0.0001 40.8874
#
#
#
# Elastic Compliance Matrix: (Units=1/GPa)
#
#
# Indices 1 2 3 4 5 6 
#
# 1 0.012014 -0.002528 -0.003088 0.000000 0.000122 0.000000
# 2 -0.002528 0.010424 -0.002134 0.000000 0.004422 0.000000
# 3 -0.003088 -0.002134 0.013931 0.000000 0.002992 0.000000
# 4 0.000000 0.000000 0.000000 0.043112 0.000000 0.002955
# 5 0.000122 0.004422 0.002992 0.000000 0.045539 0.000000
# 6 0.000000 0.000000 0.000000 0.002955 0.000000 0.024660
#
#
# Mechanical properties :
#
#
# Convention : Reuss Voigt Hill
#
# Bulk Modulus (GPa) = 47.91798 51.90143 49.90971
# Shear Modulus (GPa) = 29.04669 31.57044 30.30856
#
# Velocity S-wave (km/s) = 3.79355 3.95493 3.87508
# Velocity P-wave (km/s) = 6.55201 6.82419 6.68948
#
# Compressibility (1/GPa) = 0.02086899
#
# Stress axis : x y z
#
# Youngs Moduli (GPa) = 83.23652 95.93157 71.78267
#
# Poissons Ratio (x) = 0.24249 0.22165
# Poissons Ratio (y) = 0.21040 0.15322
# Poissons Ratio (z) = 0.25701 0.20476
#
# Static dielectric constant tensor:
#      x y z
#    x 3.671190 0.000000 0.130090 
#    y 0.000000 3.847890 0.000000 
#    z 0.130090 0.000000 3.633480 
# 
# 
# High freq. dielectric constant tensor:
#      x y z
#    x 1.789760 0.000000 0.008420 
#    y 0.000000 1.803720 0.000000 
#    z 0.008420 0.000000 1.766290 
# 
# From -- ./inp_files/358408.got.cif
#   From: 2010.06.25/outbox.cif.g09.slc.cpg/sg12_180_cif.got.tgz:358408.got - 2010.06.28 00:19:55.
