data_PCOD8110023
_publ_section_title
;
Structure prediction by ZEFSAII (Michael W. Deem and Ramdas Pophale) SiO2 
 PCOD8110023
Probable space group: C 2/M
;
_chemical_formula_sum "Si O2"
_cell_formula_units_Z 56
_cell_length_a 9.151382
_cell_length_b 28.288116
_cell_length_c 21.574960
_cell_angle_alpha 90.000000
_cell_angle_beta 29.693170
_cell_angle_gamma 90.000000
_cell_volume 2766.670012
_symmetry_space_group_name_H-M "C 2/M"
_symmetry_group_IT_number 12
_symmetry_cell_setting 'monoclinic'
loop_
_space_group_symop_operation_xyz
x,y,z
-x,y,-z
-x,-y,-z
x,-y,z
1/2+x,1/2+y,z
1/2-x,1/2+y,-z
1/2-x,1/2-y,-z
1/2+x,1/2-y,z
loop_
_atom_site_type_symbol
_atom_site_label
_atom_site_fract_x
_atom_site_fract_y
_atom_site_fract_z
Si Si1 0.231593 0.218408 0.171078
Si Si2 0.613057 0.693453 0.823659
Si Si3 0.383341 0.126208 0.978786
Si Si4 0.347973 0.051124 0.359501
Si Si5 0.272160 0.291042 0.442865
Si Si6 0.845163 0.445888 0.884095
Si Si7 0.193816 0.646035 0.576234
O O1 0.405410 0.268751 0.112620
O O2 0.464554 0.176865 0.082867
O O3 0.017052 0.216859 0.191117
O O4 0.070252 0.211444 0.295333
O O5 0.961666 0.684015 0.687568
O O6 0.459747 0.642584 0.894476
O O7 0.453169 0.089510 0.898308
O O8 0.500000 0.102434 0.000000
O O9 0.447416 0.063312 0.252308
O O10 0.454638 0.093800 0.364081
O O11 0.000000 0.047498 0.500000
O O12 0.490664 0.000000 0.324807
O O13 0.250000 0.250000 0.500000
O O14 0.260285 0.342407 0.480269
O O15 0.000000 0.284438 0.500000
O O16 0.886520 0.500000 0.891333
O O17 0.500000 0.435843 0.000000
O O18 0.500000 0.649488 0.500000
#
# Coordination Sequence:
#
# PCOD8110023 Si02
#       7
#     8   8   8   8   8   8   8
#     4  11  23  38  59  80 123 160 200 248 298 359
#     4  11  23  40  55  86 119 158 201 247 297 357
#     4  10  24  41  60  89 122 160 204 250 309 363
#     4   9  20  38  60  90 122 152 196 250 305 363
#     4  12  22  38  56  87 121 159 204 253 294 358
#     4  10  21  40  66  93 121 157 204 258 307 363
#     4  11  23  35  61  89 120 157 199 246 307 354
#
# _framework density 20.240939999999998
#
# number of rings (size 3 to 8) (size 9 to 14) (size 15 to 20)
#    0.000    1.429    2.857    1.714    6.000    1.429 
#    0.000    0.000    0.000    1.286    0.000    0.000 
#    0.000    0.000    0.000    0.000    0.000    0.000 
#
# Total GULP energy -346933.483637 kJ/mol
# GULP energy per Si atom -12390.481558 kJ/mol
# Density = 2.019487 g / cm^3
# Si number density = 20.240940 Si / 1000 Ang^3
#
#
#
# Elastic Constant Matrix: (Units=GPa)
#
#
# Indices 1 2 3 4 5 6 
#
# 1 97.9812 61.5555 33.3864 -0.0001 5.6442 0.0008
# 2 61.5555 120.5544 20.8422 -0.0015 14.8563 -0.0044
# 3 33.3864 20.8422 108.1754 0.0152 10.4592 -0.0065
# 4 -0.0001 -0.0015 0.0152 30.1368 0.0022 14.3079
# 5 5.6442 14.8563 10.4592 0.0022 35.7729 -0.0009
# 6 0.0008 -0.0044 -0.0065 14.3079 -0.0009 15.9853
#
#
#
# Elastic Compliance Matrix: (Units=1/GPa)
#
#
# Indices 1 2 3 4 5 6 
#
# 1 0.016339 -0.007926 -0.003689 0.000006 0.001792 -0.000010
# 2 -0.007926 0.012790 0.000386 -0.000002 -0.004174 0.000005
# 3 -0.003689 0.000386 0.010566 -0.000013 -0.002667 0.000016
# 4 0.000006 -0.000002 -0.000013 0.057703 -0.000001 -0.051648
# 5 0.001792 -0.004174 -0.002667 -0.000001 0.030185 0.000001
# 6 -0.000010 0.000005 0.000016 -0.051648 0.000001 0.108786
#
#
# Mechanical properties :
#
#
# Convention : Reuss Voigt Hill
#
# Bulk Modulus (GPa) = 58.01629 62.03102 60.02366
# Shear Modulus (GPa) = 18.89841 30.44078 24.66960
#
# Velocity S-wave (km/s) = 3.05892 3.88225 3.49491
# Velocity P-wave (km/s) = 6.41881 7.12802 6.78269
#
# Compressibility (1/GPa) = 0.01723654
#
# Stress axis : x y z
#
# Youngs Moduli (GPa) = 61.20268 78.18804 94.63950
#
# Poissons Ratio (x) = 0.61971 0.34912
# Poissons Ratio (y) = 0.48509 -0.03649
# Poissons Ratio (z) = 0.22578 -0.03014
#
# Static dielectric constant tensor:
#      x y z
#    x 3.795200 0.000040 0.348380 
#    y 0.000040 4.211190 0.000060 
#    z 0.348380 0.000060 4.365990 
# 
# 
# High freq. dielectric constant tensor:
#      x y z
#    x 1.766950 0.000000 0.003180 
#    y 0.000000 1.794690 0.000000 
#    z 0.003180 0.000000 1.812130 
# 
# From -- ./inp_files/302990.got.cif
#   From: 2010.06.25/outbox.cif.g09.slc.cpg/sg12_152_cif.got.tgz:302990.got - 2010.06.28 00:19:55.
