data_PCOD8110510
_publ_section_title
;
Structure prediction by ZEFSAII (Michael W. Deem and Ramdas Pophale) SiO2 
 PCOD8110510
Probable space group: C 2/M
;
_chemical_formula_sum "Si O2"
_cell_formula_units_Z 56
_cell_length_a 8.897461
_cell_length_b 22.164807
_cell_length_c 13.627327
_cell_angle_alpha 90.000000
_cell_angle_beta 117.655362
_cell_angle_gamma 90.000000
_cell_volume 2380.425452
_symmetry_space_group_name_H-M "C 2/M"
_symmetry_group_IT_number 12
_symmetry_cell_setting 'monoclinic'
loop_
_space_group_symop_operation_xyz
x,y,z
-x,y,-z
-x,-y,-z
x,-y,z
1/2+x,1/2+y,z
1/2-x,1/2+y,-z
1/2-x,1/2-y,-z
1/2+x,1/2-y,z
loop_
_atom_site_type_symbol
_atom_site_label
_atom_site_fract_x
_atom_site_fract_y
_atom_site_fract_z
Si Si1 0.504649 0.248400 0.265969
Si Si2 0.856988 0.126529 0.659723
Si Si3 0.159146 0.570271 0.764573
Si Si4 0.875264 0.633725 0.583644
Si Si5 0.645737 0.770996 0.112475
Si Si6 0.054118 0.405930 0.116622
Si Si7 0.343622 0.434599 0.343229
O O1 0.527556 0.314109 0.319511
O O2 0.530469 0.195550 0.353735
O O3 0.649352 0.244268 0.228743
O O4 0.333190 0.245269 0.145906
O O5 0.813991 0.107419 0.759753
O O6 0.678736 0.137128 0.546878
O O7 0.968728 0.074720 0.643802
O O8 0.206653 0.500000 0.790716
O O9 0.999963 0.577409 0.642340
O O10 0.105076 0.598707 0.854223
O O11 0.705963 0.619083 0.596406
O O12 0.626691 0.842500 0.100227
O O13 0.500000 0.739931 0.000000
O O14 0.207239 0.440442 0.214173
O O15 0.000000 0.440616 0.000000
O O16 0.347119 0.500000 0.396990
#
# Coordination Sequence:
#
# PCOD8110510 Si02
#       7
#     8   8   8   8   8   8   8
#     4  12  22  43  65  97 136 166 213 271 318 396
#     4  12  25  40  63  98 136 175 214 267 327 379
#     4  11  24  42  64  94 130 169 217 273 324 388
#     4  11  23  42  66  93 131 180 222 259 321 385
#     4  11  23  40  68  96 127 167 213 267 332 389
#     4  10  21  44  69  91 122 169 224 270 332 396
#     4  11  23  42  66  96 131 172 225 274 309 378
#
# _framework density 23.525207000000002
#
# number of rings (size 3 to 8) (size 9 to 14) (size 15 to 20)
#    0.000    0.857    4.286    4.714    0.000    4.571 
#    0.000    5.000    0.000    1.714    0.000    0.000 
#    0.000    0.571    0.000    0.000    0.000    0.000 
#
# Total GULP energy -346908.740311 kJ/mol
# GULP energy per Si atom -12389.597868 kJ/mol
# Density = 2.347166 g / cm^3
# Si number density = 23.525207 Si / 1000 Ang^3
#
#
#
# Elastic Constant Matrix: (Units=GPa)
#
#
# Indices 1 2 3 4 5 6 
#
# 1 74.9897 21.5557 14.1597 0.0000 -0.0608 0.0000
# 2 21.5557 106.1166 22.7383 0.0000 7.3006 0.0000
# 3 14.1597 22.7383 124.2023 0.0000 -1.0878 0.0000
# 4 0.0000 0.0000 0.0000 -3.8190 0.0000 -1.1042
# 5 -0.0608 7.3006 -1.0878 0.0000 31.7803 0.0000
# 6 0.0000 0.0000 0.0000 -1.1042 0.0000 30.6363
#
#
#
# Elastic Compliance Matrix: (Units=1/GPa)
#
#
# Indices 1 2 3 4 5 6 
#
# 1 0.014328 -0.002710 -0.001132 0.000000 0.000611 0.000000
# 2 -0.002710 0.010494 -0.001634 0.000000 -0.002472 0.000000
# 3 -0.001132 -0.001634 0.008485 0.000000 0.000664 0.000000
# 4 0.000000 0.000000 0.000000 -0.259145 0.000000 -0.009340
# 5 0.000611 -0.002472 0.000664 0.000000 0.032058 0.000000
# 6 0.000000 0.000000 0.000000 -0.009340 0.000000 0.032304
#
#
# Mechanical properties :
#
#
# Convention : Reuss Voigt Hill
#
# Bulk Modulus (GPa) = 44.73056 46.91288 45.82172
# Shear Modulus (GPa) = -34.94766 28.17651 -3.38558
#
# Velocity S-wave (km/s) = -3.85845 3.46456 -1.20094
# Velocity P-wave (km/s) = 0.89165 5.99909 4.19488
#
# Compressibility (1/GPa) = 0.02235608
#
# Stress axis : x y z
#
# Youngs Moduli (GPa) = 69.79146 95.29020 117.84977
#
# Poissons Ratio (x) = 0.25824 0.13341
# Poissons Ratio (y) = 0.18914 0.19256
# Poissons Ratio (z) = 0.07900 0.15570
#
# Static dielectric constant tensor:
#      x y z
#    x 4.216350 0.000000 -0.055640 
#    y 0.000000 4.080790 0.000000 
#    z -0.055640 0.000000 4.423380 
# 
# 
# High freq. dielectric constant tensor:
#      x y z
#    x 1.936440 0.000000 -0.003980 
#    y 0.000000 1.921450 0.000000 
#    z -0.003980 0.000000 1.920830 
# 
# From -- ./inp_files/198984.got.cif
#   From: 2010.06.25/outbox.cif.g09.slc.cpg/sg12_100_cif.got.tgz:198984.got - 2010.06.28 00:19:55.
