data_PCOD8110527
_publ_section_title
;
Structure prediction by ZEFSAII (Michael W. Deem and Ramdas Pophale) SiO2 
 PCOD8110527
Probable space group: C 2/M
;
_chemical_formula_sum "Si O2"
_cell_formula_units_Z 48
_cell_length_a 7.722824
_cell_length_b 26.714389
_cell_length_c 22.981257
_cell_angle_alpha 90.000000
_cell_angle_beta 32.847748
_cell_angle_gamma 90.000000
_cell_volume 2571.708040
_symmetry_space_group_name_H-M "C 2/M"
_symmetry_group_IT_number 12
_symmetry_cell_setting 'monoclinic'
loop_
_space_group_symop_operation_xyz
x,y,z
-x,y,-z
-x,-y,-z
x,-y,z
1/2+x,1/2+y,z
1/2-x,1/2+y,-z
1/2-x,1/2-y,-z
1/2+x,1/2-y,z
loop_
_atom_site_type_symbol
_atom_site_label
_atom_site_fract_x
_atom_site_fract_y
_atom_site_fract_z
Si Si1 0.783240 0.126130 0.307554
Si Si2 0.355556 0.305900 0.877457
Si Si3 0.701726 0.807132 0.499999
Si Si4 0.814810 0.558746 0.374077
Si Si5 0.321004 0.373871 0.692447
Si Si6 0.742843 0.805900 0.122543
O O1 0.493295 0.166037 0.393594
O O2 0.634827 0.079061 0.315374
O O3 0.070749 0.152794 0.192009
O O4 0.921914 0.108645 0.331236
O O5 0.399187 0.250000 0.840325
O O6 0.601876 0.314295 0.859249
O O7 0.000000 0.314719 0.000000
O O8 0.500000 0.813090 0.500000
O O9 0.750000 0.750000 0.500000
O O10 0.038736 0.833964 0.393595
O O11 0.500000 0.572614 0.500000
O O12 0.859697 0.500000 0.356122
O O13 0.788324 0.579062 0.315369
O O14 0.030795 0.347204 0.807991
O O15 0.000000 0.814719 0.000000
#
# Coordination Sequence:
#
# PCOD8110527 Si02
#       6
#     8   8   8   8   8   8
#     4  11  22  39  58  87 121 154 197 245 298 350
#     4  11  21  35  56  88 125 165 204 239 287 356
#     4  10  22  32  52  83 119 158 188 226 285 348
#     4  11  24  42  66  89 114 154 202 250 303 357
#     4  11  22  39  58  87 121 154 197 245 298 350
#     4  11  21  35  56  88 125 165 204 239 287 356
#
# _framework density 18.664639000000001
#
# number of rings (size 3 to 8) (size 9 to 14) (size 15 to 20)
#    0.000    1.167    3.333    5.000    2.333    3.333 
#    0.000    1.667    0.000    1.000    0.000    0.000 
#    0.000    0.000    0.000    0.000    0.000    0.000 
#
# Total GULP energy -297635.677246 kJ/mol
# GULP energy per Si atom -12401.486552 kJ/mol
# Density = 1.862216 g / cm^3
# Si number density = 18.664639 Si / 1000 Ang^3
#
#
#
# Elastic Constant Matrix: (Units=GPa)
#
#
# Indices 1 2 3 4 5 6 
#
# 1 119.6249 45.4382 24.1465 -0.0001 3.1176 -0.0001
# 2 45.4382 111.0561 48.4978 0.0001 -0.2003 -0.0001
# 3 24.1465 48.4978 82.4527 -0.0002 -0.7131 0.0002
# 4 -0.0001 0.0001 -0.0002 23.2576 -0.0001 0.4269
# 5 3.1176 -0.2003 -0.7131 -0.0001 23.9626 0.0000
# 6 -0.0001 -0.0001 0.0002 0.4269 0.0000 29.8400
#
#
#
# Elastic Compliance Matrix: (Units=1/GPa)
#
#
# Indices 1 2 3 4 5 6 
#
# 1 0.009971 -0.003770 -0.000714 0.000000 -0.001350 0.000000
# 2 -0.003770 0.013543 -0.006858 0.000000 0.000400 0.000000
# 3 -0.000714 -0.006858 0.016376 0.000000 0.000523 0.000000
# 4 0.000000 0.000000 0.000000 0.043008 0.000000 -0.000615
# 5 -0.001350 0.000400 0.000523 0.000000 0.041926 0.000000
# 6 0.000000 0.000000 0.000000 -0.000615 0.000000 0.033521
#
#
# Mechanical properties :
#
#
# Convention : Reuss Voigt Hill
#
# Bulk Modulus (GPa) = 58.12437 61.03319 59.57878
# Shear Modulus (GPa) = 26.77182 28.41547 27.59364
#
# Velocity S-wave (km/s) = 3.79140 3.90606 3.84916
# Velocity P-wave (km/s) = 7.09756 7.28793 7.19338
#
# Compressibility (1/GPa) = 0.01720449
#
# Stress axis : x y z
#
# Youngs Moduli (GPa) = 100.29266 73.84113 61.06625
#
# Poissons Ratio (x) = 0.27839 0.04361
# Poissons Ratio (y) = 0.37811 0.41880
# Poissons Ratio (z) = 0.07162 0.50641
#
# Static dielectric constant tensor:
#      x y z
#    x 3.853530 0.000000 -0.073810 
#    y 0.000000 3.099270 0.000000 
#    z -0.073810 0.000000 4.995420 
# 
# 
# High freq. dielectric constant tensor:
#      x y z
#    x 1.743350 0.000000 0.001100 
#    y 0.000000 1.695220 0.000000 
#    z 0.001100 0.000000 1.726330 
# 
# From -- ./inp_files/334040.got.cif
#   From: 2010.06.25/outbox.cif.g09.slc.cpg/sg12_168_cif.got.tgz:334040.got - 2010.06.28 00:19:55.
