data_PCOD8110369
_publ_section_title
;
Structure prediction by ZEFSAII (Michael W. Deem and Ramdas Pophale) SiO2 
 PCOD8110369
Probable space group: C 2/M
;
_chemical_formula_sum "Si O2"
_cell_formula_units_Z 56
_cell_length_a 16.775661
_cell_length_b 21.732333
_cell_length_c 17.791527
_cell_angle_alpha 90.000000
_cell_angle_beta 25.248437
_cell_angle_gamma 90.000000
_cell_volume 2766.706699
_symmetry_space_group_name_H-M "C 2/M"
_symmetry_group_IT_number 12
_symmetry_cell_setting 'monoclinic'
loop_
_space_group_symop_operation_xyz
x,y,z
-x,y,-z
-x,-y,-z
x,-y,z
1/2+x,1/2+y,z
1/2-x,1/2+y,-z
1/2-x,1/2-y,-z
1/2+x,1/2-y,z
loop_
_atom_site_type_symbol
_atom_site_label
_atom_site_fract_x
_atom_site_fract_y
_atom_site_fract_z
Si Si1 0.499772 0.378384 0.250154
Si Si2 0.680742 0.827495 0.244383
Si Si3 0.299626 0.070240 0.888414
Si Si4 0.758762 0.693578 0.639362
Si Si5 0.699776 0.070248 0.612005
Si Si6 0.319224 0.827616 0.255610
Si Si7 0.258691 0.193436 0.139473
O O1 0.403872 0.334480 0.271520
O O2 0.351303 0.422219 0.417216
O O3 0.596280 0.334672 0.228327
O O4 0.647651 0.422336 0.083445
O O5 0.749723 0.887232 0.140671
O O6 0.773918 0.828638 0.247212
O O7 0.457417 0.828548 0.439791
O O8 0.751783 0.767325 0.139570
O O9 0.499566 0.090105 0.750454
O O10 0.301469 0.000000 0.858728
O O11 0.751527 0.767452 0.639757
O O12 0.749571 0.112678 0.640739
O O13 0.698289 0.000000 0.641305
O O14 0.225474 0.828700 0.253364
O O15 0.542489 0.828756 0.060001
#
# Coordination Sequence:
#
# PCOD8110369 Si02
#       7
#     8   8   8   8   8   8   8
#     4  12  23  40  66  94 119 162 210 260 304 366
#     4  10  21  42  60  93 128 163 201 257 307 371
#     4  11  24  42  63  90 127 166 207 254 301 365
#     4  10  22  37  66  93 126 158 205 257 315 360
#     4  11  24  42  63  90 127 166 207 254 301 365
#     4  10  21  42  60  93 128 163 201 257 307 371
#     4  10  22  37  66  93 126 158 205 257 315 360
#
# _framework density 20.240670999999999
#
# number of rings (size 3 to 8) (size 9 to 14) (size 15 to 20)
#    0.000    1.429    2.857    2.143    2.000    5.714 
#    0.000    7.143    0.000    0.000    0.000    0.000 
#    0.000    0.000    0.000    0.000    0.000    0.000 
#
# Total GULP energy -347395.036803 kJ/mol
# GULP energy per Si atom -12406.965600 kJ/mol
# Density = 2.019460 g / cm^3
# Si number density = 20.240671 Si / 1000 Ang^3
#
#
#
# Elastic Constant Matrix: (Units=GPa)
#
#
# Indices 1 2 3 4 5 6 
#
# 1 115.0278 59.5448 23.7813 0.1060 -7.8389 -0.0555
# 2 59.5448 122.0269 30.0934 0.0859 18.1302 -0.0450
# 3 23.7813 30.0934 84.1357 0.3319 9.0326 -0.2194
# 4 0.1060 0.0859 0.3319 28.7107 -0.0806 3.1015
# 5 -7.8389 18.1302 9.0326 -0.0806 28.6730 0.0952
# 6 -0.0555 -0.0450 -0.2194 3.1015 0.0952 30.2217
#
#
#
# Elastic Compliance Matrix: (Units=1/GPa)
#
#
# Indices 1 2 3 4 5 6 
#
# 1 0.013633 -0.007477 -0.002160 0.000026 0.009136 -0.000033
# 2 -0.007477 0.013786 -0.001720 -0.000026 -0.010220 0.000029
# 3 -0.002160 -0.001720 0.013516 -0.000167 -0.003762 0.000121
# 4 0.000026 -0.000026 -0.000167 0.035223 0.000187 -0.003617
# 5 0.009136 -0.010220 -0.003762 0.000187 0.045022 -0.000187
# 6 -0.000033 0.000029 0.000121 -0.003617 -0.000187 0.033461
#
#
# Mechanical properties :
#
#
# Convention : Reuss Voigt Hill
#
# Bulk Modulus (GPa) = 54.88272 60.89215 57.88744
# Shear Modulus (GPa) = 27.25825 31.37247 29.31536
#
# Velocity S-wave (km/s) = 3.67373 3.94124 3.80983
# Velocity P-wave (km/s) = 6.72079 7.13166 6.92927
#
# Compressibility (1/GPa) = 0.01822067
#
# Stress axis : x y z
#
# Youngs Moduli (GPa) = 73.34969 72.53634 73.98533
#
# Poissons Ratio (x) = 0.54237 0.15981
# Poissons Ratio (y) = 0.54846 0.12727
# Poissons Ratio (z) = 0.15844 0.12478
#
# Static dielectric constant tensor:
#      x y z
#    x 3.638250 -0.000310 -0.022460 
#    y -0.000310 3.469490 0.000460 
#    z -0.022460 0.000460 3.783440 
# 
# 
# High freq. dielectric constant tensor:
#      x y z
#    x 1.790450 -0.000020 -0.003040 
#    y -0.000020 1.779190 0.000040 
#    z -0.003040 0.000040 1.807990 
# 
# From -- ./inp_files/218639.got.cif
#   From: 2010.06.25/outbox.cif.g09.slc.cpg/sg12_110_cif.got.tgz:218639.got - 2010.06.28 00:19:55.
