data_PCOD8110232
_publ_section_title
;
Structure prediction by ZEFSAII (Michael W. Deem and Ramdas Pophale) SiO2 
 PCOD8110232
Probable space group: C 2/M
;
_chemical_formula_sum "Si O2"
_cell_formula_units_Z 24
_cell_length_a 9.383024
_cell_length_b 16.160970
_cell_length_c 6.847535
_cell_angle_alpha 90.000000
_cell_angle_beta 83.932240
_cell_angle_gamma 90.000000
_cell_volume 1032.534499
_symmetry_space_group_name_H-M "C 2/M"
_symmetry_group_IT_number 12
_symmetry_cell_setting 'monoclinic'
loop_
_space_group_symop_operation_xyz
x,y,z
-x,y,-z
-x,-y,-z
x,-y,z
1/2+x,1/2+y,z
1/2-x,1/2+y,-z
1/2-x,1/2-y,-z
1/2+x,1/2-y,z
loop_
_atom_site_type_symbol
_atom_site_label
_atom_site_fract_x
_atom_site_fract_y
_atom_site_fract_z
Si Si1 0.168577 0.593187 0.119333
Si Si2 0.366104 0.643893 0.402539
Si Si3 0.886098 0.669690 0.275640
O O1 0.140018 0.500000 0.049751
O O2 0.319298 0.595069 0.213793
O O3 0.038826 0.623671 0.279640
O O4 0.172053 0.655747 0.935937
O O5 0.500000 0.603966 0.500000
O O6 0.232031 0.634263 0.563870
O O7 0.410062 0.734792 0.324249
#
# Coordination Sequence:
#
# PCOD8110232 Si02
#       3
#     8   8   8
#     4  11  24  42  67  95 126 166 210 261 314 370
#     4  11  23  39  63  95 129 165 206 258 316 373
#     4  10  21  41  65  91 123 167 219 257 298 369
#
# _framework density 23.243776
#
# number of rings (size 3 to 8) (size 9 to 14) (size 15 to 20)
#    0.000    1.333    0.000    8.000    0.000    8.667 
#    0.000    1.667    0.000    0.000    0.000    0.000 
#    0.000    0.000    0.000    0.000    0.000    0.000 
#
# Total GULP energy -148733.200331 kJ/mol
# GULP energy per Si atom -12394.433361 kJ/mol
# Density = 2.319087 g / cm^3
# Si number density = 23.243776 Si / 1000 Ang^3
#
#
#
# Elastic Constant Matrix: (Units=GPa)
#
#
# Indices 1 2 3 4 5 6 
#
# 1 136.5180 25.8721 68.6360 0.0000 59.3630 0.0000
# 2 25.8721 55.8881 29.5572 0.0000 -8.2619 0.0000
# 3 68.6360 29.5572 97.9243 0.0000 15.8350 0.0000
# 4 0.0000 0.0000 0.0000 15.9042 0.0000 0.5486
# 5 59.3630 -8.2619 15.8350 0.0000 47.8043 0.0000
# 6 0.0000 0.0000 0.0000 0.5486 0.0000 22.1824
#
#
#
# Elastic Compliance Matrix: (Units=1/GPa)
#
#
# Indices 1 2 3 4 5 6 
#
# 1 0.035075 -0.015479 -0.013141 0.000000 -0.041879 0.000000
# 2 -0.015479 0.029975 -0.002266 0.000000 0.025152 0.000000
# 3 -0.013141 -0.002266 0.018523 0.000000 0.009791 0.000000
# 4 0.000000 0.000000 0.000000 0.062930 0.000000 -0.001556
# 5 -0.041879 0.025152 0.009791 0.000000 0.074027 0.000000
# 6 0.000000 0.000000 0.000000 -0.001556 0.000000 0.045119
#
#
# Mechanical properties :
#
#
# Convention : Reuss Voigt Hill
#
# Bulk Modulus (GPa) = 45.86438 59.82900 52.84669
# Shear Modulus (GPa) = 14.93929 28.26252 21.60091
#
# Velocity S-wave (km/s) = 2.53795 3.49078 3.05178
# Velocity P-wave (km/s) = 5.32569 6.48407 5.93321
#
# Compressibility (1/GPa) = 0.02180341
#
# Stress axis : x y z
#
# Youngs Moduli (GPa) = 28.50993 33.36125 53.98701
#
# Poissons Ratio (x) = 0.51639 0.70942
# Poissons Ratio (y) = 0.44130 0.12232
# Poissons Ratio (z) = 0.37464 0.07558
#
# Static dielectric constant tensor:
#      x y z
#    x 4.331520 0.000000 0.218560 
#    y 0.000000 3.824430 0.000000 
#    z 0.218560 0.000000 4.316150 
# 
# 
# High freq. dielectric constant tensor:
#      x y z
#    x 1.928740 0.000000 0.020640 
#    y 0.000000 1.890850 0.000000 
#    z 0.020640 0.000000 1.930000 
# 
# From -- ./inp_files/35763.got.cif
#   From: 2010.06.25/outbox.cif.g09.slc.cpg/sg12_18_cif.got.tgz:35763.got - 2010.06.28 00:19:55.
