data_PCOD8110691
_publ_section_title
;
Structure prediction by ZEFSAII (Michael W. Deem and Ramdas Pophale) SiO2 
 PCOD8110691
Probable space group: C 2/M
;
_chemical_formula_sum "Si O2"
_cell_formula_units_Z 40
_cell_length_a 22.246497
_cell_length_b 9.411049
_cell_length_c 28.972033
_cell_angle_alpha 90.000000
_cell_angle_beta 160.983238
_cell_angle_gamma 90.000000
_cell_volume 1976.466122
_symmetry_space_group_name_H-M "C 2/M"
_symmetry_group_IT_number 12
_symmetry_cell_setting 'monoclinic'
loop_
_space_group_symop_operation_xyz
x,y,z
-x,y,-z
-x,-y,-z
x,-y,z
1/2+x,1/2+y,z
1/2-x,1/2+y,-z
1/2-x,1/2-y,-z
1/2+x,1/2-y,z
loop_
_atom_site_type_symbol
_atom_site_label
_atom_site_fract_x
_atom_site_fract_y
_atom_site_fract_z
Si Si1 0.644937 0.661184 0.816126
Si Si2 0.900790 0.662419 0.082118
Si Si3 0.538671 0.162668 0.577875
Si Si4 0.790687 0.169028 0.840268
Si Si5 0.139033 0.838033 0.312461
O O1 0.610206 0.500000 0.774118
O O2 0.656841 0.764660 0.781478
O O3 0.473808 0.712269 0.724162
O O4 0.841841 0.669630 0.985844
O O5 0.909997 0.500000 0.106019
O O6 0.092312 0.741526 0.233326
O O7 0.750000 0.750000 0.000000
O O8 0.500000 0.238640 0.500000
O O9 0.711672 0.223536 0.733135
O O10 0.357550 0.176072 0.478914
O O11 0.586784 0.000000 0.601869
O O12 0.775815 0.000000 0.833576
O O13 0.000000 0.221798 0.000000
O O14 0.080530 0.000000 0.258714
#
# Coordination Sequence:
#
# PCOD8110691 Si02
#       5
#     8   8   8   8   8
#     4   9  19  34  52  79 112 145 178 221 281 336
#     4   9  17  30  50  80 114 145 181 221 270 327
#     4   9  19  36  57  81 111 146 183 231 285 327
#     4  10  22  37  56  84 109 139 190 235 270 328
#     4   9  18  33  56  82 110 146 187 228 278 333
#
# _framework density 20.238140999999999
#
# number of rings (size 3 to 8) (size 9 to 14) (size 15 to 20)
#    0.000    2.800    0.000    1.800    2.800    5.200 
#    0.000    1.000    0.000    1.200    0.000    0.000 
#    0.000    0.000    0.000    0.000    0.000    0.000 
#
# Total GULP energy -247791.864049 kJ/mol
# GULP energy per Si atom -12389.593202 kJ/mol
# Density = 2.019208 g / cm^3
# Si number density = 20.238141 Si / 1000 Ang^3
#
#
#
# Elastic Constant Matrix: (Units=GPa)
#
#
# Indices 1 2 3 4 5 6 
#
# 1 108.4071 21.3213 57.0690 0.0073 -14.6581 0.0009
# 2 21.3213 52.7033 24.0929 0.0233 -9.7894 -0.0273
# 3 57.0690 24.0929 134.8708 0.2022 -18.7928 -0.0503
# 4 0.0073 0.0233 0.2022 16.9602 -0.0509 -3.0349
# 5 -14.6581 -9.7894 -18.7928 -0.0509 27.6676 0.0055
# 6 0.0009 -0.0273 -0.0503 -3.0349 0.0055 27.6485
#
#
#
# Elastic Compliance Matrix: (Units=1/GPa)
#
#
# Indices 1 2 3 4 5 6 
#
# 1 0.012411 -0.002497 -0.004432 0.000058 0.002682 -0.000005
# 2 -0.002497 0.021894 -0.002164 0.000015 0.004954 0.000018
# 3 -0.004432 -0.002164 0.010209 -0.000105 0.003820 0.000004
# 4 0.000058 0.000015 -0.000105 0.060144 0.000074 0.006602
# 5 0.002682 0.004954 0.003820 0.000074 0.041912 0.000012
# 6 -0.000005 0.000018 0.000004 0.006602 0.000012 0.036893
#
#
# Mechanical properties :
#
#
# Convention : Reuss Voigt Hill
#
# Bulk Modulus (GPa) = 37.98302 55.66084 46.82193
# Shear Modulus (GPa) = 23.76137 27.35513 25.55825
#
# Velocity S-wave (km/s) = 3.43022 3.68048 3.55755
# Velocity P-wave (km/s) = 5.87344 6.75455 6.32934
#
# Compressibility (1/GPa) = 0.02632756
#
# Stress axis : x y z
#
# Youngs Moduli (GPa) = 80.57132 45.67510 97.95299
#
# Poissons Ratio (x) = 0.11405 0.43414
# Poissons Ratio (y) = 0.20118 0.21200
# Poissons Ratio (z) = 0.35710 0.09885
#
# Static dielectric constant tensor:
#      x y z
#    x 3.490930 -0.000080 -0.182660 
#    y -0.000080 3.639800 0.000150 
#    z -0.182660 0.000150 4.270580 
# 
# 
# High freq. dielectric constant tensor:
#      x y z
#    x 1.774220 0.000000 -0.002090 
#    y 0.000000 1.759220 -0.000010 
#    z -0.002090 -0.000010 1.793780 
# 
# From -- ./inp_files/162749.got.cif
#   From: 2010.06.25/outbox.cif.g09.slc.cpg/sg12_82_cif.got.tgz:162749.got - 2010.06.28 00:19:55.
