data_PCOD8110270
_publ_section_title
;
Structure prediction by ZEFSAII (Michael W. Deem and Ramdas Pophale) SiO2 
 PCOD8110270
Probable space group: C 2/M
;
_chemical_formula_sum "Si O2"
_cell_formula_units_Z 40
_cell_length_a 9.195646
_cell_length_b 17.649430
_cell_length_c 11.870863
_cell_angle_alpha 90.000000
_cell_angle_beta 76.869967
_cell_angle_gamma 90.000000
_cell_volume 1876.248786
_symmetry_space_group_name_H-M "C 2/M"
_symmetry_group_IT_number 12
_symmetry_cell_setting 'monoclinic'
loop_
_space_group_symop_operation_xyz
x,y,z
-x,y,-z
-x,-y,-z
x,-y,z
1/2+x,1/2+y,z
1/2-x,1/2+y,-z
1/2-x,1/2-y,-z
1/2+x,1/2-y,z
loop_
_atom_site_type_symbol
_atom_site_label
_atom_site_fract_x
_atom_site_fract_y
_atom_site_fract_z
Si Si1 0.131795 0.917134 0.390581
Si Si2 0.832393 0.412804 0.995348
Si Si3 0.242210 0.836188 0.795386
Si Si4 0.329186 0.087671 0.550931
Si Si5 0.901621 0.180969 0.819002
O O1 0.265893 0.883995 0.442041
O O2 0.087996 0.859923 0.301885
O O3 0.000000 0.927766 0.500000
O O4 0.172701 0.000000 0.331384
O O5 0.807660 0.500000 0.032421
O O6 0.713253 0.361830 0.080828
O O7 0.799908 0.402491 0.868202
O O8 0.000000 0.387489 0.000000
O O9 0.268645 0.861515 0.662930
O O10 0.343481 0.764967 0.809475
O O11 0.066849 0.817658 0.844644
O O12 0.500000 0.100263 0.500000
O O13 0.285699 0.000000 0.581954
#
# Coordination Sequence:
#
# PCOD8110270 Si02
#       5
#     8   8   8   8   8
#     4  10  21  41  66  95 129 169 219 266 317 380
#     4  11  26  47  72  98 126 165 215 268 323 386
#     4  12  26  44  66  96 134 172 217 265 324 386
#     4  10  23  41  66  96 130 172 217 268 319 379
#     4  12  26  43  67  96 133 175 213 267 324 383
#
# _framework density 21.319134999999999
#
# number of rings (size 3 to 8) (size 9 to 14) (size 15 to 20)
#    0.000    1.000    2.000    3.600    5.600    4.800 
#    0.000    0.000    0.000    0.000    0.000    0.000 
#    0.000    0.000    0.000    0.000    0.000    0.000 
#
# Total GULP energy -247996.071940 kJ/mol
# GULP energy per Si atom -12399.803597 kJ/mol
# Density = 2.127061 g / cm^3
# Si number density = 21.319135 Si / 1000 Ang^3
#
#
#
# Elastic Constant Matrix: (Units=GPa)
#
#
# Indices 1 2 3 4 5 6 
#
# 1 157.2141 35.2158 25.8658 0.0000 19.8627 0.0000
# 2 35.2158 79.4904 20.2257 0.0000 -4.8208 0.0000
# 3 25.8658 20.2257 63.9074 0.0000 0.3776 0.0000
# 4 0.0000 0.0000 0.0000 28.9476 0.0000 -0.6250
# 5 19.8627 -4.8208 0.3776 0.0000 28.7515 0.0000
# 6 0.0000 0.0000 0.0000 -0.6250 0.0000 31.4902
#
#
#
# Elastic Compliance Matrix: (Units=1/GPa)
#
#
# Indices 1 2 3 4 5 6 
#
# 1 0.008304 -0.003496 -0.002217 0.000000 -0.006294 0.000000
# 2 -0.003496 0.015315 -0.003462 0.000000 0.005029 0.000000
# 3 -0.002217 -0.003462 0.017636 0.000000 0.000720 0.000000
# 4 0.000000 0.000000 0.000000 0.034560 0.000000 0.000686
# 5 -0.006294 0.005029 0.000720 0.000000 0.039963 0.000000
# 6 0.000000 0.000000 0.000000 0.000686 0.000000 0.031770
#
#
# Mechanical properties :
#
#
# Convention : Reuss Voigt Hill
#
# Bulk Modulus (GPa) = 43.65875 51.46962 47.56419
# Shear Modulus (GPa) = 28.81311 32.45814 30.63563
#
# Velocity S-wave (km/s) = 3.68028 3.90614 3.79489
# Velocity P-wave (km/s) = 6.21148 6.67374 6.44675
#
# Compressibility (1/GPa) = 0.02290492
#
# Stress axis : x y z
#
# Youngs Moduli (GPa) = 120.42567 65.29620 56.70126
#
# Poissons Ratio (x) = 0.22830 0.12572
# Poissons Ratio (y) = 0.42105 0.19627
# Poissons Ratio (z) = 0.26701 0.22602
#
# Static dielectric constant tensor:
#      x y z
#    x 4.193350 0.000000 0.138180 
#    y 0.000000 3.956370 0.000000 
#    z 0.138180 0.000000 3.831950 
# 
# 
# High freq. dielectric constant tensor:
#      x y z
#    x 1.861150 0.000000 0.008230 
#    y 0.000000 1.832840 0.000000 
#    z 0.008230 0.000000 1.840900 
# 
# From -- ./inp_files/118917.got.cif
#   From: 2010.06.25/outbox.cif.g09.slc.cpg/sg12_60_cif.got.tgz:118917.got - 2010.06.28 00:19:55.
