data_PCOD8110336
_publ_section_title
;
Structure prediction by ZEFSAII (Michael W. Deem and Ramdas Pophale) SiO2 
 PCOD8110336
Probable space group: C 2/M
;
_chemical_formula_sum "Si O2"
_cell_formula_units_Z 44
_cell_length_a 10.888532
_cell_length_b 27.931157
_cell_length_c 9.170061
_cell_angle_alpha 90.000000
_cell_angle_beta 135.825643
_cell_angle_gamma 90.000000
_cell_volume 1943.417715
_symmetry_space_group_name_H-M "C 2/M"
_symmetry_group_IT_number 12
_symmetry_cell_setting 'monoclinic'
loop_
_space_group_symop_operation_xyz
x,y,z
-x,y,-z
-x,-y,-z
x,-y,z
1/2+x,1/2+y,z
1/2-x,1/2+y,-z
1/2-x,1/2-y,-z
1/2+x,1/2-y,z
loop_
_atom_site_type_symbol
_atom_site_label
_atom_site_fract_x
_atom_site_fract_y
_atom_site_fract_z
Si Si1 0.674623 0.101121 0.225808
Si Si2 0.692223 0.000000 0.588636
Si Si3 0.909219 0.159799 0.230827
Si Si4 0.287344 0.602187 0.639382
Si Si5 0.000000 0.239295 0.500000
Si Si6 0.710101 0.500000 0.663600
Si Si7 0.709180 0.687669 0.158725
O O1 0.823742 0.138527 0.304357
O O2 0.660022 0.101850 0.388869
O O3 0.719997 0.048231 0.200788
O O4 0.500000 0.119325 0.000000
O O5 0.500000 0.000000 0.500000
O O6 0.789614 0.950426 0.718168
O O7 0.705201 0.000000 0.424976
O O8 0.017505 0.117390 0.244540
O O9 0.028399 0.205250 0.381955
O O10 0.762166 0.178774 0.989758
O O11 0.219859 0.640497 0.698345
O O12 0.177072 0.269121 0.679425
O O13 0.500000 0.500000 0.500000
O O14 0.500000 0.697700 0.000000
#
# Coordination Sequence:
#
# PCOD8110336 Si02
#       7
#     8   4   8   8   4   4   8
#     4  11  22  37  67 100 138 175 235 289 352 423
#     4  10  22  37  71 105 138 183 237 282 359 429
#     4  11  23  46  64 101 133 182 238 285 359 431
#     4  10  22  45  65  96 140 183 222 290 353 425
#     4  12  24  44  74  92 140 184 238 298 364 414
#     4  10  21  41  68  99 140 195 234 288 355 434
#     4  10  26  43  68  99 137 178 238 291 362 432
#
# _framework density 22.640526999999999
#
# number of rings (size 3 to 8) (size 9 to 14) (size 15 to 20)
#    0.000    1.455    1.818    3.000    3.818    5.091 
#    0.000    5.000    0.000    0.000    0.000    0.000 
#    0.000    0.000    0.000    0.000    0.000    0.000 
#
# Total GULP energy -272592.014740 kJ/mol
# GULP energy per Si atom -12390.546125 kJ/mol
# Density = 2.258900 g / cm^3
# Si number density = 22.640527 Si / 1000 Ang^3
#
#
#
# Elastic Constant Matrix: (Units=GPa)
#
#
# Indices 1 2 3 4 5 6 
#
# 1 82.6668 52.8328 24.6277 0.0000 -0.4650 0.0000
# 2 52.8328 189.1128 68.0486 0.0000 4.9306 0.0000
# 3 24.6277 68.0486 123.8927 0.0000 -0.0672 0.0000
# 4 0.0000 0.0000 0.0000 23.1559 0.0000 -0.3633
# 5 -0.4650 4.9306 -0.0672 0.0000 36.0869 0.0000
# 6 0.0000 0.0000 0.0000 -0.3633 0.0000 27.5922
#
#
#
# Elastic Compliance Matrix: (Units=1/GPa)
#
#
# Indices 1 2 3 4 5 6 
#
# 1 0.014814 -0.003861 -0.000824 0.000000 0.000717 0.000000
# 2 -0.003861 0.007626 -0.003422 0.000000 -0.001098 0.000000
# 3 -0.000824 -0.003422 0.010115 0.000000 0.000476 0.000000
# 4 0.000000 0.000000 0.000000 0.043194 0.000000 0.000569
# 5 0.000717 -0.001098 0.000476 0.000000 0.027871 0.000000
# 6 0.000000 0.000000 0.000000 0.000569 0.000000 0.036250
#
#
# Mechanical properties :
#
#
# Convention : Reuss Voigt Hill
#
# Bulk Modulus (GPa) = 61.19175 76.29890 68.74533
# Shear Modulus (GPa) = 30.95390 34.04457 32.49924
#
# Velocity S-wave (km/s) = 3.70156 3.88196 3.79284
# Velocity P-wave (km/s) = 6.73461 7.33936 7.04348
#
# Compressibility (1/GPa) = 0.01634207
#
# Stress axis : x y z
#
# Youngs Moduli (GPa) = 67.50530 131.12331 98.86268
#
# Poissons Ratio (x) = 0.50624 0.08144
# Poissons Ratio (y) = 0.26062 0.33831
# Poissons Ratio (z) = 0.05561 0.44870
#
# Static dielectric constant tensor:
#      x y z
#    x 3.865730 0.000000 -0.257210 
#    y 0.000000 4.558930 0.000000 
#    z -0.257210 0.000000 4.173720 
# 
# 
# High freq. dielectric constant tensor:
#      x y z
#    x 1.866600 0.000000 -0.011890 
#    y 0.000000 1.912630 0.000000 
#    z -0.011890 0.000000 1.889900 
# 
# From -- ./inp_files/54420.got.cif
#   From: 2010.06.25/outbox.cif.g09.slc.cpg/sg12_28_cif.got.tgz:54420.got - 2010.06.28 00:19:55.
