data_PCOD8110805
_publ_section_title
;
Structure prediction by ZEFSAII (Michael W. Deem and Ramdas Pophale) SiO2 
 PCOD8110805
Probable space group: C 2/M
;
_chemical_formula_sum "Si O2"
_cell_formula_units_Z 56
_cell_length_a 24.193599
_cell_length_b 12.602785
_cell_length_c 11.989719
_cell_angle_alpha 90.000000
_cell_angle_beta 122.975140
_cell_angle_gamma 90.000000
_cell_volume 3066.830162
_symmetry_space_group_name_H-M "C 2/M"
_symmetry_group_IT_number 12
_symmetry_cell_setting 'monoclinic'
loop_
_space_group_symop_operation_xyz
x,y,z
-x,y,-z
-x,-y,-z
x,-y,z
1/2+x,1/2+y,z
1/2-x,1/2+y,-z
1/2-x,1/2-y,-z
1/2+x,1/2-y,z
loop_
_atom_site_type_symbol
_atom_site_label
_atom_site_fract_x
_atom_site_fract_y
_atom_site_fract_z
Si Si1 0.273925 0.125123 0.146719
Si Si2 0.310232 0.120267 0.647668
Si Si3 0.851719 0.738395 0.043122
Si Si4 0.798789 0.275668 0.405270
Si Si5 0.057353 0.119673 0.715884
Si Si6 0.589488 0.619568 0.502530
Si Si7 0.426152 0.121929 0.928781
O O1 0.321673 0.154606 0.097257
O O2 0.307035 0.163233 0.298184
O O3 0.263516 0.000000 0.137203
O O4 0.203091 0.178608 0.055824
O O5 0.267006 0.204412 0.669678
O O6 0.299657 0.138360 0.504691
O O7 0.386709 0.134652 0.768452
O O8 0.287311 0.000000 0.650380
O O9 0.911758 0.801922 0.162001
O O10 0.881745 0.677548 0.972354
O O11 0.859270 0.197879 0.497816
O O12 0.097511 0.125396 0.644651
O O13 0.982705 0.156000 0.613875
O O14 0.059772 0.000000 0.765260
O O15 0.603653 0.500000 0.476999
O O16 0.433235 0.000000 0.972419
O O17 0.500000 0.171468 0.000000
#
# Coordination Sequence:
#
# PCOD8110805 Si02
#       7
#     8   8   8   8   8   8   8
#     4  11  23  37  57  89 119 144 184 238 291 339
#     4  10  22  38  57  79 108 149 196 233 273 333
#     4  11  21  38  60  85 114 155 183 230 288 341
#     4  11  20  37  58  82 111 148 183 238 288 329
#     4   9  18  33  55  83 114 142 179 225 276 335
#     4   9  18  33  55  83 111 144 184 228 273 333
#     4  10  22  40  60  83 112 152 197 232 268 334
#
# _framework density 18.259896000000001
#
# number of rings (size 3 to 8) (size 9 to 14) (size 15 to 20)
#    0.000    1.857    2.857    2.571    2.000    0.000 
#    0.000    0.000    0.000    2.571    0.000    0.000 
#    0.000    0.000    0.000    0.000    0.000    0.000 
#
# Total GULP energy -347215.900083 kJ/mol
# GULP energy per Si atom -12400.567860 kJ/mol
# Density = 1.821834 g / cm^3
# Si number density = 18.259896 Si / 1000 Ang^3
#
#
#
# Elastic Constant Matrix: (Units=GPa)
#
#
# Indices 1 2 3 4 5 6 
#
# 1 90.4095 40.8934 33.4239 0.0000 4.1101 0.0000
# 2 40.8934 88.8837 43.0247 0.0000 0.5005 0.0000
# 3 33.4239 43.0247 89.4900 0.0000 3.8852 0.0000
# 4 0.0000 0.0000 0.0000 21.2543 0.0000 4.8557
# 5 4.1101 0.5005 3.8852 0.0000 25.7779 0.0000
# 6 0.0000 0.0000 0.0000 4.8557 0.0000 25.7732
#
#
#
# Elastic Compliance Matrix: (Units=1/GPa)
#
#
# Indices 1 2 3 4 5 6 
#
# 1 0.014598 -0.005350 -0.002802 0.000000 -0.001801 0.000000
# 2 -0.005350 0.016639 -0.006064 0.000000 0.001444 0.000000
# 3 -0.002802 -0.006064 0.015212 0.000000 -0.001728 0.000000
# 4 0.000000 0.000000 0.000000 0.049166 0.000000 -0.009263
# 5 -0.001801 0.001444 -0.001728 0.000000 0.039313 0.000000
# 6 0.000000 0.000000 0.000000 -0.009263 0.000000 0.040545
#
#
# Mechanical properties :
#
#
# Convention : Reuss Voigt Hill
#
# Bulk Modulus (GPa) = 55.50398 55.94079 55.72238
# Shear Modulus (GPa) = 23.81965 24.65717 24.23841
#
# Velocity S-wave (km/s) = 3.61568 3.67869 3.64732
# Velocity P-wave (km/s) = 6.92051 6.98184 6.95124
#
# Compressibility (1/GPa) = 0.01801673
#
# Stress axis : x y z
#
# Youngs Moduli (GPa) = 68.50058 60.09840 65.73924
#
# Poissons Ratio (x) = 0.32152 0.18421
# Poissons Ratio (y) = 0.36647 0.39867
# Poissons Ratio (z) = 0.19195 0.36446
#
# Static dielectric constant tensor:
#      x y z
#    x 3.298040 0.000000 0.087420 
#    y 0.000000 3.283510 0.000000 
#    z 0.087420 0.000000 3.380350 
# 
# 
# High freq. dielectric constant tensor:
#      x y z
#    x 1.700510 0.000000 0.009930 
#    y 0.000000 1.706940 0.000000 
#    z 0.009930 0.000000 1.712900 
# 
# From -- ./inp_files/165620.got.cif
#   From: 2010.06.25/outbox.cif.g09.slc.cpg/sg12_83_cif.got.tgz:165620.got - 2010.06.28 00:19:55.
