data_PCOD8110830
_publ_section_title
;
Structure prediction by ZEFSAII (Michael W. Deem and Ramdas Pophale) SiO2 
 PCOD8110830
Probable space group: C 2/M
;
_chemical_formula_sum "Si O2"
_cell_formula_units_Z 56
_cell_length_a 15.567259
_cell_length_b 9.950323
_cell_length_c 19.459335
_cell_angle_alpha 90.000000
_cell_angle_beta 89.999910
_cell_angle_gamma 90.000000
_cell_volume 3014.236500
_symmetry_space_group_name_H-M "C 2/M"
_symmetry_group_IT_number 12
_symmetry_cell_setting 'monoclinic'
loop_
_space_group_symop_operation_xyz
x,y,z
-x,y,-z
-x,-y,-z
x,-y,z
1/2+x,1/2+y,z
1/2-x,1/2+y,-z
1/2-x,1/2-y,-z
1/2+x,1/2-y,z
loop_
_atom_site_type_symbol
_atom_site_label
_atom_site_fract_x
_atom_site_fract_y
_atom_site_fract_z
Si Si1 0.151385 0.645325 0.052171
Si Si2 0.076203 0.652925 0.192079
Si Si3 0.651384 0.354675 0.947830
Si Si4 0.418537 0.844043 0.652991
Si Si5 0.249999 0.657115 0.434002
Si Si6 0.581465 0.655957 0.652992
Si Si7 0.576202 0.652925 0.807922
O O1 0.107348 0.500000 0.040053
O O2 0.146348 0.683068 0.133154
O O3 0.250000 0.636275 0.031775
O O4 0.105593 0.750000 0.000001
O O5 0.043101 0.500000 0.189360
O O6 0.111322 0.683487 0.268497
O O7 1.000000 0.749999 0.172669
O O8 0.607348 0.500000 0.959948
O O9 0.646346 0.316932 0.866847
O O10 0.335906 0.806308 0.607976
O O11 0.500001 0.750000 0.633013
O O12 0.445309 0.000000 0.642003
O O13 0.249999 0.500000 0.454310
O O14 0.250000 0.750000 0.500000
O O15 0.335904 0.693691 0.392023
O O16 0.554693 0.500000 0.642003
O O17 0.611322 0.683486 0.731504
O O18 0.543099 0.500000 0.810641
#
# Coordination Sequence:
#
# PCOD8110830 Si02
#       7
#     8   8   8   8   8   8   8
#     4   9  18  31  47  68  95 129 167 208 252 299
#     4   9  18  32  51  73  97 128 168 210 253 301
#     4   9  18  31  47  68  95 129 167 208 252 299
#     4   9  19  36  57  81 109 141 178 220 264 312
#     4  10  22  38  58  84 111 142 178 214 259 318
#     4   9  19  36  57  81 109 141 178 220 264 312
#     4   9  18  32  51  73  97 128 168 210 253 301
#
# _framework density 18.578503000000001
#
# number of rings (size 3 to 8) (size 9 to 14) (size 15 to 20)
#    0.000    2.857    0.000    0.000    2.000    3.429 
#    0.000    5.714    0.000    0.000    0.000    0.000 
#    0.000    0.000    0.000    0.000    0.000    0.000 
#
# Total GULP energy -346915.301583 kJ/mol
# GULP energy per Si atom -12389.832199 kJ/mol
# Density = 1.853622 g / cm^3
# Si number density = 18.578503 Si / 1000 Ang^3
#
#
#
# Elastic Constant Matrix: (Units=GPa)
#
#
# Indices 1 2 3 4 5 6 
#
# 1 82.8085 56.2604 60.0067 0.0000 0.0014 0.0000
# 2 56.2604 92.8009 77.3880 0.0000 0.0013 0.0000
# 3 60.0067 77.3880 135.4454 0.0000 0.0016 0.0000
# 4 0.0000 0.0000 0.0000 33.4955 0.0000 0.0000
# 5 0.0014 0.0013 0.0016 0.0000 24.1292 0.0000
# 6 0.0000 0.0000 0.0000 0.0000 0.0000 25.1080
#
#
#
# Elastic Compliance Matrix: (Units=1/GPa)
#
#
# Indices 1 2 3 4 5 6 
#
# 1 0.021606 -0.009772 -0.003988 0.000000 0.000000 0.000000
# 2 -0.009772 0.025003 -0.009956 0.000000 0.000000 0.000000
# 3 -0.003988 -0.009956 0.014839 0.000000 0.000000 0.000000
# 4 0.000000 0.000000 0.000000 0.029855 0.000000 0.000000
# 5 0.000000 0.000000 0.000000 0.000000 0.041444 0.000000
# 6 0.000000 0.000000 0.000000 0.000000 0.000000 0.039828
#
#
# Mechanical properties :
#
#
# Convention : Reuss Voigt Hill
#
# Bulk Modulus (GPa) = 71.36152 77.59612 74.47882
# Shear Modulus (GPa) = 22.25404 24.37318 23.31361
#
# Velocity S-wave (km/s) = 3.46473 3.62595 3.54626
# Velocity P-wave (km/s) = 7.38241 7.70631 7.54610
#
# Compressibility (1/GPa) = 0.01401315
#
# Stress axis : x y z
#
# Youngs Moduli (GPa) = 46.28416 39.99555 67.39185
#
# Poissons Ratio (x) = 0.39085 0.26879
# Poissons Ratio (y) = 0.45231 0.67096
# Poissons Ratio (z) = 0.18460 0.39820
#
# Static dielectric constant tensor:
#      x y z
#    x 3.171570 0.000000 -0.000010 
#    y 0.000000 3.864810 0.000000 
#    z -0.000010 0.000000 3.529130 
# 
# 
# High freq. dielectric constant tensor:
#      x y z
#    x 1.696180 0.000000 0.000000 
#    y 0.000000 1.726130 0.000000 
#    z 0.000000 0.000000 1.728150 
# 
# From -- ./inp_files/309047.got.cif
#   From: 2010.06.25/outbox.cif.g09.slc.cpg/sg12_155_cif.got.tgz:309047.got - 2010.06.28 00:19:55.
