data_PCOD8110200
_publ_section_title
;
Structure prediction by ZEFSAII (Michael W. Deem and Ramdas Pophale) SiO2 
 PCOD8110200
Probable space group: C 2/M
;
_chemical_formula_sum "Si O2"
_cell_formula_units_Z 28
_cell_length_a 17.850895
_cell_length_b 12.272531
_cell_length_c 4.853777
_cell_angle_alpha 90.000000
_cell_angle_beta 99.235849
_cell_angle_gamma 90.000000
_cell_volume 1049.559253
_symmetry_space_group_name_H-M "C 2/M"
_symmetry_group_IT_number 12
_symmetry_cell_setting 'monoclinic'
loop_
_space_group_symop_operation_xyz
x,y,z
-x,y,-z
-x,-y,-z
x,-y,z
1/2+x,1/2+y,z
1/2-x,1/2+y,-z
1/2-x,1/2-y,-z
1/2+x,1/2-y,z
loop_
_atom_site_type_symbol
_atom_site_label
_atom_site_fract_x
_atom_site_fract_y
_atom_site_fract_z
Si Si1 0.210358 0.623804 0.923204
Si Si2 0.055999 0.000000 0.780005
Si Si3 0.088656 0.779377 0.029129
Si Si4 0.688803 0.625857 0.532414
O O1 0.203847 0.500000 0.029873
O O2 0.127291 0.676400 0.906414
O O3 0.274623 0.680533 0.165659
O O4 0.261516 0.876194 0.373715
O O5 0.000000 0.000000 0.500000
O O6 0.104997 0.886865 0.840251
O O7 0.000000 0.000000 0.000000
O O8 0.121691 0.803309 0.354199
O O9 0.000000 0.754554 0.000000
O O10 0.656742 0.500000 0.555168
#
# Coordination Sequence:
#
# PCOD8110200 Si02
#       4
#     8   4   8   8
#     4  10  23  41  65  91 123 166 212 253 307 370
#     4  10  24  40  58  90 126 160 197 246 315 366
#     4  11  23  41  64  93 129 163 205 261 314 371
#     4  10  21  41  64  91 123 164 210 259 305 370
#
# _framework density 26.677864
#
# number of rings (size 3 to 8) (size 9 to 14) (size 15 to 20)
#    0.000    1.714    1.429    1.714    0.000    9.714 
#    0.000    0.000    0.000    6.000    0.000    0.000 
#    0.000    0.000    0.000    0.000    0.000    0.000 
#
# Total GULP energy -173764.075748 kJ/mol
# GULP energy per Si atom -12411.719696 kJ/mol
# Density = 2.661714 g / cm^3
# Si number density = 26.677864 Si / 1000 Ang^3
#
#
#
# Elastic Constant Matrix: (Units=GPa)
#
#
# Indices 1 2 3 4 5 6 
#
# 1 191.2862 60.9808 53.9944 0.0000 28.0664 0.0000
# 2 60.9808 72.7571 29.1491 0.0000 11.6623 0.0000
# 3 53.9944 29.1491 189.8459 0.0000 4.1944 0.0000
# 4 0.0000 0.0000 0.0000 44.6716 0.0000 -1.0616
# 5 28.0664 11.6623 4.1944 0.0000 39.7290 0.0000
# 6 0.0000 0.0000 0.0000 -1.0616 0.0000 70.5888
#
#
#
# Elastic Compliance Matrix: (Units=1/GPa)
#
#
# Indices 1 2 3 4 5 6 
#
# 1 0.007914 -0.005487 -0.001323 0.000000 -0.003840 0.000000
# 2 -0.005487 0.019138 -0.001342 0.000000 -0.001600 0.000000
# 3 -0.001323 -0.001342 0.005834 0.000000 0.000713 0.000000
# 4 0.000000 0.000000 0.000000 0.022394 0.000000 0.000337
# 5 -0.003840 -0.001600 0.000713 0.000000 0.028278 0.000000
# 6 0.000000 0.000000 0.000000 0.000337 0.000000 0.014172
#
#
# Mechanical properties :
#
#
# Convention : Reuss Voigt Hill
#
# Bulk Modulus (GPa) = 60.31519 82.45976 71.38747
# Shear Modulus (GPa) = 41.81920 51.64888 46.73404
#
# Velocity S-wave (km/s) = 3.96354 4.40480 4.18998
# Velocity P-wave (km/s) = 6.60333 7.53964 7.08697
#
# Compressibility (1/GPa) = 0.01657957
#
# Stress axis : x y z
#
# Youngs Moduli (GPa) = 126.35549 52.25268 171.40289
#
# Poissons Ratio (x) = 0.28673 0.22685
# Poissons Ratio (y) = 0.69336 0.23009
# Poissons Ratio (z) = 0.16723 0.07014
#
# Static dielectric constant tensor:
#      x y z
#    x 5.319460 0.000000 -0.404090 
#    y 0.000000 5.690170 0.000000 
#    z -0.404090 0.000000 4.973230 
# 
# 
# High freq. dielectric constant tensor:
#      x y z
#    x 2.112820 0.000000 -0.030190 
#    y 0.000000 2.079560 0.000000 
#    z -0.030190 0.000000 2.091830 
# 
# From -- ./inp_files/30514.got.cif
#   From: 2010.06.25/outbox.cif.g09.slc.cpg/sg12_16_cif.got.tgz:30514.got - 2010.06.28 00:19:55.
