data_PCOD8110285
_publ_section_title
;
Structure prediction by ZEFSAII (Michael W. Deem and Ramdas Pophale) SiO2 
 PCOD8110285
Probable space group: C 2/M
;
_chemical_formula_sum "Si O2"
_cell_formula_units_Z 32
_cell_length_a 9.156733
_cell_length_b 34.315810
_cell_length_c 7.205323
_cell_angle_alpha 90.000000
_cell_angle_beta 34.682987
_cell_angle_gamma 90.000000
_cell_volume 1288.331207
_symmetry_space_group_name_H-M "C 2/M"
_symmetry_group_IT_number 12
_symmetry_cell_setting 'monoclinic'
loop_
_space_group_symop_operation_xyz
x,y,z
-x,y,-z
-x,-y,-z
x,-y,z
1/2+x,1/2+y,z
1/2-x,1/2+y,-z
1/2-x,1/2-y,-z
1/2+x,1/2-y,z
loop_
_atom_site_type_symbol
_atom_site_label
_atom_site_fract_x
_atom_site_fract_y
_atom_site_fract_z
Si Si1 0.407962 0.544054 0.386175
Si Si2 0.226681 0.670849 0.970982
Si Si3 0.600731 0.087826 0.198432
Si Si4 0.729788 0.295516 0.487645
O O1 0.500000 0.546266 0.500000
O O2 0.354631 0.500000 0.376730
O O3 0.138111 0.567001 0.654350
O O4 0.653140 0.560246 0.014675
O O5 0.250471 0.692296 0.748585
O O6 0.467739 0.685639 0.842101
O O7 0.210793 0.624130 0.963729
O O8 0.969291 0.685115 0.343656
O O9 0.500000 0.103423 0.500000
O O10 0.750000 0.250000 0.500000
#
# Coordination Sequence:
#
# PCOD8110285 Si02
#       4
#     8   8   8   8
#     4  11  26  46  75 108 144 191 246 301 356 425
#     4  10  23  41  65  98 131 179 228 296 355 421
#     4  12  26  45  71 106 151 194 239 296 364 441
#     4  10  21  41  67  92 124 173 235 289 356 417
#
# _framework density 24.838334
#
# number of rings (size 3 to 8) (size 9 to 14) (size 15 to 20)
#    0.000    1.250    0.000    4.500   10.500    5.000 
#   13.500    0.000    0.000    0.000    0.000    0.000 
#    0.000    0.000    0.000    0.000    0.000    0.000 
#
# Total GULP energy -198284.533392 kJ/mol
# GULP energy per Si atom -12392.783337 kJ/mol
# Density = 2.478180 g / cm^3
# Si number density = 24.838334 Si / 1000 Ang^3
#
#
#
# Elastic Constant Matrix: (Units=GPa)
#
#
# Indices 1 2 3 4 5 6 
#
# 1 85.3367 67.4474 62.5200 0.0000 -45.5431 0.0000
# 2 67.4474 232.4489 75.9543 0.0000 -40.5126 0.0000
# 3 62.5200 75.9543 136.7585 0.0000 -72.4615 0.0000
# 4 0.0000 0.0000 0.0000 62.1522 0.0000 -16.3618
# 5 -45.5431 -40.5126 -72.4615 0.0000 79.4323 0.0000
# 6 0.0000 0.0000 0.0000 -16.3618 0.0000 38.4403
#
#
#
# Elastic Compliance Matrix: (Units=1/GPa)
#
#
# Indices 1 2 3 4 5 6 
#
# 1 0.021098 -0.003620 -0.004265 0.000000 0.006360 0.000000
# 2 -0.003620 0.005877 -0.002169 0.000000 -0.001057 0.000000
# 3 -0.004265 -0.002169 0.016616 0.000000 0.011606 0.000000
# 4 0.000000 0.000000 0.000000 0.018120 0.000000 0.007713
# 5 0.006360 -0.001057 0.011606 0.000000 0.026285 0.000000
# 6 0.000000 0.000000 0.000000 0.007713 0.000000 0.029297
#
#
# Mechanical properties :
#
#
# Convention : Reuss Voigt Hill
#
# Bulk Modulus (GPa) = 42.58289 96.26527 69.42408
# Shear Modulus (GPa) = 34.42850 52.57979 43.50414
#
# Velocity S-wave (km/s) = 3.72708 4.60595 4.18962
# Velocity P-wave (km/s) = 5.97518 8.19312 7.17042
#
# Compressibility (1/GPa) = 0.02348361
#
# Stress axis : x y z
#
# Youngs Moduli (GPa) = 47.39773 170.15687 60.18195
#
# Poissons Ratio (x) = 0.61593 0.25667
# Poissons Ratio (y) = 0.17157 0.13054
# Poissons Ratio (z) = 0.20215 0.36909
#
# Static dielectric constant tensor:
#      x y z
#    x 31.028360 0.000000 -24.032230 
#    y 0.000000 4.455440 0.000000 
#    z -24.032230 0.000000 25.348570 
# 
# 
# High freq. dielectric constant tensor:
#      x y z
#    x 1.990350 0.000000 -0.031140 
#    y 0.000000 1.990410 0.000000 
#    z -0.031140 0.000000 2.007000 
# 
# From -- ./inp_files/54530.got.cif
#   From: 2010.06.25/outbox.cif.g09.slc.cpg/sg12_28_cif.got.tgz:54530.got - 2010.06.28 00:19:55.
