data_PCOD8110414
_publ_section_title
;
Structure prediction by ZEFSAII (Michael W. Deem and Ramdas Pophale) SiO2 
 PCOD8110414
Probable space group: C 2/M
;
_chemical_formula_sum "Si O2"
_cell_formula_units_Z 44
_cell_length_a 11.628535
_cell_length_b 21.082376
_cell_length_c 12.022195
_cell_angle_alpha 90.000000
_cell_angle_beta 39.705742
_cell_angle_gamma 90.000000
_cell_volume 1882.884903
_symmetry_space_group_name_H-M "C 2/M"
_symmetry_group_IT_number 12
_symmetry_cell_setting 'monoclinic'
loop_
_space_group_symop_operation_xyz
x,y,z
-x,y,-z
-x,-y,-z
x,-y,z
1/2+x,1/2+y,z
1/2-x,1/2+y,-z
1/2-x,1/2-y,-z
1/2+x,1/2-y,z
loop_
_atom_site_type_symbol
_atom_site_label
_atom_site_fract_x
_atom_site_fract_y
_atom_site_fract_z
Si Si1 0.219072 0.572114 0.574203
Si Si2 0.498928 0.650974 0.758417
Si Si3 0.198591 0.368489 0.823324
Si Si4 0.500000 0.389667 0.000000
Si Si5 0.882833 0.746843 0.695410
Si Si6 0.114302 0.399631 0.304287
O O1 0.286233 0.500000 0.513515
O O2 0.313602 0.616623 0.411647
O O3 0.264781 0.597385 0.662282
O O4 0.004248 0.576240 0.710813
O O5 0.337328 0.611344 0.818484
O O6 0.477363 0.653404 0.906633
O O7 0.495133 0.723910 0.716791
O O8 0.207195 0.291439 0.805177
O O9 0.000000 0.391857 0.000000
O O10 0.314941 0.431668 0.152940
O O11 0.834352 0.674267 0.751615
O O12 0.000000 0.753545 0.500000
O O13 0.000000 0.415360 0.500000
#
# Coordination Sequence:
#
# PCOD8110414 Si02
#       6
#     8   8   8   4   8   8
#     4  12  25  46  71  95 135 184 236 285 335 401
#     4  10  22  43  64 102 134 178 223 279 344 403
#     4  10  21  42  68 105 139 170 225 287 349 406
#     4  12  24  44  67 100 140 176 233 272 342 416
#     4   9  20  41  68 102 135 173 220 284 348 414
#     4  11  25  43  70 101 137 187 222 283 347 405
#
# _framework density 23.368395
#
# number of rings (size 3 to 8) (size 9 to 14) (size 15 to 20)
#    1.091    0.364    3.636    1.636    1.273    5.091 
#    0.000    3.636    0.000    0.000    0.000    0.000 
#    0.000    0.000    0.000    0.000    0.000    0.000 
#
# Total GULP energy -272576.348186 kJ/mol
# GULP energy per Si atom -12389.834008 kJ/mol
# Density = 2.331521 g / cm^3
# Si number density = 23.368395 Si / 1000 Ang^3
#
#
#
# Elastic Constant Matrix: (Units=GPa)
#
#
# Indices 1 2 3 4 5 6 
#
# 1 147.0987 8.0963 48.7351 -0.0022 8.4152 0.0009
# 2 8.0963 66.1093 18.4355 0.0007 6.1819 -0.0004
# 3 48.7351 18.4355 129.2903 -0.0014 -0.6055 0.0007
# 4 -0.0022 0.0007 -0.0014 -2.6053 0.0022 -1.6407
# 5 8.4152 6.1819 -0.6055 0.0022 57.6545 -0.0011
# 6 0.0009 -0.0004 0.0007 -1.6407 -0.0011 14.6881
#
#
#
# Elastic Compliance Matrix: (Units=1/GPa)
#
#
# Indices 1 2 3 4 5 6 
#
# 1 0.007847 -0.000026 -0.002960 -0.000005 -0.001174 -0.000001
# 2 -0.000026 0.015924 -0.002269 0.000004 -0.001727 0.000001
# 3 -0.002960 -0.002269 0.009177 -0.000002 0.000772 -0.000001
# 4 -0.000005 0.000004 -0.000002 -0.358609 0.000013 -0.040058
# 5 -0.001174 -0.001727 0.000772 0.000013 0.017709 0.000003
# 6 -0.000001 0.000001 -0.000001 -0.040058 0.000003 0.063608
#
#
# Mechanical properties :
#
#
# Convention : Reuss Voigt Hill
#
# Bulk Modulus (GPa) = 44.56463 54.78135 49.67299
# Shear Modulus (GPa) = -22.08929 31.76288 4.83680
#
# Velocity S-wave (km/s) = -3.07785 3.69077 1.44024
# Velocity P-wave (km/s) = 2.54578 6.45412 4.90595
#
# Compressibility (1/GPa) = 0.02243932
#
# Stress axis : x y z
#
# Youngs Moduli (GPa) = 127.43169 62.79872 108.96390
#
# Poissons Ratio (x) = 0.00163 0.32251
# Poissons Ratio (y) = 0.00330 0.24723
# Poissons Ratio (z) = 0.37717 0.14248
#
# Static dielectric constant tensor:
#      x y z
#    x 4.309470 0.000000 -0.127230 
#    y 0.000000 3.956130 0.000000 
#    z -0.127230 0.000000 4.125170 
# 
# 
# High freq. dielectric constant tensor:
#      x y z
#    x 1.936930 0.000000 -0.002070 
#    y 0.000000 1.882160 0.000000 
#    z -0.002070 0.000000 1.928180 
# 
# From -- ./inp_files/135750.got.cif
#   From: 2010.06.25/outbox.cif.g09.slc.cpg/sg12_68_cif.got.tgz:135750.got - 2010.06.28 00:19:55.
