data_PCOD8110736
_publ_section_title
;
Structure prediction by ZEFSAII (Michael W. Deem and Ramdas Pophale) SiO2 
 PCOD8110736
Probable space group: C 2/M
;
_chemical_formula_sum "Si O2"
_cell_formula_units_Z 56
_cell_length_a 9.513949
_cell_length_b 17.826476
_cell_length_c 25.906091
_cell_angle_alpha 90.000000
_cell_angle_beta 38.123679
_cell_angle_gamma 90.000000
_cell_volume 2712.485507
_symmetry_space_group_name_H-M "C 2/M"
_symmetry_group_IT_number 12
_symmetry_cell_setting 'monoclinic'
loop_
_space_group_symop_operation_xyz
x,y,z
-x,y,-z
-x,-y,-z
x,-y,z
1/2+x,1/2+y,z
1/2-x,1/2+y,-z
1/2-x,1/2-y,-z
1/2+x,1/2-y,z
loop_
_atom_site_type_symbol
_atom_site_label
_atom_site_fract_x
_atom_site_fract_y
_atom_site_fract_z
Si Si1 0.087587 0.713641 0.172791
Si Si2 0.860912 0.270328 0.728852
Si Si3 0.264596 0.357050 0.920299
Si Si4 0.356158 0.414404 0.252416
Si Si5 0.257030 0.304771 0.545425
Si Si6 0.080164 0.083639 0.918750
Si Si7 0.970648 0.413304 0.566178
O O1 0.124866 0.754155 0.216432
O O2 0.206734 0.766924 0.095331
O O3 0.186615 0.630506 0.146325
O O4 0.815180 0.710583 0.244481
O O5 0.771103 0.356478 0.749259
O O6 0.107203 0.264311 0.632328
O O7 0.376616 0.400352 0.838180
O O8 0.387989 0.379009 0.938116
O O9 0.000000 0.379248 0.000000
O O10 0.289261 0.500000 0.257943
O O11 0.279637 0.398942 0.334670
O O12 0.500000 0.321115 0.500000
O O13 0.250000 0.250000 0.500000
O O14 0.153770 0.382391 0.554183
O O15 0.132870 0.000000 0.882551
O O16 0.000000 0.079644 0.000000
O O17 0.025492 0.500000 0.544253
O O18 0.000000 0.376193 0.500000
#
# Coordination Sequence:
#
# PCOD8110736 Si02
#       7
#     8   8   8   8   8   8   8
#     4  11  21  40  64  91 123 165 214 265 309 379
#     4  10  22  37  61  92 120 162 212 260 317 380
#     4  11  24  38  63  96 126 169 216 262 315 385
#     4   9  18  37  60  87 122 164 209 257 314 374
#     4  11  22  37  59  91 127 163 202 264 323 382
#     4  11  25  43  64  91 127 168 209 264 324 374
#     4   9  19  37  64  92 124 168 213 259 320 386
#
# _framework density 20.645271999999999
#
# number of rings (size 3 to 8) (size 9 to 14) (size 15 to 20)
#    0.000    1.714    2.857    2.143    2.000    4.857 
#    0.000    0.000    0.000    2.571    0.000    0.000 
#    0.000    0.000    0.000    0.000    0.000    0.000 
#
# Total GULP energy -346934.787237 kJ/mol
# GULP energy per Si atom -12390.528116 kJ/mol
# Density = 2.059828 g / cm^3
# Si number density = 20.645272 Si / 1000 Ang^3
#
#
#
# Elastic Constant Matrix: (Units=GPa)
#
#
# Indices 1 2 3 4 5 6 
#
# 1 122.9561 35.5405 66.1096 -0.0005 -2.6153 0.0014
# 2 35.5405 61.8827 37.1489 -0.0009 1.6993 0.0038
# 3 66.1096 37.1489 155.5434 0.0212 -9.9701 0.0036
# 4 -0.0005 -0.0009 0.0212 23.8683 0.0002 6.9488
# 5 -2.6153 1.6993 -9.9701 0.0002 39.5346 -0.0043
# 6 0.0014 0.0038 0.0036 6.9488 -0.0043 22.6253
#
#
#
# Elastic Compliance Matrix: (Units=1/GPa)
#
#
# Indices 1 2 3 4 5 6 
#
# 1 0.011429 -0.004256 -0.003843 0.000004 -0.000030 0.000000
# 2 -0.004256 0.020603 -0.003239 0.000005 -0.001984 -0.000005
# 3 -0.003843 -0.003239 0.008974 -0.000009 0.002148 0.000002
# 4 0.000004 0.000005 -0.000009 0.046011 -0.000004 -0.014131
# 5 -0.000030 -0.001984 0.002148 -0.000004 0.025919 0.000006
# 6 0.000000 -0.000005 0.000002 -0.014131 0.000006 0.048538
#
#
# Mechanical properties :
#
#
# Convention : Reuss Voigt Hill
#
# Bulk Modulus (GPa) = 54.55682 68.66445 61.61063
# Shear Modulus (GPa) = 26.27997 30.64451 28.46224
#
# Velocity S-wave (km/s) = 3.57168 3.85689 3.71702
# Velocity P-wave (km/s) = 6.59488 7.29147 6.95190
#
# Compressibility (1/GPa) = 0.01832951
#
# Stress axis : x y z
#
# Youngs Moduli (GPa) = 87.49849 48.53725 111.43721
#
# Poissons Ratio (x) = 0.20657 0.42825
# Poissons Ratio (y) = 0.37239 0.36093
# Poissons Ratio (z) = 0.33625 0.15721
#
# Static dielectric constant tensor:
#      x y z
#    x 3.734330 -0.000010 0.270690 
#    y -0.000010 3.854820 0.000030 
#    z 0.270690 0.000030 4.142180 
# 
# 
# High freq. dielectric constant tensor:
#      x y z
#    x 1.793770 0.000000 0.019650 
#    y 0.000000 1.802870 0.000000 
#    z 0.019650 0.000000 1.821960 
# 
# From -- ./inp_files/356630.got.cif
#   From: 2010.06.25/outbox.cif.g09.slc.cpg/sg12_179_cif.got.tgz:356630.got - 2010.06.28 00:19:55.
