data_PCOD8110174
_publ_section_title
;
Structure prediction by ZEFSAII (Michael W. Deem and Ramdas Pophale) SiO2 
 PCOD8110174
Probable space group: C 2/M
;
_chemical_formula_sum "Si O2"
_cell_formula_units_Z 40
_cell_length_a 23.089600
_cell_length_b 21.329157
_cell_length_c 5.308184
_cell_angle_alpha 90.000000
_cell_angle_beta 48.581207
_cell_angle_gamma 90.000000
_cell_volume 1960.360832
_symmetry_space_group_name_H-M "C 2/M"
_symmetry_group_IT_number 12
_symmetry_cell_setting 'monoclinic'
loop_
_space_group_symop_operation_xyz
x,y,z
-x,y,-z
-x,-y,-z
x,-y,z
1/2+x,1/2+y,z
1/2-x,1/2+y,-z
1/2-x,1/2-y,-z
1/2+x,1/2-y,z
loop_
_atom_site_type_symbol
_atom_site_label
_atom_site_fract_x
_atom_site_fract_y
_atom_site_fract_z
Si Si1 0.800590 0.847387 0.292728
Si Si2 0.952900 0.072929 0.883258
Si Si3 0.090861 0.612893 0.258755
Si Si4 0.330078 0.070446 0.484456
Si Si5 0.303040 0.781296 0.049949
O O1 0.744051 0.883406 0.257517
O O2 0.747820 0.838012 0.689537
O O3 0.828209 0.776914 0.150905
O O4 0.874335 0.889181 0.135418
O O5 0.000000 0.094886 0.500000
O O6 0.932102 0.000000 0.920858
O O7 0.000000 0.087474 0.000000
O O8 0.117873 0.569712 0.413541
O O9 0.000000 0.612127 0.500000
O O10 0.121414 0.590566 0.899866
O O11 0.118231 0.683865 0.256351
O O12 0.299206 0.000000 0.530361
O O13 0.250000 0.750000 0.000000
#
# Coordination Sequence:
#
# PCOD8110174 Si02
#       5
#     8   8   8   8   8
#     4  10  22  40  63  90 123 161 210 255 302 367
#     4  10  23  41  62  93 129 163 204 258 314 366
#     4  11  24  41  61  91 126 158 200 254 305 359
#     4  11  23  40  65  91 119 163 205 245 306 366
#     4  10  21  41  63  88 121 164 207 254 302 361
#
# _framework density 20.404406000000002
#
# number of rings (size 3 to 8) (size 9 to 14) (size 15 to 20)
#    0.000    1.600    2.000    1.800    2.800    3.200 
#    0.000    4.000    0.000    0.000    0.000    0.000 
#    0.000    0.000    0.000    0.000    0.000    0.000 
#
# Total GULP energy -247818.809141 kJ/mol
# GULP energy per Si atom -12390.940457 kJ/mol
# Density = 2.035796 g / cm^3
# Si number density = 20.404406 Si / 1000 Ang^3
#
#
#
# Elastic Constant Matrix: (Units=GPa)
#
#
# Indices 1 2 3 4 5 6 
#
# 1 120.9957 43.0565 49.2541 0.0000 -7.4788 0.0000
# 2 43.0565 107.8312 48.3022 0.0000 -23.0150 0.0000
# 3 49.2541 48.3022 73.2912 0.0000 -1.8626 0.0000
# 4 0.0000 0.0000 0.0000 19.7101 0.0000 -9.4424
# 5 -7.4788 -23.0150 -1.8626 0.0000 41.0545 0.0000
# 6 0.0000 0.0000 0.0000 -9.4424 0.0000 32.2143
#
#
#
# Elastic Compliance Matrix: (Units=1/GPa)
#
#
# Indices 1 2 3 4 5 6 
#
# 1 0.011611 -0.001313 -0.006910 0.000000 0.001065 0.000000
# 2 -0.001313 0.015671 -0.009239 0.000000 0.008127 0.000000
# 3 -0.006910 -0.009239 0.024241 0.000000 -0.005338 0.000000
# 4 0.000000 0.000000 0.000000 0.059023 0.000000 0.017300
# 5 0.001065 0.008127 -0.005338 0.000000 0.028866 0.000000
# 6 0.000000 0.000000 0.000000 0.017300 0.000000 0.036113
#
#
# Mechanical properties :
#
#
# Convention : Reuss Voigt Hill
#
# Bulk Modulus (GPa) = 60.24681 64.81598 62.53140
# Shear Modulus (GPa) = 23.14993 29.36280 26.25636
#
# Velocity S-wave (km/s) = 3.37197 3.79759 3.59109
# Velocity P-wave (km/s) = 6.68960 7.14587 6.92150
#
# Compressibility (1/GPa) = 0.01659839
#
# Stress axis : x y z
#
# Youngs Moduli (GPa) = 86.12534 63.81119 41.25186
#
# Poissons Ratio (x) = 0.08381 0.28506
# Poissons Ratio (y) = 0.11312 0.38112
# Poissons Ratio (z) = 0.59515 0.58954
#
# Static dielectric constant tensor:
#      x y z
#    x 3.923280 0.000000 -0.270860 
#    y 0.000000 9.629470 0.000000 
#    z -0.270860 0.000000 4.520450 
# 
# 
# High freq. dielectric constant tensor:
#      x y z
#    x 1.801330 0.000000 0.005450 
#    y 0.000000 1.812040 0.000000 
#    z 0.005450 0.000000 1.787650 
# 
# From -- ./inp_files/11373.got.cif
#   From: 2010.06.25/outbox.cif.g09.slc.cpg/sg12_6_cif.got.tgz:11373.got - 2010.06.28 00:19:55.
