data_PCOD8110956
_publ_section_title
;
Structure prediction by ZEFSAII (Michael W. Deem and Ramdas Pophale) SiO2 
 PCOD8110956
Probable space group: C 2/M
;
_chemical_formula_sum "Si O2"
_cell_formula_units_Z 48
_cell_length_a 16.614702
_cell_length_b 11.918024
_cell_length_c 11.376270
_cell_angle_alpha 90.000000
_cell_angle_beta 75.634262
_cell_angle_gamma 90.000000
_cell_volume 2182.228456
_symmetry_space_group_name_H-M "C 2/M"
_symmetry_group_IT_number 12
_symmetry_cell_setting 'monoclinic'
loop_
_space_group_symop_operation_xyz
x,y,z
-x,y,-z
-x,-y,-z
x,-y,z
1/2+x,1/2+y,z
1/2-x,1/2+y,-z
1/2-x,1/2-y,-z
1/2+x,1/2-y,z
loop_
_atom_site_type_symbol
_atom_site_label
_atom_site_fract_x
_atom_site_fract_y
_atom_site_fract_z
Si Si1 0.921992 0.500000 0.373868
Si Si2 0.132249 0.256628 0.611236
Si Si3 0.244015 0.625351 0.880454
Si Si4 0.477122 0.626572 0.185932
Si Si5 0.872959 0.188850 0.013154
Si Si6 0.694841 0.222334 0.339972
Si Si7 0.107588 0.500000 0.340292
O O1 0.876872 0.386910 0.343161
O O2 0.912319 0.500000 0.516025
O O3 0.019666 0.500000 0.302648
O O4 0.053267 0.185713 0.683869
O O5 0.214163 0.202107 0.638074
O O6 0.133594 0.243868 0.469341
O O7 0.222021 0.500000 0.849761
O O8 0.156783 0.689150 0.930984
O O9 0.301616 0.681274 0.759173
O O10 0.294878 0.624864 0.984259
O O11 0.506859 0.500000 0.202603
O O12 0.403934 0.620700 0.115469
O O13 0.553313 0.699910 0.108459
O O14 0.661933 0.109636 0.288478
#
# Coordination Sequence:
#
# PCOD8110956 Si02
#       7
#     4   8   8   8   8   8   4
#     4   9  20  40  62  86 136 165 212 258 315 371
#     4  10  22  38  62  96 127 167 204 259 318 383
#     4  11  23  42  64  91 125 158 201 264 313 371
#     4  11  22  41  65  89 121 161 209 258 301 372
#     4  10  23  43  60  87 119 166 210 245 307 369
#     4  10  22  39  63  94 130 163 210 254 319 380
#     4   9  20  40  62  91 122 178 215 253 298 393
#
# _framework density 21.995863
#
# number of rings (size 3 to 8) (size 9 to 14) (size 15 to 20)
#    0.000    1.833    1.667    2.000    4.667    0.667 
#    9.000    0.833    0.000    2.000    0.000    0.000 
#    0.000    0.000    0.000    0.000    0.000    0.000 
#
# Total GULP energy -297587.882305 kJ/mol
# GULP energy per Si atom -12399.495096 kJ/mol
# Density = 2.194580 g / cm^3
# Si number density = 21.995863 Si / 1000 Ang^3
#
#
#
# Elastic Constant Matrix: (Units=GPa)
#
#
# Indices 1 2 3 4 5 6 
#
# 1 69.6774 38.3216 19.4534 0.0000 -18.4860 0.0000
# 2 38.3216 165.1514 65.4087 0.0000 -31.9401 0.0000
# 3 19.4534 65.4087 113.2608 0.0000 -35.1710 0.0000
# 4 0.0000 0.0000 0.0000 26.8034 0.0000 -0.8983
# 5 -18.4860 -31.9401 -35.1710 0.0000 31.7159 0.0000
# 6 0.0000 0.0000 0.0000 -0.8983 0.0000 25.3220
#
#
#
# Elastic Compliance Matrix: (Units=1/GPa)
#
#
# Indices 1 2 3 4 5 6 
#
# 1 0.018006 -0.002998 0.001465 0.000000 0.009100 0.000000
# 2 -0.002998 0.008772 -0.003585 0.000000 0.003111 0.000000
# 3 0.001465 -0.003585 0.014935 0.000000 0.013805 0.000000
# 4 0.000000 0.000000 0.000000 0.037353 0.000000 0.001325
# 5 0.009100 0.003111 0.013805 0.000000 0.055276 0.000000
# 6 0.000000 0.000000 0.000000 0.001325 0.000000 0.039538
#
#
# Mechanical properties :
#
#
# Convention : Reuss Voigt Hill
#
# Bulk Modulus (GPa) = 31.77013 66.05080 48.91046
# Shear Modulus (GPa) = 25.69234 31.76199 28.72716
#
# Velocity S-wave (km/s) = 3.42139 3.80412 3.61782
# Velocity P-wave (km/s) = 5.48479 7.02773 6.30365
#
# Compressibility (1/GPa) = 0.03147611
#
# Stress axis : x y z
#
# Youngs Moduli (GPa) = 55.53632 113.99503 66.95723
#
# Poissons Ratio (x) = 0.34179 -0.09806
# Poissons Ratio (y) = 0.16652 0.24004
# Poissons Ratio (z) = -0.08134 0.40866
#
# Static dielectric constant tensor:
#      x y z
#    x 3.963310 0.000000 -0.121980 
#    y 0.000000 3.944710 0.000000 
#    z -0.121980 0.000000 4.042230 
# 
# 
# High freq. dielectric constant tensor:
#      x y z
#    x 1.858130 0.000000 -0.009770 
#    y 0.000000 1.852470 0.000000 
#    z -0.009770 0.000000 1.862160 
# 
# From -- ./inp_files/154239.got.cif
#   From: 2010.06.25/outbox.cif.g09.slc.cpg/sg12_78_cif.got.tgz:154239.got - 2010.06.28 00:19:55.
