data_PCOD8110836
_publ_section_title
;
Structure prediction by ZEFSAII (Michael W. Deem and Ramdas Pophale) SiO2 
 PCOD8110836
Probable space group: C 2/M
;
_chemical_formula_sum "Si O2"
_cell_formula_units_Z 64
_cell_length_a 9.284076
_cell_length_b 12.884924
_cell_length_c 25.692094
_cell_angle_alpha 90.000000
_cell_angle_beta 95.661867
_cell_angle_gamma 90.000000
_cell_volume 3058.413055
_symmetry_space_group_name_H-M "C 2/M"
_symmetry_group_IT_number 12
_symmetry_cell_setting 'monoclinic'
loop_
_space_group_symop_operation_xyz
x,y,z
-x,y,-z
-x,-y,-z
x,-y,z
1/2+x,1/2+y,z
1/2-x,1/2+y,-z
1/2-x,1/2-y,-z
1/2+x,1/2-y,z
loop_
_atom_site_type_symbol
_atom_site_label
_atom_site_fract_x
_atom_site_fract_y
_atom_site_fract_z
Si Si1 0.115088 0.729795 0.960678
Si Si2 0.512610 0.620674 0.561612
Si Si3 0.045557 0.700379 0.686330
Si Si4 0.633080 0.379645 0.761442
Si Si5 0.724269 0.256617 0.384323
Si Si6 0.499128 0.620801 0.869818
Si Si7 0.047788 0.383782 0.216791
Si Si8 0.680252 0.882093 0.868418
O O1 0.090227 0.822399 0.918232
O O2 0.137692 0.626061 0.927440
O O3 0.250000 0.750000 0.000000
O O4 0.000000 0.708522 0.000000
O O5 0.500000 0.633910 0.500000
O O6 0.526511 0.500000 0.578280
O O7 0.362969 0.666732 0.580135
O O8 0.658322 0.681090 0.584092
O O9 0.051530 0.815283 0.713323
O O10 0.184214 0.677393 0.654901
O O11 0.039906 0.616042 0.731967
O O12 0.897545 0.688145 0.648461
O O13 0.632359 0.500000 0.743938
O O14 0.560710 0.363991 0.814574
O O15 0.795343 0.331444 0.771458
O O16 0.497970 0.500000 0.885724
O O17 0.336954 0.668713 0.864231
O O18 0.076882 0.500000 0.198365
O O19 0.945744 0.325592 0.170498
O O20 0.687463 0.000000 0.849959
#
# Coordination Sequence:
#
# PCOD8110836 Si02
#       8
#     8   8   8   8   8   8   8   8
#     4  12  25  40  61  86 109 144 188 242 306 365
#     4  10  22  44  71  95 130 181 228 277 331 381
#     4  11  21  37  59  90 130 168 199 254 317 366
#     4  10  22  39  61  85 116 163 206 241 297 374
#     4  10  23  38  62 100 134 168 220 273 325 384
#     4  10  23  42  62  84 113 153 197 243 296 366
#     4  10  22  38  58  84 118 159 198 241 295 364
#     4  10  23  42  60  83 115 150 193 242 295 361
#
# _framework density 20.925886999999999
#
# number of rings (size 3 to 8) (size 9 to 14) (size 15 to 20)
#    0.000    1.625    2.500    1.125    3.500    6.000 
#    0.000    1.875    0.000    6.750    0.000    0.000 
#    0.000    0.000    0.000    0.000    0.000    0.000 
#
# Total GULP energy -396562.460878 kJ/mol
# GULP energy per Si atom -12392.576902 kJ/mol
# Density = 2.087826 g / cm^3
# Si number density = 20.925887 Si / 1000 Ang^3
#
#
#
# Elastic Constant Matrix: (Units=GPa)
#
#
# Indices 1 2 3 4 5 6 
#
# 1 156.6241 36.0740 64.1460 0.0000 -5.8146 0.0000
# 2 36.0740 62.6028 20.5117 0.0000 4.7920 0.0000
# 3 64.1460 20.5117 124.5034 0.0000 -10.3864 0.0000
# 4 0.0000 0.0000 0.0000 25.0710 0.0000 -7.0805
# 5 -5.8146 4.7920 -10.3864 0.0000 45.6829 0.0000
# 6 0.0000 0.0000 0.0000 -7.0805 0.0000 24.0041
#
#
#
# Elastic Compliance Matrix: (Units=1/GPa)
#
#
# Indices 1 2 3 4 5 6 
#
# 1 0.008901 -0.003906 -0.003887 0.000000 0.000659 0.000000
# 2 -0.003906 0.018872 -0.001329 0.000000 -0.002779 0.000000
# 3 -0.003887 -0.001329 0.010422 0.000000 0.002014 0.000000
# 4 0.000000 0.000000 0.000000 0.043511 0.000000 0.012835
# 5 0.000659 -0.002779 0.002014 0.000000 0.022723 0.000000
# 6 0.000000 0.000000 0.000000 0.012835 0.000000 0.045445
#
#
# Mechanical properties :
#
#
# Convention : Reuss Voigt Hill
#
# Bulk Modulus (GPa) = 50.12229 65.02151 57.57190
# Shear Modulus (GPa) = 28.60917 33.81818 31.21367
#
# Velocity S-wave (km/s) = 3.70153 4.02443 3.86635
# Velocity P-wave (km/s) = 6.50175 7.26185 6.89228
#
# Compressibility (1/GPa) = 0.01995121
#
# Stress axis : x y z
#
# Youngs Moduli (GPa) = 112.34877 52.98737 95.95368
#
# Poissons Ratio (x) = 0.20695 0.37301
# Poissons Ratio (y) = 0.43880 0.12750
# Poissons Ratio (z) = 0.43675 0.07041
#
# Static dielectric constant tensor:
#      x y z
#    x 4.076910 0.000000 -0.000750 
#    y 0.000000 3.625820 0.000000 
#    z -0.000750 0.000000 3.911710 
# 
# 
# High freq. dielectric constant tensor:
#      x y z
#    x 1.839430 0.000000 -0.000790 
#    y 0.000000 1.804480 0.000000 
#    z -0.000790 0.000000 1.827280 
# 
# From -- ./inp_files/332951.got.cif
#   From: 2010.06.25/outbox.cif.g09.slc.cpg/sg12_167_cif.got.tgz:332951.got - 2010.06.28 00:19:55.
