data_PCOD8110491
_publ_section_title
;
Structure prediction by ZEFSAII (Michael W. Deem and Ramdas Pophale) SiO2 
 PCOD8110491
Probable space group: C 2/M
;
_chemical_formula_sum "Si O2"
_cell_formula_units_Z 48
_cell_length_a 18.087147
_cell_length_b 28.614277
_cell_length_c 8.782467
_cell_angle_alpha 90.000000
_cell_angle_beta 30.865396
_cell_angle_gamma 90.000000
_cell_volume 2331.879723
_symmetry_space_group_name_H-M "C 2/M"
_symmetry_group_IT_number 12
_symmetry_cell_setting 'monoclinic'
loop_
_space_group_symop_operation_xyz
x,y,z
-x,y,-z
-x,-y,-z
x,-y,z
1/2+x,1/2+y,z
1/2-x,1/2+y,-z
1/2-x,1/2-y,-z
1/2+x,1/2-y,z
loop_
_atom_site_type_symbol
_atom_site_label
_atom_site_fract_x
_atom_site_fract_y
_atom_site_fract_z
Si Si1 0.399229 0.694959 0.812838
Si Si2 0.132305 0.633482 0.865407
Si Si3 0.139100 0.742779 0.832289
Si Si4 0.896497 0.945785 0.825669
Si Si5 0.841175 0.623755 0.844123
Si Si6 0.448283 0.621191 0.252324
O O1 0.500000 0.717864 0.500000
O O2 0.508261 0.657873 0.694481
O O3 0.336582 0.731289 0.048734
O O4 0.256646 0.670292 0.998334
O O5 0.121631 0.688944 0.904001
O O6 0.278223 0.617180 0.528192
O O7 0.131471 0.609669 0.030722
O O8 0.000000 0.614055 0.000000
O O9 0.250000 0.750000 0.500000
O O10 0.000000 0.764620 0.000000
O O11 0.981187 0.928502 0.826748
O O12 0.000000 0.934622 0.500000
O O13 0.861540 0.000000 0.903848
O O14 0.743308 0.919245 0.084432
O O15 0.000000 0.632900 0.500000
O O16 0.500000 0.639706 0.000000
#
# Coordination Sequence:
#
# PCOD8110491 Si02
#       6
#     8   8   8   8   8   8
#     4  11  22  42  66  88 123 174 229 271 313 368
#     4  11  24  40  58  88 130 167 212 256 327 378
#     4  11  25  40  59  88 128 173 221 273 321 368
#     4  10  21  43  72  95 122 161 209 265 316 381
#     4  11  24  40  64  95 126 164 209 259 326 385
#     4  11  21  40  67  92 124 167 212 263 311 386
#
# _framework density 20.584250999999998
#
# number of rings (size 3 to 8) (size 9 to 14) (size 15 to 20)
#    0.000    1.167    3.333    3.500    9.333    2.000 
#    0.000    0.000    0.000    1.000    0.000    0.000 
#    0.000    0.000    0.000    0.000    0.000    0.000 
#
# Total GULP energy -297489.580810 kJ/mol
# GULP energy per Si atom -12395.399200 kJ/mol
# Density = 2.053740 g / cm^3
# Si number density = 20.584251 Si / 1000 Ang^3
#
#
#
# Elastic Constant Matrix: (Units=GPa)
#
#
# Indices 1 2 3 4 5 6 
#
# 1 134.0097 27.6948 64.8145 0.0000 -13.6177 0.0000
# 2 27.6948 63.1554 20.8489 0.0000 -5.3099 0.0000
# 3 64.8145 20.8489 173.6574 0.0000 -7.9978 0.0000
# 4 0.0000 0.0000 0.0000 17.7517 0.0000 0.3757
# 5 -13.6177 -5.3099 -7.9978 0.0000 50.1163 0.0000
# 6 0.0000 0.0000 0.0000 0.3757 0.0000 18.4376
#
#
#
# Elastic Compliance Matrix: (Units=1/GPa)
#
#
# Indices 1 2 3 4 5 6 
#
# 1 0.009846 -0.003101 -0.003218 0.000000 0.001833 0.000000
# 2 -0.003101 0.017568 -0.000912 0.000000 0.000873 0.000000
# 3 -0.003218 -0.000912 0.007076 0.000000 0.000158 0.000000
# 4 0.000000 0.000000 0.000000 0.056357 0.000000 -0.001148
# 5 0.001833 0.000873 0.000158 0.000000 0.020569 0.000000
# 6 0.000000 0.000000 0.000000 -0.001148 0.000000 0.054260
#
#
# Mechanical properties :
#
#
# Convention : Reuss Voigt Hill
#
# Bulk Modulus (GPa) = 49.92787 66.39320 58.16053
# Shear Modulus (GPa) = 26.76451 34.42542 30.59497
#
# Velocity S-wave (km/s) = 3.60980 4.09395 3.85948
# Velocity P-wave (km/s) = 6.45618 7.39403 6.94096
#
# Compressibility (1/GPa) = 0.02002889
#
# Stress axis : x y z
#
# Youngs Moduli (GPa) = 101.56717 56.92114 141.31774
#
# Poissons Ratio (x) = 0.17652 0.45476
# Poissons Ratio (y) = 0.31497 0.12882
# Poissons Ratio (z) = 0.32684 0.05189
#
# Static dielectric constant tensor:
#      x y z
#    x 4.078560 0.000000 -0.080250 
#    y 0.000000 3.553040 0.000000 
#    z -0.080250 0.000000 3.656330 
# 
# 
# High freq. dielectric constant tensor:
#      x y z
#    x 1.821580 0.000000 -0.002860 
#    y 0.000000 1.771800 0.000000 
#    z -0.002860 0.000000 1.814140 
# 
# From -- ./inp_files/80566.got.cif
#   From: 2010.06.25/outbox.cif.g09.slc.cpg/sg12_41_cif.got.tgz:80566.got - 2010.06.28 00:19:55.
