data_PCOD8110708
_publ_section_title
;
Structure prediction by ZEFSAII (Michael W. Deem and Ramdas Pophale) SiO2 
 PCOD8110708
Probable space group: C 2/M
;
_chemical_formula_sum "Si O2"
_cell_formula_units_Z 52
_cell_length_a 8.241295
_cell_length_b 22.707801
_cell_length_c 20.005694
_cell_angle_alpha 90.000000
_cell_angle_beta 136.327690
_cell_angle_gamma 90.000000
_cell_volume 2585.285782
_symmetry_space_group_name_H-M "C 2/M"
_symmetry_group_IT_number 12
_symmetry_cell_setting 'monoclinic'
loop_
_space_group_symop_operation_xyz
x,y,z
-x,y,-z
-x,-y,-z
x,-y,z
1/2+x,1/2+y,z
1/2-x,1/2+y,-z
1/2-x,1/2-y,-z
1/2+x,1/2-y,z
loop_
_atom_site_type_symbol
_atom_site_label
_atom_site_fract_x
_atom_site_fract_y
_atom_site_fract_z
Si Si1 0.041839 0.872093 0.934718
Si Si2 0.739627 0.377701 0.599251
Si Si3 0.728753 0.775702 0.297221
Si Si4 0.079275 0.660225 0.596852
Si Si5 0.775020 0.754455 0.845543
Si Si6 0.707307 0.066857 0.732300
Si Si7 0.000000 0.656600 0.000000
O O1 0.309910 0.881445 0.986809
O O2 0.980173 0.803183 0.905572
O O3 0.873211 0.914061 0.842242
O O4 0.000000 0.889013 0.000000
O O5 0.500000 0.406934 0.500000
O O6 0.683179 0.337505 0.646938
O O7 0.846961 0.334437 0.574196
O O8 0.933168 0.427617 0.674423
O O9 0.786023 0.722276 0.365147
O O10 0.457380 0.781644 0.189817
O O11 0.847818 0.760680 0.262252
O O12 0.247052 0.609125 0.679435
O O13 0.000000 0.640343 0.500000
O O14 0.858218 0.695709 0.905528
O O15 0.763147 0.000000 0.728800
#
# Coordination Sequence:
#
# PCOD8110708 Si02
#       7
#     8   8   8   8   8   8   4
#     4  12  23  42  63  94 126 167 218 263 328 382
#     4  10  23  39  59  93 122 166 209 260 314 380
#     4  12  20  35  58  87 133 159 203 249 326 390
#     4  10  22  37  57  91 120 163 203 252 321 367
#     4  12  20  34  56  88 127 168 196 254 319 380
#     4  10  23  46  64  86 126 168 217 265 316 380
#     4  12  24  34  63  98 127 168 214 266 318 400
#
# _framework density 20.113831999999999
#
# number of rings (size 3 to 8) (size 9 to 14) (size 15 to 20)
#    0.923    0.000    6.923    1.846    2.154    2.154 
#    0.000    0.385    0.000    1.846    0.000    0.000 
#    0.000    0.000    0.000    0.000    0.000    0.000 
#
# Total GULP energy -322141.131176 kJ/mol
# GULP energy per Si atom -12390.043507 kJ/mol
# Density = 2.006805 g / cm^3
# Si number density = 20.113832 Si / 1000 Ang^3
#
#
#
# Elastic Constant Matrix: (Units=GPa)
#
#
# Indices 1 2 3 4 5 6 
#
# 1 71.3544 8.7554 36.5747 0.0000 5.9924 0.0000
# 2 8.7554 56.0367 20.8688 0.0000 -9.0102 0.0000
# 3 36.5747 20.8688 122.6177 0.0000 -6.2014 0.0000
# 4 0.0000 0.0000 0.0000 10.8208 0.0000 -0.3058
# 5 5.9924 -9.0102 -6.2014 0.0000 49.3396 0.0000
# 6 0.0000 0.0000 0.0000 -0.3058 0.0000 13.9776
#
#
#
# Elastic Compliance Matrix: (Units=1/GPa)
#
#
# Indices 1 2 3 4 5 6 
#
# 1 0.016976 -0.001261 -0.004997 0.000000 -0.002920 0.000000
# 2 -0.001261 0.019627 -0.002793 0.000000 0.003386 0.000000
# 3 -0.004997 -0.002793 0.010191 0.000000 0.001378 0.000000
# 4 0.000000 0.000000 0.000000 0.092472 0.000000 0.002023
# 5 -0.002920 0.003386 0.001378 0.000000 0.021414 0.000000
# 6 0.000000 0.000000 0.000000 0.002023 0.000000 0.071587
#
#
# Mechanical properties :
#
#
# Convention : Reuss Voigt Hill
#
# Bulk Modulus (GPa) = 34.85253 42.48962 38.67108
# Shear Modulus (GPa) = 19.23577 27.08159 23.15868
#
# Velocity S-wave (km/s) = 3.09584 3.67334 3.39688
# Velocity P-wave (km/s) = 5.49037 6.25793 5.88667
#
# Compressibility (1/GPa) = 0.02869232
#
# Stress axis : x y z
#
# Youngs Moduli (GPa) = 58.90787 50.94994 98.12717
#
# Poissons Ratio (x) = 0.06425 0.49030
# Poissons Ratio (y) = 0.07429 0.27407
# Poissons Ratio (z) = 0.29434 0.14230
#
# Static dielectric constant tensor:
#      x y z
#    x 3.737700 0.000000 0.028380 
#    y 0.000000 3.069130 0.000000 
#    z 0.028380 0.000000 3.677590 
# 
# 
# High freq. dielectric constant tensor:
#      x y z
#    x 1.781760 0.000000 0.001660 
#    y 0.000000 1.729650 0.000000 
#    z 0.001660 0.000000 1.802190 
# 
# From -- ./inp_files/302381.got.cif
#   From: 2010.06.25/outbox.cif.g09.slc.cpg/sg12_152_cif.got.tgz:302381.got - 2010.06.28 00:19:55.
