data_PCOD8110629
_publ_section_title
;
Structure prediction by ZEFSAII (Michael W. Deem and Ramdas Pophale) SiO2 
 PCOD8110629
Probable space group: C 2/M
;
_chemical_formula_sum "Si O2"
_cell_formula_units_Z 32
_cell_length_a 16.051543
_cell_length_b 10.781413
_cell_length_c 7.928913
_cell_angle_alpha 90.000000
_cell_angle_beta 80.877548
_cell_angle_gamma 90.000000
_cell_volume 1354.808848
_symmetry_space_group_name_H-M "C 2/M"
_symmetry_group_IT_number 12
_symmetry_cell_setting 'monoclinic'
loop_
_space_group_symop_operation_xyz
x,y,z
-x,y,-z
-x,-y,-z
x,-y,z
1/2+x,1/2+y,z
1/2-x,1/2+y,-z
1/2-x,1/2-y,-z
1/2+x,1/2-y,z
loop_
_atom_site_type_symbol
_atom_site_label
_atom_site_fract_x
_atom_site_fract_y
_atom_site_fract_z
Si Si1 0.441242 0.000000 0.267372
Si Si2 0.628367 0.000000 0.344150
Si Si3 0.181940 0.139447 0.539909
Si Si4 0.862611 0.730886 0.134155
Si Si5 0.329540 0.734584 0.786765
O O1 0.537920 0.000000 0.285838
O O2 0.381470 0.000000 0.450424
O O3 0.423767 0.118317 0.156953
O O4 0.679246 0.120924 0.266651
O O5 0.250000 0.250000 0.500000
O O6 0.125394 0.164873 0.723793
O O7 0.128881 0.154526 0.380937
O O8 0.220596 0.000000 0.539942
O O9 0.765510 0.683975 0.153001
O O10 0.885235 0.782532 0.939033
#
# Coordination Sequence:
#
# PCOD8110629 Si02
#       5
#     4   4   8   8   8
#     4  11  23  41  67 100 136 179 227 275 333 399
#     4  11  23  41  67 100 136 179 227 275 333 399
#     4  10  22  36  58  89 131 171 209 269 329 383
#     4  10  22  36  60  93 129 169 219 271 325 387
#     4  10  22  36  60  93 129 169 219 271 325 387
#
# _framework density 23.619568000000001
#
# number of rings (size 3 to 8) (size 9 to 14) (size 15 to 20)
#    0.000    1.750    2.500    0.750   14.000    3.000 
#    0.000    0.000    0.000    3.000    0.000    3.500 
#    0.000    0.000    0.000    0.000    0.000    0.000 
#
# Total GULP energy -198256.198046 kJ/mol
# GULP energy per Si atom -12391.012378 kJ/mol
# Density = 2.356581 g / cm^3
# Si number density = 23.619568 Si / 1000 Ang^3
#
#
#
# Elastic Constant Matrix: (Units=GPa)
#
#
# Indices 1 2 3 4 5 6 
#
# 1 38.9330 17.6955 0.9440 0.0000 12.3570 0.0000
# 2 17.6955 149.7280 47.3330 0.0000 11.9822 0.0000
# 3 0.9440 47.3330 200.3728 0.0000 46.4759 0.0000
# 4 0.0000 0.0000 0.0000 27.6514 0.0000 8.1677
# 5 12.3570 11.9822 46.4759 0.0000 31.0418 0.0000
# 6 0.0000 0.0000 0.0000 8.1677 0.0000 14.8466
#
#
#
# Elastic Compliance Matrix: (Units=1/GPa)
#
#
# Indices 1 2 3 4 5 6 
#
# 1 0.033782 -0.004115 0.005460 0.000000 -0.020033 0.000000
# 2 -0.004115 0.007722 -0.002288 0.000000 0.002083 0.000000
# 3 0.005460 -0.002288 0.008893 0.000000 -0.014605 0.000000
# 4 0.000000 0.000000 0.000000 0.043182 0.000000 -0.023756
# 5 -0.020033 0.002083 -0.014605 0.000000 0.061252 0.000000
# 6 0.000000 0.000000 0.000000 -0.023756 0.000000 0.080424
#
#
# Mechanical properties :
#
#
# Convention : Reuss Voigt Hill
#
# Bulk Modulus (GPa) = 20.61450 57.88652 39.25051
# Shear Modulus (GPa) = 19.73863 36.24540 27.99202
#
# Velocity S-wave (km/s) = 2.89397 3.92158 3.44629
# Velocity P-wave (km/s) = 4.46244 6.71313 5.69998
#
# Compressibility (1/GPa) = 0.04850956
#
# Stress axis : x y z
#
# Youngs Moduli (GPa) = 29.60193 129.50569 112.44864
#
# Poissons Ratio (x) = 0.53294 -0.61393
# Poissons Ratio (y) = 0.12182 0.25726
# Poissons Ratio (z) = -0.16162 0.29628
#
# Static dielectric constant tensor:
#      x y z
#    x 3.683320 0.000000 0.661740 
#    y 0.000000 4.040970 0.000000 
#    z 0.661740 0.000000 5.976740 
# 
# 
# High freq. dielectric constant tensor:
#      x y z
#    x 1.878870 0.000000 0.036070 
#    y 0.000000 1.910450 0.000000 
#    z 0.036070 0.000000 1.976640 
# 
# From -- ./inp_files/37658.got.cif
#   From: 2010.06.25/outbox.cif.g09.slc.cpg/sg12_19_cif.got.tgz:37658.got - 2010.06.28 00:19:55.
