data_PCOD8110099
_publ_section_title
;
Structure prediction by ZEFSAII (Michael W. Deem and Ramdas Pophale) SiO2 
 PCOD8110099
Probable space group: C 2/M
;
_chemical_formula_sum "Si O2"
_cell_formula_units_Z 64
_cell_length_a 31.220993
_cell_length_b 17.538473
_cell_length_c 12.303987
_cell_angle_alpha 90.000000
_cell_angle_beta 152.508653
_cell_angle_gamma 90.000000
_cell_volume 3110.025400
_symmetry_space_group_name_H-M "C 2/M"
_symmetry_group_IT_number 12
_symmetry_cell_setting 'monoclinic'
loop_
_space_group_symop_operation_xyz
x,y,z
-x,y,-z
-x,-y,-z
x,-y,z
1/2+x,1/2+y,z
1/2-x,1/2+y,-z
1/2-x,1/2-y,-z
1/2+x,1/2-y,z
loop_
_atom_site_type_symbol
_atom_site_label
_atom_site_fract_x
_atom_site_fract_y
_atom_site_fract_z
Si Si1 0.321499 0.413237 0.751647
Si Si2 0.184948 0.411519 0.262514
Si Si3 0.806930 0.586265 0.332614
Si Si4 0.322830 0.410920 0.383395
Si Si5 0.005624 0.176647 0.138990
Si Si6 0.998838 0.341982 0.206319
Si Si7 0.421429 0.083818 0.242782
Si Si8 0.739919 0.160798 0.996652
O O1 0.345800 0.500000 0.775604
O O2 0.257626 0.377229 0.512737
O O3 0.270549 0.407022 0.750890
O O4 0.415916 0.368143 0.975782
O O5 0.170496 0.500000 0.255253
O O6 0.225098 0.397504 0.229808
O O7 0.085475 0.371434 0.060043
O O8 0.831772 0.500000 0.358319
O O9 0.900412 0.623155 0.591324
O O10 0.760968 0.623551 0.123568
O O11 0.343965 0.500000 0.417522
O O12 0.404260 0.374658 0.637832
O O13 0.320270 0.372004 0.257913
O O14 0.010339 0.251940 0.222182
O O15 0.000000 0.198217 0.000000
O O16 0.968913 0.366427 0.257705
O O17 0.500000 0.058530 0.500000
O O18 0.378486 0.000000 0.107387
O O19 0.353172 0.140118 0.150896
O O20 0.750000 0.250000 0.000000
#
# Coordination Sequence:
#
# PCOD8110099 Si02
#       8
#     8   8   8   8   8   8   8   8
#     4  10  24  45  68  92 127 181 229 274 335 403
#     4  10  21  40  68  97 125 166 226 283 324 387
#     4  11  24  44  68  94 138 184 220 265 334 413
#     4  11  23  43  71  99 126 170 238 288 320 388
#     4  12  27  44  66  97 135 179 224 282 349 397
#     4  12  25  38  64 102 141 170 215 275 342 401
#     4  11  22  41  69  95 127 179 230 268 318 400
#     4  12  25  41  66 103 140 173 217 276 342 392
#
# _framework density 20.578609
#
# number of rings (size 3 to 8) (size 9 to 14) (size 15 to 20)
#    0.000    0.875    3.750    3.375    3.500    2.000 
#    0.000    2.500    0.000    2.250    0.000    0.000 
#    0.000    0.000    0.000    0.000    0.000    0.000 
#
# Total GULP energy -396730.566311 kJ/mol
# GULP energy per Si atom -12397.830197 kJ/mol
# Density = 2.053177 g / cm^3
# Si number density = 20.578609 Si / 1000 Ang^3
#
#
#
# Elastic Constant Matrix: (Units=GPa)
#
#
# Indices 1 2 3 4 5 6 
#
# 1 70.5092 49.5004 20.4954 0.0000 -2.7371 0.0000
# 2 49.5004 144.0479 43.9045 0.0000 -0.0304 0.0000
# 3 20.4954 43.9045 102.4616 0.0000 -1.0971 0.0000
# 4 0.0000 0.0000 0.0000 21.7131 0.0000 -2.0034
# 5 -2.7371 -0.0304 -1.0971 0.0000 35.2261 0.0000
# 6 0.0000 0.0000 0.0000 -2.0034 0.0000 39.4395
#
#
#
# Elastic Compliance Matrix: (Units=1/GPa)
#
#
# Indices 1 2 3 4 5 6 
#
# 1 0.018879 -0.006143 -0.001129 0.000000 0.001426 0.000000
# 2 -0.006143 0.009984 -0.003055 0.000000 -0.000564 0.000000
# 3 -0.001129 -0.003055 0.011298 0.000000 0.000262 0.000000
# 4 0.000000 0.000000 0.000000 0.046272 0.000000 0.002350
# 5 0.001426 -0.000564 0.000262 0.000000 0.028507 0.000000
# 6 0.000000 0.000000 0.000000 0.002350 0.000000 0.025475
#
#
# Mechanical properties :
#
#
# Convention : Reuss Voigt Hill
#
# Bulk Modulus (GPa) = 51.26635 60.53549 55.90092
# Shear Modulus (GPa) = 29.83820 32.81698 31.32759
#
# Velocity S-wave (km/s) = 3.81197 3.99772 3.90595
# Velocity P-wave (km/s) = 6.65893 7.12668 6.89677
#
# Compressibility (1/GPa) = 0.01950597
#
# Stress axis : x y z
#
# Youngs Moduli (GPa) = 52.96966 100.15714 88.51437
#
# Poissons Ratio (x) = 0.61528 0.09991
# Poissons Ratio (y) = 0.32540 0.27045
# Poissons Ratio (z) = 0.05979 0.30603
#
# Static dielectric constant tensor:
#      x y z
#    x 3.629140 0.000000 -0.128680 
#    y 0.000000 3.754480 0.000000 
#    z -0.128680 0.000000 4.053980 
# 
# 
# High freq. dielectric constant tensor:
#      x y z
#    x 1.802010 0.000000 -0.009300 
#    y 0.000000 1.806760 0.000000 
#    z -0.009300 0.000000 1.824960 
# 
# From -- ./inp_files/190107.got.cif
#   From: 2010.06.25/outbox.cif.g09.slc.cpg/sg12_96_cif.got.tgz:190107.got - 2010.06.28 00:19:55.
