data_PCOD8110595
_publ_section_title
;
Structure prediction by ZEFSAII (Michael W. Deem and Ramdas Pophale) SiO2 
 PCOD8110595
Probable space group: C 2/M
;
_chemical_formula_sum "Si O2"
_cell_formula_units_Z 52
_cell_length_a 9.511035
_cell_length_b 27.357936
_cell_length_c 10.764698
_cell_angle_alpha 90.000000
_cell_angle_beta 93.143423
_cell_angle_gamma 90.000000
_cell_volume 2796.784650
_symmetry_space_group_name_H-M "C 2/M"
_symmetry_group_IT_number 12
_symmetry_cell_setting 'monoclinic'
loop_
_space_group_symop_operation_xyz
x,y,z
-x,y,-z
-x,-y,-z
x,-y,z
1/2+x,1/2+y,z
1/2-x,1/2+y,-z
1/2-x,1/2-y,-z
1/2+x,1/2-y,z
loop_
_atom_site_type_symbol
_atom_site_label
_atom_site_fract_x
_atom_site_fract_y
_atom_site_fract_z
Si Si1 0.227059 0.790585 0.681224
Si Si2 0.030279 0.944496 0.302327
Si Si3 0.955084 0.158951 0.764448
Si Si4 0.375919 0.251385 0.912933
Si Si5 0.500000 0.884921 0.500000
Si Si6 0.199162 0.312985 0.590067
Si Si7 0.767421 0.945609 0.460254
O O1 0.348275 0.781528 0.790111
O O2 0.153668 0.738337 0.647855
O O3 0.295278 0.811167 0.559782
O O4 0.111060 0.826854 0.728855
O O5 0.048500 0.899718 0.204075
O O6 0.162808 0.941355 0.400888
O O7 0.884967 0.931548 0.365046
O O8 0.024991 0.000000 0.244150
O O9 0.909485 0.191908 0.879232
O O10 0.849835 0.168887 0.644881
O O11 0.500000 0.227925 0.000000
O O12 0.250000 0.250000 0.000000
O O13 0.574699 0.851721 0.610872
O O14 0.624241 0.915014 0.439428
O O15 0.716289 0.000000 0.432735
#
# Coordination Sequence:
#
# PCOD8110595 Si02
#       7
#     8   8   8   8   4   8   8
#     4  10  22  36  54  75 115 153 184 228 274 337
#     4   9  18  35  53  78 106 149 193 226 274 335
#     4  11  20  36  59  79 114 150 187 230 279 331
#     4  11  23  41  58  81 108 147 195 233 278 332
#     4  12  19  28  44  76 118 144 191 218 270 334
#     4  10  23  30  48  83 118 149 183 220 281 339
#     4   9  18  31  48  70 111 153 188 226 268 332
#
# _framework density 18.592779
#
# number of rings (size 3 to 8) (size 9 to 14) (size 15 to 20)
#    0.000    1.846    3.077    2.538    8.615    0.000 
#    0.000    0.000    0.000    0.462    0.000    0.000 
#    0.000    1.231    0.000    0.000    0.000    0.000 
#
# Total GULP energy -322128.582845 kJ/mol
# GULP energy per Si atom -12389.560879 kJ/mol
# Density = 1.855046 g / cm^3
# Si number density = 18.592779 Si / 1000 Ang^3
#
#
#
# Elastic Constant Matrix: (Units=GPa)
#
#
# Indices 1 2 3 4 5 6 
#
# 1 107.3993 34.9944 29.7099 0.0000 18.9588 0.0000
# 2 34.9944 121.1798 18.4429 0.0000 3.7008 0.0000
# 3 29.7099 18.4429 73.4144 0.0000 13.9585 0.0000
# 4 0.0000 0.0000 0.0000 19.7151 0.0000 -2.0472
# 5 18.9588 3.7008 13.9585 0.0000 19.3966 0.0000
# 6 0.0000 0.0000 0.0000 -2.0472 0.0000 38.0142
#
#
#
# Elastic Compliance Matrix: (Units=1/GPa)
#
#
# Indices 1 2 3 4 5 6 
#
# 1 0.012761 -0.002998 -0.002489 0.000000 -0.010110 0.000000
# 2 -0.002998 0.009285 -0.001552 0.000000 0.002275 0.000000
# 3 -0.002489 -0.001552 0.016798 0.000000 -0.009360 0.000000
# 4 0.000000 0.000000 0.000000 0.051008 0.000000 0.002747
# 5 -0.010110 0.002275 -0.009360 0.000000 0.067739 0.000000
# 6 0.000000 0.000000 0.000000 0.002747 0.000000 0.026454
#
#
# Mechanical properties :
#
#
# Convention : Reuss Voigt Hill
#
# Bulk Modulus (GPa) = 40.37703 52.03200 46.20451
# Shear Modulus (GPa) = 24.22761 30.01493 27.12127
#
# Velocity S-wave (km/s) = 3.61372 4.02223 3.82344
# Velocity P-wave (km/s) = 6.25904 7.04393 6.66305
#
# Compressibility (1/GPa) = 0.02476655
#
# Stress axis : x y z
#
# Youngs Moduli (GPa) = 78.36420 107.70580 59.53096
#
# Poissons Ratio (x) = 0.32285 0.14817
# Poissons Ratio (y) = 0.23490 0.09239
# Poissons Ratio (z) = 0.19504 0.16716
#
# Static dielectric constant tensor:
#      x y z
#    x 3.453970 0.000000 0.134680 
#    y 0.000000 3.807960 0.000000 
#    z 0.134680 0.000000 3.105650 
# 
# 
# High freq. dielectric constant tensor:
#      x y z
#    x 1.732450 0.000000 0.007460 
#    y 0.000000 1.730020 0.000000 
#    z 0.007460 0.000000 1.668000 
# 
# From -- ./inp_files/124811.got.cif
#   From: 2010.06.25/outbox.cif.g09.slc.cpg/sg12_63_cif.got.tgz:124811.got - 2010.06.28 00:19:55.
