data_PCOD8110700
_publ_section_title
;
Structure prediction by ZEFSAII (Michael W. Deem and Ramdas Pophale) SiO2 
 PCOD8110700
Probable space group: C 2/M
;
_chemical_formula_sum "Si O2"
_cell_formula_units_Z 64
_cell_length_a 26.534020
_cell_length_b 14.263451
_cell_length_c 9.301616
_cell_angle_alpha 90.000000
_cell_angle_beta 76.722745
_cell_angle_gamma 90.000000
_cell_volume 3426.253275
_symmetry_space_group_name_H-M "C 2/M"
_symmetry_group_IT_number 12
_symmetry_cell_setting 'monoclinic'
loop_
_space_group_symop_operation_xyz
x,y,z
-x,y,-z
-x,-y,-z
x,-y,z
1/2+x,1/2+y,z
1/2-x,1/2+y,-z
1/2-x,1/2-y,-z
1/2+x,1/2-y,z
loop_
_atom_site_type_symbol
_atom_site_label
_atom_site_fract_x
_atom_site_fract_y
_atom_site_fract_z
Si Si1 0.197019 0.743889 0.952772
Si Si2 0.445161 0.108931 0.983032
Si Si3 0.346955 0.889519 0.239839
Si Si4 0.719185 0.602215 0.730070
Si Si5 0.173666 0.306632 0.433557
Si Si6 0.056021 0.894168 0.407722
Si Si7 0.840496 0.100735 0.514355
Si Si8 0.604400 0.223193 0.226313
O O1 0.194000 0.654172 0.847064
O O2 0.191299 0.838725 0.868964
O O3 0.250000 0.750000 0.000000
O O4 0.153371 0.746513 0.099025
O O5 0.432943 0.155227 0.837597
O O6 0.448641 0.000000 0.947107
O O7 0.500000 0.149121 0.000000
O O8 0.403567 0.129161 0.135822
O O9 0.343261 0.836252 0.394829
O O10 0.335175 0.000000 0.267907
O O11 0.732353 0.500000 0.783627
O O12 0.773129 0.643515 0.638626
O O13 0.675238 0.595778 0.639563
O O14 0.185488 0.194870 0.404963
O O15 0.126100 0.329771 0.355839
O O16 0.097223 0.890412 0.512140
O O17 0.074073 0.819826 0.276367
O O18 0.000000 0.862672 0.500000
O O19 0.053480 0.000000 0.344381
O O20 0.822849 0.000000 0.598914
#
# Coordination Sequence:
#
# PCOD8110700 Si02
#       8
#     8   8   8   8   8   8   8   8
#     4  11  22  40  55  80 119 157 193 233 282 349
#     4   9  20  40  60  80 114 154 190 231 284 343
#     4  10  22  37  57  84 114 152 191 233 289 342
#     4  11  22  35  56  82 114 151 189 235 288 337
#     4  11  20  37  58  84 118 146 189 244 282 343
#     4   9  19  37  60  86 117 148 188 242 299 345
#     4   9  19  34  55  82 111 148 186 231 287 338
#     4  10  22  37  61  86 114 151 193 238 288 347
#
# _framework density 18.679295
#
# number of rings (size 3 to 8) (size 9 to 14) (size 15 to 20)
#    0.000    2.000    2.500    0.750    0.000    4.000 
#    0.000    0.000    0.000    3.000    0.000    0.000 
#    0.000    0.000    0.000    0.000    0.000    0.000 
#
# Total GULP energy -396512.121522 kJ/mol
# GULP energy per Si atom -12391.003798 kJ/mol
# Density = 1.863678 g / cm^3
# Si number density = 18.679295 Si / 1000 Ang^3
#
#
#
# Elastic Constant Matrix: (Units=GPa)
#
#
# Indices 1 2 3 4 5 6 
#
# 1 106.4033 46.8607 43.1944 0.0000 16.6463 0.0000
# 2 46.8607 121.0775 47.0854 0.0000 6.3141 0.0000
# 3 43.1944 47.0854 96.6464 0.0000 12.2402 0.0000
# 4 0.0000 0.0000 0.0000 26.9634 0.0000 1.1696
# 5 16.6463 6.3141 12.2402 0.0000 23.9714 0.0000
# 6 0.0000 0.0000 0.0000 1.1696 0.0000 26.0913
#
#
#
# Elastic Compliance Matrix: (Units=1/GPa)
#
#
# Indices 1 2 3 4 5 6 
#
# 1 0.013364 -0.003492 -0.003435 0.000000 -0.006607 0.000000
# 2 -0.003492 0.011103 -0.004047 0.000000 0.001567 0.000000
# 3 -0.003435 -0.004047 0.014344 0.000000 -0.003873 0.000000
# 4 0.000000 0.000000 0.000000 0.037160 0.000000 -0.001666
# 5 -0.006607 0.001567 -0.003873 0.000000 0.047869 0.000000
# 6 0.000000 0.000000 0.000000 -0.001666 0.000000 0.038402
#
#
# Mechanical properties :
#
#
# Convention : Reuss Voigt Hill
#
# Bulk Modulus (GPa) = 59.29935 66.48980 62.89458
# Shear Modulus (GPa) = 26.34208 27.87099 27.10653
#
# Velocity S-wave (km/s) = 3.75938 3.86693 3.81353
# Velocity P-wave (km/s) = 7.11750 7.45723 7.28935
#
# Compressibility (1/GPa) = 0.01686359
#
# Stress axis : x y z
#
# Youngs Moduli (GPa) = 74.82763 90.06756 69.71396
#
# Poissons Ratio (x) = 0.31452 0.23946
# Poissons Ratio (y) = 0.26130 0.28213
# Poissons Ratio (z) = 0.25702 0.36450
#
# Static dielectric constant tensor:
#      x y z
#    x 3.679510 0.000000 0.264280 
#    y 0.000000 3.806210 0.000000 
#    z 0.264280 0.000000 3.430040 
# 
# 
# High freq. dielectric constant tensor:
#      x y z
#    x 1.730100 0.000000 0.013000 
#    y 0.000000 1.738090 0.000000 
#    z 0.013000 0.000000 1.710830 
# 
# From -- ./inp_files/104583.got.cif
#   From: 2010.06.25/outbox.cif.g09.slc.cpg/sg12_53_cif.got.tgz:104583.got - 2010.06.28 00:19:55.
