data_PCOD8110607
_publ_section_title
;
Structure prediction by ZEFSAII (Michael W. Deem and Ramdas Pophale) SiO2 
 PCOD8110607
Probable space group: C 2/M
;
_chemical_formula_sum "Si O2"
_cell_formula_units_Z 64
_cell_length_a 21.869770
_cell_length_b 17.717648
_cell_length_c 18.105978
_cell_angle_alpha 90.000000
_cell_angle_beta 153.398774
_cell_angle_gamma 90.000000
_cell_volume 3141.486802
_symmetry_space_group_name_H-M "C 2/M"
_symmetry_group_IT_number 12
_symmetry_cell_setting 'monoclinic'
loop_
_space_group_symop_operation_xyz
x,y,z
-x,y,-z
-x,-y,-z
x,-y,z
1/2+x,1/2+y,z
1/2-x,1/2+y,-z
1/2-x,1/2-y,-z
1/2+x,1/2-y,z
loop_
_atom_site_type_symbol
_atom_site_label
_atom_site_fract_x
_atom_site_fract_y
_atom_site_fract_z
Si Si1 0.653361 0.415246 0.163082
Si Si2 0.390364 0.311236 0.689206
Si Si3 0.389826 0.584565 0.041815
Si Si4 0.353253 0.176575 0.480275
Si Si5 0.279932 0.666898 0.063663
Si Si6 0.971725 0.825646 0.554807
Si Si7 0.483547 0.850210 0.762648
Si Si8 0.771231 0.909980 0.434466
O O1 0.645537 0.500000 0.186302
O O2 0.769465 0.373387 0.333614
O O3 0.500000 0.380312 0.000000
O O4 0.705554 0.413851 0.134102
O O5 0.483275 0.361075 0.844092
O O6 0.255251 0.279354 0.583363
O O7 0.473995 0.241088 0.748432
O O8 0.361518 0.372281 0.594996
O O9 0.441873 0.500000 0.113761
O O10 0.313713 0.614517 0.031150
O O11 0.439382 0.236989 0.528011
O O12 0.442483 0.125098 0.633896
O O13 0.395502 0.659287 0.251088
O O14 0.250000 0.750000 0.000000
O O15 0.141274 0.631632 0.949684
O O16 0.838947 0.876722 0.432638
O O17 0.000000 0.844042 0.500000
O O18 0.388343 0.887387 0.723369
O O19 0.783944 0.000000 0.448146
#
# Coordination Sequence:
#
# PCOD8110607 Si02
#       8
#     8   8   8   8   8   8   8   8
#     4  10  22  36  55  93 136 175 217 262 323 395
#     4  11  18  36  66  91 123 167 214 274 317 381
#     4  11  22  37  61  93 131 173 219 267 323 390
#     4  11  20  36  63  90 130 166 215 277 320 377
#     4  12  23  42  66  95 128 172 218 273 331 392
#     4  12  26  42  65  99 133 172 221 271 329 401
#     4  11  22  40  68  97 126 167 225 277 324 387
#     4  11  22  41  66  96 127 165 216 272 331 389
#
# _framework density 20.372519
#
# number of rings (size 3 to 8) (size 9 to 14) (size 15 to 20)
#    0.000    0.875    7.500    1.125    1.750    2.750 
#    0.000    0.625    0.000    2.625    0.000    0.000 
#    0.000    0.000    0.000    0.000    0.000    0.000 
#
# Total GULP energy -396500.338535 kJ/mol
# GULP energy per Si atom -12390.635579 kJ/mol
# Density = 2.032615 g / cm^3
# Si number density = 20.372519 Si / 1000 Ang^3
#
#
#
# Elastic Constant Matrix: (Units=GPa)
#
#
# Indices 1 2 3 4 5 6 
#
# 1 134.3708 38.8356 59.1183 0.0010 0.3563 0.0007
# 2 38.8356 85.2066 37.6943 0.0024 -1.3652 0.0021
# 3 59.1183 37.6943 121.0734 0.0006 10.6290 0.0005
# 4 0.0010 0.0024 0.0006 24.1025 -0.0003 -2.0428
# 5 0.3563 -1.3652 10.6290 -0.0003 33.8458 -0.0005
# 6 0.0007 0.0021 0.0005 -2.0428 -0.0005 24.2128
#
#
#
# Elastic Compliance Matrix: (Units=1/GPa)
#
#
# Indices 1 2 3 4 5 6 
#
# 1 0.010056 -0.002727 -0.004157 0.000000 0.001090 0.000000
# 2 -0.002727 0.014474 -0.003320 -0.000001 0.001655 -0.000001
# 3 -0.004157 -0.003320 0.011652 0.000000 -0.003749 0.000000
# 4 0.000000 -0.000001 0.000000 0.041788 0.000000 0.003526
# 5 0.001090 0.001655 -0.003749 0.000000 0.030778 0.000001
# 6 0.000000 -0.000001 0.000000 0.003526 0.000001 0.041598
#
#
# Mechanical properties :
#
#
# Convention : Reuss Voigt Hill
#
# Bulk Modulus (GPa) = 63.39335 67.99412 65.69373
# Shear Modulus (GPa) = 28.40685 30.09906 29.25295
#
# Velocity S-wave (km/s) = 3.73818 3.84791 3.79344
# Velocity P-wave (km/s) = 7.05809 7.29313 7.17657
#
# Compressibility (1/GPa) = 0.01577453
#
# Stress axis : x y z
#
# Youngs Moduli (GPa) = 99.44036 69.08742 85.82173
#
# Poissons Ratio (x) = 0.18840 0.35676
# Poissons Ratio (y) = 0.27118 0.28494
# Poissons Ratio (z) = 0.41337 0.22938
#
# Static dielectric constant tensor:
#      x y z
#    x 3.895680 0.000000 0.170140 
#    y 0.000000 3.520070 -0.000010 
#    z 0.170140 -0.000010 3.836460 
# 
# 
# High freq. dielectric constant tensor:
#      x y z
#    x 1.797770 0.000000 0.008000 
#    y 0.000000 1.779800 0.000000 
#    z 0.008000 0.000000 1.790450 
# 
# From -- ./inp_files/285252.got.cif
#   From: 2010.06.25/outbox.cif.g09.slc.cpg/sg12_143_cif.got.tgz:285252.got - 2010.06.28 00:19:55.
