data_PCOD8110297
_publ_section_title
;
Structure prediction by ZEFSAII (Michael W. Deem and Ramdas Pophale) SiO2 
 PCOD8110297
Probable space group: C 2/M
;
_chemical_formula_sum "Si O2"
_cell_formula_units_Z 40
_cell_length_a 13.440472
_cell_length_b 13.593761
_cell_length_c 17.647854
_cell_angle_alpha 90.000000
_cell_angle_beta 33.376848
_cell_angle_gamma 90.000000
_cell_volume 1773.870540
_symmetry_space_group_name_H-M "C 2/M"
_symmetry_group_IT_number 12
_symmetry_cell_setting 'monoclinic'
loop_
_space_group_symop_operation_xyz
x,y,z
-x,y,-z
-x,-y,-z
x,-y,z
1/2+x,1/2+y,z
1/2-x,1/2+y,-z
1/2-x,1/2-y,-z
1/2+x,1/2-y,z
loop_
_atom_site_type_symbol
_atom_site_label
_atom_site_fract_x
_atom_site_fract_y
_atom_site_fract_z
Si Si1 0.208403 0.387089 0.231757
Si Si2 0.190876 0.260985 0.952205
Si Si3 0.937650 0.886739 0.691116
Si Si4 0.180219 0.288443 0.750140
Si Si5 0.667180 0.113321 0.602477
O O1 0.267030 0.500000 0.205437
O O2 0.308580 0.342822 0.093577
O O3 0.258164 0.325734 0.276338
O O4 0.992712 0.375952 0.356546
O O5 0.335534 0.332965 0.823319
O O6 0.250000 0.250000 0.000000
O O7 0.987125 0.304827 0.084811
O O8 0.843133 0.860221 0.671328
O O9 0.146743 0.853037 0.555506
O O10 0.922203 0.000000 0.718302
O O11 0.125691 0.314040 0.699327
O O12 0.681045 0.000000 0.622395
#
# Coordination Sequence:
#
# PCOD8110297 Si02
#       5
#     8   8   8   8   8
#     4  10  22  41  66  91 126 169 211 256 310 375
#     4  11  23  40  60  94 126 165 212 255 314 370
#     4  10  22  39  63  94 126 159 204 260 313 370
#     4  11  22  38  65  94 125 160 211 260 311 370
#     4  10  21  41  67  95 125 164 207 256 318 373
#
# _framework density 22.549558999999999
#
# number of rings (size 3 to 8) (size 9 to 14) (size 15 to 20)
#    0.000    1.600    2.000    3.600    0.000    9.600 
#    3.600    0.000    0.000    9.600    0.000    0.000 
#    0.000    0.000    0.000    0.000    0.000    0.000 
#
# Total GULP energy -247966.158350 kJ/mol
# GULP energy per Si atom -12398.307917 kJ/mol
# Density = 2.249824 g / cm^3
# Si number density = 22.549559 Si / 1000 Ang^3
#
#
#
# Elastic Constant Matrix: (Units=GPa)
#
#
# Indices 1 2 3 4 5 6 
#
# 1 46.9087 29.4763 15.8875 0.0023 -2.0759 0.0002
# 2 29.4763 110.7138 68.9050 -0.0085 9.5713 0.0015
# 3 15.8875 68.9050 134.6455 -0.0336 -20.2077 -0.0015
# 4 0.0023 -0.0085 -0.0336 29.4643 0.0113 -5.0012
# 5 -2.0759 9.5713 -20.2077 0.0113 30.6822 0.0013
# 6 0.0002 0.0015 -0.0015 -5.0012 0.0013 32.2163
#
#
#
# Elastic Compliance Matrix: (Units=1/GPa)
#
#
# Indices 1 2 3 4 5 6 
#
# 1 0.026505 -0.009162 0.002507 -0.000004 0.006302 -0.000001
# 2 -0.009162 0.019530 -0.011009 -0.000001 -0.013963 -0.000001
# 3 0.002507 -0.011009 0.014766 0.000009 0.013329 0.000002
# 4 -0.000004 -0.000001 0.000009 0.034858 -0.000007 0.005411
# 5 0.006302 -0.013963 0.013329 -0.000007 0.046153 -0.000002
# 6 -0.000001 -0.000001 0.000002 0.005411 -0.000002 0.031880
#
#
# Mechanical properties :
#
#
# Convention : Reuss Voigt Hill
#
# Bulk Modulus (GPa) = 39.25781 57.86730 48.56256
# Shear Modulus (GPa) = 22.98736 30.33918 26.66327
#
# Velocity S-wave (km/s) = 3.19629 3.67201 3.44238
# Velocity P-wave (km/s) = 5.57396 6.61031 6.11413
#
# Compressibility (1/GPa) = 0.02547264
#
# Stress axis : x y z
#
# Youngs Moduli (GPa) = 37.72903 51.20201 67.72530
#
# Poissons Ratio (x) = 0.46909 -0.16978
# Poissons Ratio (y) = 0.34566 0.74561
# Poissons Ratio (z) = -0.09458 0.56370
#
# Static dielectric constant tensor:
#      x y z
#    x 4.117210 -0.000010 -0.414890 
#    y -0.000010 4.162670 0.000010 
#    z -0.414890 0.000010 4.369690 
# 
# 
# High freq. dielectric constant tensor:
#      x y z
#    x 1.891590 0.000000 -0.025170 
#    y 0.000000 1.884040 0.000000 
#    z -0.025170 0.000000 1.896180 
# 
# From -- ./inp_files/270517.got.cif
#   From: 2010.06.25/outbox.cif.g09.slc.cpg/sg12_136_cif.got.tgz:270517.got - 2010.06.28 00:19:55.
