data_PCOD8110673
_publ_section_title
;
Structure prediction by ZEFSAII (Michael W. Deem and Ramdas Pophale) SiO2 
 PCOD8110673
Probable space group: C 2/M
;
_chemical_formula_sum "Si O2"
_cell_formula_units_Z 64
_cell_length_a 15.198773
_cell_length_b 9.178364
_cell_length_c 33.060646
_cell_angle_alpha 90.000000
_cell_angle_beta 133.349790
_cell_angle_gamma 90.000000
_cell_volume 3353.705947
_symmetry_space_group_name_H-M "C 2/M"
_symmetry_group_IT_number 12
_symmetry_cell_setting 'monoclinic'
loop_
_space_group_symop_operation_xyz
x,y,z
-x,y,-z
-x,-y,-z
x,-y,z
1/2+x,1/2+y,z
1/2-x,1/2+y,-z
1/2-x,1/2-y,-z
1/2+x,1/2-y,z
loop_
_atom_site_type_symbol
_atom_site_label
_atom_site_fract_x
_atom_site_fract_y
_atom_site_fract_z
Si Si1 0.159460 0.829103 0.378720
Si Si2 0.169490 0.331384 0.007132
Si Si3 0.161982 0.333597 0.500575
Si Si4 0.024568 0.329021 0.619997
Si Si5 0.704211 0.326821 0.303145
Si Si6 0.473547 0.832078 0.812088
Si Si7 0.748311 0.670210 0.111182
Si Si8 0.418205 0.834006 0.886091
O O1 0.295836 0.798139 0.440118
O O2 0.161654 0.769711 0.333682
O O3 0.054256 0.749393 0.370466
O O4 0.129973 0.000000 0.370527
O O5 0.208657 0.500000 0.020707
O O6 0.187060 0.260152 0.056076
O O7 0.250000 0.250000 0.000000
O O8 0.029779 0.315158 0.951643
O O9 0.188320 0.500000 0.500057
O O10 0.250000 0.250000 0.500000
O O11 0.025900 0.297298 0.442055
O O12 0.020870 0.500000 0.628454
O O13 0.161005 0.269021 0.664142
O O14 0.702796 0.500000 0.302086
O O15 0.614879 0.267529 0.241366
O O16 0.609665 0.798425 0.841525
O O17 0.460285 0.789169 0.854696
O O18 0.440443 0.000000 0.794184
O O19 0.722045 0.500000 0.096292
O O20 0.689472 0.726653 0.134347
O O21 0.370754 0.000000 0.871866
#
# Coordination Sequence:
#
# PCOD8110673 Si02
#       8
#     8   8   8   8   8   8   8   8
#     4   9  18  33  53  78 108 140 177 221 271 331
#     4  11  21  37  62  90 123 155 184 225 278 332
#     4   8  14  27  49  75 104 138 171 212 270 327
#     4   9  18  33  53  78 108 139 176 223 272 326
#     4  10  22  37  54  79 107 139 186 232 271 324
#     4  10  23  43  59  76 111 150 187 232 279 326
#     4  11  23  40  61  89 117 147 189 232 277 334
#     4  10  22  41  61  85 116 150 185 226 278 333
#
# _framework density 19.083366000000002
#
# number of rings (size 3 to 8) (size 9 to 14) (size 15 to 20)
#    0.000    2.250    1.250    1.125    0.000    6.500 
#    0.000    7.500    0.000    0.000    0.000    9.625 
#    0.000    0.000    0.000    0.000    0.000    0.000 
#
# Total GULP energy -396624.887132 kJ/mol
# GULP energy per Si atom -12394.527723 kJ/mol
# Density = 1.903993 g / cm^3
# Si number density = 19.083366 Si / 1000 Ang^3
#
#
#
# Elastic Constant Matrix: (Units=GPa)
#
#
# Indices 1 2 3 4 5 6 
#
# 1 111.3684 46.3639 34.9113 0.0000 14.5717 0.0000
# 2 46.3639 65.5174 39.5506 0.0000 8.0164 0.0000
# 3 34.9113 39.5506 102.3346 0.0000 16.0580 0.0000
# 4 0.0000 0.0000 0.0000 31.0702 0.0000 -0.5862
# 5 14.5717 8.0164 16.0580 0.0000 16.5874 0.0000
# 6 0.0000 0.0000 0.0000 -0.5862 0.0000 32.0752
#
#
#
# Elastic Compliance Matrix: (Units=1/GPa)
#
#
# Indices 1 2 3 4 5 6 
#
# 1 0.013609 -0.008629 -0.000102 0.000000 -0.007687 0.000000
# 2 -0.008629 0.025471 -0.007262 0.000000 0.002300 0.000000
# 3 -0.000102 -0.007262 0.014206 0.000000 -0.010154 0.000000
# 4 0.000000 0.000000 0.000000 0.032196 0.000000 0.000588
# 5 -0.007687 0.002300 -0.010154 0.000000 0.075758 0.000000
# 6 0.000000 0.000000 0.000000 0.000588 0.000000 0.031187
#
#
# Mechanical properties :
#
#
# Convention : Reuss Voigt Hill
#
# Bulk Modulus (GPa) = 46.94156 57.87467 52.40811
# Shear Modulus (GPa) = 21.59705 26.50620 24.05162
#
# Velocity S-wave (km/s) = 3.36776 3.73093 3.55399
# Velocity P-wave (km/s) = 6.30666 6.99664 6.66059
#
# Compressibility (1/GPa) = 0.02130309
#
# Stress axis : x y z
#
# Youngs Moduli (GPa) = 73.48064 39.25982 70.39082
#
# Poissons Ratio (x) = 0.33876 0.00716
# Poissons Ratio (y) = 0.63404 0.51114
# Poissons Ratio (z) = 0.00747 0.28509
#
# Static dielectric constant tensor:
#      x y z
#    x 3.498480 0.000000 -0.021070 
#    y 0.000000 3.450910 0.000000 
#    z -0.021070 0.000000 3.969570 
# 
# 
# High freq. dielectric constant tensor:
#      x y z
#    x 1.739040 0.000000 0.000140 
#    y 0.000000 1.737260 0.000000 
#    z 0.000140 0.000000 1.748160 
# 
# From -- ./inp_files/375659.got.cif
#   From: 2010.06.25/outbox.cif.g09.slc.cpg/sg12_188_cif.got.tgz:375659.got - 2010.06.28 00:19:55.
