data_PCOD8110239
_publ_section_title
;
Structure prediction by ZEFSAII (Michael W. Deem and Ramdas Pophale) SiO2 
 PCOD8110239
Probable space group: C 2/M
;
_chemical_formula_sum "Si O2"
_cell_formula_units_Z 32
_cell_length_a 5.202110
_cell_length_b 14.033414
_cell_length_c 20.166685
_cell_angle_alpha 90.000000
_cell_angle_beta 97.425752
_cell_angle_gamma 90.000000
_cell_volume 1459.888446
_symmetry_space_group_name_H-M "C 2/M"
_symmetry_group_IT_number 12
_symmetry_cell_setting 'monoclinic'
loop_
_space_group_symop_operation_xyz
x,y,z
-x,y,-z
-x,-y,-z
x,-y,z
1/2+x,1/2+y,z
1/2-x,1/2+y,-z
1/2-x,1/2-y,-z
1/2+x,1/2-y,z
loop_
_atom_site_type_symbol
_atom_site_label
_atom_site_fract_x
_atom_site_fract_y
_atom_site_fract_z
Si Si1 0.315431 0.688982 0.632305
Si Si2 0.109910 0.885880 0.218965
Si Si3 0.927456 0.609696 0.855601
Si Si4 0.000000 0.313384 0.000000
Si Si5 0.272601 0.500000 0.545102
O O1 0.555231 0.750400 0.613354
O O2 0.354667 0.663096 0.709727
O O3 0.295616 0.592708 0.590777
O O4 0.334760 0.846327 0.177997
O O5 0.844159 0.846356 0.177901
O O6 0.113638 0.000000 0.226318
O O7 0.918559 0.500000 0.837783
O O8 0.967472 0.620730 0.935059
O O9 0.750000 0.250000 0.000000
O O10 0.500000 0.500000 0.500000
O O11 0.000000 0.500000 0.500000
#
# Coordination Sequence:
#
# PCOD8110239 Si02
#       5
#     8   8   8   4   4
#     4  12  26  44  73 106 139 180 228 279 336 400
#     4  10  21  41  65  94 128 167 217 278 333 388
#     4  10  22  39  63  86 122 172 218 266 329 399
#     4  12  25  38  55  84 126 164 212 278 331 388
#     4  12  28  50  74 102 146 183 222 279 326 402
#
# _framework density 21.919481999999999
#
# number of rings (size 3 to 8) (size 9 to 14) (size 15 to 20)
#    0.000    1.000    1.250    4.875    0.000    9.000 
#    0.000    5.000    0.000    0.000    0.000    0.000 
#    0.000    0.000    0.000    0.000    0.000    0.000 
#
# Total GULP energy -198460.642859 kJ/mol
# GULP energy per Si atom -12403.790179 kJ/mol
# Density = 2.186959 g / cm^3
# Si number density = 21.919482 Si / 1000 Ang^3
#
#
#
# Elastic Constant Matrix: (Units=GPa)
#
#
# Indices 1 2 3 4 5 6 
#
# 1 235.1770 59.8374 81.6487 0.0000 9.7127 0.0000
# 2 59.8374 109.9398 60.4905 0.0000 -2.9372 0.0000
# 3 81.6487 60.4905 159.6196 0.0000 -7.0506 0.0000
# 4 0.0000 0.0000 0.0000 -96.3256 0.0000 9.6363
# 5 9.7127 -2.9372 -7.0506 0.0000 12.4795 0.0000
# 6 0.0000 0.0000 0.0000 9.6363 0.0000 -0.5281
#
#
#
# Elastic Compliance Matrix: (Units=1/GPa)
#
#
# Indices 1 2 3 4 5 6 
#
# 1 0.005916 -0.001984 -0.002562 0.000000 -0.006519 0.000000
# 2 -0.001984 0.012158 -0.003485 0.000000 0.002437 0.000000
# 3 -0.002562 -0.003485 0.009177 0.000000 0.006358 0.000000
# 4 0.000000 0.000000 0.000000 0.012575 0.000000 0.229473
# 5 -0.006519 0.002437 0.006358 0.000000 0.089371 0.000000
# 6 0.000000 0.000000 0.000000 0.229473 0.000000 2.293831
#
#
# Mechanical properties :
#
#
# Convention : Reuss Voigt Hill
#
# Bulk Modulus (GPa) = 89.37644 100.96551 95.17097
# Shear Modulus (GPa) = 2.04682 3.30916 2.67799
#
# Velocity S-wave (km/s) = 0.96738 1.23003 1.10652
# Velocity P-wave (km/s) = 6.48931 6.94113 6.71902
#
# Compressibility (1/GPa) = 0.01118863
#
# Stress axis : x y z
#
# Youngs Moduli (GPa) = 169.04317 82.24702 108.96876
#
# Poissons Ratio (x) = 0.16320 0.27917
# Poissons Ratio (y) = 0.33543 0.37976
# Poissons Ratio (z) = 0.43308 0.28663
#
# Static dielectric constant tensor:
#      x y z
#    x 4.820210 0.000000 0.083340 
#    y 0.000000 5.860640 0.000000 
#    z 0.083340 0.000000 4.077810 
# 
# 
# High freq. dielectric constant tensor:
#      x y z
#    x 1.884240 0.000000 0.001330 
#    y 0.000000 1.877790 0.000000 
#    z 0.001330 0.000000 1.870200 
# 
# From -- ./inp_files/252371.got.cif
#   From: 2010.06.25/outbox.cif.g09.slc.cpg/sg12_127_cif.got.tgz:252371.got - 2010.06.28 00:19:55.
