data_PCOD8110778
_publ_section_title
;
Structure prediction by ZEFSAII (Michael W. Deem and Ramdas Pophale) SiO2 
 PCOD8110778
Probable space group: C 2/M
;
_chemical_formula_sum "Si O2"
_cell_formula_units_Z 56
_cell_length_a 14.323140
_cell_length_b 28.873160
_cell_length_c 14.612582
_cell_angle_alpha 90.000000
_cell_angle_beta 151.122685
_cell_angle_gamma 90.000000
_cell_volume 2918.427094
_symmetry_space_group_name_H-M "C 2/M"
_symmetry_group_IT_number 12
_symmetry_cell_setting 'monoclinic'
loop_
_space_group_symop_operation_xyz
x,y,z
-x,y,-z
-x,-y,-z
x,-y,z
1/2+x,1/2+y,z
1/2-x,1/2+y,-z
1/2-x,1/2-y,-z
1/2+x,1/2-y,z
loop_
_atom_site_type_symbol
_atom_site_label
_atom_site_fract_x
_atom_site_fract_y
_atom_site_fract_z
Si Si1 0.376691 0.239445 0.986099
Si Si2 0.559745 0.362017 0.296273
Si Si3 0.463032 0.711628 0.569231
Si Si4 0.304987 0.178609 0.081744
Si Si5 0.915345 0.946053 0.568304
Si Si6 0.104327 0.687156 0.494634
Si Si7 0.796960 0.554015 0.794083
O O1 0.431080 0.198371 0.103673
O O2 0.500000 0.239223 0.000000
O O3 0.157176 0.234180 0.770433
O O4 0.371358 0.287522 0.036727
O O5 0.606361 0.329070 0.424267
O O6 0.621185 0.414463 0.374408
O O7 0.703525 0.344179 0.340681
O O8 0.332908 0.363524 0.070842
O O9 0.500000 0.690611 0.500000
O O10 0.327260 0.758212 0.453460
O O11 0.458919 0.167315 0.291888
O O12 0.742972 0.937319 0.347486
O O13 0.117357 0.927395 0.699108
O O14 0.923425 0.000000 0.603408
O O15 0.000000 0.678682 0.500000
O O16 0.807709 0.500000 0.823448
O O17 0.000000 0.577722 0.000000
#
# Coordination Sequence:
#
# PCOD8110778 Si02
#       7
#     8   8   8   8   8   8   8
#     4   9  18  32  52  73 107 146 173 216 263 308
#     4  11  22  34  55  77 109 143 175 229 268 315
#     4   9  20  32  49  79 107 142 180 207 263 323
#     4   9  21  35  49  79 105 137 187 215 263 323
#     4   9  19  34  52  80 110 141 183 222 269 329
#     4  10  22  38  55  77 103 145 186 228 267 318
#     4   8  15  31  54  76 107 147 178 211 263 328
#
# _framework density 19.188417999999999
#
# number of rings (size 3 to 8) (size 9 to 14) (size 15 to 20)
#    0.000    2.714    0.000    2.143   10.000    1.143 
#    0.000    2.857    0.000    0.429    0.000    1.000 
#    0.000    0.000    0.000    0.000    0.000    0.000 
#
# Total GULP energy -346907.870119 kJ/mol
# GULP energy per Si atom -12389.566790 kJ/mol
# Density = 1.914474 g / cm^3
# Si number density = 19.188418 Si / 1000 Ang^3
#
#
#
# Elastic Constant Matrix: (Units=GPa)
#
#
# Indices 1 2 3 4 5 6 
#
# 1 89.9018 21.5549 2.6880 0.0000 -4.6665 0.0001
# 2 21.5549 61.6419 10.2039 0.0000 -0.0386 0.0000
# 3 2.6880 10.2039 66.0036 -0.0001 -3.7807 0.0001
# 4 0.0000 0.0000 -0.0001 20.6164 -0.0001 -4.3448
# 5 -4.6665 -0.0386 -3.7807 -0.0001 25.3280 0.0001
# 6 0.0001 0.0000 0.0001 -4.3448 0.0001 18.4117
#
#
#
# Elastic Compliance Matrix: (Units=1/GPa)
#
#
# Indices 1 2 3 4 5 6 
#
# 1 0.012274 -0.004341 0.000303 0.000000 0.002300 0.000000
# 2 -0.004341 0.018187 -0.002702 0.000000 -0.001175 0.000000
# 3 0.000303 -0.002702 0.015693 0.000000 0.002394 0.000000
# 4 0.000000 0.000000 0.000000 0.051044 0.000000 0.012045
# 5 0.002300 -0.001175 0.002394 0.000000 0.040261 0.000000
# 6 0.000000 0.000000 0.000000 0.012045 0.000000 0.057156
#
#
# Mechanical properties :
#
#
# Convention : Reuss Voigt Hill
#
# Bulk Modulus (GPa) = 30.60476 31.82676 31.21576
# Shear Modulus (GPa) = 22.83236 25.07790 23.95513
#
# Velocity S-wave (km/s) = 3.45324 3.61907 3.53713
# Velocity P-wave (km/s) = 5.64660 5.83832 5.74326
#
# Compressibility (1/GPa) = 0.03267465
#
# Stress axis : x y z
#
# Youngs Moduli (GPa) = 81.47088 54.98377 63.72167
#
# Poissons Ratio (x) = 0.23867 -0.01930
# Poissons Ratio (y) = 0.35365 0.17219
# Poissons Ratio (z) = -0.02468 0.14858
#
# Static dielectric constant tensor:
#      x y z
#    x 3.133810 0.000000 0.056370 
#    y 0.000000 3.157000 0.000000 
#    z 0.056370 0.000000 3.848570 
# 
# 
# High freq. dielectric constant tensor:
#      x y z
#    x 1.729060 0.000000 -0.001820 
#    y 0.000000 1.697860 0.000000 
#    z -0.001820 0.000000 1.760030 
# 
# From -- ./inp_files/219147.got.cif
#   From: 2010.06.25/outbox.cif.g09.slc.cpg/sg12_110_cif.got.tgz:219147.got - 2010.06.28 00:19:55.
