data_PCOD8110078
_publ_section_title
;
Structure prediction by ZEFSAII (Michael W. Deem and Ramdas Pophale) SiO2 
 PCOD8110078
Probable space group: C 2/M
;
_chemical_formula_sum "Si O2"
_cell_formula_units_Z 48
_cell_length_a 8.732547
_cell_length_b 22.942907
_cell_length_c 14.971366
_cell_angle_alpha 90.000000
_cell_angle_beta 46.423597
_cell_angle_gamma 90.000000
_cell_volume 2173.014917
_symmetry_space_group_name_H-M "C 2/M"
_symmetry_group_IT_number 12
_symmetry_cell_setting 'monoclinic'
loop_
_space_group_symop_operation_xyz
x,y,z
-x,y,-z
-x,-y,-z
x,-y,z
1/2+x,1/2+y,z
1/2-x,1/2+y,-z
1/2-x,1/2-y,-z
1/2+x,1/2-y,z
loop_
_atom_site_type_symbol
_atom_site_label
_atom_site_fract_x
_atom_site_fract_y
_atom_site_fract_z
Si Si1 0.957714 0.779645 0.238185
Si Si2 0.119607 0.566597 0.158155
Si Si3 0.262283 0.876081 0.067180
Si Si4 0.612857 0.331603 0.541582
Si Si5 0.070388 0.673647 0.287605
Si Si6 0.859392 0.065013 0.709030
O O1 0.140930 0.814413 0.112453
O O2 0.014947 0.710469 0.218777
O O3 0.943163 0.794331 0.349200
O O4 0.738618 0.790553 0.277391
O O5 0.186848 0.500000 0.153920
O O6 0.166808 0.610647 0.221140
O O7 0.871508 0.570756 0.239960
O O8 0.251692 0.588894 0.019803
O O9 0.145849 0.916918 0.185488
O O10 0.500000 0.862160 0.000000
O O11 0.500000 0.302543 0.500000
O O12 0.522385 0.396572 0.587768
O O13 0.863696 0.335535 0.430654
O O14 0.946826 0.000000 0.667569
#
# Coordination Sequence:
#
# PCOD8110078 Si02
#       6
#     8   8   8   8   8   8
#     4  11  26  43  65  93 130 171 214 267 322 382
#     4  10  21  40  67  96 131 170 214 263 319 383
#     4   9  20  40  66  96 129 167 215 264 320 381
#     4  11  21  40  65  94 129 165 215 265 316 383
#     4  12  25  42  64  96 130 172 214 264 325 380
#     4   9  18  35  65  98 128 168 217 266 312 378
#
# _framework density 22.089124999999999
#
# number of rings (size 3 to 8) (size 9 to 14) (size 15 to 20)
#    0.000    1.667    1.667    2.500    4.667    4.333 
#    0.000    5.000    0.000    5.000    0.000    0.000 
#    0.000    0.000    0.000    0.000    0.000    0.000 
#
# Total GULP energy -297634.034404 kJ/mol
# GULP energy per Si atom -12401.418100 kJ/mol
# Density = 2.203885 g / cm^3
# Si number density = 22.089125 Si / 1000 Ang^3
#
#
#
# Elastic Constant Matrix: (Units=GPa)
#
#
# Indices 1 2 3 4 5 6 
#
# 1 75.9028 22.6738 35.0180 0.0000 2.6485 0.0000
# 2 22.6738 139.1034 49.9845 0.0000 -0.1482 0.0000
# 3 35.0180 49.9845 80.7283 0.0000 -9.1069 0.0000
# 4 0.0000 0.0000 0.0000 23.1169 0.0000 -4.3422
# 5 2.6485 -0.1482 -9.1069 0.0000 17.5932 0.0000
# 6 0.0000 0.0000 0.0000 -4.3422 0.0000 25.4713
#
#
#
# Elastic Compliance Matrix: (Units=1/GPa)
#
#
# Indices 1 2 3 4 5 6 
#
# 1 0.017220 0.000194 -0.008371 0.000000 -0.006924 0.000000
# 2 0.000194 0.009406 -0.006269 0.000000 -0.003195 0.000000
# 3 -0.008371 -0.006269 0.021278 0.000000 0.012222 0.000000
# 4 0.000000 0.000000 0.000000 0.044689 0.000000 0.007618
# 5 -0.006924 -0.003195 0.012222 0.000000 0.064182 0.000000
# 6 0.000000 0.000000 0.000000 0.007618 0.000000 0.040559
#
#
# Mechanical properties :
#
#
# Convention : Reuss Voigt Hill
#
# Bulk Modulus (GPa) = 52.59357 56.78745 54.69051
# Shear Modulus (GPa) = 21.49945 25.77350 23.63647
#
# Velocity S-wave (km/s) = 3.12317 3.41954 3.27471
# Velocity P-wave (km/s) = 6.07182 6.43080 6.25388
#
# Compressibility (1/GPa) = 0.01901373
#
# Stress axis : x y z
#
# Youngs Moduli (GPa) = 58.07083 106.31018 46.99638
#
# Poissons Ratio (x) = -0.02058 0.39339
# Poissons Ratio (y) = -0.01124 0.29460
# Poissons Ratio (z) = 0.48609 0.66641
#
# Static dielectric constant tensor:
#      x y z
#    x 3.734840 0.000000 0.029630 
#    y 0.000000 4.212330 0.000000 
#    z 0.029630 0.000000 3.988650 
# 
# 
# High freq. dielectric constant tensor:
#      x y z
#    x 1.849360 0.000000 -0.000460 
#    y 0.000000 1.876810 0.000000 
#    z -0.000460 0.000000 1.873700 
# 
# From -- ./inp_files/200132.got.cif
#   From: 2010.06.25/outbox.cif.g09.slc.cpg/sg12_101_cif.got.tgz:200132.got - 2010.06.28 00:19:55.
