data_PCOD8110176
_publ_section_title
;
Structure prediction by ZEFSAII (Michael W. Deem and Ramdas Pophale) SiO2 
 PCOD8110176
Probable space group: C 2/M
;
_chemical_formula_sum "Si O2"
_cell_formula_units_Z 36
_cell_length_a 12.879560
_cell_length_b 27.625285
_cell_length_c 5.008315
_cell_angle_alpha 90.000000
_cell_angle_beta 75.354907
_cell_angle_gamma 90.000000
_cell_volume 1724.070858
_symmetry_space_group_name_H-M "C 2/M"
_symmetry_group_IT_number 12
_symmetry_cell_setting 'monoclinic'
loop_
_space_group_symop_operation_xyz
x,y,z
-x,y,-z
-x,-y,-z
x,-y,z
1/2+x,1/2+y,z
1/2-x,1/2+y,-z
1/2-x,1/2-y,-z
1/2+x,1/2-y,z
loop_
_atom_site_type_symbol
_atom_site_label
_atom_site_fract_x
_atom_site_fract_y
_atom_site_fract_z
Si Si1 0.301236 0.189704 0.724224
Si Si2 0.752021 0.418715 0.824132
Si Si3 0.076626 0.500000 0.202474
Si Si4 0.621445 0.555459 0.393933
Si Si5 0.615581 0.760332 0.819322
O O1 0.298396 0.132278 0.697285
O O2 0.388765 0.210943 0.458787
O O3 0.184063 0.211535 0.732937
O O4 0.330893 0.203332 0.005383
O O5 0.850882 0.452316 0.842783
O O6 0.682769 0.441976 0.633605
O O7 0.677778 0.411659 0.132961
O O8 0.000000 0.500000 0.500000
O O9 0.000000 0.500000 0.000000
O O10 0.500000 0.574461 0.500000
O O11 0.622635 0.500000 0.292396
O O12 0.500000 0.744219 0.000000
#
# Coordination Sequence:
#
# PCOD8110176 Si02
#       5
#     8   8   4   8   8
#     4  10  23  39  63  94 121 163 208 253 315 374
#     4  12  23  43  63  91 132 164 212 264 305 370
#     4  12  26  42  61  88 125 174 216 256 300 354
#     4  11  22  39  64  92 123 165 206 254 320 375
#     4  10  21  41  63  89 126 158 202 262 315 373
#
# _framework density 20.880811000000001
#
# number of rings (size 3 to 8) (size 9 to 14) (size 15 to 20)
#    0.000    1.111    2.222    4.000    0.000    6.222 
#    0.000    0.000    0.000    0.000    0.000    0.000 
#    0.000    0.000    0.000    0.000    0.000    0.000 
#
# Total GULP energy -223305.366979 kJ/mol
# GULP energy per Si atom -12405.853721 kJ/mol
# Density = 2.083329 g / cm^3
# Si number density = 20.880811 Si / 1000 Ang^3
#
#
#
# Elastic Constant Matrix: (Units=GPa)
#
#
# Indices 1 2 3 4 5 6 
#
# 1 105.8409 33.3649 44.3524 0.0000 -5.2544 0.0000
# 2 33.3649 118.4234 22.4819 0.0000 -6.0504 0.0000
# 3 44.3524 22.4819 141.5921 0.0000 -8.1857 0.0000
# 4 0.0000 0.0000 0.0000 26.9218 0.0000 1.6318
# 5 -5.2544 -6.0504 -8.1857 0.0000 44.8549 0.0000
# 6 0.0000 0.0000 0.0000 1.6318 0.0000 11.3836
#
#
#
# Elastic Compliance Matrix: (Units=1/GPa)
#
#
# Indices 1 2 3 4 5 6 
#
# 1 0.011647 -0.002652 -0.003203 0.000000 0.000422 0.000000
# 2 -0.002652 0.009349 -0.000605 0.000000 0.000840 0.000000
# 3 -0.003203 -0.000605 0.008222 0.000000 0.001044 0.000000
# 4 0.000000 0.000000 0.000000 0.037470 0.000000 -0.005371
# 5 0.000422 0.000840 0.001044 0.000000 0.022647 0.000000
# 6 0.000000 0.000000 0.000000 -0.005371 0.000000 0.088615
#
#
# Mechanical properties :
#
#
# Convention : Reuss Voigt Hill
#
# Bulk Modulus (GPa) = 61.35471 62.91721 62.13596
# Shear Modulus (GPa) = 25.47061 34.34254 29.90658
#
# Velocity S-wave (km/s) = 3.49637 4.05988 3.78862
# Velocity P-wave (km/s) = 6.76362 7.22315 6.99716
#
# Compressibility (1/GPa) = 0.01629867
#
# Stress axis : x y z
#
# Youngs Moduli (GPa) = 85.85717 106.96049 121.62106
#
# Poissons Ratio (x) = 0.28365 0.38954
# Poissons Ratio (y) = 0.22768 0.07361
# Poissons Ratio (z) = 0.27499 0.06474
#
# Static dielectric constant tensor:
#      x y z
#    x 3.805220 0.000000 -0.048950 
#    y 0.000000 3.526950 0.000000 
#    z -0.048950 0.000000 3.938300 
# 
# 
# High freq. dielectric constant tensor:
#      x y z
#    x 1.820860 0.000000 0.000840 
#    y 0.000000 1.803120 0.000000 
#    z 0.000840 0.000000 1.839670 
# 
# From -- ./inp_files/7499.got.cif
#   From: 2010.06.25/outbox.cif.g09.slc.cpg/sg12_4_cif.got.tgz:7499.got - 2010.06.28 00:19:55.
