data_PCOD8110133
_publ_section_title
;
Structure prediction by ZEFSAII (Michael W. Deem and Ramdas Pophale) SiO2 
 PCOD8110133
Probable space group: C 2/M
;
_chemical_formula_sum "Si O2"
_cell_formula_units_Z 44
_cell_length_a 8.891293
_cell_length_b 26.312619
_cell_length_c 10.841538
_cell_angle_alpha 90.000000
_cell_angle_beta 118.086855
_cell_angle_gamma 90.000000
_cell_volume 2237.711695
_symmetry_space_group_name_H-M "C 2/M"
_symmetry_group_IT_number 12
_symmetry_cell_setting 'monoclinic'
loop_
_space_group_symop_operation_xyz
x,y,z
-x,y,-z
-x,-y,-z
x,-y,z
1/2+x,1/2+y,z
1/2-x,1/2+y,-z
1/2-x,1/2-y,-z
1/2+x,1/2-y,z
loop_
_atom_site_type_symbol
_atom_site_label
_atom_site_fract_x
_atom_site_fract_y
_atom_site_fract_z
Si Si1 0.933929 0.215035 0.339213
Si Si2 0.171873 0.360280 0.132904
Si Si3 0.522851 0.942203 0.255357
Si Si4 0.500000 0.107068 0.500000
Si Si5 0.316453 0.394147 0.943762
Si Si6 0.244246 0.182953 0.288639
O O1 0.761899 0.183906 0.244803
O O2 0.883895 0.273983 0.314010
O O3 0.000000 0.199862 0.500000
O O4 0.081445 0.205372 0.296580
O O5 0.131651 0.406522 0.208375
O O6 0.301896 0.380066 0.081156
O O7 0.000000 0.339608 0.000000
O O8 0.558516 0.928539 0.410445
O O9 0.323071 0.935027 0.150583
O O10 0.576319 0.000000 0.250155
O O11 0.334893 0.140669 0.406835
O O12 0.308673 0.342110 0.861300
O O13 0.500000 0.420408 0.000000
#
# Coordination Sequence:
#
# PCOD8110133 Si02
#       6
#     8   8   8   4   8   8
#     4  12  24  38  62  92 127 172 213 256 304 371
#     4  10  23  40  63  89 129 165 212 257 313 362
#     4  10  22  40  68  92 118 163 212 259 317 377
#     4  10  21  42  64  92 132 160 201 262 316 380
#     4  10  21  41  58  89 126 163 203 263 310 368
#     4  11  24  37  63  90 127 167 215 247 312 370
#
# _framework density 19.662944
#
# number of rings (size 3 to 8) (size 9 to 14) (size 15 to 20)
#    0.000    1.455    2.727    1.909    7.636    5.091 
#    0.000    0.000    0.000    1.636    0.000    0.000 
#    0.000    0.000    0.000    0.000    0.000    0.000 
#
# Total GULP energy -272862.674384 kJ/mol
# GULP energy per Si atom -12402.848836 kJ/mol
# Density = 1.961819 g / cm^3
# Si number density = 19.662944 Si / 1000 Ang^3
#
#
#
# Elastic Constant Matrix: (Units=GPa)
#
#
# Indices 1 2 3 4 5 6 
#
# 1 95.2864 15.4248 29.3270 0.0000 -12.6808 0.0000
# 2 15.4248 85.4680 38.7718 0.0000 -3.4668 0.0000
# 3 29.3270 38.7718 114.3692 0.0000 -15.2697 0.0000
# 4 0.0000 0.0000 0.0000 19.6907 0.0000 -0.5422
# 5 -12.6808 -3.4668 -15.2697 0.0000 33.9526 0.0000
# 6 0.0000 0.0000 0.0000 -0.5422 0.0000 20.5552
#
#
#
# Elastic Compliance Matrix: (Units=1/GPa)
#
#
# Indices 1 2 3 4 5 6 
#
# 1 0.011783 -0.000971 -0.002253 0.000000 0.003288 0.000000
# 2 -0.000971 0.013924 -0.004607 0.000000 -0.001013 0.000000
# 3 -0.002253 -0.004607 0.011392 0.000000 0.003811 0.000000
# 4 0.000000 0.000000 0.000000 0.050822 0.000000 0.001341
# 5 0.003288 -0.001013 0.003811 0.000000 0.032292 0.000000
# 6 0.000000 0.000000 0.000000 0.001341 0.000000 0.048685
#
#
# Mechanical properties :
#
#
# Convention : Reuss Voigt Hill
#
# Bulk Modulus (GPa) = 46.64737 51.35233 48.99985
# Shear Modulus (GPa) = 26.08170 28.94637 27.51404
#
# Velocity S-wave (km/s) = 3.64598 3.84099 3.74476
# Velocity P-wave (km/s) = 6.44199 6.77082 6.60845
#
# Compressibility (1/GPa) = 0.02143744
#
# Stress axis : x y z
#
# Youngs Moduli (GPa) = 84.86837 71.81748 87.78142
#
# Poissons Ratio (x) = 0.06973 0.19779
# Poissons Ratio (y) = 0.08241 0.40437
# Poissons Ratio (z) = 0.19123 0.33083
#
# Static dielectric constant tensor:
#      x y z
#    x 3.626330 0.000000 -0.020740 
#    y 0.000000 3.352140 0.000000 
#    z -0.020740 0.000000 3.807080 
# 
# 
# High freq. dielectric constant tensor:
#      x y z
#    x 1.774210 0.000000 -0.005670 
#    y 0.000000 1.748810 0.000000 
#    z -0.005670 0.000000 1.781610 
# 
# From -- ./inp_files/122119.got.cif
#   From: 2010.06.25/outbox.cif.g09.slc.cpg/sg12_62_cif.got.tgz:122119.got - 2010.06.28 00:19:55.
