data_PCOD8110195
_publ_section_title
;
Structure prediction by ZEFSAII (Michael W. Deem and Ramdas Pophale) SiO2 
 PCOD8110195
Probable space group: C 2/M
;
_chemical_formula_sum "Si O2"
_cell_formula_units_Z 56
_cell_length_a 21.704447
_cell_length_b 8.924372
_cell_length_c 14.493196
_cell_angle_alpha 90.000000
_cell_angle_beta 69.499919
_cell_angle_gamma 90.000000
_cell_volume 2629.528921
_symmetry_space_group_name_H-M "C 2/M"
_symmetry_group_IT_number 12
_symmetry_cell_setting 'monoclinic'
loop_
_space_group_symop_operation_xyz
x,y,z
-x,y,-z
-x,-y,-z
x,-y,z
1/2+x,1/2+y,z
1/2-x,1/2+y,-z
1/2-x,1/2-y,-z
1/2+x,1/2-y,z
loop_
_atom_site_type_symbol
_atom_site_label
_atom_site_fract_x
_atom_site_fract_y
_atom_site_fract_z
Si Si1 0.046390 0.322757 0.559691
Si Si2 0.770169 0.825788 0.751071
Si Si3 0.437329 0.165286 0.937953
Si Si4 0.300919 0.166866 0.909614
Si Si5 0.198124 0.322135 0.456792
Si Si6 0.032123 0.174185 0.755720
Si Si7 0.120704 0.671414 0.838825
O O1 0.042542 0.500000 0.567097
O O2 0.122495 0.269383 0.512156
O O3 0.015469 0.256208 0.669013
O O4 0.000000 0.264930 0.500000
O O5 0.815377 0.760539 0.808831
O O6 0.782334 0.730481 0.654269
O O7 0.695946 0.798633 0.825509
O O8 0.786080 0.000000 0.724889
O O9 0.366503 0.153832 0.931916
O O10 0.478310 0.287787 0.861342
O O11 0.471040 0.000000 0.913667
O O12 0.428224 0.211110 0.050335
O O13 0.274917 0.000000 0.898577
O O14 0.250000 0.250000 0.000000
O O15 0.203749 0.500000 0.462551
O O16 0.250000 0.250000 0.500000
O O17 0.102157 0.228197 0.759898
O O18 0.033850 0.000000 0.734820
O O19 0.112405 0.500000 0.812795
#
# Coordination Sequence:
#
# PCOD8110195 Si02
#       7
#     8   8   8   8   8   8   8
#     4  10  24  47  70  90 121 169 220 263 315 391
#     4  11  23  40  64  95 129 166 208 257 315 378
#     4  10  22  41  63  87 123 171 214 247 299 379
#     4  11  22  39  62  91 126 166 210 257 309 372
#     4  11  24  43  68  99 128 166 216 270 327 386
#     4  12  26  40  61  95 127 158 204 265 321 364
#     4  10  21  41  64  89 124 171 212 245 299 378
#
# _framework density 21.296592
#
# number of rings (size 3 to 8) (size 9 to 14) (size 15 to 20)
#    0.000    1.286    1.429    3.857    2.000    9.429 
#    0.000    0.000    0.000    0.000    0.000    0.000 
#    0.000    0.000    0.000    0.000    0.000    0.000 
#
# Total GULP energy -347224.996404 kJ/mol
# GULP energy per Si atom -12400.892729 kJ/mol
# Density = 2.124812 g / cm^3
# Si number density = 21.296592 Si / 1000 Ang^3
#
#
#
# Elastic Constant Matrix: (Units=GPa)
#
#
# Indices 1 2 3 4 5 6 
#
# 1 88.7201 38.8321 30.0862 0.0000 14.6113 0.0000
# 2 38.8321 63.1540 30.4202 0.0000 3.2835 0.0000
# 3 30.0862 30.4202 107.5866 0.0000 20.5366 0.0000
# 4 0.0000 0.0000 0.0000 36.8990 0.0000 0.6448
# 5 14.6113 3.2835 20.5366 0.0000 42.5610 0.0000
# 6 0.0000 0.0000 0.0000 0.6448 0.0000 26.3221
#
#
#
# Elastic Compliance Matrix: (Units=1/GPa)
#
#
# Indices 1 2 3 4 5 6 
#
# 1 0.016472 -0.009359 -0.001122 0.000000 -0.004392 0.000000
# 2 -0.009359 0.023705 -0.004791 0.000000 0.003696 0.000000
# 3 -0.001122 -0.004791 0.011917 0.000000 -0.004995 0.000000
# 4 0.000000 0.000000 0.000000 0.027113 0.000000 -0.000664
# 5 -0.004392 0.003696 -0.004995 0.000000 0.027129 0.000000
# 6 0.000000 0.000000 0.000000 -0.000664 0.000000 0.038007
#
#
# Mechanical properties :
#
#
# Convention : Reuss Voigt Hill
#
# Bulk Modulus (GPa) = 46.40493 50.90418 48.65455
# Shear Modulus (GPa) = 27.46232 31.83122 29.64677
#
# Velocity S-wave (km/s) = 3.59488 3.87028 3.73512
# Velocity P-wave (km/s) = 6.25044 6.62771 6.44184
#
# Compressibility (1/GPa) = 0.02154943
#
# Stress axis : x y z
#
# Youngs Moduli (GPa) = 60.71088 42.18581 83.91661
#
# Poissons Ratio (x) = 0.39484 0.09412
# Poissons Ratio (y) = 0.56822 0.40202
# Poissons Ratio (z) = 0.06809 0.20210
#
# Static dielectric constant tensor:
#      x y z
#    x 6.960270 0.000000 0.815730 
#    y 0.000000 4.286770 0.000000 
#    z 0.815730 0.000000 3.788750 
# 
# 
# High freq. dielectric constant tensor:
#      x y z
#    x 1.851030 0.000000 0.009940 
#    y 0.000000 1.827770 0.000000 
#    z 0.009940 0.000000 1.841960 
# 
# From -- ./inp_files/238237.got.cif
#   From: 2010.06.25/outbox.cif.g09.slc.cpg/sg12_120_cif.got.tgz:238237.got - 2010.06.28 00:19:55.
