data_PCOD8110947
_publ_section_title
;
Structure prediction by ZEFSAII (Michael W. Deem and Ramdas Pophale) SiO2 
 PCOD8110947
Probable space group: C 2/M
;
_chemical_formula_sum "Si O2"
_cell_formula_units_Z 48
_cell_length_a 22.984131
_cell_length_b 18.849136
_cell_length_c 13.498955
_cell_angle_alpha 90.000000
_cell_angle_beta 21.535196
_cell_angle_gamma 90.000000
_cell_volume 2146.702056
_symmetry_space_group_name_H-M "C 2/M"
_symmetry_group_IT_number 12
_symmetry_cell_setting 'monoclinic'
loop_
_space_group_symop_operation_xyz
x,y,z
-x,y,-z
-x,-y,-z
x,-y,z
1/2+x,1/2+y,z
1/2-x,1/2+y,-z
1/2-x,1/2-y,-z
1/2+x,1/2-y,z
loop_
_atom_site_type_symbol
_atom_site_label
_atom_site_fract_x
_atom_site_fract_y
_atom_site_fract_z
Si Si1 0.162023 0.421214 0.300319
Si Si2 0.115144 0.583767 0.595717
Si Si3 0.865335 0.918316 0.360055
Si Si4 0.607752 0.285676 0.422240
Si Si5 0.224234 0.580497 0.796679
Si Si6 0.394321 0.687173 0.935007
O O1 0.233480 0.500000 0.191908
O O2 0.136414 0.387453 0.450364
O O3 0.000000 0.420565 0.500000
O O4 0.287097 0.371024 0.045505
O O5 0.105469 0.500000 0.607094
O O6 0.262546 0.607705 0.429407
O O7 0.950851 0.610774 0.903336
O O8 0.752505 0.915264 0.634470
O O9 0.008114 0.861072 0.140232
O O10 0.927944 0.000000 0.246470
O O11 0.500000 0.261215 0.500000
O O12 0.649171 0.369237 0.348026
O O13 0.507441 0.271318 0.680612
O O14 0.772168 0.243213 0.175693
O O15 0.247393 0.500000 0.799144
#
# Coordination Sequence:
#
# PCOD8110947 Si02
#       6
#     8   8   8   8   8   8
#     4  10  22  38  62  94 127 163 208 258 308 366
#     4   9  18  34  63  95 125 163 201 253 317 368
#     4   9  18  37  64  93 123 161 209 257 309 367
#     4  11  25  41  64  88 123 171 212 253 314 373
#     4   9  19  36  62  95 126 157 203 259 312 371
#     4  11  24  41  62  89 123 168 207 262 305 366
#
# _framework density 22.359878999999999
#
# number of rings (size 3 to 8) (size 9 to 14) (size 15 to 20)
#    0.000    2.167    0.000    2.000    4.667    3.667 
#    0.000    3.333    7.333    0.000    0.000    0.000 
#    0.000    0.000    0.000    0.000    0.000    0.000 
#
# Total GULP energy -297460.327537 kJ/mol
# GULP energy per Si atom -12394.180314 kJ/mol
# Density = 2.230899 g / cm^3
# Si number density = 22.359879 Si / 1000 Ang^3
#
#
#
# Elastic Constant Matrix: (Units=GPa)
#
#
# Indices 1 2 3 4 5 6 
#
# 1 92.4748 26.1223 39.5842 -0.0012 -6.8831 -0.0010
# 2 26.1223 85.6816 54.5686 0.0107 4.1579 -0.0004
# 3 39.5842 54.5686 134.4009 0.0176 1.2729 0.0014
# 4 -0.0012 0.0107 0.0176 49.0887 0.0028 -7.5684
# 5 -6.8831 4.1579 1.2729 0.0028 24.3635 -0.0018
# 6 -0.0010 -0.0004 0.0014 -7.5684 -0.0018 8.7150
#
#
#
# Elastic Compliance Matrix: (Units=1/GPa)
#
#
# Indices 1 2 3 4 5 6 
#
# 1 0.013040 -0.002306 -0.002945 0.000002 0.004231 0.000005
# 2 -0.002306 0.016285 -0.005903 -0.000001 -0.003122 0.000000
# 3 -0.002945 -0.005903 0.010708 -0.000003 -0.000384 -0.000005
# 4 0.000002 -0.000001 -0.000003 0.023521 0.000000 0.020426
# 5 0.004231 -0.003122 -0.000384 0.000000 0.042793 0.000009
# 6 0.000005 0.000000 -0.000005 0.020426 0.000009 0.132484
#
#
# Mechanical properties :
#
#
# Convention : Reuss Voigt Hill
#
# Bulk Modulus (GPa) = 56.41280 61.45641 58.93460
# Shear Modulus (GPa) = 18.72320 29.25224 23.98772
#
# Velocity S-wave (km/s) = 2.89685 3.62089 3.27892
# Velocity P-wave (km/s) = 6.03931 6.71014 6.38354
#
# Compressibility (1/GPa) = 0.01772647
#
# Stress axis : x y z
#
# Youngs Moduli (GPa) = 76.68418 61.40492 93.38630
#
# Poissons Ratio (x) = 0.14158 0.27499
# Poissons Ratio (y) = 0.17681 0.55130
# Poissons Ratio (z) = 0.22581 0.36250
#
# Static dielectric constant tensor:
#      x y z
#    x 3.861440 -0.000010 0.060580 
#    y -0.000010 4.179910 0.000020 
#    z 0.060580 0.000020 4.242600 
# 
# 
# High freq. dielectric constant tensor:
#      x y z
#    x 1.854510 0.000000 -0.003000 
#    y 0.000000 1.879020 0.000000 
#    z -0.003000 0.000000 1.895800 
# 
# From -- ./inp_files/131083.got.cif
#   From: 2010.06.25/outbox.cif.g09.slc.cpg/sg12_66_cif.got.tgz:131083.got - 2010.06.28 00:19:55.
