data_PCOD8110016
_publ_section_title
;
Structure prediction by ZEFSAII (Michael W. Deem and Ramdas Pophale) SiO2 
 PCOD8110016
Probable space group: C 2/M
;
_chemical_formula_sum "Si O2"
_cell_formula_units_Z 64
_cell_length_a 19.569342
_cell_length_b 8.549496
_cell_length_c 31.500445
_cell_angle_alpha 90.000000
_cell_angle_beta 37.135700
_cell_angle_gamma 90.000000
_cell_volume 3181.691568
_symmetry_space_group_name_H-M "C 2/M"
_symmetry_group_IT_number 12
_symmetry_cell_setting 'monoclinic'
loop_
_space_group_symop_operation_xyz
x,y,z
-x,y,-z
-x,-y,-z
x,-y,z
1/2+x,1/2+y,z
1/2-x,1/2+y,-z
1/2-x,1/2-y,-z
1/2+x,1/2-y,z
loop_
_atom_site_type_symbol
_atom_site_label
_atom_site_fract_x
_atom_site_fract_y
_atom_site_fract_z
Si Si1 0.776554 0.183423 0.372129
Si Si2 0.732907 0.685956 0.717906
Si Si3 0.344087 0.813386 0.485108
Si Si4 0.562083 0.682016 0.335537
Si Si5 0.326125 0.684804 0.880421
Si Si6 0.575818 0.685575 0.002685
Si Si7 0.981251 0.681107 0.731696
Si Si8 0.990007 0.184409 0.872116
O O1 0.742712 0.241544 0.342250
O O2 0.689538 0.244772 0.450918
O O3 0.903110 0.229004 0.319883
O O4 0.773424 0.000000 0.374262
O O5 0.750530 0.500000 0.715570
O O6 0.816974 0.787538 0.703975
O O7 0.607123 0.740444 0.793293
O O8 0.250000 0.750000 0.500000
O O9 0.464515 0.737736 0.415770
O O10 0.351507 0.000000 0.477648
O O11 0.546218 0.500000 0.332485
O O12 0.562761 0.786011 0.293361
O O13 0.338382 0.500000 0.870408
O O14 0.196605 0.733007 0.941681
O O15 0.387406 0.762765 0.810668
O O16 0.385075 0.745285 0.895062
O O17 0.592800 0.500000 0.993223
O O18 0.500000 0.740085 0.000000
O O19 0.518090 0.743809 0.075228
O O20 0.004382 0.500000 0.726696
O O21 0.986424 0.000000 0.874306
#
# Coordination Sequence:
#
# PCOD8110016 Si02
#       8
#     8   8   8   8   8   8   8   8
#     4  10  21  40  66  92 124 161 206 261 313 372
#     4  10  21  41  65  90 124 167 210 254 314 374
#     4  11  22  38  63  93 123 164 210 259 315 372
#     4  12  26  42  60  90 129 166 207 260 315 371
#     4  11  22  40  64  90 123 164 209 257 311 368
#     4  10  22  39  60  92 128 164 209 254 303 365
#     4  12  24  39  64  93 122 160 210 262 314 375
#     4   9  19  38  64  89 122 166 205 250 306 368
#
# _framework density 20.115086000000002
#
# number of rings (size 3 to 8) (size 9 to 14) (size 15 to 20)
#    0.000    1.375    2.500    3.375    1.750    1.750 
#    0.000    3.750    0.000    0.000    0.000    0.000 
#    0.000    0.000    0.000    0.000    0.000    0.000 
#
# Total GULP energy -396808.711234 kJ/mol
# GULP energy per Si atom -12400.272226 kJ/mol
# Density = 2.006930 g / cm^3
# Si number density = 20.115086 Si / 1000 Ang^3
#
#
#
# Elastic Constant Matrix: (Units=GPa)
#
#
# Indices 1 2 3 4 5 6 
#
# 1 169.8785 30.6924 77.7326 -0.0540 9.0634 0.0683
# 2 30.6924 65.9102 47.6811 0.1006 -7.7089 -0.2415
# 3 77.7326 47.6811 147.1855 -0.0163 14.1293 -0.0218
# 4 -0.0540 0.1006 -0.0163 24.8131 -0.0180 -10.4692
# 5 9.0634 -7.7089 14.1293 -0.0180 44.8902 0.0098
# 6 0.0683 -0.2415 -0.0218 -10.4692 0.0098 26.3760
#
#
#
# Elastic Compliance Matrix: (Units=1/GPa)
#
#
# Indices 1 2 3 4 5 6 
#
# 1 0.007812 -0.000991 -0.003750 0.000005 -0.000567 -0.000030
# 2 -0.000991 0.021405 -0.006994 -0.000010 0.006077 0.000186
# 3 -0.003750 -0.006994 0.011428 0.000008 -0.004041 -0.000040
# 4 0.000005 -0.000010 0.000008 0.048408 0.000010 0.019214
# 5 -0.000567 0.006077 -0.004041 0.000010 0.024707 0.000048
# 6 -0.000030 0.000186 -0.000040 0.019214 0.000048 0.045542
#
#
# Mechanical properties :
#
#
# Convention : Reuss Voigt Hill
#
# Bulk Modulus (GPa) = 58.22651 77.24294 67.73473
# Shear Modulus (GPa) = 26.52557 34.34038 30.43297
#
# Velocity S-wave (km/s) = 3.63532 4.13630 3.89388
# Velocity P-wave (km/s) = 6.82863 7.82917 7.34596
#
# Compressibility (1/GPa) = 0.01717431
#
# Stress axis : x y z
#
# Youngs Moduli (GPa) = 128.00991 46.71818 87.50183
#
# Poissons Ratio (x) = 0.04631 0.32814
# Poissons Ratio (y) = 0.12690 0.61199
# Poissons Ratio (z) = 0.48005 0.32675
#
# Static dielectric constant tensor:
#      x y z
#    x 3.884790 -0.000190 0.339920 
#    y -0.000190 3.543920 -0.000030 
#    z 0.339920 -0.000030 4.197660 
# 
# 
# High freq. dielectric constant tensor:
#      x y z
#    x 1.795030 -0.000010 0.007760 
#    y -0.000010 1.771330 0.000000 
#    z 0.007760 0.000000 1.800790 
# 
# From -- ./inp_files/378063.got.cif
#   From: 2010.06.25/outbox.cif.g09.slc.cpg/sg12_190_cif.got.tgz:378063.got - 2010.06.28 00:19:55.
