data_PCOD8110450
_publ_section_title
;
Structure prediction by ZEFSAII (Michael W. Deem and Ramdas Pophale) SiO2 
 PCOD8110450
Probable space group: C 2/M
;
_chemical_formula_sum "Si O2"
_cell_formula_units_Z 48
_cell_length_a 9.249484
_cell_length_b 18.691172
_cell_length_c 19.751823
_cell_angle_alpha 90.000000
_cell_angle_beta 137.668985
_cell_angle_gamma 90.000000
_cell_volume 2299.548552
_symmetry_space_group_name_H-M "C 2/M"
_symmetry_group_IT_number 12
_symmetry_cell_setting 'monoclinic'
loop_
_space_group_symop_operation_xyz
x,y,z
-x,y,-z
-x,-y,-z
x,-y,z
1/2+x,1/2+y,z
1/2-x,1/2+y,-z
1/2-x,1/2-y,-z
1/2+x,1/2-y,z
loop_
_atom_site_type_symbol
_atom_site_label
_atom_site_fract_x
_atom_site_fract_y
_atom_site_fract_z
Si Si1 0.111086 0.329442 0.222849
Si Si2 0.975044 0.919849 0.822452
Si Si3 0.640750 0.188715 0.733629
Si Si4 0.138185 0.680075 0.486519
Si Si5 0.781048 0.080964 0.964413
Si Si6 0.497587 0.584112 0.674904
O O1 0.038526 0.301955 0.271061
O O2 0.901702 0.359779 0.112185
O O3 0.230902 0.263150 0.228650
O O4 0.285117 0.392790 0.287914
O O5 0.013981 0.890745 0.759566
O O6 0.809328 0.872922 0.808838
O O7 0.883573 0.000000 0.786316
O O8 0.187187 0.917128 0.942757
O O9 0.522980 0.155311 0.627520
O O10 0.250000 0.750000 0.500000
O O11 0.297536 0.617907 0.565833
O O12 0.000000 0.707851 0.500000
O O13 0.708120 0.000000 0.918478
O O14 0.000000 0.100204 0.000000
O O15 0.470717 0.500000 0.660109
#
# Coordination Sequence:
#
# PCOD8110450 Si02
#       6
#     8   8   8   8   8   8
#     4  12  25  43  67  98 137 176 225 276 330 396
#     4  10  22  43  68  98 131 171 221 269 332 397
#     4  12  24  41  68  97 132 180 218 273 337 388
#     4  12  24  43  70  95 131 177 220 268 329 400
#     4  10  21  42  70  98 132 177 221 272 334 396
#     4  11  25  44  68 101 134 172 224 279 328 391
#
# _framework density 20.873661999999999
#
# number of rings (size 3 to 8) (size 9 to 14) (size 15 to 20)
#    0.000    0.833    5.000    2.500    0.000    3.000 
#    0.000    3.333    0.000    0.000    0.000    0.000 
#    0.000    0.000    0.000    0.000    0.000    0.000 
#
# Total GULP energy -297475.464407 kJ/mol
# GULP energy per Si atom -12394.811017 kJ/mol
# Density = 2.082615 g / cm^3
# Si number density = 20.873662 Si / 1000 Ang^3
#
#
#
# Elastic Constant Matrix: (Units=GPa)
#
#
# Indices 1 2 3 4 5 6 
#
# 1 133.2439 62.4636 45.2176 0.0000 7.5260 0.0000
# 2 62.4636 110.4703 61.4474 0.0001 4.1192 0.0000
# 3 45.2176 61.4474 129.8859 -0.0001 -0.8244 0.0000
# 4 0.0000 0.0001 -0.0001 30.7812 0.0001 3.7346
# 5 7.5260 4.1192 -0.8244 0.0001 32.2643 0.0001
# 6 0.0000 0.0000 0.0000 3.7346 0.0001 29.7248
#
#
#
# Elastic Compliance Matrix: (Units=1/GPa)
#
#
# Indices 1 2 3 4 5 6 
#
# 1 0.010436 -0.005166 -0.001201 0.000000 -0.001806 0.000000
# 2 -0.005166 0.014938 -0.005274 0.000000 -0.000837 0.000000
# 3 -0.001201 -0.005274 0.010620 0.000000 0.001225 0.000000
# 4 0.000000 0.000000 0.000000 0.032990 0.000000 -0.004145
# 5 -0.001806 -0.000837 0.001225 0.000000 0.031553 0.000000
# 6 0.000000 0.000000 0.000000 -0.004145 0.000000 0.034163
#
#
# Mechanical properties :
#
#
# Convention : Reuss Voigt Hill
#
# Bulk Modulus (GPa) = 78.65894 79.09526 78.87710
# Shear Modulus (GPa) = 30.82261 32.18547 31.50404
#
# Velocity S-wave (km/s) = 3.84686 3.93099 3.88915
# Velocity P-wave (km/s) = 7.58263 7.65364 7.61822
#
# Compressibility (1/GPa) = 0.01271311
#
# Stress axis : x y z
#
# Youngs Moduli (GPa) = 95.82074 66.94440 94.16317
#
# Poissons Ratio (x) = 0.34581 0.11307
# Poissons Ratio (y) = 0.49498 0.49660
# Poissons Ratio (z) = 0.11506 0.35305
#
# Static dielectric constant tensor:
#      x y z
#    x 3.950920 0.000000 -0.045320 
#    y 0.000000 3.471240 0.000000 
#    z -0.045320 0.000000 4.117700 
# 
# 
# High freq. dielectric constant tensor:
#      x y z
#    x 1.822420 0.000000 -0.002810 
#    y 0.000000 1.820200 0.000000 
#    z -0.002810 0.000000 1.824050 
# 
# From -- ./inp_files/301837.got.cif
#   From: 2010.06.25/outbox.cif.g09.slc.cpg/sg12_151_cif.got.tgz:301837.got - 2010.06.28 00:19:55.
