data_PCOD8110230
_publ_section_title
;
Structure prediction by ZEFSAII (Michael W. Deem and Ramdas Pophale) SiO2 
 PCOD8110230
Probable space group: C 2/M
;
_chemical_formula_sum "Si O2"
_cell_formula_units_Z 56
_cell_length_a 20.299305
_cell_length_b 7.815193
_cell_length_c 16.765793
_cell_angle_alpha 90.000000
_cell_angle_beta 93.754672
_cell_angle_gamma 90.000000
_cell_volume 2654.066493
_symmetry_space_group_name_H-M "C 2/M"
_symmetry_group_IT_number 12
_symmetry_cell_setting 'monoclinic'
loop_
_space_group_symop_operation_xyz
x,y,z
-x,y,-z
-x,-y,-z
x,-y,z
1/2+x,1/2+y,z
1/2-x,1/2+y,-z
1/2-x,1/2-y,-z
1/2+x,1/2-y,z
loop_
_atom_site_type_symbol
_atom_site_label
_atom_site_fract_x
_atom_site_fract_y
_atom_site_fract_z
Si Si1 0.926746 0.694413 0.501083
Si Si2 0.134718 0.190734 0.657449
Si Si3 0.238968 0.192017 0.248712
Si Si4 0.793871 0.797430 0.927806
Si Si5 0.032375 0.500000 0.880792
Si Si6 0.481431 0.695214 0.235980
Si Si7 0.884505 0.800249 0.667976
Si Si8 0.605612 0.000000 0.043091
O O1 0.932477 0.500000 0.473005
O O2 0.874415 0.783405 0.437652
O O3 0.897553 0.702683 0.586986
O O4 0.000000 0.779854 0.500000
O O5 0.191130 0.306134 0.701245
O O6 0.063874 0.228273 0.690608
O O7 0.159303 0.000000 0.676590
O O8 0.244333 0.255413 0.157296
O O9 0.181145 0.281944 0.296471
O O10 0.213248 0.000000 0.241284
O O11 0.857925 0.677272 0.933558
O O12 0.812594 0.000000 0.932112
O O13 0.750000 0.750000 0.000000
O O14 0.042073 0.326272 0.832585
O O15 0.961277 0.500000 0.913941
O O16 0.091839 0.500000 0.947967
O O17 0.473662 0.500000 0.203970
O O18 0.556271 0.734801 0.265998
O O19 0.878644 0.000000 0.646430
#
# Coordination Sequence:
#
# PCOD8110230 Si02
#       8
#     8   8   8   8   4   8   8   4
#     4  11  23  38  61  93 126 167 218 265 319 386
#     4  11  24  39  62  95 128 168 215 272 325 387
#     4  10  24  42  65  94 127 167 213 270 331 390
#     4  11  24  44  71  99 134 174 221 275 333 406
#     4  11  26  42  70  93 142 176 220 281 330 396
#     4  10  23  41  67  98 128 174 228 274 329 391
#     4  10  21  41  65  90 126 170 216 270 329 386
#     4  11  26  46  64 106 130 179 225 268 342 401
#
# _framework density 21.099698
#
# number of rings (size 3 to 8) (size 9 to 14) (size 15 to 20)
#    0.000    1.429    2.143    1.714    6.000    4.000 
#    0.000    1.429    0.000    0.000    0.000    0.000 
#    0.000    0.000    0.000    0.000    0.000    0.000 
#
# Total GULP energy -347175.818305 kJ/mol
# GULP energy per Si atom -12399.136368 kJ/mol
# Density = 2.105167 g / cm^3
# Si number density = 21.099698 Si / 1000 Ang^3
#
#
#
# Elastic Constant Matrix: (Units=GPa)
#
#
# Indices 1 2 3 4 5 6 
#
# 1 95.7032 22.2892 41.6140 0.0000 8.5589 0.0000
# 2 22.2892 90.2143 35.5542 0.0000 9.2000 0.0000
# 3 41.6140 35.5542 144.4752 0.0000 9.1357 0.0000
# 4 0.0000 0.0000 0.0000 28.2126 0.0000 3.6576
# 5 8.5589 9.2000 9.1357 0.0000 38.5809 0.0000
# 6 0.0000 0.0000 0.0000 3.6576 0.0000 26.7409
#
#
#
# Elastic Compliance Matrix: (Units=1/GPa)
#
#
# Indices 1 2 3 4 5 6 
#
# 1 0.012301 -0.001682 -0.003027 0.000000 -0.001611 0.000000
# 2 -0.001682 0.012700 -0.002511 0.000000 -0.002061 0.000000
# 3 -0.003027 -0.002511 0.008458 0.000000 -0.000732 0.000000
# 4 0.000000 0.000000 0.000000 0.036085 0.000000 -0.004936
# 5 -0.001611 -0.002061 -0.000732 0.000000 0.026942 0.000000
# 6 0.000000 0.000000 0.000000 -0.004936 0.000000 0.038071
#
#
# Mechanical properties :
#
#
# Convention : Reuss Voigt Hill
#
# Bulk Modulus (GPa) = 52.57875 58.81195 55.69535
# Shear Modulus (GPa) = 32.18833 34.10259 33.14546
#
# Velocity S-wave (km/s) = 3.91005 4.02463 3.96775
# Velocity P-wave (km/s) = 6.73483 7.03781 6.88799
#
# Compressibility (1/GPa) = 0.01901909
#
# Stress axis : x y z
#
# Youngs Moduli (GPa) = 81.29340 78.74111 118.23466
#
# Poissons Ratio (x) = 0.13243 0.35794
# Poissons Ratio (y) = 0.13672 0.29684
# Poissons Ratio (z) = 0.24611 0.19769
#
# Static dielectric constant tensor:
#      x y z
#    x 3.692550 0.000000 -0.081080 
#    y 0.000000 3.860030 0.000000 
#    z -0.081080 0.000000 3.883590 
# 
# 
# High freq. dielectric constant tensor:
#      x y z
#    x 1.823230 0.000000 -0.003350 
#    y 0.000000 1.827640 0.000000 
#    z -0.003350 0.000000 1.835460 
# 
# From -- ./inp_files/231081.got.cif
#   From: 2010.06.25/outbox.cif.g09.slc.cpg/sg12_116_cif.got.tgz:231081.got - 2010.06.28 00:19:55.
