data_PCOD8110269
_publ_section_title
;
Structure prediction by ZEFSAII (Michael W. Deem and Ramdas Pophale) SiO2 
 PCOD8110269
Probable space group: C 2/M
;
_chemical_formula_sum "Si O2"
_cell_formula_units_Z 40
_cell_length_a 8.804467
_cell_length_b 27.673363
_cell_length_c 10.905299
_cell_angle_alpha 90.000000
_cell_angle_beta 42.359447
_cell_angle_gamma 90.000000
_cell_volume 1790.277751
_symmetry_space_group_name_H-M "C 2/M"
_symmetry_group_IT_number 12
_symmetry_cell_setting 'monoclinic'
loop_
_space_group_symop_operation_xyz
x,y,z
-x,y,-z
-x,-y,-z
x,-y,z
1/2+x,1/2+y,z
1/2-x,1/2+y,-z
1/2-x,1/2-y,-z
1/2+x,1/2-y,z
loop_
_atom_site_type_symbol
_atom_site_label
_atom_site_fract_x
_atom_site_fract_y
_atom_site_fract_z
Si Si1 0.838161 0.293309 0.269332
Si Si2 0.421797 0.899011 0.222996
Si Si3 0.686825 0.444469 0.134085
Si Si4 0.743726 0.101999 0.415434
Si Si5 0.464936 0.297733 0.312860
O O1 0.985789 0.341981 0.196344
O O2 0.723437 0.300775 0.204541
O O3 0.666723 0.286097 0.484106
O O4 0.973586 0.243009 0.200294
O O5 0.256752 0.910945 0.207734
O O6 0.282830 0.912278 0.426831
O O7 0.654050 0.929012 0.074857
O O8 0.730933 0.500000 0.140545
O O9 0.425235 0.436344 0.254229
O O10 0.500000 0.097846 0.500000
O O11 0.856888 0.153896 0.321005
#
# Coordination Sequence:
#
# PCOD8110269 Si02
#       5
#     8   8   8   8   8
#     4   9  17  31  57  89 126 163 205 252 302 374
#     4  10  21  41  66  95 125 165 212 269 313 373
#     4  11  24  44  70  92 120 166 219 275 322 368
#     4  11  24  40  63  96 133 168 208 258 319 386
#     4   9  18  31  55  92 125 166 206 246 306 371
#
# _framework density 22.342903
#
# number of rings (size 3 to 8) (size 9 to 14) (size 15 to 20)
#    0.000    2.000    2.000    1.800    8.400    3.600 
#    0.000    2.000    0.000    0.000    0.000    0.000 
#    0.000    0.000    0.000    0.000    0.000    0.000 
#
# Total GULP energy -247790.480063 kJ/mol
# GULP energy per Si atom -12389.524003 kJ/mol
# Density = 2.229205 g / cm^3
# Si number density = 22.342903 Si / 1000 Ang^3
#
#
#
# Elastic Constant Matrix: (Units=GPa)
#
#
# Indices 1 2 3 4 5 6 
#
# 1 81.5501 40.8032 26.9758 0.0000 -27.2039 0.0000
# 2 40.8032 143.6887 46.9680 0.0000 -4.2065 0.0000
# 3 26.9758 46.9680 64.6051 0.0000 -20.1598 0.0000
# 4 0.0000 0.0000 0.0000 31.4701 0.0000 1.5436
# 5 -27.2039 -4.2065 -20.1598 0.0000 29.6331 0.0000
# 6 0.0000 0.0000 0.0000 1.5436 0.0000 23.2923
#
#
#
# Elastic Compliance Matrix: (Units=1/GPa)
#
#
# Indices 1 2 3 4 5 6 
#
# 1 0.021363 -0.006030 0.001672 0.000000 0.019893 0.000000
# 2 -0.006030 0.011238 -0.008737 0.000000 -0.009884 0.000000
# 3 0.001672 -0.008737 0.026944 0.000000 0.018625 0.000000
# 4 0.000000 0.000000 0.000000 0.031880 0.000000 -0.002113
# 5 0.019893 -0.009884 0.018625 0.000000 0.063276 0.000000
# 6 0.000000 0.000000 0.000000 -0.002113 0.000000 0.043073
#
#
# Mechanical properties :
#
#
# Convention : Reuss Voigt Hill
#
# Bulk Modulus (GPa) = 29.98143 57.70421 43.84282
# Shear Modulus (GPa) = 21.26916 28.55222 24.91069
#
# Velocity S-wave (km/s) = 3.08870 3.57867 3.34267
# Velocity P-wave (km/s) = 5.11547 6.55427 5.87905
#
# Compressibility (1/GPa) = 0.03335398
#
# Stress axis : x y z
#
# Youngs Moduli (GPa) = 46.81076 88.98096 37.11386
#
# Poissons Ratio (x) = 0.53659 -0.06204
# Poissons Ratio (y) = 0.28229 0.32425
# Poissons Ratio (z) = -0.07825 0.77740
#
# Static dielectric constant tensor:
#      x y z
#    x 3.976240 0.000000 -0.082920 
#    y 0.000000 3.974660 0.000000 
#    z -0.082920 0.000000 3.921900 
# 
# 
# High freq. dielectric constant tensor:
#      x y z
#    x 1.853680 0.000000 -0.010390 
#    y 0.000000 1.880210 0.000000 
#    z -0.010390 0.000000 1.868960 
# 
# From -- ./inp_files/124992.got.cif
#   From: 2010.06.25/outbox.cif.g09.slc.cpg/sg12_63_cif.got.tgz:124992.got - 2010.06.28 00:19:55.
