data_PCOD8110503
_publ_section_title
;
Structure prediction by ZEFSAII (Michael W. Deem and Ramdas Pophale) SiO2 
 PCOD8110503
Probable space group: C 2/M
;
_chemical_formula_sum "Si O2"
_cell_formula_units_Z 48
_cell_length_a 10.226116
_cell_length_b 25.132118
_cell_length_c 15.007629
_cell_angle_alpha 90.000000
_cell_angle_beta 141.918107
_cell_angle_gamma 90.000000
_cell_volume 2378.960376
_symmetry_space_group_name_H-M "C 2/M"
_symmetry_group_IT_number 12
_symmetry_cell_setting 'monoclinic'
loop_
_space_group_symop_operation_xyz
x,y,z
-x,y,-z
-x,-y,-z
x,-y,z
1/2+x,1/2+y,z
1/2-x,1/2+y,-z
1/2-x,1/2-y,-z
1/2+x,1/2-y,z
loop_
_atom_site_type_symbol
_atom_site_label
_atom_site_fract_x
_atom_site_fract_y
_atom_site_fract_z
Si Si1 0.500000 0.081357 0.000000
Si Si2 0.683132 0.391489 0.172071
Si Si3 0.538585 0.687946 0.422433
Si Si4 0.448746 0.000000 0.298519
Si Si5 0.559767 0.391398 0.783312
Si Si6 0.671699 0.000000 0.229514
Si Si7 0.008559 0.306037 0.607964
Si Si8 0.411518 0.500000 0.624697
O O1 0.692238 0.112325 0.056073
O O2 0.609581 0.050704 0.139133
O O3 0.805652 0.448076 0.240452
O O4 0.575079 0.372934 0.205591
O O5 0.850755 0.343549 0.251876
O O6 0.500000 0.393270 0.000000
O O7 0.500000 0.663995 0.500000
O O8 0.447718 0.646813 0.304403
O O9 0.414163 0.744599 0.349170
O O10 0.784682 0.693597 0.535850
O O11 0.660281 0.000000 0.471943
O O12 0.537344 0.000000 0.246586
O O13 0.469028 0.449602 0.714908
O O14 0.930814 0.000000 0.378088
O O15 0.000000 0.326574 0.500000
#
# Coordination Sequence:
#
# PCOD8110503 Si02
#       8
#     4   8   8   4   8   4   8   4
#     4   9  20  36  60  80 124 172 206 245 328 370
#     4  12  26  41  63  94 133 173 209 258 324 388
#     4  10  22  39  69  94 119 165 222 264 317 374
#     4  12  24  37  63  94 129 165 213 258 315 388
#     4  11  22  41  61  93 129 168 211 267 314 384
#     4   9  19  39  55  83 127 170 205 260 303 377
#     4  10  21  44  67  90 127 168 210 270 320 369
#     4  10  23  36  63  94 123 165 216 260 318 370
#
# _framework density 20.176881000000002
#
# number of rings (size 3 to 8) (size 9 to 14) (size 15 to 20)
#    0.000    1.500    1.667    3.500    0.000    7.333 
#    1.500    0.833    0.000    0.000    0.000    0.000 
#    0.000    0.000    0.000    0.000    0.000    0.000 
#
# Total GULP energy -297338.622606 kJ/mol
# GULP energy per Si atom -12389.109275 kJ/mol
# Density = 2.013096 g / cm^3
# Si number density = 20.176881 Si / 1000 Ang^3
#
#
#
# Elastic Constant Matrix: (Units=GPa)
#
#
# Indices 1 2 3 4 5 6 
#
# 1 116.5386 18.7780 24.7444 0.0000 1.9009 0.0000
# 2 18.7780 108.8002 54.8566 0.0000 4.5897 0.0000
# 3 24.7444 54.8566 121.8816 0.0000 15.9158 0.0000
# 4 0.0000 0.0000 0.0000 39.3799 0.0000 -5.0630
# 5 1.9009 4.5897 15.9158 0.0000 31.2421 0.0000
# 6 0.0000 0.0000 0.0000 -5.0630 0.0000 35.6069
#
#
#
# Elastic Compliance Matrix: (Units=1/GPa)
#
#
# Indices 1 2 3 4 5 6 
#
# 1 0.009027 -0.000810 -0.001513 0.000000 0.000340 0.000000
# 2 -0.000810 0.011994 -0.005367 0.000000 0.001022 0.000000
# 3 -0.001513 -0.005367 0.011583 0.000000 -0.005020 0.000000
# 4 0.000000 0.000000 0.000000 0.025867 0.000000 0.003678
# 5 0.000340 0.001022 -0.005020 0.000000 0.034395 0.000000
# 6 0.000000 0.000000 0.000000 0.003678 0.000000 0.028607
#
#
# Mechanical properties :
#
#
# Convention : Reuss Voigt Hill
#
# Bulk Modulus (GPa) = 58.05595 60.44204 59.24899
# Shear Modulus (GPa) = 35.06470 37.83521 36.44995
#
# Velocity S-wave (km/s) = 4.17329 4.33503 4.25493
# Velocity P-wave (km/s) = 7.21511 7.42144 7.31900
#
# Compressibility (1/GPa) = 0.01722476
#
# Stress axis : x y z
#
# Youngs Moduli (GPa) = 110.77952 83.37533 86.33288
#
# Poissons Ratio (x) = 0.06750 0.13059
# Poissons Ratio (y) = 0.08969 0.46337
# Poissons Ratio (z) = 0.16757 0.44750
#
# Static dielectric constant tensor:
#      x y z
#    x 4.055590 0.000000 0.471500 
#    y 0.000000 3.790700 0.000000 
#    z 0.471500 0.000000 3.976470 
# 
# 
# High freq. dielectric constant tensor:
#      x y z
#    x 1.808340 0.000000 0.016140 
#    y 0.000000 1.782200 0.000000 
#    z 0.016140 0.000000 1.779310 
# 
# From -- ./inp_files/200271.got.cif
#   From: 2010.06.25/outbox.cif.g09.slc.cpg/sg12_101_cif.got.tgz:200271.got - 2010.06.28 00:19:55.
