data_PCOD8110186
_publ_section_title
;
Structure prediction by ZEFSAII (Michael W. Deem and Ramdas Pophale) SiO2 
 PCOD8110186
Probable space group: C 2/M
;
_chemical_formula_sum "Si O2"
_cell_formula_units_Z 64
_cell_length_a 13.933956
_cell_length_b 27.223068
_cell_length_c 9.255481
_cell_angle_alpha 90.000000
_cell_angle_beta 112.800951
_cell_angle_gamma 90.000000
_cell_volume 3236.487411
_symmetry_space_group_name_H-M "C 2/M"
_symmetry_group_IT_number 12
_symmetry_cell_setting 'monoclinic'
loop_
_space_group_symop_operation_xyz
x,y,z
-x,y,-z
-x,-y,-z
x,-y,z
1/2+x,1/2+y,z
1/2-x,1/2+y,-z
1/2-x,1/2-y,-z
1/2+x,1/2-y,z
loop_
_atom_site_type_symbol
_atom_site_label
_atom_site_fract_x
_atom_site_fract_y
_atom_site_fract_z
Si Si1 0.903454 0.868613 0.032254
Si Si2 0.899756 0.298277 0.262085
Si Si3 0.107619 0.594376 0.143364
Si Si4 0.218743 0.444438 0.954199
Si Si5 0.623004 0.198469 0.072156
Si Si6 0.003799 0.192258 0.339953
Si Si7 0.687206 0.294784 0.246451
Si Si8 0.978752 0.403483 0.327188
O O1 0.935914 0.845165 0.204638
O O2 0.821499 0.912052 0.004537
O O3 0.860227 0.824182 0.914053
O O4 0.000000 0.891940 0.000000
O O5 0.961765 0.247873 0.314678
O O6 0.810824 0.305342 0.333953
O O7 0.978976 0.344018 0.321364
O O8 0.840152 0.300042 0.073056
O O9 0.161937 0.647574 0.166110
O O10 0.077375 0.577608 0.288180
O O11 0.177109 0.555299 0.096293
O O12 0.000000 0.603316 0.000000
O O13 0.246321 0.500000 0.927330
O O14 0.130906 0.424100 0.794166
O O15 0.680116 0.237719 0.203832
O O16 0.500000 0.208714 0.000000
O O17 0.000000 0.171471 0.500000
O O18 0.123867 0.192820 0.355184
O O19 0.000000 0.423255 0.500000
#
# Coordination Sequence:
#
# PCOD8110186 Si02
#       8
#     8   8   8   8   8   8   8   8
#     4  10  21  41  64  82 116 159 200 245 295 344
#     4  12  20  33  58  86 124 159 200 236 276 343
#     4   9  18  34  57  80 116 153 190 230 285 346
#     4  11  23  41  65  92 110 143 207 250 296 363
#     4  11  15  30  55  83 112 154 199 233 269 330
#     4  11  24  38  53  88 128 158 196 244 289 343
#     4  11  20  34  60  83 114 165 203 233 280 349
#     4  11  22  38  58  90 128 159 183 237 301 354
#
# _framework density 19.774525000000001
#
# number of rings (size 3 to 8) (size 9 to 14) (size 15 to 20)
#    0.000    1.250    7.500    1.125    1.750    3.250 
#    2.250    0.000    0.000    0.375    0.000    0.000 
#    0.000    0.000    0.000    0.000    0.000    0.000 
#
# Total GULP energy -396671.327213 kJ/mol
# GULP energy per Si atom -12395.978975 kJ/mol
# Density = 1.972952 g / cm^3
# Si number density = 19.774525 Si / 1000 Ang^3
#
#
#
# Elastic Constant Matrix: (Units=GPa)
#
#
# Indices 1 2 3 4 5 6 
#
# 1 123.9072 33.3918 46.1587 0.0000 -18.3881 0.0000
# 2 33.3918 95.6401 30.0418 0.0000 -2.3425 0.0000
# 3 46.1587 30.0418 104.9452 0.0000 -29.7892 0.0000
# 4 0.0000 0.0000 0.0000 4.6975 0.0000 -1.3151
# 5 -18.3881 -2.3425 -29.7892 0.0000 24.9288 0.0000
# 6 0.0000 0.0000 0.0000 -1.3151 0.0000 13.1912
#
#
#
# Elastic Compliance Matrix: (Units=1/GPa)
#
#
# Indices 1 2 3 4 5 6 
#
# 1 0.010405 -0.002722 -0.002559 0.000000 0.004361 0.000000
# 2 -0.002722 0.012516 -0.003967 0.000000 -0.005573 0.000000
# 3 -0.002559 -0.003967 0.016871 0.000000 0.017900 0.000000
# 4 0.000000 0.000000 0.000000 0.218991 0.000000 0.021833
# 5 0.004361 -0.005573 0.017900 0.000000 0.064197 0.000000
# 6 0.000000 0.000000 0.000000 0.021833 0.000000 0.077985
#
#
# Mechanical properties :
#
#
# Convention : Reuss Voigt Hill
#
# Bulk Modulus (GPa) = 46.96114 60.40857 53.68485
# Shear Modulus (GPa) = 11.72169 22.89019 17.30594
#
# Velocity S-wave (km/s) = 2.43732 3.40598 2.96153
# Velocity P-wave (km/s) = 5.63210 6.78842 6.23712
#
# Compressibility (1/GPa) = 0.02129420
#
# Stress axis : x y z
#
# Youngs Moduli (GPa) = 96.11085 79.89810 59.27274
#
# Poissons Ratio (x) = 0.21748 0.15170
# Poissons Ratio (y) = 0.26161 0.23516
# Poissons Ratio (z) = 0.24598 0.31699
#
# Static dielectric constant tensor:
#      x y z
#    x 4.098120 0.000000 -0.505830 
#    y 0.000000 3.326320 0.000000 
#    z -0.505830 0.000000 3.626460 
# 
# 
# High freq. dielectric constant tensor:
#      x y z
#    x 1.779110 0.000000 -0.024200 
#    y 0.000000 1.743900 0.000000 
#    z -0.024200 0.000000 1.744390 
# 
# From -- ./inp_files/67006.got.cif
#   From: 2010.06.25/outbox.cif.g09.slc.cpg/sg12_34_cif.got.tgz:67006.got - 2010.06.28 00:19:55.
