data_PCOD8110093
_publ_section_title
;
Structure prediction by ZEFSAII (Michael W. Deem and Ramdas Pophale) SiO2 
 PCOD8110093
Probable space group: C 2/M
;
_chemical_formula_sum "Si O2"
_cell_formula_units_Z 48
_cell_length_a 10.737984
_cell_length_b 14.405298
_cell_length_c 15.098733
_cell_angle_alpha 90.000000
_cell_angle_beta 72.556820
_cell_angle_gamma 90.000000
_cell_volume 2228.130210
_symmetry_space_group_name_H-M "C 2/M"
_symmetry_group_IT_number 12
_symmetry_cell_setting 'monoclinic'
loop_
_space_group_symop_operation_xyz
x,y,z
-x,y,-z
-x,-y,-z
x,-y,z
1/2+x,1/2+y,z
1/2-x,1/2+y,-z
1/2-x,1/2-y,-z
1/2+x,1/2-y,z
loop_
_atom_site_type_symbol
_atom_site_label
_atom_site_fract_x
_atom_site_fract_y
_atom_site_fract_z
Si Si1 0.028587 0.389871 0.133054
Si Si2 0.015784 0.109956 0.095335
Si Si3 0.352567 0.608082 0.295705
Si Si4 0.055553 0.607666 0.323741
Si Si5 0.401766 0.737933 0.443749
Si Si6 0.800808 0.389470 0.062079
O O1 0.035968 0.500000 0.135641
O O2 0.888312 0.355037 0.126034
O O3 0.050441 0.349937 0.225938
O O4 0.141039 0.351938 0.043502
O O5 0.153556 0.145663 0.105108
O O6 0.905541 0.142771 0.188330
O O7 0.011836 0.000000 0.087120
O O8 0.000000 0.153281 0.000000
O O9 0.387861 0.500000 0.301239
O O10 0.198381 0.624977 0.332709
O O11 0.419500 0.664732 0.360456
O O12 0.016850 0.500000 0.333952
O O13 0.949995 0.660205 0.405265
O O14 0.500000 0.702191 0.500000
O O15 0.250000 0.750000 0.500000
O O16 0.806771 0.500000 0.057631
#
# Coordination Sequence:
#
# PCOD8110093 Si02
#       6
#     8   8   8   8   8   8
#     4   8  14  26  49  82 117 159 205 251 299 364
#     4   9  16  28  53  88 125 164 206 253 309 373
#     4  10  22  41  67  97 129 168 215 264 317 388
#     4  10  21  40  68  93 121 166 217 259 318 392
#     4  12  26  46  68  94 127 166 209 275 338 382
#     4   8  13  23  43  79 124 159 199 249 301 359
#
# _framework density 21.542726999999999
#
# number of rings (size 3 to 8) (size 9 to 14) (size 15 to 20)
#    0.000    2.500    1.667    2.000    0.000    6.667 
#    0.000    1.667    3.667    2.000    0.000    0.000 
#    0.000    0.000    0.000    0.000    0.000    0.000 
#
# Total GULP energy -297496.622847 kJ/mol
# GULP energy per Si atom -12395.692619 kJ/mol
# Density = 2.149369 g / cm^3
# Si number density = 21.542727 Si / 1000 Ang^3
#
#
#
# Elastic Constant Matrix: (Units=GPa)
#
#
# Indices 1 2 3 4 5 6 
#
# 1 121.8601 33.0374 60.9778 0.0000 -5.0179 0.0000
# 2 33.0374 54.9199 46.2771 0.0000 2.4032 0.0000
# 3 60.9778 46.2771 129.8767 0.0000 8.8049 0.0000
# 4 0.0000 0.0000 0.0000 17.4189 0.0000 7.6245
# 5 -5.0179 2.4032 8.8049 0.0000 47.0323 0.0000
# 6 0.0000 0.0000 0.0000 7.6245 0.0000 14.0343
#
#
#
# Elastic Compliance Matrix: (Units=1/GPa)
#
#
# Indices 1 2 3 4 5 6 
#
# 1 0.011340 -0.003296 -0.004298 0.000000 0.002183 0.000000
# 2 -0.003296 0.026987 -0.008053 0.000000 -0.000223 0.000000
# 3 -0.004298 -0.008053 0.012752 0.000000 -0.002434 0.000000
# 4 0.000000 0.000000 0.000000 0.075320 0.000000 -0.040919
# 5 0.002183 -0.000223 -0.002434 0.000000 0.021962 0.000000
# 6 0.000000 0.000000 0.000000 -0.040919 0.000000 0.093484
#
#
# Mechanical properties :
#
#
# Convention : Reuss Voigt Hill
#
# Bulk Modulus (GPa) = 50.54345 65.24902 57.89623
# Shear Modulus (GPa) = 17.87413 26.78806 22.33109
#
# Velocity S-wave (km/s) = 2.88359 3.53013 3.22311
# Velocity P-wave (km/s) = 5.88215 6.85345 6.38629
#
# Compressibility (1/GPa) = 0.01978496
#
# Stress axis : x y z
#
# Youngs Moduli (GPa) = 88.18213 37.05552 78.41863
#
# Poissons Ratio (x) = 0.12212 0.33704
# Poissons Ratio (y) = 0.29062 0.63153
# Poissons Ratio (z) = 0.37900 0.29842
#
# Static dielectric constant tensor:
#      x y z
#    x 4.066250 0.000000 0.133460 
#    y 0.000000 3.508660 0.000000 
#    z 0.133460 0.000000 4.055480 
# 
# 
# High freq. dielectric constant tensor:
#      x y z
#    x 1.849810 0.000000 0.004890 
#    y 0.000000 1.822920 0.000000 
#    z 0.004890 0.000000 1.844550 
# 
# From -- ./inp_files/204277.got.cif
#   From: 2010.06.25/outbox.cif.g09.slc.cpg/sg12_103_cif.got.tgz:204277.got - 2010.06.28 00:19:55.
