data_PCOD8110347
_publ_section_title
;
Structure prediction by ZEFSAII (Michael W. Deem and Ramdas Pophale) SiO2 
 PCOD8110347
Probable space group: C 2/M
;
_chemical_formula_sum "Si O2"
_cell_formula_units_Z 56
_cell_length_a 21.369468
_cell_length_b 29.514479
_cell_length_c 9.363983
_cell_angle_alpha 90.000000
_cell_angle_beta 28.112769
_cell_angle_gamma 90.000000
_cell_volume 2782.931577
_symmetry_space_group_name_H-M "C 2/M"
_symmetry_group_IT_number 12
_symmetry_cell_setting 'monoclinic'
loop_
_space_group_symop_operation_xyz
x,y,z
-x,y,-z
-x,-y,-z
x,-y,z
1/2+x,1/2+y,z
1/2-x,1/2+y,-z
1/2-x,1/2-y,-z
1/2+x,1/2-y,z
loop_
_atom_site_type_symbol
_atom_site_label
_atom_site_fract_x
_atom_site_fract_y
_atom_site_fract_z
Si Si1 0.646802 0.948769 0.255539
Si Si2 0.904547 0.051929 0.562273
Si Si3 0.210314 0.204671 0.392073
Si Si4 0.869713 0.702702 0.346932
Si Si5 0.653944 0.208017 0.162225
Si Si6 0.217417 0.636345 0.267608
Si Si7 0.004083 0.128676 0.822153
O O1 0.500000 0.936493 0.500000
O O2 0.681159 0.916027 0.317833
O O3 0.654716 0.000000 0.298382
O O4 0.751158 0.941798 0.916858
O O5 0.000000 0.067150 0.500000
O O6 0.933633 0.082686 0.366871
O O7 0.934430 0.000000 0.459731
O O8 0.162412 0.256891 0.477513
O O9 0.252768 0.195225 0.468819
O O10 0.090269 0.171345 0.598728
O O11 0.329196 0.196485 0.040074
O O12 0.884179 0.657300 0.411521
O O13 0.000000 0.715725 0.000000
O O14 0.500000 0.219890 0.500000
O O15 0.703087 0.163789 0.148846
O O16 0.750000 0.250000 0.000000
O O17 0.363035 0.639895 0.038519
O O18 0.000000 0.122540 0.000000
#
# Coordination Sequence:
#
# PCOD8110347 Si02
#       7
#     8   8   8   8   8   8   8
#     4  10  22  43  71 100 131 168 214 267 329 391
#     4  10  21  41  69  99 131 169 210 260 326 391
#     4  11  25  41  63  88 133 173 223 258 323 389
#     4  11  24  41  62  87 128 182 215 264 318 391
#     4  12  27  42  64  98 131 167 219 276 323 381
#     4  12  24  42  66  96 130 171 219 271 326 377
#     4  12  25  42  64  98 129 173 219 270 321 384
#
# _framework density 20.122665000000001
#
# number of rings (size 3 to 8) (size 9 to 14) (size 15 to 20)
#    0.000    0.857    4.286    2.571    4.000    1.429 
#    0.000    0.000    0.000    0.429    0.000    0.000 
#    0.000    0.000    0.000    0.000    0.000    0.000 
#
# Total GULP energy -347280.473646 kJ/mol
# GULP energy per Si atom -12402.874059 kJ/mol
# Density = 2.007687 g / cm^3
# Si number density = 20.122665 Si / 1000 Ang^3
#
#
#
# Elastic Constant Matrix: (Units=GPa)
#
#
# Indices 1 2 3 4 5 6 
#
# 1 85.7902 59.5350 61.4153 0.0000 -1.7051 0.0002
# 2 59.5350 109.7080 46.9286 -0.0001 6.9263 0.0001
# 3 61.4153 46.9286 139.7930 -0.0001 -0.3481 0.0003
# 4 0.0000 -0.0001 -0.0001 31.1593 0.0000 1.4213
# 5 -1.7051 6.9263 -0.3481 0.0000 40.9930 -0.0002
# 6 0.0002 0.0001 0.0003 1.4213 -0.0002 37.4601
#
#
#
# Elastic Compliance Matrix: (Units=1/GPa)
#
#
# Indices 1 2 3 4 5 6 
#
# 1 0.023700 -0.010013 -0.007044 0.000000 0.002618 0.000000
# 2 -0.010013 0.015013 -0.000648 0.000000 -0.002959 0.000000
# 3 -0.007044 -0.000648 0.010465 0.000000 -0.000095 0.000000
# 4 0.000000 0.000000 0.000000 0.032149 0.000000 -0.001220
# 5 0.002618 -0.002959 -0.000095 0.000000 0.025002 0.000000
# 6 0.000000 0.000000 0.000000 -0.001220 0.000000 0.026741
#
#
# Mechanical properties :
#
#
# Convention : Reuss Voigt Hill
#
# Bulk Modulus (GPa) = 72.63537 74.56102 73.59819
# Shear Modulus (GPa) = 28.88987 33.08329 30.98658
#
# Velocity S-wave (km/s) = 3.79316 4.05913 3.92839
# Velocity P-wave (km/s) = 7.44034 7.68781 7.56509
#
# Compressibility (1/GPa) = 0.01376740
#
# Stress axis : x y z
#
# Youngs Moduli (GPa) = 42.19428 66.60893 95.55239
#
# Poissons Ratio (x) = 0.66697 0.67308
# Poissons Ratio (y) = 0.42250 0.06193
# Poissons Ratio (z) = 0.29722 0.04317
#
# Static dielectric constant tensor:
#      x y z
#    x 3.737400 0.000000 0.004600 
#    y 0.000000 3.726130 0.000000 
#    z 0.004600 0.000000 3.763700 
# 
# 
# High freq. dielectric constant tensor:
#      x y z
#    x 1.784270 0.000000 -0.005790 
#    y 0.000000 1.788380 0.000000 
#    z -0.005790 0.000000 1.794510 
# 
# From -- ./inp_files/91545.got.cif
#   From: 2010.06.25/outbox.cif.g09.slc.cpg/sg12_46_cif.got.tgz:91545.got - 2010.06.28 00:19:55.
