data_PCOD8110206
_publ_section_title
;
Structure prediction by ZEFSAII (Michael W. Deem and Ramdas Pophale) SiO2 
 PCOD8110206
Probable space group: C 2/M
;
_chemical_formula_sum "Si O2"
_cell_formula_units_Z 40
_cell_length_a 16.511739
_cell_length_b 12.503531
_cell_length_c 8.964929
_cell_angle_alpha 90.000000
_cell_angle_beta 103.420969
_cell_angle_gamma 90.000000
_cell_volume 1800.309783
_symmetry_space_group_name_H-M "C 2/M"
_symmetry_group_IT_number 12
_symmetry_cell_setting 'monoclinic'
loop_
_space_group_symop_operation_xyz
x,y,z
-x,y,-z
-x,-y,-z
x,-y,z
1/2+x,1/2+y,z
1/2-x,1/2+y,-z
1/2-x,1/2-y,-z
1/2+x,1/2-y,z
loop_
_atom_site_type_symbol
_atom_site_label
_atom_site_fract_x
_atom_site_fract_y
_atom_site_fract_z
Si Si1 0.155873 0.208107 0.975390
Si Si2 0.087805 0.000000 0.456485
Si Si3 0.907142 0.000000 0.896399
Si Si4 0.672629 0.310202 0.656663
Si Si5 0.411823 0.120901 0.518706
Si Si6 0.856462 0.379332 0.814687
O O1 0.122842 0.185177 0.794052
O O2 0.250000 0.250000 0.000000
O O3 0.106607 0.304981 0.037112
O O4 0.145371 0.102247 0.070477
O O5 0.082943 0.000000 0.276640
O O6 0.136944 0.895335 0.526812
O O7 0.000000 0.000000 0.500000
O O8 0.000000 0.000000 0.000000
O O9 0.661891 0.193090 0.579886
O O10 0.768993 0.332525 0.721926
O O11 0.500000 0.165461 0.500000
O O12 0.417433 0.124848 0.700043
O O13 0.395225 0.000000 0.455986
O O14 0.845898 0.500000 0.871020
#
# Coordination Sequence:
#
# PCOD8110206 Si02
#       6
#     8   4   4   8   8   8
#     4  10  24  41  66  96 135 175 219 278 336 405
#     4  12  24  40  70 100 135 176 219 286 340 397
#     4  12  26  46  70 104 139 180 229 280 347 411
#     4  11  21  40  63  95 127 166 222 272 327 393
#     4  10  22  39  59  87 126 169 216 271 326 390
#     4  10  21  41  64  92 133 171 218 274 325 399
#
# _framework density 22.218399999999999
#
# number of rings (size 3 to 8) (size 9 to 14) (size 15 to 20)
#    0.000    1.400    1.000    4.200    4.200    4.000 
#    5.400    0.000    0.000    4.200    0.000    0.000 
#    0.000    0.000    0.000    0.000    0.000    0.000 
#
# Total GULP energy -247967.616170 kJ/mol
# GULP energy per Si atom -12398.380809 kJ/mol
# Density = 2.216783 g / cm^3
# Si number density = 22.218400 Si / 1000 Ang^3
#
#
#
# Elastic Constant Matrix: (Units=GPa)
#
#
# Indices 1 2 3 4 5 6 
#
# 1 70.0683 35.5739 27.4518 0.0000 -17.8291 0.0000
# 2 35.5739 165.9580 62.8148 0.0000 -12.5413 0.0000
# 3 27.4518 62.8148 156.6031 0.0000 -23.6480 0.0000
# 4 0.0000 0.0000 0.0000 41.3642 0.0000 -16.4522
# 5 -17.8291 -12.5413 -23.6480 0.0000 32.1907 0.0000
# 6 0.0000 0.0000 0.0000 -16.4522 0.0000 20.6673
#
#
#
# Elastic Compliance Matrix: (Units=1/GPa)
#
#
# Indices 1 2 3 4 5 6 
#
# 1 0.018210 -0.002996 -0.000724 0.000000 0.008387 0.000000
# 2 -0.002996 0.007613 -0.002622 0.000000 -0.000619 0.000000
# 3 -0.000724 -0.002622 0.008266 0.000000 0.004650 0.000000
# 4 0.000000 0.000000 0.000000 0.035376 0.000000 0.028161
# 5 0.008387 -0.000619 0.004650 0.000000 0.038885 0.000000
# 6 0.000000 0.000000 0.000000 0.028161 0.000000 0.070803
#
#
# Mechanical properties :
#
#
# Convention : Reuss Voigt Hill
#
# Bulk Modulus (GPa) = 46.71501 71.59005 59.15253
# Shear Modulus (GPa) = 25.12887 36.63037 30.87962
#
# Velocity S-wave (km/s) = 3.36667 4.06476 3.73208
# Velocity P-wave (km/s) = 6.01529 7.37026 6.72698
#
# Compressibility (1/GPa) = 0.02140640
#
# Stress axis : x y z
#
# Youngs Moduli (GPa) = 54.91351 131.34656 120.97025
#
# Poissons Ratio (x) = 0.39346 0.08760
# Poissons Ratio (y) = 0.16450 0.31721
# Poissons Ratio (z) = 0.03977 0.34442
#
# Static dielectric constant tensor:
#      x y z
#    x 3.842180 0.000000 -0.412170 
#    y 0.000000 4.236640 0.000000 
#    z -0.412170 0.000000 4.820110 
# 
# 
# High freq. dielectric constant tensor:
#      x y z
#    x 1.859580 0.000000 -0.028280 
#    y 0.000000 1.891790 0.000000 
#    z -0.028280 0.000000 1.882810 
# 
# From -- ./inp_files/71450.got.cif
#   From: 2010.06.25/outbox.cif.g09.slc.cpg/sg12_36_cif.got.tgz:71450.got - 2010.06.28 00:19:55.
