data_PCOD8110539
_publ_section_title
;
Structure prediction by ZEFSAII (Michael W. Deem and Ramdas Pophale) SiO2 
 PCOD8110539
Probable space group: C 2/M
;
_chemical_formula_sum "Si O2"
_cell_formula_units_Z 44
_cell_length_a 11.497421
_cell_length_b 29.165729
_cell_length_c 13.728118
_cell_angle_alpha 90.000000
_cell_angle_beta 33.122061
_cell_angle_gamma 90.000000
_cell_volume 2515.442626
_symmetry_space_group_name_H-M "C 2/M"
_symmetry_group_IT_number 12
_symmetry_cell_setting 'monoclinic'
loop_
_space_group_symop_operation_xyz
x,y,z
-x,y,-z
-x,-y,-z
x,-y,z
1/2+x,1/2+y,z
1/2-x,1/2+y,-z
1/2-x,1/2-y,-z
1/2+x,1/2-y,z
loop_
_atom_site_type_symbol
_atom_site_label
_atom_site_fract_x
_atom_site_fract_y
_atom_site_fract_z
Si Si1 0.202827 0.802833 0.797174
Si Si2 0.103059 0.621848 0.207100
Si Si3 0.000000 0.228091 0.500000
Si Si4 0.211445 0.948900 0.788555
Si Si5 0.871439 0.859967 0.500001
Si Si6 0.482737 0.621848 0.207102
O O1 0.356294 0.832731 0.757957
O O2 0.323549 0.758288 0.676451
O O3 0.127794 0.832731 0.757956
O O4 0.000000 0.785661 0.000000
O O5 0.111355 0.577966 0.273180
O O6 0.871674 0.623966 0.322219
O O7 0.275719 0.617568 0.999999
O O8 0.885362 0.195548 0.500001
O O9 0.157719 0.922034 0.726818
O O10 0.293862 0.000000 0.706138
O O11 0.000000 0.950050 0.000000
O O12 0.983883 0.876034 0.322222
O O13 0.000000 0.883067 0.500000
#
# Coordination Sequence:
#
# PCOD8110539 Si02
#       6
#     8   8   4   8   8   8
#     4   9  18  32  52  77  98 122 163 215 268 299
#     4   9  18  34  54  75 103 131 156 203 261 300
#     4  10  22  34  46  68 100 134 180 214 232 278
#     4   8  15  31  59  89 104 117 153 203 258 312
#     4  10  23  35  46  68  99 141 183 200 230 287
#     4   9  18  34  54  75 103 131 156 203 261 300
#
# _framework density 17.491952000000001
#
# number of rings (size 3 to 8) (size 9 to 14) (size 15 to 20)
#    0.545    2.364    0.000    3.273    0.000    7.273 
#    0.000    5.455    0.000    2.182    0.000    5.091 
#    0.000    0.000    0.000    0.000    0.000    0.000 
#
# Total GULP energy -272703.246353 kJ/mol
# GULP energy per Si atom -12395.602107 kJ/mol
# Density = 1.745214 g / cm^3
# Si number density = 17.491952 Si / 1000 Ang^3
#
#
#
# Elastic Constant Matrix: (Units=GPa)
#
#
# Indices 1 2 3 4 5 6 
#
# 1 141.6500 53.9891 70.8440 0.0001 -1.1267 0.0000
# 2 53.9891 124.3254 48.9723 0.0000 -0.3268 0.0000
# 3 70.8440 48.9723 102.1075 0.0002 -1.4434 0.0000
# 4 0.0001 0.0000 0.0002 334.0637 0.0000 21.3843
# 5 -1.1267 -0.3268 -1.4434 0.0000 26.7196 0.0000
# 6 0.0000 0.0000 0.0000 21.3843 0.0000 4.4266
#
#
#
# Elastic Compliance Matrix: (Units=1/GPa)
#
#
# Indices 1 2 3 4 5 6 
#
# 1 0.011296 -0.002242 -0.006761 0.000000 0.000084 0.000000
# 2 -0.002242 0.010362 -0.003417 0.000000 -0.000152 0.000000
# 3 -0.006761 -0.003417 0.016131 0.000000 0.000545 0.000000
# 4 0.000000 0.000000 0.000000 0.004334 0.000000 -0.020934
# 5 0.000084 -0.000152 0.000545 0.000000 0.037457 0.000000
# 6 0.000000 0.000000 0.000000 -0.020934 0.000000 0.327036
#
#
# Mechanical properties :
#
#
# Convention : Reuss Voigt Hill
#
# Bulk Modulus (GPa) = 77.21855 79.52151 78.37003
# Shear Modulus (GPa) = 11.47388 85.99384 48.73386
#
# Velocity S-wave (km/s) = 2.56393 7.01916 5.28405
# Velocity P-wave (km/s) = 7.28052 10.54761 9.06251
#
# Compressibility (1/GPa) = 0.01295026
#
# Stress axis : x y z
#
# Youngs Moduli (GPa) = 88.52455 96.50250 61.99298
#
# Poissons Ratio (x) = 0.21636 0.41914
# Poissons Ratio (y) = 0.19848 0.21180
# Poissons Ratio (z) = 0.59852 0.32971
#
# Static dielectric constant tensor:
#      x y z
#    x 3.063060 0.000000 0.005840 
#    y 0.000000 3.363160 0.000000 
#    z 0.005840 0.000000 3.153100 
# 
# 
# High freq. dielectric constant tensor:
#      x y z
#    x 1.658310 0.000000 0.001620 
#    y 0.000000 1.660990 0.000000 
#    z 0.001620 0.000000 1.683260 
# 
# From -- ./inp_files/209656.got.cif
#   From: 2010.06.25/outbox.cif.g09.slc.cpg/sg12_105_cif.got.tgz:209656.got - 2010.06.28 00:19:55.
