data_PCOD8110630
_publ_section_title
;
Structure prediction by ZEFSAII (Michael W. Deem and Ramdas Pophale) SiO2 
 PCOD8110630
Probable space group: C 2/M
;
_chemical_formula_sum "Si O2"
_cell_formula_units_Z 56
_cell_length_a 28.104259
_cell_length_b 14.066317
_cell_length_c 9.244193
_cell_angle_alpha 90.000000
_cell_angle_beta 52.011647
_cell_angle_gamma 90.000000
_cell_volume 2880.200009
_symmetry_space_group_name_H-M "C 2/M"
_symmetry_group_IT_number 12
_symmetry_cell_setting 'monoclinic'
loop_
_space_group_symop_operation_xyz
x,y,z
-x,y,-z
-x,-y,-z
x,-y,z
1/2+x,1/2+y,z
1/2-x,1/2+y,-z
1/2-x,1/2-y,-z
1/2+x,1/2-y,z
loop_
_atom_site_type_symbol
_atom_site_label
_atom_site_fract_x
_atom_site_fract_y
_atom_site_fract_z
Si Si1 0.408151 0.892543 0.731704
Si Si2 0.680987 0.730529 0.091419
Si Si3 0.675966 0.719249 0.781245
Si Si4 0.024085 0.608738 0.690103
Si Si5 0.868283 0.892012 0.559832
Si Si6 0.747522 0.392485 0.423159
Si Si7 0.058653 0.783563 0.808539
O O1 0.347928 0.833982 0.865314
O O2 0.428819 0.882352 0.528046
O O3 0.459207 0.858298 0.749576
O O4 0.391094 0.000000 0.799144
O O5 0.643225 0.666238 0.272782
O O6 0.750000 0.750000 0.000000
O O7 0.673324 0.681119 0.949895
O O8 0.724937 0.650170 0.616874
O O9 0.697639 0.828962 0.737912
O O10 0.611556 0.714946 0.826243
O O11 0.022127 0.500000 0.750365
O O12 0.044391 0.676287 0.783211
O O13 0.806674 0.888295 0.587701
O O14 0.923188 0.846981 0.364447
O O15 0.886277 0.000000 0.564579
O O16 0.770595 0.500000 0.403460
O O17 0.000000 0.826282 0.000000
#
# Coordination Sequence:
#
# PCOD8110630 Si02
#       7
#     8   8   8   8   8   8   8
#     4   9  19  35  59  90 122 155 194 242 301 361
#     4  12  22  37  61  89 121 157 198 250 300 362
#     4  10  22  36  58  90 120 151 202 246 295 361
#     4   9  18  36  61  89 121 157 195 242 302 360
#     4  10  22  41  62  85 119 158 201 252 300 351
#     4   9  19  39  60  81 117 158 193 241 299 354
#     4  11  22  39  62  88 121 163 202 248 300 359
#
# _framework density 19.443096000000001
#
# number of rings (size 3 to 8) (size 9 to 14) (size 15 to 20)
#    0.000    2.000    2.857    1.714    0.000    2.857 
#    0.000    1.429    0.000    6.000    0.000    0.000 
#    0.000    0.000    0.000    0.000    0.000    0.000 
#
# Total GULP energy -347194.214212 kJ/mol
# GULP energy per Si atom -12399.793365 kJ/mol
# Density = 1.939884 g / cm^3
# Si number density = 19.443096 Si / 1000 Ang^3
#
#
#
# Elastic Constant Matrix: (Units=GPa)
#
#
# Indices 1 2 3 4 5 6 
#
# 1 70.5391 21.6876 42.9571 0.0000 3.1133 0.0000
# 2 21.6876 87.3384 44.8755 0.0000 4.0152 0.0000
# 3 42.9571 44.8755 128.0093 0.0000 8.8698 0.0000
# 4 0.0000 0.0000 0.0000 20.6830 0.0000 -3.7209
# 5 3.1133 4.0152 8.8698 0.0000 37.3358 0.0000
# 6 0.0000 0.0000 0.0000 -3.7209 0.0000 30.6097
#
#
#
# Elastic Compliance Matrix: (Units=1/GPa)
#
#
# Indices 1 2 3 4 5 6 
#
# 1 0.018015 -0.001667 -0.005459 0.000000 -0.000026 0.000000
# 2 -0.001667 0.014124 -0.004368 0.000000 -0.000342 0.000000
# 3 -0.005459 -0.004368 0.011297 0.000000 -0.001759 0.000000
# 4 0.000000 0.000000 0.000000 0.049430 0.000000 0.006009
# 5 -0.000026 -0.000342 -0.001759 0.000000 0.027241 0.000000
# 6 0.000000 0.000000 0.000000 0.006009 0.000000 0.033400
#
#
# Mechanical properties :
#
#
# Convention : Reuss Voigt Hill
#
# Bulk Modulus (GPa) = 48.90742 56.10302 52.50522
# Shear Modulus (GPa) = 27.27613 29.48349 28.37981
#
# Velocity S-wave (km/s) = 3.74955 3.89832 3.82466
# Velocity P-wave (km/s) = 6.62980 7.01286 6.82402
#
# Compressibility (1/GPa) = 0.02044680
#
# Stress axis : x y z
#
# Youngs Moduli (GPa) = 55.50995 70.80232 88.51860
#
# Poissons Ratio (x) = 0.11804 0.48323
# Poissons Ratio (y) = 0.09255 0.38666
# Poissons Ratio (z) = 0.30303 0.30927
#
# Static dielectric constant tensor:
#      x y z
#    x 3.402470 0.000000 0.039780 
#    y 0.000000 3.574760 0.000000 
#    z 0.039780 0.000000 3.685160 
# 
# 
# High freq. dielectric constant tensor:
#      x y z
#    x 1.747970 0.000000 0.002140 
#    y 0.000000 1.748440 0.000000 
#    z 0.002140 0.000000 1.768310 
# 
# From -- ./inp_files/86331.got.cif
#   From: 2010.06.25/outbox.cif.g09.slc.cpg/sg12_44_cif.got.tgz:86331.got - 2010.06.28 00:19:55.
