data_PCOD8110912
_publ_section_title
;
Structure prediction by ZEFSAII (Michael W. Deem and Ramdas Pophale) SiO2 
 PCOD8110912
Probable space group: C 2/M
;
_chemical_formula_sum "Si O2"
_cell_formula_units_Z 64
_cell_length_a 18.146742
_cell_length_b 17.633874
_cell_length_c 15.429697
_cell_angle_alpha 90.000000
_cell_angle_beta 40.948223
_cell_angle_gamma 90.000000
_cell_volume 3235.897998
_symmetry_space_group_name_H-M "C 2/M"
_symmetry_group_IT_number 12
_symmetry_cell_setting 'monoclinic'
loop_
_space_group_symop_operation_xyz
x,y,z
-x,y,-z
-x,-y,-z
x,-y,z
1/2+x,1/2+y,z
1/2-x,1/2+y,-z
1/2-x,1/2-y,-z
1/2+x,1/2-y,z
loop_
_atom_site_type_symbol
_atom_site_label
_atom_site_fract_x
_atom_site_fract_y
_atom_site_fract_z
Si Si1 0.187169 0.584886 0.056092
Si Si2 0.789117 0.214963 0.723002
Si Si3 0.821335 0.284156 0.513939
Si Si4 0.073824 0.721982 0.246740
Si Si5 0.580972 0.635341 0.132440
Si Si6 0.121845 0.587419 0.924322
Si Si7 0.843719 0.084132 0.299709
Si Si8 0.881134 0.154384 0.092313
O O1 0.166957 0.500000 0.111299
O O2 0.150002 0.647401 0.161045
O O3 0.317697 0.593335 0.907141
O O4 0.114950 0.597938 0.033840
O O5 0.827481 0.225136 0.589120
O O6 0.890940 0.226966 0.700902
O O7 0.723438 0.135766 0.791587
O O8 0.710809 0.283391 0.816749
O O9 0.750000 0.250000 0.500000
O O10 0.761925 0.362635 0.589821
O O11 0.946400 0.304869 0.373114
O O12 0.081432 0.775629 0.155426
O O13 0.454686 0.604142 0.259032
O O14 0.623026 0.617801 0.998064
O O15 0.144920 0.500000 0.878060
O O16 0.000000 0.614904 0.000000
O O17 0.872215 0.088543 0.172423
O O18 0.805876 0.000000 0.358050
O O19 0.000000 0.196968 0.000000
#
# Coordination Sequence:
#
# PCOD8110912 Si02
#       8
#     8   8   8   8   8   8   8   8
#     4  11  23  37  61  97 130 157 193 251 314 369
#     4  11  21  40  63  83 120 163 204 250 299 356
#     4  11  25  43  62  87 114 161 217 253 284 354
#     4  12  23  40  63  89 123 165 208 246 298 366
#     4  11  19  37  62  91 124 160 195 243 301 371
#     4  10  22  38  60  93 126 157 199 255 313 362
#     4  10  22  40  63  91 125 159 196 252 310 358
#     4   9  19  32  57  93 119 153 192 236 296 367
#
# _framework density 19.778127000000001
#
# number of rings (size 3 to 8) (size 9 to 14) (size 15 to 20)
#    0.000    1.375    3.750    2.250    1.750    3.250 
#    0.000    0.625    0.000    3.000    0.000    0.000 
#    0.000    0.000    0.000    0.000    0.000    0.000 
#
# Total GULP energy -396593.682897 kJ/mol
# GULP energy per Si atom -12393.552591 kJ/mol
# Density = 1.973311 g / cm^3
# Si number density = 19.778127 Si / 1000 Ang^3
#
#
#
# Elastic Constant Matrix: (Units=GPa)
#
#
# Indices 1 2 3 4 5 6 
#
# 1 107.9732 36.0696 39.8371 0.0000 -11.3532 0.0000
# 2 36.0696 121.3840 40.7631 0.0000 -2.9706 0.0000
# 3 39.8371 40.7631 85.1358 0.0000 -12.9657 0.0000
# 4 0.0000 0.0000 0.0000 25.5081 0.0000 -1.0441
# 5 -11.3532 -2.9706 -12.9657 0.0000 37.5219 0.0000
# 6 0.0000 0.0000 0.0000 -1.0441 0.0000 23.8371
#
#
#
# Elastic Compliance Matrix: (Units=1/GPa)
#
#
# Indices 1 2 3 4 5 6 
#
# 1 0.011691 -0.002012 -0.004215 0.000000 0.001922 0.000000
# 2 -0.002012 0.010191 -0.004125 0.000000 -0.001227 0.000000
# 3 -0.004215 -0.004125 0.016307 0.000000 0.004033 0.000000
# 4 0.000000 0.000000 0.000000 0.039274 0.000000 0.001720
# 5 0.001922 -0.001227 0.004033 0.000000 0.028529 0.000000
# 6 0.000000 0.000000 0.000000 0.001720 0.000000 0.042027
#
#
# Mechanical properties :
#
#
# Convention : Reuss Voigt Hill
#
# Bulk Modulus (GPa) = 57.18635 60.87027 59.02831
# Shear Modulus (GPa) = 28.64503 30.56164 29.60334
#
# Velocity S-wave (km/s) = 3.80981 3.93520 3.87301
# Velocity P-wave (km/s) = 6.95195 7.17573 7.06472
#
# Compressibility (1/GPa) = 0.01748669
#
# Stress axis : x y z
#
# Youngs Moduli (GPa) = 85.53916 98.12221 61.32168
#
# Poissons Ratio (x) = 0.19738 0.25844
# Poissons Ratio (y) = 0.17206 0.25297
# Poissons Ratio (z) = 0.36051 0.40478
#
# Static dielectric constant tensor:
#      x y z
#    x 4.159610 0.000000 -0.032600 
#    y 0.000000 3.442570 0.000000 
#    z -0.032600 0.000000 3.593780 
# 
# 
# High freq. dielectric constant tensor:
#      x y z
#    x 1.794520 0.000000 -0.011360 
#    y 0.000000 1.757560 0.000000 
#    z -0.011360 0.000000 1.750230 
# 
# From -- ./inp_files/226855.got.cif
#   From: 2010.06.25/outbox.cif.g09.slc.cpg/sg12_114_cif.got.tgz:226855.got - 2010.06.28 00:19:55.
