data_PCOD8110413
_publ_section_title
;
Structure prediction by ZEFSAII (Michael W. Deem and Ramdas Pophale) SiO2 
 PCOD8110413
Probable space group: C 2/M
;
_chemical_formula_sum "Si O2"
_cell_formula_units_Z 56
_cell_length_a 17.404495
_cell_length_b 21.182998
_cell_length_c 14.160739
_cell_angle_alpha 90.000000
_cell_angle_beta 28.914171
_cell_angle_gamma 90.000000
_cell_volume 2524.237755
_symmetry_space_group_name_H-M "C 2/M"
_symmetry_group_IT_number 12
_symmetry_cell_setting 'monoclinic'
loop_
_space_group_symop_operation_xyz
x,y,z
-x,y,-z
-x,-y,-z
x,-y,z
1/2+x,1/2+y,z
1/2-x,1/2+y,-z
1/2-x,1/2-y,-z
1/2+x,1/2-y,z
loop_
_atom_site_type_symbol
_atom_site_label
_atom_site_fract_x
_atom_site_fract_y
_atom_site_fract_z
Si Si1 0.171002 0.570894 0.490607
Si Si2 0.795786 0.810680 0.011451
Si Si3 0.193626 0.286188 0.652301
Si Si4 0.873310 0.070903 0.708403
Si Si5 0.924579 0.371044 0.887329
Si Si6 0.077566 0.115170 0.649150
Si Si7 0.673047 0.811314 0.347220
O O1 0.146682 0.500000 0.475580
O O2 0.347759 0.576083 0.344398
O O3 0.152716 0.622976 0.427149
O O4 0.055906 0.580530 0.705569
O O5 0.675806 0.862181 0.099695
O O6 0.779631 0.814667 0.140429
O O7 0.750000 0.750000 0.000000
O O8 0.979301 0.825926 0.796838
O O9 0.250000 0.250000 0.500000
O O10 0.288518 0.352332 0.560715
O O11 0.231698 0.241607 0.698316
O O12 0.007339 0.307380 0.841639
O O13 0.000000 0.103611 0.500000
O O14 0.960420 0.070436 0.716049
O O15 0.839262 0.000000 0.711362
O O16 0.699624 0.104274 0.899012
O O17 0.500000 0.787252 0.500000
#
# Coordination Sequence:
#
# PCOD8110413 Si02
#       7
#     8   8   8   8   8   8   8
#     4  11  23  42  67  96 138 183 233 286 340 411
#     4  11  23  40  63  95 134 174 220 283 348 411
#     4  11  20  41  67  96 139 173 219 290 346 412
#     4  10  22  42  67  98 140 182 234 289 338 411
#     4  10  21  42  68 100 133 178 228 279 347 414
#     4  10  22  40  63  92 135 180 228 275 351 410
#     4  12  23  41  68  99 138 182 230 285 351 420
#
# _framework density 22.184913999999999
#
# number of rings (size 3 to 8) (size 9 to 14) (size 15 to 20)
#    0.000    1.286    4.286    2.571    0.000    3.714 
#    0.000    9.286    0.000    7.714    0.000    0.000 
#    0.000    0.000    0.000    0.000    0.000    0.000 
#
# Total GULP energy -346874.349863 kJ/mol
# GULP energy per Si atom -12388.369638 kJ/mol
# Density = 2.213442 g / cm^3
# Si number density = 22.184914 Si / 1000 Ang^3
#
#
#
# Elastic Constant Matrix: (Units=GPa)
#
#
# Indices 1 2 3 4 5 6 
#
# 1 108.5293 35.2576 55.5862 -0.0132 -2.6918 0.0065
# 2 35.2576 104.6502 45.2895 -0.0868 8.0565 -0.0667
# 3 55.5862 45.2895 142.0492 -0.0888 5.9045 -0.0577
# 4 -0.0132 -0.0868 -0.0888 30.8644 0.0698 -1.1457
# 5 -2.6918 8.0565 5.9045 0.0698 37.2657 0.0353
# 6 0.0065 -0.0667 -0.0577 -1.1457 0.0353 22.9125
#
#
#
# Elastic Compliance Matrix: (Units=1/GPa)
#
#
# Indices 1 2 3 4 5 6 
#
# 1 0.012148 -0.002502 -0.004042 -0.000019 0.002059 -0.000025
# 2 -0.002502 0.011729 -0.002665 0.000031 -0.002294 0.000033
# 3 -0.004042 -0.002665 0.009522 0.000022 -0.001225 0.000020
# 4 -0.000019 0.000031 0.000022 0.032460 -0.000074 0.001623
# 5 0.002059 -0.002294 -0.001225 -0.000074 0.027673 -0.000057
# 6 -0.000025 0.000033 0.000020 0.001623 -0.000057 0.043726
#
#
# Mechanical properties :
#
#
# Convention : Reuss Voigt Hill
#
# Bulk Modulus (GPa) = 66.75015 69.72172 68.23594
# Shear Modulus (GPa) = 31.11988 32.81488 31.96738
#
# Velocity S-wave (km/s) = 3.74939 3.85015 3.80010
# Velocity P-wave (km/s) = 6.99266 7.15965 7.07665
#
# Compressibility (1/GPa) = 0.01498124
#
# Stress axis : x y z
#
# Youngs Moduli (GPa) = 82.31774 85.26157 105.02112
#
# Poissons Ratio (x) = 0.21335 0.42445
# Poissons Ratio (y) = 0.20598 0.27987
# Poissons Ratio (z) = 0.33269 0.22721
#
# Static dielectric constant tensor:
#      x y z
#    x 4.609400 -0.001770 3.492180 
#    y -0.001770 3.721820 -0.016030 
#    z 3.492180 -0.016030 41.399660 
# 
# 
# High freq. dielectric constant tensor:
#      x y z
#    x 1.873230 -0.000010 -0.018940 
#    y -0.000010 1.858290 0.000010 
#    z -0.018940 0.000010 1.880660 
# 
# From -- ./inp_files/227574.got.cif
#   From: 2010.06.25/outbox.cif.g09.slc.cpg/sg12_114_cif.got.tgz:227574.got - 2010.06.28 00:19:55.
