data_PCOD8110268
_publ_section_title
;
Structure prediction by ZEFSAII (Michael W. Deem and Ramdas Pophale) SiO2 
 PCOD8110268
Probable space group: C 2/M
;
_chemical_formula_sum "Si O2"
_cell_formula_units_Z 36
_cell_length_a 11.495969
_cell_length_b 20.705934
_cell_length_c 14.918580
_cell_angle_alpha 90.000000
_cell_angle_beta 152.417310
_cell_angle_gamma 90.000000
_cell_volume 1644.278625
_symmetry_space_group_name_H-M "C 2/M"
_symmetry_group_IT_number 12
_symmetry_cell_setting 'monoclinic'
loop_
_space_group_symop_operation_xyz
x,y,z
-x,y,-z
-x,-y,-z
x,-y,z
1/2+x,1/2+y,z
1/2-x,1/2+y,-z
1/2-x,1/2-y,-z
1/2+x,1/2-y,z
loop_
_atom_site_type_symbol
_atom_site_label
_atom_site_fract_x
_atom_site_fract_y
_atom_site_fract_z
Si Si1 0.235512 0.074079 0.491957
Si Si2 0.033975 0.157904 0.839227
Si Si3 0.452917 0.208025 0.865184
Si Si4 0.204521 0.571516 0.718854
Si Si5 0.000000 0.872887 0.500000
O O1 0.536745 0.089008 0.691988
O O2 0.152332 0.081237 0.537201
O O3 0.084928 0.125226 0.329296
O O4 0.184513 0.000000 0.424738
O O5 0.933706 0.230485 0.786214
O O6 0.945901 0.117275 0.867195
O O7 0.332759 0.160261 0.027748
O O8 0.189965 0.171551 0.684977
O O9 0.500000 0.229358 0.000000
O O10 0.317921 0.500000 0.802920
O O11 0.000000 0.577899 0.500000
#
# Coordination Sequence:
#
# PCOD8110268 Si02
#       5
#     8   8   8   8   4
#     4  10  21  41  69 100 133 170 222 274 323 396
#     4  10  21  41  66  94 134 171 220 276 322 388
#     4  11  25  43  62  99 135 173 222 270 320 399
#     4   8  16  33  62  96 124 164 219 268 324 383
#     4  12  25  42  68  96 137 180 216 262 340 384
#
# _framework density 21.894099000000001
#
# number of rings (size 3 to 8) (size 9 to 14) (size 15 to 20)
#    0.000    2.000    2.222    2.333    4.667    4.444 
#    0.000    5.556    0.000    5.333    0.000    0.000 
#    0.000    0.000    0.000    0.000    0.000    0.000 
#
# Total GULP energy -223086.144209 kJ/mol
# GULP energy per Si atom -12393.674678 kJ/mol
# Density = 2.184427 g / cm^3
# Si number density = 21.894099 Si / 1000 Ang^3
#
#
#
# Elastic Constant Matrix: (Units=GPa)
#
#
# Indices 1 2 3 4 5 6 
#
# 1 172.1412 54.9782 35.4953 0.0020 18.1318 0.0034
# 2 54.9782 109.7447 43.7360 0.0011 13.2911 0.0018
# 3 35.4953 43.7360 66.6062 0.0023 12.1557 0.0040
# 4 0.0020 0.0011 0.0023 22.0544 0.0018 11.1316
# 5 18.1318 13.2911 12.1557 0.0018 36.2460 0.0032
# 6 0.0034 0.0018 0.0040 11.1316 0.0032 36.2844
#
#
#
# Elastic Compliance Matrix: (Units=1/GPa)
#
#
# Indices 1 2 3 4 5 6 
#
# 1 0.007240 -0.002695 -0.001713 0.000000 -0.002059 0.000000
# 2 -0.002695 0.013472 -0.007195 0.000000 -0.001179 0.000000
# 3 -0.001713 -0.007195 0.021318 -0.000001 -0.003654 -0.000001
# 4 0.000000 0.000000 -0.000001 0.053650 -0.000001 -0.016459
# 5 -0.002059 -0.001179 -0.003654 -0.000001 0.030277 -0.000002
# 6 0.000000 0.000000 -0.000001 -0.016459 -0.000002 0.032609
#
#
# Mechanical properties :
#
#
# Convention : Reuss Voigt Hill
#
# Bulk Modulus (GPa) = 53.12270 68.54569 60.83419
# Shear Modulus (GPa) = 26.58909 33.20249 29.89579
#
# Velocity S-wave (km/s) = 3.48866 3.89846 3.69924
# Velocity P-wave (km/s) = 6.36741 7.18608 6.78909
#
# Compressibility (1/GPa) = 0.01882434
#
# Stress axis : x y z
#
# Youngs Moduli (GPa) = 138.12200 74.22612 46.90904
#
# Poissons Ratio (x) = 0.20004 0.08035
# Poissons Ratio (y) = 0.37223 0.33751
# Poissons Ratio (z) = 0.23659 0.53406
#
# Static dielectric constant tensor:
#      x y z
#    x 4.547870 0.000000 0.353540 
#    y 0.000000 3.849280 0.000000 
#    z 0.353540 0.000000 3.558970 
# 
# 
# High freq. dielectric constant tensor:
#      x y z
#    x 1.889750 0.000000 0.016550 
#    y 0.000000 1.855670 0.000000 
#    z 0.016550 0.000000 1.832370 
# 
# From -- ./inp_files/207855.got.cif
#   From: 2010.06.25/outbox.cif.g09.slc.cpg/sg12_104_cif.got.tgz:207855.got - 2010.06.28 00:19:55.
