data_PCOD8110832
_publ_section_title
;
Structure prediction by ZEFSAII (Michael W. Deem and Ramdas Pophale) SiO2 
 PCOD8110832
Probable space group: C 2/M
;
_chemical_formula_sum "Si O2"
_cell_formula_units_Z 48
_cell_length_a 18.784565
_cell_length_b 18.516101
_cell_length_c 11.857558
_cell_angle_alpha 90.000000
_cell_angle_beta 143.671857
_cell_angle_gamma 90.000000
_cell_volume 2443.248083
_symmetry_space_group_name_H-M "C 2/M"
_symmetry_group_IT_number 12
_symmetry_cell_setting 'monoclinic'
loop_
_space_group_symop_operation_xyz
x,y,z
-x,y,-z
-x,-y,-z
x,-y,z
1/2+x,1/2+y,z
1/2-x,1/2+y,-z
1/2-x,1/2-y,-z
1/2+x,1/2-y,z
loop_
_atom_site_type_symbol
_atom_site_label
_atom_site_fract_x
_atom_site_fract_y
_atom_site_fract_z
Si Si1 0.242798 0.082124 0.667407
Si Si2 0.164610 0.662953 0.429438
Si Si3 0.752792 0.585861 0.930942
Si Si4 0.516617 0.582322 0.755753
Si Si5 0.427016 0.297901 0.797777
Si Si6 0.485139 0.914552 0.355691
O O1 0.311326 0.129438 0.662820
O O2 0.270448 0.115063 0.826134
O O3 0.099615 0.085507 0.471486
O O4 0.289241 0.000000 0.714695
O O5 0.289348 0.681347 0.651784
O O6 0.081384 0.733621 0.305292
O O7 0.097823 0.606816 0.423587
O O8 0.750797 0.500000 0.922162
O O9 0.628541 0.612777 0.827023
O O10 0.862000 0.615855 0.145583
O O11 0.539611 0.500000 0.827397
O O12 0.498155 0.633123 0.840226
O O13 0.500000 0.271406 0.000000
O O14 0.500000 0.881948 0.500000
O O15 0.480513 0.000000 0.354918
#
# Coordination Sequence:
#
# PCOD8110832 Si02
#       6
#     8   8   8   8   8   8
#     4   9  17  32  59  89 112 142 183 230 281 328
#     4  10  22  40  57  81 116 147 186 232 276 330
#     4   9  18  32  55  87 115 143 180 226 282 332
#     4   9  18  35  57  85 115 142 183 235 281 331
#     4  10  23  39  58  82 109 150 190 229 282 329
#     4  10  22  38  58  84 115 151 187 228 277 330
#
# _framework density 19.645977999999999
#
# number of rings (size 3 to 8) (size 9 to 14) (size 15 to 20)
#    0.000    2.500    0.000    1.000    4.667    3.000 
#    0.000    8.333    0.000    0.000    0.000    0.000 
#    0.000    0.000    0.000    0.000    0.000    0.000 
#
# Total GULP energy -297601.978870 kJ/mol
# GULP energy per Si atom -12400.082453 kJ/mol
# Density = 1.960126 g / cm^3
# Si number density = 19.645978 Si / 1000 Ang^3
#
#
#
# Elastic Constant Matrix: (Units=GPa)
#
#
# Indices 1 2 3 4 5 6 
#
# 1 121.2289 26.2208 61.6059 0.0000 0.6537 0.0000
# 2 26.2208 44.0294 23.1340 0.0000 2.3278 0.0000
# 3 61.6059 23.1340 121.9448 0.0000 -12.5966 0.0000
# 4 0.0000 0.0000 0.0000 18.0363 0.0000 3.8610
# 5 0.6537 2.3278 -12.5966 0.0000 22.4238 0.0000
# 6 0.0000 0.0000 0.0000 3.8610 0.0000 13.6579
#
#
#
# Elastic Compliance Matrix: (Units=1/GPa)
#
#
# Indices 1 2 3 4 5 6 
#
# 1 0.011988 -0.004028 -0.005610 0.000000 -0.003083 0.000000
# 2 -0.004028 0.027269 -0.003629 0.000000 -0.004752 0.000000
# 3 -0.005610 -0.003629 0.012505 0.000000 0.007565 0.000000
# 4 0.000000 0.000000 0.000000 0.059015 0.000000 -0.016683
# 5 -0.003083 -0.004752 0.007565 0.000000 0.049428 0.000000
# 6 0.000000 0.000000 0.000000 -0.016683 0.000000 0.077934
#
#
# Mechanical properties :
#
#
# Convention : Reuss Voigt Hill
#
# Bulk Modulus (GPa) = 39.64140 56.56938 48.10539
# Shear Modulus (GPa) = 18.30946 22.57310 20.44128
#
# Velocity S-wave (km/s) = 3.05613 3.39336 3.22915
# Velocity P-wave (km/s) = 5.71620 6.64906 6.20020
#
# Compressibility (1/GPa) = 0.02522615
#
# Stress axis : x y z
#
# Youngs Moduli (GPa) = 83.41752 36.67161 79.96998
#
# Poissons Ratio (x) = 0.14772 0.44867
# Poissons Ratio (y) = 0.33603 0.29021
# Poissons Ratio (z) = 0.46801 0.13308
#
# Static dielectric constant tensor:
#      x y z
#    x 3.457540 0.000000 0.016780 
#    y 0.000000 3.431180 0.000000 
#    z 0.016780 0.000000 3.717750 
# 
# 
# High freq. dielectric constant tensor:
#      x y z
#    x 1.759580 0.000000 0.004220 
#    y 0.000000 1.745000 0.000000 
#    z 0.004220 0.000000 1.770800 
# 
# From -- ./inp_files/147269.got.cif
#   From: 2010.06.25/outbox.cif.g09.slc.cpg/sg12_74_cif.got.tgz:147269.got - 2010.06.28 00:19:55.
