data_PCOD8110800
_publ_section_title
;
Structure prediction by ZEFSAII (Michael W. Deem and Ramdas Pophale) SiO2 
 PCOD8110800
Probable space group: C 2/M
;
_chemical_formula_sum "Si O2"
_cell_formula_units_Z 48
_cell_length_a 12.081906
_cell_length_b 16.999216
_cell_length_c 13.165251
_cell_angle_alpha 90.000000
_cell_angle_beta 65.307376
_cell_angle_gamma 90.000000
_cell_volume 2456.676887
_symmetry_space_group_name_H-M "C 2/M"
_symmetry_group_IT_number 12
_symmetry_cell_setting 'monoclinic'
loop_
_space_group_symop_operation_xyz
x,y,z
-x,y,-z
-x,-y,-z
x,-y,z
1/2+x,1/2+y,z
1/2-x,1/2+y,-z
1/2-x,1/2-y,-z
1/2+x,1/2-y,z
loop_
_atom_site_type_symbol
_atom_site_label
_atom_site_fract_x
_atom_site_fract_y
_atom_site_fract_z
Si Si1 0.523902 0.869001 0.651121
Si Si2 0.874126 0.761771 0.074121
Si Si3 0.192925 0.409058 0.406370
Si Si4 0.306910 0.000000 0.063489
Si Si5 0.508010 0.000000 0.824122
Si Si6 0.344254 0.348255 0.892753
Si Si7 0.413162 0.299748 0.286453
O O1 0.621579 0.908802 0.539748
O O2 0.390693 0.870093 0.649647
O O3 0.518496 0.920323 0.755338
O O4 0.568298 0.780557 0.657518
O O5 0.751829 0.718358 0.095407
O O6 0.862067 0.783542 0.194878
O O7 0.885424 0.837631 0.994539
O O8 0.000000 0.712442 0.000000
O O9 0.223089 0.500000 0.366614
O O10 0.316199 0.358570 0.375498
O O11 0.215390 0.070320 0.104033
O O12 0.388278 0.000000 0.131786
O O13 0.379022 0.000000 0.930298
O O14 0.456857 0.342106 0.771980
#
# Coordination Sequence:
#
# PCOD8110800 Si02
#       7
#     8   8   8   4   4   8   8
#     4  11  22  43  66  95 120 163 220 264 304 363
#     4   9  20  37  58  86 118 164 205 250 301 361
#     4  11  23  42  67  96 126 163 210 264 319 366
#     4  11  26  36  59  92 123 163 208 248 323 375
#     4  11  24  39  64  91 122 164 211 273 298 365
#     4  10  22  38  56  87 132 158 199 255 308 381
#     4  11  23  37  66  90 125 167 205 255 317 379
#
# _framework density 19.538589000000002
#
# number of rings (size 3 to 8) (size 9 to 14) (size 15 to 20)
#    0.000    1.500    1.667    3.000   12.833    0.000 
#    0.000    1.250    0.000    1.000    0.000    0.000 
#    0.000    0.000    0.000    0.000    0.000    0.000 
#
# Total GULP energy -297508.722975 kJ/mol
# GULP energy per Si atom -12396.196791 kJ/mol
# Density = 1.949412 g / cm^3
# Si number density = 19.538589 Si / 1000 Ang^3
#
#
#
# Elastic Constant Matrix: (Units=GPa)
#
#
# Indices 1 2 3 4 5 6 
#
# 1 103.9007 38.2828 39.8497 0.0000 -22.4506 0.0000
# 2 38.2828 105.4825 31.2146 0.0000 -13.2938 0.0000
# 3 39.8497 31.2146 86.6144 0.0000 -4.3809 0.0000
# 4 0.0000 0.0000 0.0000 25.5630 0.0000 -7.4710
# 5 -22.4506 -13.2938 -4.3809 0.0000 30.8039 0.0000
# 6 0.0000 0.0000 0.0000 -7.4710 0.0000 26.2819
#
#
#
# Elastic Compliance Matrix: (Units=1/GPa)
#
#
# Indices 1 2 3 4 5 6 
#
# 1 0.014487 -0.002598 -0.005290 0.000000 0.008685 0.000000
# 2 -0.002598 0.011608 -0.002851 0.000000 0.002711 0.000000
# 3 -0.005290 -0.002851 0.014856 0.000000 -0.002973 0.000000
# 4 0.000000 0.000000 0.000000 0.042663 0.000000 0.012128
# 5 0.008685 0.002711 -0.002973 0.000000 0.039540 0.000000
# 6 0.000000 0.000000 0.000000 0.012128 0.000000 0.041496
#
#
# Mechanical properties :
#
#
# Convention : Reuss Voigt Hill
#
# Bulk Modulus (GPa) = 51.34966 57.18795 54.26881
# Shear Modulus (GPa) = 25.95764 28.97314 27.46539
#
# Velocity S-wave (km/s) = 3.64886 3.85498 3.75333
# Velocity P-wave (km/s) = 6.64006 7.01051 6.82780
#
# Compressibility (1/GPa) = 0.01947433
#
# Stress axis : x y z
#
# Youngs Moduli (GPa) = 69.02609 86.14400 67.31147
#
# Poissons Ratio (x) = 0.22380 0.35606
# Poissons Ratio (y) = 0.17932 0.19192
# Poissons Ratio (z) = 0.36513 0.24561
#
# Static dielectric constant tensor:
#      x y z
#    x 3.819100 0.000000 -0.041060 
#    y 0.000000 5.010520 0.000000 
#    z -0.041060 0.000000 3.615560 
# 
# 
# High freq. dielectric constant tensor:
#      x y z
#    x 1.775360 0.000000 -0.005010 
#    y 0.000000 1.751500 0.000000 
#    z -0.005010 0.000000 1.764400 
# 
# From -- ./inp_files/131702.got.cif
#   From: 2010.06.25/outbox.cif.g09.slc.cpg/sg12_66_cif.got.tgz:131702.got - 2010.06.28 00:19:55.
