data_PCOD8110582
_publ_section_title
;
Structure prediction by ZEFSAII (Michael W. Deem and Ramdas Pophale) SiO2 
 PCOD8110582
Probable space group: C 2/M
;
_chemical_formula_sum "Si O2"
_cell_formula_units_Z 64
_cell_length_a 15.630385
_cell_length_b 17.069471
_cell_length_c 12.381353
_cell_angle_alpha 90.000000
_cell_angle_beta 89.252475
_cell_angle_gamma 90.000000
_cell_volume 3303.093595
_symmetry_space_group_name_H-M "C 2/M"
_symmetry_group_IT_number 12
_symmetry_cell_setting 'monoclinic'
loop_
_space_group_symop_operation_xyz
x,y,z
-x,y,-z
-x,-y,-z
x,-y,z
1/2+x,1/2+y,z
1/2-x,1/2+y,-z
1/2-x,1/2-y,-z
1/2+x,1/2-y,z
loop_
_atom_site_type_symbol
_atom_site_label
_atom_site_fract_x
_atom_site_fract_y
_atom_site_fract_z
Si Si1 0.836871 0.160616 0.219695
Si Si2 0.428373 0.810732 0.269241
Si Si3 0.419654 0.914837 0.077323
Si Si4 0.096563 0.229155 0.234725
Si Si5 0.900868 0.590336 0.473092
Si Si6 0.994153 0.909266 0.872678
Si Si7 0.803069 0.685046 0.939153
Si Si8 0.718610 0.800134 0.399785
O O1 0.864166 0.251739 0.208946
O O2 0.760695 0.138931 0.139460
O O3 0.799421 0.155014 0.342756
O O4 0.915510 0.103575 0.190408
O O5 0.454300 0.876758 0.185220
O O6 0.513590 0.762444 0.299009
O O7 0.384375 0.853373 0.371022
O O8 0.385884 0.000000 0.108573
O O9 0.500000 0.918392 0.000000
O O10 0.338155 0.873772 0.026822
O O11 0.077691 0.141181 0.190482
O O12 0.117172 0.279159 0.127598
O O13 0.175321 0.237183 0.317342
O O14 0.871059 0.500000 0.454312
O O15 0.846655 0.629884 0.569750
O O16 0.000000 0.591184 0.500000
O O17 0.968014 0.000000 0.863538
O O18 0.000000 0.884586 0.000000
O O19 0.750000 0.750000 0.000000
O O20 0.750000 0.750000 0.500000
#
# Coordination Sequence:
#
# PCOD8110582 Si02
#       8
#     8   8   8   8   8   8   8   8
#     4  10  22  35  64  90 115 156 199 249 293 357
#     4  11  19  38  59  87 116 151 202 242 289 367
#     4  11  23  36  54  84 121 156 191 240 296 354
#     4  10  22  36  61  89 112 160 205 245 288 361
#     4  11  23  39  60  87 118 152 194 246 301 355
#     4  10  22  41  64  92 125 160 202 249 302 362
#     4  11  20  35  56  83 119 155 196 235 294 358
#     4  11  22  41  63  89 120 157 206 249 304 358
#
# _framework density 19.375775000000001
#
# number of rings (size 3 to 8) (size 9 to 14) (size 15 to 20)
#    0.000    1.375    5.000    1.125    1.750    1.000 
#    0.000    3.125    0.000    0.750    0.000    0.000 
#    0.000    0.000    0.000    0.000    0.000    0.000 
#
# Total GULP energy -396635.194290 kJ/mol
# GULP energy per Si atom -12394.849822 kJ/mol
# Density = 1.933168 g / cm^3
# Si number density = 19.375775 Si / 1000 Ang^3
#
#
#
# Elastic Constant Matrix: (Units=GPa)
#
#
# Indices 1 2 3 4 5 6 
#
# 1 74.7349 26.9431 21.7502 0.0000 -7.3585 0.0000
# 2 26.9431 106.5095 31.5168 0.0000 4.4711 0.0000
# 3 21.7502 31.5168 87.1812 0.0000 -5.7737 0.0000
# 4 0.0000 0.0000 0.0000 15.7483 0.0000 -14.3615
# 5 -7.3585 4.4711 -5.7737 0.0000 39.5559 0.0000
# 6 0.0000 0.0000 0.0000 -14.3615 0.0000 10.5877
#
#
#
# Elastic Compliance Matrix: (Units=1/GPa)
#
#
# Indices 1 2 3 4 5 6 
#
# 1 0.015593 -0.003329 -0.002494 0.000000 0.002913 0.000000
# 2 -0.003329 0.011347 -0.003431 0.000000 -0.002403 0.000000
# 3 -0.002494 -0.003431 0.013458 0.000000 0.001888 0.000000
# 4 0.000000 0.000000 0.000000 -0.267929 0.000000 -0.363430
# 5 0.002913 -0.002403 0.001888 0.000000 0.026370 0.000000
# 6 0.000000 0.000000 0.000000 -0.363430 0.000000 -0.398522
#
#
# Mechanical properties :
#
#
# Convention : Reuss Voigt Hill
#
# Bulk Modulus (GPa) = 45.68044 47.64954 46.66499
# Shear Modulus (GPa) = -8.71264 25.72605 8.50671
#
# Velocity S-wave (km/s) = -2.12283 3.64777 2.09760
# Velocity P-wave (km/s) = 4.19746 6.51056 5.47750
#
# Compressibility (1/GPa) = 0.02189121
#
# Stress axis : x y z
#
# Youngs Moduli (GPa) = 64.12972 88.12958 74.30626
#
# Poissons Ratio (x) = 0.29337 0.18532
# Poissons Ratio (y) = 0.21348 0.25492
# Poissons Ratio (z) = 0.15994 0.30234
#
# Static dielectric constant tensor:
#      x y z
#    x 3.724100 0.000000 0.009050 
#    y 0.000000 3.535600 0.000000 
#    z 0.009050 0.000000 3.837760 
# 
# 
# High freq. dielectric constant tensor:
#      x y z
#    x 1.757070 0.000000 -0.011680 
#    y 0.000000 1.739990 0.000000 
#    z -0.011680 0.000000 1.756260 
# 
# From -- ./inp_files/146160.got.cif
#   From: 2010.06.25/outbox.cif.g09.slc.cpg/sg12_74_cif.got.tgz:146160.got - 2010.06.28 00:19:55.
