data_PCOD8110064
_publ_section_title
;
Structure prediction by ZEFSAII (Michael W. Deem and Ramdas Pophale) SiO2 
 PCOD8110064
Probable space group: C 2/M
;
_chemical_formula_sum "Si O2"
_cell_formula_units_Z 56
_cell_length_a 18.468602
_cell_length_b 8.772469
_cell_length_c 18.053289
_cell_angle_alpha 90.000000
_cell_angle_beta 111.230938
_cell_angle_gamma 90.000000
_cell_volume 2726.389740
_symmetry_space_group_name_H-M "C 2/M"
_symmetry_group_IT_number 12
_symmetry_cell_setting 'monoclinic'
loop_
_space_group_symop_operation_xyz
x,y,z
-x,y,-z
-x,-y,-z
x,-y,z
1/2+x,1/2+y,z
1/2-x,1/2+y,-z
1/2-x,1/2-y,-z
1/2+x,1/2-y,z
loop_
_atom_site_type_symbol
_atom_site_label
_atom_site_fract_x
_atom_site_fract_y
_atom_site_fract_z
Si Si1 0.778298 0.321851 0.434783
Si Si2 0.425865 0.323534 0.020008
Si Si3 0.927658 0.829702 0.525907
Si Si4 0.670960 0.179169 0.272889
Si Si5 0.782781 0.823737 0.860930
Si Si6 0.973650 0.819826 0.706500
Si Si7 0.890543 0.678462 0.161001
O O1 0.761372 0.500000 0.426331
O O2 0.750000 0.250000 0.500000
O O3 0.869414 0.286307 0.464073
O O4 0.735685 0.245327 0.350810
O O5 0.436219 0.500000 0.045094
O O6 0.422786 0.227719 0.093547
O O7 0.500000 0.267552 0.000000
O O8 0.346315 0.294159 0.947225
O O9 0.950266 0.767083 0.615322
O O10 0.000000 0.837254 0.500000
O O11 0.891283 0.000000 0.520223
O O12 0.696687 0.216460 0.199677
O O13 0.587298 0.252539 0.257479
O O14 0.664818 0.000000 0.282004
O O15 0.699333 0.774431 0.862505
O O16 0.782841 0.000000 0.835351
O O17 0.059452 0.758591 0.756165
O O18 0.974046 0.000000 0.713571
O O19 0.901651 0.500000 0.173668
#
# Coordination Sequence:
#
# PCOD8110064 Si02
#       7
#     8   8   8   8   8   8   8
#     4  12  24  41  65  93 126 166 211 261 315 372
#     4  10  21  40  67  94 124 167 213 255 310 374
#     4  10  23  42  64  92 125 163 212 264 318 377
#     4  12  25  41  65  94 126 164 211 261 312 376
#     4  10  23  42  63  94 132 167 206 257 313 371
#     4  11  23  41  64  89 125 167 208 262 319 374
#     4  11  24  40  62  93 131 167 209 261 309 368
#
# _framework density 20.539982999999999
#
# number of rings (size 3 to 8) (size 9 to 14) (size 15 to 20)
#    0.000    1.143    1.429    4.714    2.000    4.000 
#    0.000    0.000    0.000    0.000    0.000    0.000 
#    0.000    0.000    0.000    0.000    0.000    0.000 
#
# Total GULP energy -347356.735415 kJ/mol
# GULP energy per Si atom -12405.597693 kJ/mol
# Density = 2.049323 g / cm^3
# Si number density = 20.539983 Si / 1000 Ang^3
#
#
#
# Elastic Constant Matrix: (Units=GPa)
#
#
# Indices 1 2 3 4 5 6 
#
# 1 121.9929 34.3412 30.5810 0.0000 13.2352 0.0000
# 2 34.3412 86.5670 29.7601 0.0000 6.3115 0.0000
# 3 30.5810 29.7601 74.3812 0.0000 11.6615 0.0000
# 4 0.0000 0.0000 0.0000 35.6727 0.0000 6.5294
# 5 13.2352 6.3115 11.6615 0.0000 42.2098 0.0000
# 6 0.0000 0.0000 0.0000 6.5294 0.0000 -11.7534
#
#
#
# Elastic Compliance Matrix: (Units=1/GPa)
#
#
# Indices 1 2 3 4 5 6 
#
# 1 0.009871 -0.002880 -0.002601 0.000000 -0.001946 0.000000
# 2 -0.002880 0.014246 -0.004519 0.000000 0.000021 0.000000
# 3 -0.002601 -0.004519 0.016816 0.000000 -0.003155 0.000000
# 4 0.000000 0.000000 0.000000 0.025445 0.000000 0.014136
# 5 -0.001946 0.000021 -0.003155 0.000000 0.025170 0.000000
# 6 0.000000 0.000000 0.000000 0.014136 0.000000 -0.077229
#
#
# Mechanical properties :
#
#
# Convention : Reuss Voigt Hill
#
# Bulk Modulus (GPa) = 47.77062 52.47841 50.12452
# Shear Modulus (GPa) = 121.07177 25.77640 73.42408
#
# Velocity S-wave (km/s) = 7.68586 3.54635 5.98536
# Velocity P-wave (km/s) = 10.10302 6.50951 8.49838
#
# Compressibility (1/GPa) = 0.02093337
#
# Stress axis : x y z
#
# Youngs Moduli (GPa) = 101.30681 70.19382 59.46565
#
# Poissons Ratio (x) = 0.20214 0.15467
# Poissons Ratio (y) = 0.29174 0.26875
# Poissons Ratio (z) = 0.26351 0.31723
#
# Static dielectric constant tensor:
#      x y z
#    x 3.952450 0.000000 0.145630 
#    y 0.000000 3.734820 0.000000 
#    z 0.145630 0.000000 3.692800 
# 
# 
# High freq. dielectric constant tensor:
#      x y z
#    x 1.816620 0.000000 0.006930 
#    y 0.000000 1.803170 0.000000 
#    z 0.006930 0.000000 1.813770 
# 
# From -- ./inp_files/275670.got.cif
#   From: 2010.06.25/outbox.cif.g09.slc.cpg/sg12_138_cif.got.tgz:275670.got - 2010.06.28 00:19:55.
