data_PCOD8110782
_publ_section_title
;
Structure prediction by ZEFSAII (Michael W. Deem and Ramdas Pophale) SiO2 
 PCOD8110782
Probable space group: C 2/M
;
_chemical_formula_sum "Si O2"
_cell_formula_units_Z 40
_cell_length_a 19.631933
_cell_length_b 15.179187
_cell_length_c 6.502803
_cell_angle_alpha 90.000000
_cell_angle_beta 73.147107
_cell_angle_gamma 90.000000
_cell_volume 1854.589637
_symmetry_space_group_name_H-M "C 2/M"
_symmetry_group_IT_number 12
_symmetry_cell_setting 'monoclinic'
loop_
_space_group_symop_operation_xyz
x,y,z
-x,y,-z
-x,-y,-z
x,-y,z
1/2+x,1/2+y,z
1/2-x,1/2+y,-z
1/2-x,1/2-y,-z
1/2+x,1/2-y,z
loop_
_atom_site_type_symbol
_atom_site_label
_atom_site_fract_x
_atom_site_fract_y
_atom_site_fract_z
Si Si1 0.719533 0.095801 0.272186
Si Si2 0.426200 0.151570 0.495543
Si Si3 0.161522 0.237168 0.149046
Si Si4 0.574149 0.710682 0.834738
Si Si5 0.333471 0.399298 0.521176
O O1 0.639917 0.084712 0.436458
O O2 0.721224 0.181359 0.112997
O O3 0.769043 0.115135 0.420928
O O4 0.738312 0.000000 0.152317
O O5 0.500000 0.105117 0.500000
O O6 0.410474 0.229196 0.675013
O O7 0.432944 0.192822 0.261529
O O8 0.187431 0.151334 0.251267
O O9 0.139933 0.212703 0.937640
O O10 0.594867 0.638058 0.646819
O O11 0.500000 0.681132 0.000000
O O12 0.346583 0.500000 0.568042
#
# Coordination Sequence:
#
# PCOD8110782 Si02
#       5
#     8   8   8   8   8
#     4   9  19  38  58  81 113 148 183 225 273 326
#     4   9  18  35  57  82 110 144 178 227 269 328
#     4   9  20  35  58  80 112 145 182 225 276 323
#     4  11  20  35  59  83 110 145 185 225 279 328
#     4  10  22  38  55  81 114 145 189 230 267 326
#
# _framework density 21.568114000000001
#
# number of rings (size 3 to 8) (size 9 to 14) (size 15 to 20)
#    1.200    1.200    2.000    0.600    0.000    2.400 
#    0.000    2.000    0.000    2.400    0.000    0.000 
#    0.000    0.000    0.000    0.000    0.000    0.000 
#
# Total GULP energy -247791.774359 kJ/mol
# GULP energy per Si atom -12389.588718 kJ/mol
# Density = 2.151902 g / cm^3
# Si number density = 21.568114 Si / 1000 Ang^3
#
#
#
# Elastic Constant Matrix: (Units=GPa)
#
#
# Indices 1 2 3 4 5 6 
#
# 1 60.0688 13.3455 3.5223 0.0000 13.3884 0.0000
# 2 13.3455 136.6837 39.6868 0.0000 18.4247 0.0000
# 3 3.5223 39.6868 69.2201 0.0000 15.6081 0.0000
# 4 0.0000 0.0000 0.0000 16.1619 0.0000 2.5212
# 5 13.3884 18.4247 15.6081 0.0000 29.6773 0.0000
# 6 0.0000 0.0000 0.0000 2.5212 0.0000 13.9027
#
#
#
# Elastic Compliance Matrix: (Units=1/GPa)
#
#
# Indices 1 2 3 4 5 6 
#
# 1 0.018722 -0.001146 0.001643 0.000000 -0.008599 0.000000
# 2 -0.001146 0.009120 -0.004550 0.000000 -0.002752 0.000000
# 3 0.001643 -0.004550 0.018722 0.000000 -0.007763 0.000000
# 4 0.000000 0.000000 0.000000 0.063675 0.000000 -0.011547
# 5 -0.008599 -0.002752 -0.007763 0.000000 0.043366 0.000000
# 6 0.000000 0.000000 0.000000 -0.011547 0.000000 0.074022
#
#
# Mechanical properties :
#
#
# Convention : Reuss Voigt Hill
#
# Bulk Modulus (GPa) = 26.00155 42.12022 34.06088
# Shear Modulus (GPa) = 20.11633 25.90959 23.01296
#
# Velocity S-wave (km/s) = 3.05731 3.46973 3.27002
# Velocity P-wave (km/s) = 4.95425 5.96853 5.48488
#
# Compressibility (1/GPa) = 0.03845924
#
# Stress axis : x y z
#
# Youngs Moduli (GPa) = 53.41185 109.64692 53.41235
#
# Poissons Ratio (x) = 0.12566 -0.08777
# Poissons Ratio (y) = 0.06121 0.24303
# Poissons Ratio (z) = -0.08777 0.49891
#
# Static dielectric constant tensor:
#      x y z
#    x 3.775830 0.000000 -0.041120 
#    y 0.000000 3.663090 0.000000 
#    z -0.041120 0.000000 3.674140 
# 
# 
# High freq. dielectric constant tensor:
#      x y z
#    x 1.856530 0.000000 -0.006750 
#    y 0.000000 1.826860 0.000000 
#    z -0.006750 0.000000 1.838480 
# 
# From -- ./inp_files/15140.got.cif
#   From: 2010.06.25/outbox.cif.g09.slc.cpg/sg12_8_cif.got.tgz:15140.got - 2010.06.28 00:19:55.
