data_PCOD8110452
_publ_section_title
;
Structure prediction by ZEFSAII (Michael W. Deem and Ramdas Pophale) SiO2 
 PCOD8110452
Probable space group: C 2/M
;
_chemical_formula_sum "Si O2"
_cell_formula_units_Z 64
_cell_length_a 9.216336
_cell_length_b 29.254080
_cell_length_c 11.278388
_cell_angle_alpha 90.000000
_cell_angle_beta 97.597457
_cell_angle_gamma 90.000000
_cell_volume 3014.133258
_symmetry_space_group_name_H-M "C 2/M"
_symmetry_group_IT_number 12
_symmetry_cell_setting 'monoclinic'
loop_
_space_group_symop_operation_xyz
x,y,z
-x,y,-z
-x,-y,-z
x,-y,z
1/2+x,1/2+y,z
1/2-x,1/2+y,-z
1/2-x,1/2-y,-z
1/2+x,1/2-y,z
loop_
_atom_site_type_symbol
_atom_site_label
_atom_site_fract_x
_atom_site_fract_y
_atom_site_fract_z
Si Si1 0.410991 0.447182 0.153468
Si Si2 0.829529 0.613853 0.456246
Si Si3 0.163739 0.384635 0.023130
Si Si4 0.698530 0.205110 0.185325
Si Si5 0.359611 0.448291 0.422649
Si Si6 0.018934 0.794313 0.134598
Si Si7 0.156261 0.707083 0.456749
Si Si8 0.320314 0.618306 0.802939
O O1 0.428839 0.500000 0.114966
O O2 0.274090 0.424350 0.073950
O O3 0.373230 0.443350 0.285844
O O4 0.562656 0.420591 0.144876
O O5 0.783235 0.576735 0.547259
O O6 0.762049 0.663339 0.478473
O O7 0.776383 0.600401 0.318544
O O8 0.000000 0.617803 0.500000
O O9 0.163058 0.340758 0.108970
O O10 0.208762 0.370036 0.896078
O O11 0.000000 0.405058 0.000000
O O12 0.610598 0.248243 0.125399
O O13 0.648107 0.199111 0.315031
O O14 0.869775 0.216505 0.188511
O O15 0.500000 0.425051 0.500000
O O16 0.345708 0.500000 0.464427
O O17 0.098716 0.833959 0.219313
O O18 0.000000 0.815016 0.000000
O O19 0.250000 0.750000 0.500000
O O20 0.000000 0.714717 0.500000
#
# Coordination Sequence:
#
# PCOD8110452 Si02
#       8
#     8   8   8   8   8   8   8   8
#     4  11  24  48  76 103 140 184 237 296 351 422
#     4  11  26  42  68  99 142 182 224 286 359 408
#     4  12  28  44  71 102 142 184 235 291 355 414
#     4  12  25  43  70  99 146 184 236 291 355 416
#     4  10  21  42  71 104 133 173 229 280 347 423
#     4  12  24  43  66 104 141 184 237 287 348 417
#     4  11  25  44  64  97 138 181 235 284 345 417
#     4  12  25  46  68 103 139 184 240 287 341 434
#
# _framework density 21.233301999999998
#
# number of rings (size 3 to 8) (size 9 to 14) (size 15 to 20)
#    0.000    0.625    3.750    3.375    7.000    2.000 
#    0.000    0.000    0.000    0.000    0.000    0.000 
#    0.000    0.000    0.000    0.000    0.000    0.000 
#
# Total GULP energy -396821.064844 kJ/mol
# GULP energy per Si atom -12400.658276 kJ/mol
# Density = 2.118497 g / cm^3
# Si number density = 21.233302 Si / 1000 Ang^3
#
#
#
# Elastic Constant Matrix: (Units=GPa)
#
#
# Indices 1 2 3 4 5 6 
#
# 1 136.3429 53.1903 62.1099 0.0000 -4.0771 0.0000
# 2 53.1903 114.7315 38.6388 0.0000 -4.4212 0.0000
# 3 62.1099 38.6388 85.5404 0.0000 -14.7425 0.0000
# 4 0.0000 0.0000 0.0000 35.8176 0.0000 2.8831
# 5 -4.0771 -4.4212 -14.7425 0.0000 40.7605 0.0000
# 6 0.0000 0.0000 0.0000 2.8831 0.0000 34.4443
#
#
#
# Elastic Compliance Matrix: (Units=1/GPa)
#
#
# Indices 1 2 3 4 5 6 
#
# 1 0.011934 -0.003040 -0.007618 0.000000 -0.001891 0.000000
# 2 -0.003040 0.011068 -0.002813 0.000000 -0.000121 0.000000
# 3 -0.007618 -0.002813 0.019526 0.000000 0.005995 0.000000
# 4 0.000000 0.000000 0.000000 0.028109 0.000000 -0.002353
# 5 -0.001891 -0.000121 0.005995 0.000000 0.026500 0.000000
# 6 0.000000 0.000000 0.000000 -0.002353 0.000000 0.029229
#
#
# Mechanical properties :
#
#
# Convention : Reuss Voigt Hill
#
# Bulk Modulus (GPa) = 64.16133 71.61031 67.88582
# Shear Modulus (GPa) = 31.54517 34.38287 32.96402
#
# Velocity S-wave (km/s) = 3.85859 4.02841 3.94441
# Velocity P-wave (km/s) = 7.08057 7.44554 7.26535
#
# Compressibility (1/GPa) = 0.01558571
#
# Stress axis : x y z
#
# Youngs Moduli (GPa) = 83.79245 90.34985 51.21483
#
# Poissons Ratio (x) = 0.27467 0.39016
# Poissons Ratio (y) = 0.25474 0.14406
# Poissons Ratio (z) = 0.63834 0.25415
#
# Static dielectric constant tensor:
#      x y z
#    x 3.967380 0.000000 0.242220 
#    y 0.000000 4.034380 0.000000 
#    z 0.242220 0.000000 4.742170 
# 
# 
# High freq. dielectric constant tensor:
#      x y z
#    x 1.836990 0.000000 -0.005210 
#    y 0.000000 1.836590 0.000000 
#    z -0.005210 0.000000 1.845590 
# 
# From -- ./inp_files/125731.got.cif
#   From: 2010.06.25/outbox.cif.g09.slc.cpg/sg12_63_cif.got.tgz:125731.got - 2010.06.28 00:19:55.
