data_PCOD8110811
_publ_section_title
;
Structure prediction by ZEFSAII (Michael W. Deem and Ramdas Pophale) SiO2 
 PCOD8110811
Probable space group: C 2/M
;
_chemical_formula_sum "Si O2"
_cell_formula_units_Z 48
_cell_length_a 13.841620
_cell_length_b 18.167921
_cell_length_c 22.889141
_cell_angle_alpha 90.000000
_cell_angle_beta 26.842583
_cell_angle_gamma 90.000000
_cell_volume 2599.074005
_symmetry_space_group_name_H-M "C 2/M"
_symmetry_group_IT_number 12
_symmetry_cell_setting 'monoclinic'
loop_
_space_group_symop_operation_xyz
x,y,z
-x,y,-z
-x,-y,-z
x,-y,z
1/2+x,1/2+y,z
1/2-x,1/2+y,-z
1/2-x,1/2-y,-z
1/2+x,1/2-y,z
loop_
_atom_site_type_symbol
_atom_site_label
_atom_site_fract_x
_atom_site_fract_y
_atom_site_fract_z
Si Si1 0.677056 0.700406 0.450298
Si Si2 0.980153 0.800258 0.679447
Si Si3 0.841639 0.914969 0.960213
Si Si4 0.837136 0.170760 0.138019
Si Si5 0.015636 0.584747 0.236228
Si Si6 0.759785 0.414180 0.116567
O O1 0.500000 0.728360 0.500000
O O2 0.572625 0.674869 0.567462
O O3 0.798577 0.631333 0.355976
O O4 0.838643 0.767166 0.375810
O O5 0.792668 0.741138 0.769628
O O6 0.897123 0.873341 0.754838
O O7 0.627728 0.901384 0.113329
O O8 0.911877 0.000000 0.927339
O O9 0.791300 0.891045 0.921842
O O10 0.036310 0.864174 0.876208
O O11 0.678192 0.108404 0.199534
O O12 0.000000 0.197170 0.000000
O O13 0.955079 0.500000 0.277887
O O14 0.724960 0.500000 0.146189
O O15 0.000000 0.389793 0.000000
#
# Coordination Sequence:
#
# PCOD8110811 Si02
#       6
#     8   8   8   8   8   8
#     4  10  23  38  54  78 104 148 189 225 268 308
#     4  10  22  39  55  78 111 143 185 225 268 320
#     4   9  18  33  58  87 111 140 174 219 278 329
#     4   9  17  33  56  87 110 137 175 222 279 323
#     4   9  18  34  55  82 112 137 176 225 269 323
#     4  10  22  38  57  83 113 143 176 220 276 331
#
# _framework density 18.468115999999998
#
# number of rings (size 3 to 8) (size 9 to 14) (size 15 to 20)
#    0.000    2.500    0.000    1.000    4.667    3.000 
#    0.000    3.333    0.000    0.500    0.000    0.000 
#    0.000    0.000    0.000    0.000    0.000    0.000 
#
# Total GULP energy -297680.623683 kJ/mol
# GULP energy per Si atom -12403.359320 kJ/mol
# Density = 1.842608 g / cm^3
# Si number density = 18.468116 Si / 1000 Ang^3
#
#
#
# Elastic Constant Matrix: (Units=GPa)
#
#
# Indices 1 2 3 4 5 6 
#
# 1 109.6341 40.3527 48.1551 0.0282 -12.2435 -0.0218
# 2 40.3527 65.9490 49.0690 -0.0871 1.3295 -0.0107
# 3 48.1551 49.0690 104.6040 -0.2220 -3.8010 -0.0449
# 4 0.0282 -0.0871 -0.2220 23.0083 -0.0758 8.6407
# 5 -12.2435 1.3295 -3.8010 -0.0758 27.3444 0.0038
# 6 -0.0218 -0.0107 -0.0449 8.6407 0.0038 18.0903
#
#
#
# Elastic Compliance Matrix: (Units=1/GPa)
#
#
# Indices 1 2 3 4 5 6 
#
# 1 0.013339 -0.005941 -0.003142 -0.000063 0.005824 0.000033
# 2 -0.005941 0.026134 -0.009716 0.000001 -0.005281 -0.000015
# 3 -0.003142 -0.009716 0.015609 0.000135 0.001236 -0.000036
# 4 -0.000063 0.000001 0.000135 0.052965 0.000141 -0.025298
# 5 0.005824 -0.005281 0.001236 0.000141 0.039607 -0.000069
# 6 0.000033 -0.000015 -0.000036 -0.025298 -0.000069 0.067362
#
#
# Mechanical properties :
#
#
# Convention : Reuss Voigt Hill
#
# Bulk Modulus (GPa) = 57.19776 61.70453 59.45115
# Shear Modulus (GPa) = 19.34663 23.19596 21.27129
#
# Velocity S-wave (km/s) = 3.24013 3.54785 3.39748
# Velocity P-wave (km/s) = 6.71090 7.08992 6.90301
#
# Compressibility (1/GPa) = 0.01748320
#
# Stress axis : x y z
#
# Youngs Moduli (GPa) = 74.97055 38.26383 64.06456
#
# Poissons Ratio (x) = 0.22734 0.20129
# Poissons Ratio (y) = 0.44542 0.62247
# Poissons Ratio (z) = 0.23555 0.37178
#
# Static dielectric constant tensor:
#      x y z
#    x 3.362800 -0.000020 -0.048750 
#    y -0.000020 3.249630 0.000130 
#    z -0.048750 0.000130 3.476810 
# 
# 
# High freq. dielectric constant tensor:
#      x y z
#    x 1.718830 0.000000 -0.002430 
#    y 0.000000 1.710570 0.000010 
#    z -0.002430 0.000010 1.718570 
# 
# From -- ./inp_files/133416.got.cif
#   From: 2010.06.25/outbox.cif.g09.slc.cpg/sg12_67_cif.got.tgz:133416.got - 2010.06.28 00:19:55.
