data_PCOD8110029
_publ_section_title
;
Structure prediction by ZEFSAII (Michael W. Deem and Ramdas Pophale) SiO2 
 PCOD8110029
Probable space group: C 2/M
;
_chemical_formula_sum "Si O2"
_cell_formula_units_Z 40
_cell_length_a 20.372175
_cell_length_b 8.956301
_cell_length_c 15.623455
_cell_angle_alpha 90.000000
_cell_angle_beta 41.061020
_cell_angle_gamma 90.000000
_cell_volume 1872.481680
_symmetry_space_group_name_H-M "C 2/M"
_symmetry_group_IT_number 12
_symmetry_cell_setting 'monoclinic'
loop_
_space_group_symop_operation_xyz
x,y,z
-x,y,-z
-x,-y,-z
x,-y,z
1/2+x,1/2+y,z
1/2-x,1/2+y,-z
1/2-x,1/2-y,-z
1/2+x,1/2-y,z
loop_
_atom_site_type_symbol
_atom_site_label
_atom_site_fract_x
_atom_site_fract_y
_atom_site_fract_z
Si Si1 0.694089 0.330393 0.945274
Si Si2 0.061238 0.323567 0.524727
Si Si3 0.896512 0.828710 0.141557
Si Si4 0.245660 0.677244 0.597194
Si Si5 0.899984 0.675685 0.818085
O O1 0.684494 0.500000 0.984746
O O2 0.685772 0.315480 0.852013
O O3 0.802229 0.264523 0.863561
O O4 0.603749 0.244596 0.082969
O O5 0.084257 0.500000 0.500712
O O6 0.164813 0.234985 0.430100
O O7 0.000000 0.277693 0.500000
O O8 0.997693 0.274268 0.670335
O O9 0.859251 0.726713 0.256535
O O10 0.909022 0.000000 0.160628
O O11 0.000000 0.768766 0.000000
O O12 0.248666 0.500000 0.585373
O O13 0.250000 0.750000 0.500000
O O14 0.898583 0.500000 0.826778
#
# Coordination Sequence:
#
# PCOD8110029 Si02
#       5
#     8   8   8   8   8
#     4   9  18  34  56  85 121 158 198 248 307 370
#     4  10  21  40  66  93 127 169 214 264 324 387
#     4  10  22  41  65  91 122 163 211 260 319 383
#     4  12  27  45  66  94 132 173 219 271 324 386
#     4   9  18  32  55  86 119 158 200 249 305 368
#
# _framework density 21.362024999999999
#
# number of rings (size 3 to 8) (size 9 to 14) (size 15 to 20)
#    0.000    2.000    0.000    3.000    2.800    5.600 
#    0.000    4.000    0.000    0.000    0.000    0.000 
#    0.000    0.000    0.000    0.000    0.000    0.000 
#
# Total GULP energy -247996.771950 kJ/mol
# GULP energy per Si atom -12399.838598 kJ/mol
# Density = 2.131340 g / cm^3
# Si number density = 21.362025 Si / 1000 Ang^3
#
#
#
# Elastic Constant Matrix: (Units=GPa)
#
#
# Indices 1 2 3 4 5 6 
#
# 1 67.6327 33.9770 29.2981 0.0000 -1.4508 0.0000
# 2 33.9770 84.9817 63.7325 -0.0002 -1.4637 0.0002
# 3 29.2981 63.7325 150.6563 0.0000 -1.9466 0.0000
# 4 0.0000 -0.0002 0.0000 35.8501 0.0000 -1.4196
# 5 -1.4508 -1.4637 -1.9466 0.0000 31.0251 0.0000
# 6 0.0000 0.0002 0.0000 -1.4196 0.0000 24.6231
#
#
#
# Elastic Compliance Matrix: (Units=1/GPa)
#
#
# Indices 1 2 3 4 5 6 
#
# 1 0.018558 -0.006898 -0.000685 0.000000 0.000499 0.000000
# 2 -0.006898 0.019803 -0.007034 0.000000 0.000170 0.000000
# 3 -0.000685 -0.007034 0.009749 0.000000 0.000248 0.000000
# 4 0.000000 0.000000 0.000000 0.027958 0.000000 0.001612
# 5 0.000499 0.000170 0.000248 0.000000 0.032279 0.000000
# 6 0.000000 0.000000 0.000000 0.001612 0.000000 0.040705
#
#
# Mechanical properties :
#
#
# Convention : Reuss Voigt Hill
#
# Bulk Modulus (GPa) = 52.97036 61.92068 57.44552
# Shear Modulus (GPa) = 27.08885 30.05053 28.56969
#
# Velocity S-wave (km/s) = 3.56488 3.75470 3.66102
# Velocity P-wave (km/s) = 6.46489 6.91710 6.69482
#
# Compressibility (1/GPa) = 0.01887848
#
# Stress axis : x y z
#
# Youngs Moduli (GPa) = 53.88406 50.49731 102.57015
#
# Poissons Ratio (x) = 0.34833 0.07021
# Poissons Ratio (y) = 0.37169 0.72145
# Poissons Ratio (z) = 0.03689 0.35518
#
# Static dielectric constant tensor:
#      x y z
#    x 3.886940 0.000000 -0.074460 
#    y 0.000000 3.629290 0.000000 
#    z -0.074460 0.000000 4.079220 
# 
# 
# High freq. dielectric constant tensor:
#      x y z
#    x 1.838090 0.000000 -0.000790 
#    y 0.000000 1.813340 0.000000 
#    z -0.000790 0.000000 1.852330 
# 
# From -- ./inp_files/237083.got.cif
#   From: 2010.06.25/outbox.cif.g09.slc.cpg/sg12_119_cif.got.tgz:237083.got - 2010.06.28 00:19:55.
