data_PCOD8110299
_publ_section_title
;
Structure prediction by ZEFSAII (Michael W. Deem and Ramdas Pophale) SiO2 
 PCOD8110299
Probable space group: C 2/M
;
_chemical_formula_sum "Si O2"
_cell_formula_units_Z 56
_cell_length_a 30.019358
_cell_length_b 15.167190
_cell_length_c 12.160975
_cell_angle_alpha 90.000000
_cell_angle_beta 27.680245
_cell_angle_gamma 90.000000
_cell_volume 2572.142314
_symmetry_space_group_name_H-M "C 2/M"
_symmetry_group_IT_number 12
_symmetry_cell_setting 'monoclinic'
loop_
_space_group_symop_operation_xyz
x,y,z
-x,y,-z
-x,-y,-z
x,-y,z
1/2+x,1/2+y,z
1/2-x,1/2+y,-z
1/2-x,1/2-y,-z
1/2+x,1/2-y,z
loop_
_atom_site_type_symbol
_atom_site_label
_atom_site_fract_x
_atom_site_fract_y
_atom_site_fract_z
Si Si1 0.068946 0.250410 0.255452
Si Si2 0.685179 0.171225 0.676042
Si Si3 0.990815 0.249997 0.196120
Si Si4 0.706149 0.400682 0.986912
Si Si5 0.343630 0.600077 0.486779
Si Si6 0.653688 0.901190 0.511901
Si Si7 0.709401 0.098161 0.967861
O O1 0.017587 0.216348 0.258102
O O2 0.000000 0.287963 0.500000
O O3 0.120309 0.165923 0.194546
O O4 0.139181 0.329878 0.069095
O O5 0.750000 0.250000 0.500000
O O6 0.742767 0.118723 0.644056
O O7 0.674178 0.106503 0.596456
O O8 0.583388 0.216872 0.926875
O O9 0.929481 0.170174 0.272374
O O10 0.927325 0.335864 0.350704
O O11 0.665830 0.500000 0.078580
O O12 0.752976 0.380055 0.765889
O O13 0.781024 0.385648 0.922514
O O14 0.378747 0.500000 0.382000
O O15 0.313410 0.607589 0.681127
O O16 0.618141 0.000000 0.564629
O O17 0.668005 0.000000 0.036219
#
# Coordination Sequence:
#
# PCOD8110299 Si02
#       7
#     8   8   8   8   8   8   8
#     4  12  23  37  63  98 135 175 215 267 335 402
#     4  12  24  45  69  93 137 175 223 279 333 390
#     4  12  25  42  67 101 135 172 222 286 329 395
#     4  10  22  42  65  93 131 172 217 273 328 392
#     4  11  24  45  72 100 134 182 226 272 340 405
#     4  11  24  42  68  96 127 172 224 273 333 397
#     4  10  21  41  67  95 132 173 219 274 328 394
#
# _framework density 21.771735
#
# number of rings (size 3 to 8) (size 9 to 14) (size 15 to 20)
#    0.000    0.857    2.857    4.714    0.000    3.429 
#    0.000    2.143    0.000    0.000    0.000    0.000 
#    0.000    0.000    0.000    0.000    0.000    0.000 
#
# Total GULP energy -347138.842982 kJ/mol
# GULP energy per Si atom -12397.815821 kJ/mol
# Density = 2.172218 g / cm^3
# Si number density = 21.771735 Si / 1000 Ang^3
#
#
#
# Elastic Constant Matrix: (Units=GPa)
#
#
# Indices 1 2 3 4 5 6 
#
# 1 81.2928 32.0577 29.7845 0.0000 -0.6809 0.0000
# 2 32.0577 143.1894 48.7697 0.0000 -21.0373 0.0000
# 3 29.7845 48.7697 67.2206 0.0000 0.0928 0.0000
# 4 0.0000 0.0000 0.0000 -2.6143 0.0000 23.1288
# 5 -0.6809 -21.0373 0.0928 0.0000 36.7320 0.0000
# 6 0.0000 0.0000 0.0000 23.1288 0.0000 15.8828
#
#
#
# Elastic Compliance Matrix: (Units=1/GPa)
#
#
# Indices 1 2 3 4 5 6 
#
# 1 0.014919 -0.001564 -0.005474 0.000000 -0.000606 0.000000
# 2 -0.001564 0.010616 -0.007017 0.000000 0.006069 0.000000
# 3 -0.005474 -0.007017 0.022399 0.000000 -0.004177 0.000000
# 4 0.000000 0.000000 0.000000 -0.027552 0.000000 0.040122
# 5 -0.000606 0.006069 -0.004177 0.000000 0.030699 0.000000
# 6 0.000000 0.000000 0.000000 0.040122 0.000000 0.004535
#
#
# Mechanical properties :
#
#
# Convention : Reuss Voigt Hill
#
# Bulk Modulus (GPa) = 50.45054 56.99182 53.72118
# Shear Modulus (GPa) = 55.35011 22.07283 38.71147
#
# Velocity S-wave (km/s) = 5.04758 3.18752 4.22128
# Velocity P-wave (km/s) = 7.56265 6.30721 6.96328
#
# Compressibility (1/GPa) = 0.01982139
#
# Stress axis : x y z
#
# Youngs Moduli (GPa) = 67.02933 94.20150 44.64547
#
# Poissons Ratio (x) = 0.14738 0.24441
# Poissons Ratio (y) = 0.10487 0.31327
# Poissons Ratio (z) = 0.36695 0.66101
#
# Static dielectric constant tensor:
#      x y z
#    x 2.582690 0.000000 0.589750 
#    y 0.000000 3.735980 0.000000 
#    z 0.589750 0.000000 3.491650 
# 
# 
# High freq. dielectric constant tensor:
#      x y z
#    x 1.858980 0.000000 0.014760 
#    y 0.000000 1.867510 0.000000 
#    z 0.014760 0.000000 1.849310 
# 
# From -- ./inp_files/189640.got.cif
#   From: 2010.06.25/outbox.cif.g09.slc.cpg/sg12_95_cif.got.tgz:189640.got - 2010.06.28 00:19:55.
