data_PCOD8110591
_publ_section_title
;
Structure prediction by ZEFSAII (Michael W. Deem and Ramdas Pophale) SiO2 
 PCOD8110591
Probable space group: C 2/M
;
_chemical_formula_sum "Si O2"
_cell_formula_units_Z 56
_cell_length_a 14.016454
_cell_length_b 28.155416
_cell_length_c 14.574002
_cell_angle_alpha 90.000000
_cell_angle_beta 30.956252
_cell_angle_gamma 90.000000
_cell_volume 2958.461390
_symmetry_space_group_name_H-M "C 2/M"
_symmetry_group_IT_number 12
_symmetry_cell_setting 'monoclinic'
loop_
_space_group_symop_operation_xyz
x,y,z
-x,y,-z
-x,-y,-z
x,-y,z
1/2+x,1/2+y,z
1/2-x,1/2+y,-z
1/2-x,1/2-y,-z
1/2+x,1/2-y,z
loop_
_atom_site_type_symbol
_atom_site_label
_atom_site_fract_x
_atom_site_fract_y
_atom_site_fract_z
Si Si1 0.745925 0.376118 0.616759
Si Si2 0.759015 0.715076 0.165808
Si Si3 0.559082 0.170287 0.822501
Si Si4 0.949439 0.945380 0.936103
Si Si5 0.651545 0.298412 0.560262
Si Si6 0.592454 0.114720 0.205789
Si Si7 0.712605 0.322307 0.820886
O O1 0.600618 0.418629 0.749573
O O2 0.637327 0.332711 0.658648
O O3 0.812860 0.352417 0.657490
O O4 0.915126 0.396875 0.416757
O O5 0.830756 0.670568 0.170558
O O6 0.549789 0.708847 0.313088
O O7 0.778235 0.765544 0.201713
O O8 0.897891 0.711242 0.963348
O O9 0.721403 0.178225 0.618865
O O10 0.461916 0.123211 0.857522
O O11 0.956570 0.000000 0.901123
O O12 0.740074 0.927607 0.090043
O O13 0.000000 0.937977 0.000000
O O14 0.750000 0.250000 0.500000
O O15 0.684242 0.163584 0.169606
O O16 0.500000 0.339567 0.000000
#
# Coordination Sequence:
#
# PCOD8110591 Si02
#       7
#     8   8   8   8   8   8   8
#     4  11  22  38  56  84 114 156 192 235 296 348
#     4  11  22  37  53  76 119 153 200 244 278 331
#     4  10  22  36  52  79 104 155 191 237 288 329
#     4  11  23  40  61  86 114 147 191 242 299 362
#     4  11  23  35  55  83 116 154 203 241 282 344
#     4  11  22  37  58  80 112 147 191 234 292 354
#     4  12  21  34  53  77 114 157 194 236 283 339
#
# _framework density 18.928757999999998
#
# number of rings (size 3 to 8) (size 9 to 14) (size 15 to 20)
#    0.000    1.000    4.286    4.286    0.000    2.857 
#    0.000    1.429    0.000    0.000    0.000    8.000 
#    0.000   22.857    0.000    0.000    0.000    0.000 
#
# Total GULP energy -346867.087712 kJ/mol
# GULP energy per Si atom -12388.110275 kJ/mol
# Density = 1.888568 g / cm^3
# Si number density = 18.928758 Si / 1000 Ang^3
#
#
#
# Elastic Constant Matrix: (Units=GPa)
#
#
# Indices 1 2 3 4 5 6 
#
# 1 100.2274 49.3911 34.2917 0.0073 -18.2646 0.0022
# 2 49.3911 121.0407 44.1785 0.0007 2.5980 -0.0002
# 3 34.2917 44.1785 99.2470 0.0092 -27.5169 0.0028
# 4 0.0073 0.0007 0.0092 40.7361 -0.0110 2.7340
# 5 -18.2646 2.5980 -27.5169 -0.0110 42.0690 -0.0036
# 6 0.0022 -0.0002 0.0028 2.7340 -0.0036 24.3862
#
#
#
# Elastic Compliance Matrix: (Units=1/GPa)
#
#
# Indices 1 2 3 4 5 6 
#
# 1 0.014079 -0.005619 -0.000699 -0.000001 0.006002 0.000000
# 2 -0.005619 0.012771 -0.005666 0.000000 -0.006934 0.000000
# 3 -0.000699 -0.005666 0.015700 -0.000001 0.010315 0.000000
# 4 -0.000001 0.000000 -0.000001 0.024734 0.000006 -0.002773
# 5 0.006002 -0.006934 0.010315 0.000006 0.033552 0.000002
# 6 0.000000 0.000000 0.000000 -0.002773 0.000002 0.041318
#
#
# Mechanical properties :
#
#
# Convention : Reuss Voigt Hill
#
# Bulk Modulus (GPa) = 53.81636 64.02642 58.92139
# Shear Modulus (GPa) = 29.01637 34.28184 31.64911
#
# Velocity S-wave (km/s) = 3.91951 4.26032 4.09346
# Velocity P-wave (km/s) = 6.99829 7.62226 7.31693
#
# Compressibility (1/GPa) = 0.01858171
#
# Stress axis : x y z
#
# Youngs Moduli (GPa) = 71.02694 78.30045 63.69502
#
# Poissons Ratio (x) = 0.43994 0.04455
# Poissons Ratio (y) = 0.39907 0.36091
# Poissons Ratio (z) = 0.04968 0.44367
#
# Static dielectric constant tensor:
#      x y z
#    x 3.728790 0.000050 -0.132650 
#    y 0.000050 3.134850 0.000020 
#    z -0.132650 0.000020 3.678380 
# 
# 
# High freq. dielectric constant tensor:
#      x y z
#    x 1.734780 0.000000 -0.012340 
#    y 0.000000 1.688470 0.000000 
#    z -0.012340 0.000000 1.762530 
# 
# From -- ./inp_files/219103.got.cif
#   From: 2010.06.25/outbox.cif.g09.slc.cpg/sg12_110_cif.got.tgz:219103.got - 2010.06.28 00:19:55.
