data_PCOD8110894
_publ_section_title
;
Structure prediction by ZEFSAII (Michael W. Deem and Ramdas Pophale) SiO2 
 PCOD8110894
Probable space group: C 2/M
;
_chemical_formula_sum "Si O2"
_cell_formula_units_Z 56
_cell_length_a 21.509926
_cell_length_b 31.615867
_cell_length_c 9.182760
_cell_angle_alpha 90.000000
_cell_angle_beta 26.787326
_cell_angle_gamma 90.000000
_cell_volume 2814.398661
_symmetry_space_group_name_H-M "C 2/M"
_symmetry_group_IT_number 12
_symmetry_cell_setting 'monoclinic'
loop_
_space_group_symop_operation_xyz
x,y,z
-x,y,-z
-x,-y,-z
x,-y,z
1/2+x,1/2+y,z
1/2-x,1/2+y,-z
1/2-x,1/2-y,-z
1/2+x,1/2-y,z
loop_
_atom_site_type_symbol
_atom_site_label
_atom_site_fract_x
_atom_site_fract_y
_atom_site_fract_z
Si Si1 0.760568 0.877313 0.806382
Si Si2 0.892000 0.745249 0.113935
Si Si3 0.356762 0.047422 0.468399
Si Si4 0.245886 0.873569 0.846804
Si Si5 0.511410 0.338277 0.140901
Si Si6 0.011743 0.321050 0.313876
Si Si7 0.681500 0.047473 0.779392
O O1 0.768243 0.922326 0.706956
O O2 0.859299 0.842947 0.524768
O O3 0.805692 0.877161 0.880049
O O4 0.601854 0.863440 0.128014
O O5 0.750000 0.750000 0.500000
O O6 0.942291 0.789850 0.947412
O O7 0.900523 0.712483 0.963689
O O8 0.000000 0.725787 0.000000
O O9 0.300049 0.079733 0.704072
O O10 0.302019 0.061554 0.423354
O O11 0.303419 0.000000 0.613615
O O12 0.519877 0.048397 0.146425
O O13 0.359755 0.836254 0.578698
O O14 0.117617 0.866010 0.009897
O O15 0.500000 0.354711 0.000000
O O16 0.000000 0.301196 0.500000
O O17 0.738873 0.000000 0.683574
#
# Coordination Sequence:
#
# PCOD8110894 Si02
#       7
#     8   8   8   8   8   8   8
#     4  11  22  38  58  88 123 156 197 239 293 360
#     4  11  23  41  62  88 115 150 203 250 293 347
#     4   9  18  34  58  89 119 153 197 244 292 340
#     4  11  22  38  59  88 119 159 197 240 294 354
#     4  11  24  41  59  83 117 157 196 244 301 348
#     4  10  22  38  60  88 120 154 194 242 299 354
#     4   9  18  34  58  88 120 155 196 243 292 343
#
# _framework density 19.897677999999999
#
# number of rings (size 3 to 8) (size 9 to 14) (size 15 to 20)
#    0.000    1.714    1.429    4.714    0.000    2.857 
#    0.000    5.714    0.000    4.286    0.000    0.000 
#    0.000    0.000    0.000    0.000    0.000    0.000 
#
# Total GULP energy -347033.446126 kJ/mol
# GULP energy per Si atom -12394.051647 kJ/mol
# Density = 1.985239 g / cm^3
# Si number density = 19.897678 Si / 1000 Ang^3
#
#
#
# Elastic Constant Matrix: (Units=GPa)
#
#
# Indices 1 2 3 4 5 6 
#
# 1 111.4698 40.9221 43.0874 -0.0002 9.0469 0.0001
# 2 40.9221 95.9496 38.0209 -0.0001 19.0879 -0.0001
# 3 43.0874 38.0209 97.3458 -0.0005 19.5114 0.0005
# 4 -0.0002 -0.0001 -0.0005 22.6998 0.0001 0.7300
# 5 9.0469 19.0879 19.5114 0.0001 34.8878 -0.0002
# 6 0.0001 -0.0001 0.0005 0.7300 -0.0002 27.4331
#
#
#
# Elastic Compliance Matrix: (Units=1/GPa)
#
#
# Indices 1 2 3 4 5 6 
#
# 1 0.011774 -0.003668 -0.004020 0.000000 0.001202 0.000000
# 2 -0.003668 0.014154 -0.002864 0.000000 -0.005191 0.000000
# 3 -0.004020 -0.002864 0.014244 0.000000 -0.005357 0.000000
# 4 0.000000 0.000000 0.000000 0.044091 0.000000 -0.001173
# 5 0.001202 -0.005191 -0.005357 0.000000 0.034188 0.000000
# 6 0.000000 0.000000 0.000000 -0.001173 0.000000 0.036484
#
#
# Mechanical properties :
#
#
# Convention : Reuss Voigt Hill
#
# Bulk Modulus (GPa) = 52.44204 60.98068 56.71136
# Shear Modulus (GPa) = 27.41319 29.18646 28.29982
#
# Velocity S-wave (km/s) = 3.71578 3.83407 3.77539
# Velocity P-wave (km/s) = 6.69495 7.09322 6.89696
#
# Compressibility (1/GPa) = 0.01906867
#
# Stress axis : x y z
#
# Youngs Moduli (GPa) = 84.93488 70.65077 70.20362
#
# Poissons Ratio (x) = 0.25912 0.28219
# Poissons Ratio (y) = 0.31151 0.20109
# Poissons Ratio (z) = 0.34141 0.20237
#
# Static dielectric constant tensor:
#      x y z
#    x 3.679270 0.000000 0.086140 
#    y 0.000000 3.540210 0.000000 
#    z 0.086140 0.000000 3.594660 
# 
# 
# High freq. dielectric constant tensor:
#      x y z
#    x 1.778650 0.000000 0.007090 
#    y 0.000000 1.771940 0.000000 
#    z 0.007090 0.000000 1.772200 
# 
# From -- ./inp_files/91526.got.cif
#   From: 2010.06.25/outbox.cif.g09.slc.cpg/sg12_46_cif.got.tgz:91526.got - 2010.06.28 00:19:55.
