data_PCOD8110654
_publ_section_title
;
Structure prediction by ZEFSAII (Michael W. Deem and Ramdas Pophale) SiO2 
 PCOD8110654
Probable space group: C 2/M
;
_chemical_formula_sum "Si O2"
_cell_formula_units_Z 40
_cell_length_a 25.596059
_cell_length_b 13.701585
_cell_length_c 19.463357
_cell_angle_alpha 90.000000
_cell_angle_beta 18.944455
_cell_angle_gamma 90.000000
_cell_volume 2216.046694
_symmetry_space_group_name_H-M "C 2/M"
_symmetry_group_IT_number 12
_symmetry_cell_setting 'monoclinic'
loop_
_space_group_symop_operation_xyz
x,y,z
-x,y,-z
-x,-y,-z
x,-y,z
1/2+x,1/2+y,z
1/2-x,1/2+y,-z
1/2-x,1/2-y,-z
1/2+x,1/2-y,z
loop_
_atom_site_type_symbol
_atom_site_label
_atom_site_fract_x
_atom_site_fract_y
_atom_site_fract_z
Si Si1 0.566588 0.609646 0.143170
Si Si2 0.582327 0.886996 0.329616
Si Si3 0.426462 0.244148 0.409816
Si Si4 0.714169 0.891020 0.532508
Si Si5 0.842915 0.611861 0.239547
O O1 0.571820 0.500000 0.166687
O O2 0.563627 0.682900 0.211255
O O3 0.407120 0.623552 0.295757
O O4 0.726626 0.630444 0.899984
O O5 0.500000 0.844779 0.500000
O O6 0.508974 0.831637 0.356732
O O7 0.539356 0.000000 0.372734
O O8 0.351024 0.187799 0.439007
O O9 0.292969 0.310527 0.614590
O O10 0.631780 0.875637 0.709803
O O11 0.674521 0.000000 0.555221
O O12 0.788343 0.500000 0.292253
O O13 0.000000 0.637707 0.000000
#
# Coordination Sequence:
#
# PCOD8110654 Si02
#       5
#     8   8   8   8   8
#     4   9  18  34  52  71 100 133 162 198 248 299
#     4  10  22  37  50  69 101 135 165 204 253 295
#     4  11  19  31  55  78  96 127 172 209 238 287
#     4   9  18  32  52  77 102 129 164 204 243 289
#     4   9  18  32  50  76 108 133 155 196 253 298
#
# _framework density 18.050160000000002
#
# number of rings (size 3 to 8) (size 9 to 14) (size 15 to 20)
#    0.000    2.400    0.000    5.400    0.000    3.200 
#    0.000    0.000    0.000    8.400    0.000    0.000 
#    0.000    0.000    0.000    0.000    0.000    0.000 
#
# Total GULP energy -247891.668694 kJ/mol
# GULP energy per Si atom -12394.583435 kJ/mol
# Density = 1.800908 g / cm^3
# Si number density = 18.050160 Si / 1000 Ang^3
#
#
#
# Elastic Constant Matrix: (Units=GPa)
#
#
# Indices 1 2 3 4 5 6 
#
# 1 77.5848 35.2123 53.0110 0.0059 2.0479 -0.0058
# 2 35.2123 88.9862 52.5390 0.0078 4.3317 -0.0077
# 3 53.0110 52.5390 152.5870 0.0068 16.3139 -0.0093
# 4 0.0059 0.0078 0.0068 15.8588 -0.0030 3.6601
# 5 2.0479 4.3317 16.3139 -0.0030 14.9336 0.0032
# 6 -0.0058 -0.0077 -0.0093 3.6601 0.0032 25.3072
#
#
#
# Elastic Compliance Matrix: (Units=1/GPa)
#
#
# Indices 1 2 3 4 5 6 
#
# 1 0.018424 -0.004323 -0.005408 -0.000002 0.004635 0.000001
# 2 -0.004323 0.015145 -0.003744 -0.000005 0.000290 0.000003
# 3 -0.005408 -0.003744 0.010786 -0.000003 -0.009955 0.000003
# 4 -0.000002 -0.000005 -0.000003 0.065234 0.000021 -0.009434
# 5 0.004635 0.000290 -0.009955 0.000021 0.077119 -0.000015
# 6 0.000001 0.000003 0.000003 -0.009434 -0.000015 0.040879
#
#
# Mechanical properties :
#
#
# Convention : Reuss Voigt Hill
#
# Bulk Modulus (GPa) = 57.45453 66.74251 62.09852
# Shear Modulus (GPa) = 19.20593 23.11297 21.15945
#
# Velocity S-wave (km/s) = 3.26549 3.58227 3.42754
# Velocity P-wave (km/s) = 6.79098 7.35980 7.08110
#
# Compressibility (1/GPa) = 0.01740507
#
# Stress axis : x y z
#
# Youngs Moduli (GPa) = 54.27772 66.03003 92.71523
#
# Poissons Ratio (x) = 0.28546 0.50137
# Poissons Ratio (y) = 0.23465 0.34709
# Poissons Ratio (z) = 0.29352 0.24719
#
# Static dielectric constant tensor:
#      x y z
#    x 2.946420 0.000000 0.081150 
#    y 0.000000 3.672550 0.000000 
#    z 0.081150 0.000000 3.562340 
# 
# 
# High freq. dielectric constant tensor:
#      x y z
#    x 1.659190 0.000000 0.006330 
#    y 0.000000 1.723520 0.000000 
#    z 0.006330 0.000000 1.704000 
# 
# From -- ./inp_files/59095.got.cif
#   From: 2010.06.25/outbox.cif.g09.slc.cpg/sg12_30_cif.got.tgz:59095.got - 2010.06.28 00:19:55.
