data_PCOD8110739
_publ_section_title
;
Structure prediction by ZEFSAII (Michael W. Deem and Ramdas Pophale) SiO2 
 PCOD8110739
Probable space group: C 2/M
;
_chemical_formula_sum "Si O2"
_cell_formula_units_Z 52
_cell_length_a 20.613528
_cell_length_b 17.853316
_cell_length_c 7.306185
_cell_angle_alpha 90.000000
_cell_angle_beta 75.712155
_cell_angle_gamma 90.000000
_cell_volume 2605.650640
_symmetry_space_group_name_H-M "C 2/M"
_symmetry_group_IT_number 12
_symmetry_cell_setting 'monoclinic'
loop_
_space_group_symop_operation_xyz
x,y,z
-x,y,-z
-x,-y,-z
x,-y,z
1/2+x,1/2+y,z
1/2-x,1/2+y,-z
1/2-x,1/2-y,-z
1/2+x,1/2-y,z
loop_
_atom_site_type_symbol
_atom_site_label
_atom_site_fract_x
_atom_site_fract_y
_atom_site_fract_z
Si Si1 0.163230 0.087219 0.698988
Si Si2 0.690673 0.085482 0.536776
Si Si3 0.335023 0.670898 0.942428
Si Si4 0.500000 0.188917 0.500000
Si Si5 0.095463 0.415145 0.261998
Si Si6 0.186574 0.336402 0.912824
Si Si7 0.072660 0.168982 0.470509
O O1 0.239544 0.109812 0.603949
O O2 0.114895 0.131090 0.597969
O O3 0.150011 0.000000 0.681414
O O4 0.147031 0.109370 0.918130
O O5 0.632815 0.094009 0.428747
O O6 0.673827 0.141965 0.711962
O O7 0.695423 0.000000 0.605641
O O8 0.264234 0.651627 0.901829
O O9 0.390794 0.665698 0.749187
O O10 0.335613 0.751619 0.038201
O O11 0.470825 0.136644 0.683115
O O12 0.440573 0.243425 0.465976
O O13 0.072187 0.500000 0.245062
O O14 0.143681 0.392287 0.065273
O O15 0.000000 0.128394 0.500000
#
# Coordination Sequence:
#
# PCOD8110739 Si02
#       7
#     8   8   8   4   8   8   8
#     4  11  24  41  64  94 123 161 209 264 323 375
#     4  10  22  37  61  94 128 162 200 259 321 368
#     4  11  23  37  63  95 122 167 209 263 313 371
#     4  10  23  44  65  88 128 176 212 248 305 376
#     4  11  22  41  65  96 130 167 208 254 310 375
#     4  11  21  36  63  95 129 159 210 258 317 370
#     4  10  23  44  63  86 128 167 212 251 315 368
#
# _framework density 19.956627000000001
#
# number of rings (size 3 to 8) (size 9 to 14) (size 15 to 20)
#    0.462    0.923    4.615    0.692    2.154    2.769 
#    0.000    3.077    0.000    2.769    0.000    0.000 
#    0.000    0.000    0.000    0.000    0.000    0.000 
#
# Total GULP energy -322413.724078 kJ/mol
# GULP energy per Si atom -12400.527849 kJ/mol
# Density = 1.991120 g / cm^3
# Si number density = 19.956627 Si / 1000 Ang^3
#
#
#
# Elastic Constant Matrix: (Units=GPa)
#
#
# Indices 1 2 3 4 5 6 
#
# 1 57.0152 26.9979 47.5440 0.0000 -27.2314 0.0000
# 2 26.9979 93.5131 45.4553 0.0000 -9.3229 0.0000
# 3 47.5440 45.4553 124.8088 0.0000 -21.6759 0.0000
# 4 0.0000 0.0000 0.0000 11.3528 0.0000 9.0096
# 5 -27.2314 -9.3229 -21.6759 0.0000 30.9987 0.0000
# 6 0.0000 0.0000 0.0000 9.0096 0.0000 19.4684
#
#
#
# Elastic Compliance Matrix: (Units=1/GPa)
#
#
# Indices 1 2 3 4 5 6 
#
# 1 0.040481 -0.004574 -0.008898 0.000000 0.027963 0.000000
# 2 -0.004574 0.013524 -0.003613 0.000000 -0.002477 0.000000
# 3 -0.008898 -0.003613 0.012716 0.000000 -0.000012 0.000000
# 4 0.000000 0.000000 0.000000 0.139213 0.000000 -0.064425
# 5 0.027963 -0.002477 -0.000012 0.000000 0.056071 0.000000
# 6 0.000000 0.000000 0.000000 -0.064425 0.000000 0.081180
#
#
# Mechanical properties :
#
#
# Convention : Reuss Voigt Hill
#
# Bulk Modulus (GPa) = 30.72247 57.25906 43.99077
# Shear Modulus (GPa) = 12.87981 22.71997 17.79989
#
# Velocity S-wave (km/s) = 2.54321 3.37778 2.98976
# Velocity P-wave (km/s) = 4.90428 6.63073 5.83174
#
# Compressibility (1/GPa) = 0.03254946
#
# Stress axis : x y z
#
# Youngs Moduli (GPa) = 24.70300 73.94517 78.64277
#
# Poissons Ratio (x) = 0.33822 0.69978
# Poissons Ratio (y) = 0.11299 0.28415
# Poissons Ratio (z) = 0.21981 0.26717
#
# Static dielectric constant tensor:
#      x y z
#    x 3.645910 0.000000 -0.167060 
#    y 0.000000 3.726500 0.000000 
#    z -0.167060 0.000000 3.583760 
# 
# 
# High freq. dielectric constant tensor:
#      x y z
#    x 1.773860 0.000000 -0.014430 
#    y 0.000000 1.785550 0.000000 
#    z -0.014430 0.000000 1.778350 
# 
# From -- ./inp_files/21191.got.cif
#   From: 2010.06.25/outbox.cif.g09.slc.cpg/sg12_11_cif.got.tgz:21191.got - 2010.06.28 00:19:55.
