data_PCOD8110468
_publ_section_title
;
Structure prediction by ZEFSAII (Michael W. Deem and Ramdas Pophale) SiO2 
 PCOD8110468
Probable space group: C 2/M
;
_chemical_formula_sum "Si O2"
_cell_formula_units_Z 56
_cell_length_a 11.124658
_cell_length_b 17.434157
_cell_length_c 14.421094
_cell_angle_alpha 90.000000
_cell_angle_beta 75.678068
_cell_angle_gamma 90.000000
_cell_volume 2710.030933
_symmetry_space_group_name_H-M "C 2/M"
_symmetry_group_IT_number 12
_symmetry_cell_setting 'monoclinic'
loop_
_space_group_symop_operation_xyz
x,y,z
-x,y,-z
-x,-y,-z
x,-y,z
1/2+x,1/2+y,z
1/2-x,1/2+y,-z
1/2-x,1/2-y,-z
1/2+x,1/2-y,z
loop_
_atom_site_type_symbol
_atom_site_label
_atom_site_fract_x
_atom_site_fract_y
_atom_site_fract_z
Si Si1 0.887360 0.310013 0.407495
Si Si2 0.161469 0.291006 0.381147
Si Si3 0.715682 0.342757 0.822211
Si Si4 0.383907 0.087650 0.929622
Si Si5 0.390166 0.088786 0.242306
Si Si6 0.969144 0.087227 0.898792
Si Si7 0.728038 0.170680 0.886483
O O1 0.848954 0.335864 0.518613
O O2 0.770920 0.270626 0.377364
O O3 0.912885 0.386435 0.343693
O O4 0.019064 0.261335 0.385019
O O5 0.204172 0.343635 0.287604
O O6 0.763996 0.404808 0.886975
O O7 0.579280 0.371558 0.820466
O O8 0.719601 0.261613 0.875404
O O9 0.495048 0.114543 0.842951
O O10 0.394916 0.000000 0.961394
O O11 0.379568 0.139563 0.023348
O O12 0.276315 0.132693 0.214999
O O13 0.362927 0.000000 0.246264
O O14 0.855182 0.144064 0.907579
O O15 0.943917 0.000000 0.867707
O O16 0.000000 0.085748 0.000000
#
# Coordination Sequence:
#
# PCOD8110468 Si02
#       7
#     8   8   8   8   8   8   8
#     4  10  21  43  65  96 122 162 208 265 331 395
#     4  10  22  40  68  94 125 158 209 271 331 382
#     4  12  24  38  65  97 122 161 215 271 312 376
#     4  11  23  41  60  87 130 172 209 255 317 379
#     4  11  23  39  63  91 128 167 210 261 320 388
#     4  11  25  43  62  87 130 177 213 258 324 389
#     4  12  25  40  64  91 128 173 219 263 314 385
#
# _framework density 20.663971
#
# number of rings (size 3 to 8) (size 9 to 14) (size 15 to 20)
#    0.000    1.000    4.286    2.571    4.000    1.143 
#    0.000    2.857    0.000    0.000    0.000    5.000 
#    0.000    0.000    0.000    0.000    0.000    0.000 
#
# Total GULP energy -346917.274058 kJ/mol
# GULP energy per Si atom -12389.902645 kJ/mol
# Density = 2.061694 g / cm^3
# Si number density = 20.663971 Si / 1000 Ang^3
#
#
#
# Elastic Constant Matrix: (Units=GPa)
#
#
# Indices 1 2 3 4 5 6 
#
# 1 85.7603 27.7892 23.0189 0.0000 -2.6267 0.0000
# 2 27.7892 71.6594 32.4187 0.0000 -1.5612 0.0000
# 3 23.0189 32.4187 130.7586 0.0000 -2.2109 0.0000
# 4 0.0000 0.0000 0.0000 16.9064 0.0000 -9.8012
# 5 -2.6267 -1.5612 -2.2109 0.0000 32.7333 0.0000
# 6 0.0000 0.0000 0.0000 -9.8012 0.0000 15.4022
#
#
#
# Elastic Compliance Matrix: (Units=1/GPa)
#
#
# Indices 1 2 3 4 5 6 
#
# 1 0.013525 -0.004682 -0.001207 0.000000 0.000781 0.000000
# 2 -0.004682 0.017346 -0.003473 0.000000 0.000217 0.000000
# 3 -0.001207 -0.003473 0.008727 0.000000 0.000327 0.000000
# 4 0.000000 0.000000 0.000000 0.093726 0.000000 0.059643
# 5 0.000781 0.000217 0.000327 0.000000 0.030645 0.000000
# 6 0.000000 0.000000 0.000000 0.059643 0.000000 0.102880
#
#
# Mechanical properties :
#
#
# Convention : Reuss Voigt Hill
#
# Bulk Modulus (GPa) = 47.90450 50.51465 49.20958
# Shear Modulus (GPa) = 17.09218 26.67180 21.88199
#
# Velocity S-wave (km/s) = 2.87914 3.59658 3.25767
# Velocity P-wave (km/s) = 5.85539 6.46112 6.16569
#
# Compressibility (1/GPa) = 0.02087487
#
# Stress axis : x y z
#
# Youngs Moduli (GPa) = 73.93487 57.64891 114.59102
#
# Poissons Ratio (x) = 0.26991 0.13831
# Poissons Ratio (y) = 0.34617 0.39795
# Poissons Ratio (z) = 0.08924 0.20020
#
# Static dielectric constant tensor:
#      x y z
#    x 4.226530 0.000000 -0.036440 
#    y 0.000000 3.517980 0.000000 
#    z -0.036440 0.000000 3.988720 
# 
# 
# High freq. dielectric constant tensor:
#      x y z
#    x 1.832090 0.000000 0.002930 
#    y 0.000000 1.774020 0.000000 
#    z 0.002930 0.000000 1.816760 
# 
# From -- ./inp_files/206064.got.cif
#   From: 2010.06.25/outbox.cif.g09.slc.cpg/sg12_104_cif.got.tgz:206064.got - 2010.06.28 00:19:55.
