data_PCOD8110898
_publ_section_title
;
Structure prediction by ZEFSAII (Michael W. Deem and Ramdas Pophale) SiO2 
 PCOD8110898
Probable space group: C 2/M
;
_chemical_formula_sum "Si O2"
_cell_formula_units_Z 64
_cell_length_a 31.437564
_cell_length_b 21.951192
_cell_length_c 16.467438
_cell_angle_alpha 90.000000
_cell_angle_beta 17.155314
_cell_angle_gamma 90.000000
_cell_volume 3351.972586
_symmetry_space_group_name_H-M "C 2/M"
_symmetry_group_IT_number 12
_symmetry_cell_setting 'monoclinic'
loop_
_space_group_symop_operation_xyz
x,y,z
-x,y,-z
-x,-y,-z
x,-y,z
1/2+x,1/2+y,z
1/2-x,1/2+y,-z
1/2-x,1/2-y,-z
1/2+x,1/2-y,z
loop_
_atom_site_type_symbol
_atom_site_label
_atom_site_fract_x
_atom_site_fract_y
_atom_site_fract_z
Si Si1 0.651757 0.265418 0.254675
Si Si2 0.867266 0.130599 0.191248
Si Si3 0.814597 0.752799 0.207731
Si Si4 0.304803 0.571044 0.585420
Si Si5 0.671279 0.149527 0.695928
Si Si6 0.842080 0.341092 0.024715
Si Si7 0.639181 0.569728 0.957558
Si Si8 0.361562 0.167886 0.586389
O O1 0.500000 0.291507 0.500000
O O2 0.624316 0.204085 0.355717
O O3 0.750000 0.250000 0.000000
O O4 0.724292 0.317174 0.176537
O O5 0.917554 0.192841 0.052884
O O6 0.730850 0.146545 0.495993
O O7 0.825785 0.078836 0.202021
O O8 0.000000 0.104733 0.000000
O O9 0.770481 0.709815 0.363895
O O10 0.678434 0.786633 0.414808
O O11 0.889523 0.711651 0.002037
O O12 0.281079 0.500000 0.637983
O O13 0.229068 0.591221 0.639827
O O14 0.473880 0.588095 0.276588
O O15 0.228353 0.602116 0.801348
O O16 0.500000 0.149711 0.000000
O O17 0.984996 0.362086 0.716349
O O18 0.670645 0.500000 0.924406
O O19 0.743971 0.614661 0.816251
#
# Coordination Sequence:
#
# PCOD8110898 Si02
#       8
#     8   8   8   8   8   8   8   8
#     4  11  22  38  64  97 131 152 173 219 279 340
#     4  11  21  34  54  78 106 150 196 243 298 347
#     4   9  22  32  54  77 118 147 185 231 294 349
#     4  10  23  42  59  77 110 155 200 244 290 338
#     4  11  23  36  51  79 112 148 194 250 303 344
#     4  10  22  38  60  89 118 150 192 228 274 346
#     4  10  23  41  59  79 109 153 201 245 289 337
#     4  10  22  38  61  89 116 151 193 227 275 345
#
# _framework density 19.093235
#
# number of rings (size 3 to 8) (size 9 to 14) (size 15 to 20)
#    0.000    1.750    2.500    0.750   10.500    4.500 
#    0.000    0.000    0.000    1.500    0.000    0.000 
#    0.000    0.000    0.000    0.000    0.000    0.000 
#
# Total GULP energy -396746.005237 kJ/mol
# GULP energy per Si atom -12398.312664 kJ/mol
# Density = 1.904978 g / cm^3
# Si number density = 19.093235 Si / 1000 Ang^3
#
#
#
# Elastic Constant Matrix: (Units=GPa)
#
#
# Indices 1 2 3 4 5 6 
#
# 1 77.4192 31.8422 35.4363 0.0026 -2.1021 -0.0021
# 2 31.8422 100.9274 45.8223 -0.0115 -3.8681 0.0064
# 3 35.4363 45.8223 124.5559 -0.0061 -2.0877 0.0052
# 4 0.0026 -0.0115 -0.0061 24.5875 0.0017 -0.4681
# 5 -2.1021 -3.8681 -2.0877 0.0017 29.4701 0.0013
# 6 -0.0021 0.0064 0.0052 -0.4681 0.0013 22.2429
#
#
#
# Elastic Compliance Matrix: (Units=1/GPa)
#
#
# Indices 1 2 3 4 5 6 
#
# 1 0.015846 -0.003528 -0.003203 -0.000004 0.000440 0.000003
# 2 -0.003528 0.012727 -0.003659 0.000005 0.001160 -0.000003
# 3 -0.003203 -0.003659 0.010286 0.000001 0.000020 -0.000002
# 4 -0.000004 0.000005 0.000001 0.040687 -0.000002 0.000856
# 5 0.000440 0.001160 0.000020 -0.000002 0.034118 -0.000002
# 6 0.000003 -0.000003 -0.000002 0.000856 -0.000002 0.044976
#
#
# Mechanical properties :
#
#
# Convention : Reuss Voigt Hill
#
# Bulk Modulus (GPa) = 55.31277 58.78934 57.05106
# Shear Modulus (GPa) = 26.96199 27.91352 27.43775
#
# Velocity S-wave (km/s) = 3.76190 3.82770 3.79494
# Velocity P-wave (km/s) = 6.92112 7.09878 7.01051
#
# Compressibility (1/GPa) = 0.01807901
#
# Stress axis : x y z
#
# Youngs Moduli (GPa) = 63.10818 78.57396 97.21895
#
# Poissons Ratio (x) = 0.27723 0.31137
# Poissons Ratio (y) = 0.22267 0.35570
# Poissons Ratio (z) = 0.20212 0.28748
#
# Static dielectric constant tensor:
#      x y z
#    x 3.542190 -0.000030 0.041300 
#    y -0.000030 3.383290 0.000020 
#    z 0.041300 0.000020 3.427580 
# 
# 
# High freq. dielectric constant tensor:
#      x y z
#    x 1.738170 0.000000 -0.000620 
#    y 0.000000 1.724210 0.000000 
#    z -0.000620 0.000000 1.745070 
# 
# From -- ./inp_files/251889.got.cif
#   From: 2010.06.25/outbox.cif.g09.slc.cpg/sg12_126_cif.got.tgz:251889.got - 2010.06.28 00:19:55.
