data_PCOD8110401
_publ_section_title
;
Structure prediction by ZEFSAII (Michael W. Deem and Ramdas Pophale) SiO2 
 PCOD8110401
Probable space group: C 2/M
;
_chemical_formula_sum "Si O2"
_cell_formula_units_Z 40
_cell_length_a 8.378920
_cell_length_b 26.004762
_cell_length_c 18.158451
_cell_angle_alpha 90.000000
_cell_angle_beta 29.289664
_cell_angle_gamma 90.000000
_cell_volume 1935.657339
_symmetry_space_group_name_H-M "C 2/M"
_symmetry_group_IT_number 12
_symmetry_cell_setting 'monoclinic'
loop_
_space_group_symop_operation_xyz
x,y,z
-x,y,-z
-x,-y,-z
x,-y,z
1/2+x,1/2+y,z
1/2-x,1/2+y,-z
1/2-x,1/2-y,-z
1/2+x,1/2-y,z
loop_
_atom_site_type_symbol
_atom_site_label
_atom_site_fract_x
_atom_site_fract_y
_atom_site_fract_z
Si Si1 0.807807 0.000000 0.821392
Si Si2 0.617816 0.798495 0.158651
Si Si3 0.885434 0.395636 0.338338
Si Si4 0.266194 0.689938 0.834322
Si Si5 0.213432 0.500000 0.679983
Si Si6 0.266443 0.597236 0.334527
O O1 0.788312 0.000000 0.738596
O O2 0.992294 0.050405 0.773658
O O3 0.500000 0.000000 0.000000
O O4 0.458437 0.843757 0.267540
O O5 0.547193 0.742552 0.220976
O O6 0.449600 0.798595 0.148638
O O7 0.000000 0.808863 0.000000
O O8 0.500000 0.398566 0.500000
O O9 0.994614 0.447831 0.250940
O O10 0.078330 0.390612 0.335939
O O11 0.539079 0.646701 0.713802
O O12 0.000000 0.670966 0.000000
O O13 0.500000 0.500000 0.500000
O O14 0.000000 0.579883 0.500000
#
# Coordination Sequence:
#
# PCOD8110401 Si02
#       6
#     4   8   8   8   4   8
#     4  12  26  44  67  99 133 171 217 270 324 388
#     4  11  22  39  62  90 125 166 208 261 321 383
#     4  11  23  41  63  91 124 165 213 264 318 383
#     4  11  22  40  62  91 125 165 211 262 320 385
#     4  10  21  42  66  91 126 169 210 260 319 382
#     4  12  24  42  66  94 127 169 213 266 324 385
#
# _framework density 20.664815999999998
#
# number of rings (size 3 to 8) (size 9 to 14) (size 15 to 20)
#    0.000    0.800    0.000   11.100    0.000    2.400 
#    0.000    5.500    0.000    0.000    0.000    0.000 
#    0.000    0.000    0.000    0.000    0.000    0.000 
#
# Total GULP energy -247850.167977 kJ/mol
# GULP energy per Si atom -12392.508399 kJ/mol
# Density = 2.061778 g / cm^3
# Si number density = 20.664816 Si / 1000 Ang^3
#
#
#
# Elastic Constant Matrix: (Units=GPa)
#
#
# Indices 1 2 3 4 5 6 
#
# 1 157.5611 22.9273 30.2673 0.0000 -10.4071 -0.0002
# 2 22.9273 140.2893 54.8703 -0.0003 -14.3476 0.0004
# 3 30.2673 54.8703 93.8771 0.0015 -0.4736 -0.0017
# 4 0.0000 -0.0003 0.0015 41.1631 -0.0008 -2.9554
# 5 -10.4071 -14.3476 -0.4736 -0.0008 38.3186 0.0011
# 6 -0.0002 0.0004 -0.0017 -2.9554 0.0011 39.2341
#
#
#
# Elastic Compliance Matrix: (Units=1/GPa)
#
#
# Indices 1 2 3 4 5 6 
#
# 1 0.006895 -0.000098 -0.002156 0.000000 0.001809 0.000000
# 2 -0.000098 0.009705 -0.005623 0.000000 0.003538 0.000000
# 3 -0.002156 -0.005623 0.014621 -0.000001 -0.002510 0.000001
# 4 0.000000 0.000000 -0.000001 0.024426 0.000001 0.001840
# 5 0.001809 0.003538 -0.002510 0.000001 0.027882 -0.000001
# 6 0.000000 0.000000 0.000001 0.001840 -0.000001 0.025627
#
#
# Mechanical properties :
#
#
# Convention : Reuss Voigt Hill
#
# Bulk Modulus (GPa) = 64.65841 67.53970 66.09906
# Shear Modulus (GPa) = 38.44177 42.65400 40.54789
#
# Velocity S-wave (km/s) = 4.31774 4.54815 4.43444
# Velocity P-wave (km/s) = 7.49762 7.76758 7.63379
#
# Compressibility (1/GPa) = 0.01546589
#
# Stress axis : x y z
#
# Youngs Moduli (GPa) = 145.03709 103.03602 68.39266
#
# Poissons Ratio (x) = 0.01014 0.14748
# Poissons Ratio (y) = 0.01427 0.38458
# Poissons Ratio (z) = 0.31275 0.57938
#
# Static dielectric constant tensor:
#      x y z
#    x 4.033720 0.000000 -0.001560 
#    y 0.000000 4.423400 0.000000 
#    z -0.001560 0.000000 3.692640 
# 
# 
# High freq. dielectric constant tensor:
#      x y z
#    x 1.832000 0.000000 -0.002160 
#    y 0.000000 1.838330 0.000000 
#    z -0.002160 0.000000 1.793390 
# 
# From -- ./inp_files/302234.got.cif
#   From: 2010.06.25/outbox.cif.g09.slc.cpg/sg12_152_cif.got.tgz:302234.got - 2010.06.28 00:19:55.
