data_PCOD8110296
_publ_section_title
;
Structure prediction by ZEFSAII (Michael W. Deem and Ramdas Pophale) SiO2 
 PCOD8110296
Probable space group: C 2/M
;
_chemical_formula_sum "Si O2"
_cell_formula_units_Z 64
_cell_length_a 14.280468
_cell_length_b 18.213567
_cell_length_c 11.743779
_cell_angle_alpha 90.000000
_cell_angle_beta 83.552045
_cell_angle_gamma 90.000000
_cell_volume 3035.214333
_symmetry_space_group_name_H-M "C 2/M"
_symmetry_group_IT_number 12
_symmetry_cell_setting 'monoclinic'
loop_
_space_group_symop_operation_xyz
x,y,z
-x,y,-z
-x,-y,-z
x,-y,z
1/2+x,1/2+y,z
1/2-x,1/2+y,-z
1/2-x,1/2-y,-z
1/2+x,1/2-y,z
loop_
_atom_site_type_symbol
_atom_site_label
_atom_site_fract_x
_atom_site_fract_y
_atom_site_fract_z
Si Si1 0.975924 0.347773 0.137900
Si Si2 0.027918 0.812741 0.810411
Si Si3 0.219414 0.586128 0.477029
Si Si4 0.568822 0.415266 0.596511
Si Si5 0.860710 0.583698 0.742512
Si Si6 0.309802 0.310757 0.857148
Si Si7 0.284750 0.659614 0.108462
Si Si8 0.302493 0.915687 0.267714
O O1 0.938268 0.271915 0.197061
O O2 0.892779 0.405629 0.173820
O O3 0.066920 0.368150 0.197129
O O4 0.000000 0.343690 0.000000
O O5 0.030841 0.857424 0.693431
O O6 0.102816 0.848318 0.887529
O O7 0.920841 0.809082 0.868502
O O8 0.219872 0.500000 0.459138
O O9 0.327405 0.612785 0.453243
O O10 0.154089 0.617048 0.383121
O O11 0.174882 0.608058 0.604866
O O12 0.500000 0.408787 0.500000
O O13 0.569349 0.500000 0.641480
O O14 0.895609 0.500000 0.734972
O O15 0.761242 0.589526 0.822862
O O16 0.264804 0.232314 0.830493
O O17 0.286634 0.368287 0.761053
O O18 0.260373 0.340587 0.978561
O O19 0.270151 0.000000 0.268933
#
# Coordination Sequence:
#
# PCOD8110296 Si02
#       8
#     8   8   8   8   8   8   8   8
#     4  12  25  43  65  95 137 178 215 268 330 389
#     4  12  23  40  65  99 130 173 216 256 331 402
#     4   9  20  41  64  90 127 166 208 269 336 381
#     4  10  21  41  67  94 131 175 218 270 326 384
#     4  11  23  42  68  93 125 174 223 271 327 389
#     4  11  23  39  62  91 131 173 209 265 330 383
#     4  11  22  40  62  90 130 173 212 262 328 388
#     4  11  24  43  68  97 127 170 224 273 324 389
#
# _framework density 21.085826000000001
#
# number of rings (size 3 to 8) (size 9 to 14) (size 15 to 20)
#    0.000    1.125    3.750    3.000    0.000    4.500 
#    2.250    3.125    0.000    4.125    0.000    0.000 
#    0.000    0.000    0.000    0.000    0.000    0.000 
#
# Total GULP energy -396650.775932 kJ/mol
# GULP energy per Si atom -12395.336748 kJ/mol
# Density = 2.103783 g / cm^3
# Si number density = 21.085826 Si / 1000 Ang^3
#
#
#
# Elastic Constant Matrix: (Units=GPa)
#
#
# Indices 1 2 3 4 5 6 
#
# 1 96.8232 0.9264 19.0048 0.0000 12.8392 0.0000
# 2 0.9264 51.6796 37.1066 0.0000 3.4988 0.0000
# 3 19.0048 37.1066 110.8091 0.0000 9.3160 0.0000
# 4 0.0000 0.0000 0.0000 29.8281 0.0000 -0.8701
# 5 12.8392 3.4988 9.3160 0.0000 38.3562 0.0000
# 6 0.0000 0.0000 0.0000 -0.8701 0.0000 21.0558
#
#
#
# Elastic Compliance Matrix: (Units=1/GPa)
#
#
# Indices 1 2 3 4 5 6 
#
# 1 0.011184 0.001582 -0.002165 0.000000 -0.003362 0.000000
# 2 0.001582 0.025701 -0.008816 0.000000 -0.000733 0.000000
# 3 -0.002165 -0.008816 0.012474 0.000000 -0.001501 0.000000
# 4 0.000000 0.000000 0.000000 0.033566 0.000000 0.001387
# 5 -0.003362 -0.000733 -0.001501 0.000000 0.027628 0.000000
# 6 0.000000 0.000000 0.000000 0.001387 0.000000 0.047550
#
#
# Mechanical properties :
#
#
# Convention : Reuss Voigt Hill
#
# Bulk Modulus (GPa) = 32.72237 41.48750 37.10493
# Shear Modulus (GPa) = 26.72511 31.33296 29.02903
#
# Velocity S-wave (km/s) = 3.56398 3.85901 3.71443
# Velocity P-wave (km/s) = 5.69985 6.29081 6.00260
#
# Compressibility (1/GPa) = 0.03056013
#
# Stress axis : x y z
#
# Youngs Moduli (GPa) = 89.41526 38.90833 80.16442
#
# Poissons Ratio (x) = -0.06154 0.17357
# Poissons Ratio (y) = -0.14143 0.70675
# Poissons Ratio (z) = 0.19360 0.34303
#
# Static dielectric constant tensor:
#      x y z
#    x 3.912180 0.000000 0.128870 
#    y 0.000000 3.672330 0.000000 
#    z 0.128870 0.000000 3.871750 
# 
# 
# High freq. dielectric constant tensor:
#      x y z
#    x 1.838280 0.000000 0.013450 
#    y 0.000000 1.808430 0.000000 
#    z 0.013450 0.000000 1.827730 
# 
# From -- ./inp_files/146129.got.cif
#   From: 2010.06.25/outbox.cif.g09.slc.cpg/sg12_74_cif.got.tgz:146129.got - 2010.06.28 00:19:55.
