data_PCOD8110009
_publ_section_title
;
Structure prediction by ZEFSAII (Michael W. Deem and Ramdas Pophale) SiO2 
 PCOD8110009
Probable space group: C 2/M
;
_chemical_formula_sum "Si O2"
_cell_formula_units_Z 48
_cell_length_a 14.655615
_cell_length_b 17.698477
_cell_length_c 14.510019
_cell_angle_alpha 90.000000
_cell_angle_beta 39.786642
_cell_angle_gamma 90.000000
_cell_volume 2408.467429
_symmetry_space_group_name_H-M "C 2/M"
_symmetry_group_IT_number 12
_symmetry_cell_setting 'monoclinic'
loop_
_space_group_symop_operation_xyz
x,y,z
-x,y,-z
-x,-y,-z
x,-y,z
1/2+x,1/2+y,z
1/2-x,1/2+y,-z
1/2-x,1/2-y,-z
1/2+x,1/2-y,z
loop_
_atom_site_type_symbol
_atom_site_label
_atom_site_fract_x
_atom_site_fract_y
_atom_site_fract_z
Si Si1 0.209524 0.311011 0.901043
Si Si2 0.383750 0.088911 0.400346
Si Si3 0.183054 0.355188 0.214049
Si Si4 0.829225 0.851189 0.291423
Si Si5 0.866680 0.085894 0.914863
Si Si6 0.898759 0.316148 0.213470
O O1 0.285527 0.230434 0.839118
O O2 0.318154 0.370014 0.861135
O O3 0.169798 0.340279 0.830369
O O4 0.068208 0.303468 0.072912
O O5 0.514002 0.131728 0.349001
O O6 0.240932 0.109395 0.566104
O O7 0.365831 0.116791 0.309560
O O8 0.409857 0.000000 0.379609
O O9 0.246350 0.375827 0.263994
O O10 0.248865 0.410399 0.086407
O O11 0.827053 0.760877 0.305320
O O12 0.989587 0.879529 0.155706
O O13 0.889851 0.000000 0.866867
#
# Coordination Sequence:
#
# PCOD8110009 Si02
#       6
#     8   8   8   8   8   8
#     4  10  21  40  66  91 117 150 209 259 287 345
#     4  12  25  40  60  91 128 160 193 244 305 361
#     4  11  22  40  64  87 117 161 205 246 291 349
#     4  11  24  41  61  87 122 162 202 244 293 356
#     4  12  23  37  61  92 123 158 197 247 305 352
#     4  10  21  41  66  89 115 159 205 250 296 348
#
# _framework density 19.929687000000001
#
# number of rings (size 3 to 8) (size 9 to 14) (size 15 to 20)
#    0.000    1.000    3.333    4.000    0.000    4.667 
#    0.000    4.167    0.000    2.000    0.000    0.000 
#    0.000    0.000    0.000    0.000    0.000    0.000 
#
# Total GULP energy -297784.052258 kJ/mol
# GULP energy per Si atom -12407.668844 kJ/mol
# Density = 1.988433 g / cm^3
# Si number density = 19.929687 Si / 1000 Ang^3
#
#
#
# Elastic Constant Matrix: (Units=GPa)
#
#
# Indices 1 2 3 4 5 6 
#
# 1 95.8866 35.5572 21.7845 -0.0005 10.9413 0.0000
# 2 35.5572 83.4455 20.8970 -0.0002 20.0016 -0.0001
# 3 21.7845 20.8970 70.5818 -0.0017 10.3286 0.0007
# 4 -0.0005 -0.0002 -0.0017 18.3656 0.0007 -0.0322
# 5 10.9413 20.0016 10.3286 0.0007 28.0644 -0.0001
# 6 0.0000 -0.0001 0.0007 -0.0322 -0.0001 13.4844
#
#
#
# Elastic Compliance Matrix: (Units=1/GPa)
#
#
# Indices 1 2 3 4 5 6 
#
# 1 0.012802 -0.004655 -0.002461 0.000000 -0.000768 0.000000
# 2 -0.004655 0.016742 -0.002156 0.000000 -0.009324 0.000000
# 3 -0.002461 -0.002156 0.016066 0.000001 -0.003417 -0.000001
# 4 0.000000 0.000000 0.000001 0.054450 -0.000002 0.000130
# 5 -0.000768 -0.009324 -0.003417 -0.000002 0.043835 0.000000
# 6 0.000000 0.000000 -0.000001 0.000130 0.000000 0.074160
#
#
# Mechanical properties :
#
#
# Convention : Reuss Voigt Hill
#
# Bulk Modulus (GPa) = 36.94486 45.15459 41.04972
# Shear Modulus (GPa) = 20.35673 23.42787 21.89230
#
# Velocity S-wave (km/s) = 3.19945 3.43231 3.31792
# Velocity P-wave (km/s) = 5.67683 6.19789 5.94308
#
# Compressibility (1/GPa) = 0.02706736
#
# Stress axis : x y z
#
# Youngs Moduli (GPa) = 78.11446 59.72969 62.24441
#
# Poissons Ratio (x) = 0.27802 0.15316
# Poissons Ratio (y) = 0.36360 0.13418
# Poissons Ratio (z) = 0.19221 0.12876
#
# Static dielectric constant tensor:
#      x y z
#    x 3.743280 0.000000 0.010860 
#    y 0.000000 3.496710 0.000000 
#    z 0.010860 0.000000 3.541410 
# 
# 
# High freq. dielectric constant tensor:
#      x y z
#    x 1.790370 0.000000 -0.000120 
#    y 0.000000 1.773560 0.000000 
#    z -0.000120 0.000000 1.773310 
# 
# From -- ./inp_files/216221.got.cif
#   From: 2010.06.25/outbox.cif.g09.slc.cpg/sg12_109_cif.got.tgz:216221.got - 2010.06.28 00:19:55.
