data_PCOD8110970
_publ_section_title
;
Structure prediction by ZEFSAII (Michael W. Deem and Ramdas Pophale) SiO2 
 PCOD8110970
Probable space group: C 2/M
;
_chemical_formula_sum "Si O2"
_cell_formula_units_Z 56
_cell_length_a 9.768104
_cell_length_b 21.596654
_cell_length_c 20.117550
_cell_angle_alpha 90.000000
_cell_angle_beta 137.058846
_cell_angle_gamma 90.000000
_cell_volume 2891.188100
_symmetry_space_group_name_H-M "C 2/M"
_symmetry_group_IT_number 12
_symmetry_cell_setting 'monoclinic'
loop_
_space_group_symop_operation_xyz
x,y,z
-x,y,-z
-x,-y,-z
x,-y,z
1/2+x,1/2+y,z
1/2-x,1/2+y,-z
1/2-x,1/2-y,-z
1/2+x,1/2-y,z
loop_
_atom_site_type_symbol
_atom_site_label
_atom_site_fract_x
_atom_site_fract_y
_atom_site_fract_z
Si Si1 0.524100 0.627055 0.672299
Si Si2 0.946515 0.191279 0.778560
Si Si3 0.173175 0.310198 0.009162
Si Si4 0.174892 0.000000 0.387159
Si Si5 0.678492 0.692263 0.515493
Si Si6 0.003482 0.500000 0.390308
Si Si7 0.438077 0.872069 0.295739
Si Si8 0.030709 0.661923 0.190318
O O1 0.473094 0.678351 0.709921
O O2 0.466342 0.558811 0.675569
O O3 0.394036 0.639536 0.560583
O O4 0.756762 0.628066 0.736663
O O5 0.742884 0.159622 0.729687
O O6 0.938717 0.264523 0.788334
O O7 0.136466 0.160165 0.884690
O O8 0.250000 0.250000 0.000000
O O9 0.000000 0.292643 0.000000
O O10 0.084157 0.354010 0.919607
O O11 0.342754 0.000000 0.391098
O O12 0.277015 0.000000 0.496831
O O13 0.500000 0.714157 0.500000
O O14 0.750000 0.750000 0.500000
O O15 0.859849 0.666850 0.623244
O O16 0.972426 0.441416 0.332040
O O17 0.398273 0.868325 0.202355
#
# Coordination Sequence:
#
# PCOD8110970 Si02
#       8
#     8   8   8   4   8   4   8   8
#     4  12  23  41  64  91 126 171 212 259 312 379
#     4  11  23  40  67  96 132 166 207 262 324 390
#     4  10  22  38  63  96 133 167 206 258 321 393
#     4  11  24  43  65  86 124 175 228 257 310 373
#     4  12  26  40  59  95 133 167 204 260 325 383
#     4  11  24  45  61  88 125 174 228 259 307 376
#     4  12  25  41  64  92 129 171 213 266 311 381
#     4  11  23  40  63  99 131 161 209 260 331 377
#
# _framework density 19.369201
#
# number of rings (size 3 to 8) (size 9 to 14) (size 15 to 20)
#    0.000    0.714    5.714    2.571    8.000    0.571 
#    0.000    1.429    0.000    5.143    0.000    0.000 
#    0.000    0.000    0.000    0.000    0.000    0.000 
#
# Total GULP energy -347246.155453 kJ/mol
# GULP energy per Si atom -12401.648409 kJ/mol
# Density = 1.932512 g / cm^3
# Si number density = 19.369201 Si / 1000 Ang^3
#
#
#
# Elastic Constant Matrix: (Units=GPa)
#
#
# Indices 1 2 3 4 5 6 
#
# 1 110.2212 23.4008 28.7714 0.0001 -9.7339 0.0001
# 2 23.4008 91.2907 20.1010 0.0000 0.6498 0.0000
# 3 28.7714 20.1010 100.2502 0.0003 -4.9010 0.0002
# 4 0.0001 0.0000 0.0003 4.6382 0.0001 -5.0659
# 5 -9.7339 0.6498 -4.9010 0.0001 36.9679 0.0001
# 6 0.0001 0.0000 0.0002 -5.0659 0.0001 28.9452
#
#
#
# Elastic Compliance Matrix: (Units=1/GPa)
#
#
# Indices 1 2 3 4 5 6 
#
# 1 0.010378 -0.002143 -0.002429 0.000000 0.002448 0.000000
# 2 -0.002143 0.011912 -0.001823 0.000000 -0.001015 0.000000
# 3 -0.002429 -0.001823 0.011080 -0.000001 0.000861 0.000000
# 4 0.000000 0.000000 -0.000001 0.266553 -0.000001 0.046651
# 5 0.002448 -0.001015 0.000861 -0.000001 0.027827 0.000000
# 6 0.000000 0.000000 0.000000 0.046651 0.000000 0.042713
#
#
# Mechanical properties :
#
#
# Convention : Reuss Voigt Hill
#
# Bulk Modulus (GPa) = 48.59151 49.58982 49.09066
# Shear Modulus (GPa) = 12.81682 29.40952 21.11317
#
# Velocity S-wave (km/s) = 2.57517 3.90085 3.30515
# Velocity P-wave (km/s) = 5.82953 6.77841 6.32180
#
# Compressibility (1/GPa) = 0.02057973
#
# Stress axis : x y z
#
# Youngs Moduli (GPa) = 96.35893 83.94947 90.25400
#
# Poissons Ratio (x) = 0.17988 0.21923
# Poissons Ratio (y) = 0.20647 0.16454
# Poissons Ratio (z) = 0.23406 0.15305
#
# Static dielectric constant tensor:
#      x y z
#    x 3.584300 0.000000 0.176810 
#    y 0.000000 3.175480 0.000000 
#    z 0.176810 0.000000 3.418080 
# 
# 
# High freq. dielectric constant tensor:
#      x y z
#    x 1.774220 0.000000 -0.004710 
#    y 0.000000 1.722240 0.000000 
#    z -0.004710 0.000000 1.766740 
# 
# From -- ./inp_files/302170.got.cif
#   From: 2010.06.25/outbox.cif.g09.slc.cpg/sg12_152_cif.got.tgz:302170.got - 2010.06.28 00:19:55.
