data_PCOD8110018
_publ_section_title
;
Structure prediction by ZEFSAII (Michael W. Deem and Ramdas Pophale) SiO2 
 PCOD8110018
Probable space group: C 2/M
;
_chemical_formula_sum "Si O2"
_cell_formula_units_Z 56
_cell_length_a 19.927231
_cell_length_b 8.602591
_cell_length_c 16.328168
_cell_angle_alpha 90.000000
_cell_angle_beta 91.371639
_cell_angle_gamma 90.000000
_cell_volume 2798.267514
_symmetry_space_group_name_H-M "C 2/M"
_symmetry_group_IT_number 12
_symmetry_cell_setting 'monoclinic'
loop_
_space_group_symop_operation_xyz
x,y,z
-x,y,-z
-x,-y,-z
x,-y,z
1/2+x,1/2+y,z
1/2-x,1/2+y,-z
1/2-x,1/2-y,-z
1/2+x,1/2-y,z
loop_
_atom_site_type_symbol
_atom_site_label
_atom_site_fract_x
_atom_site_fract_y
_atom_site_fract_z
Si Si1 0.321887 0.321066 0.520662
Si Si2 0.745194 0.179412 0.768165
Si Si3 0.005078 0.817381 0.749635
Si Si4 0.868739 0.680836 0.687251
Si Si5 0.951426 0.184691 0.069093
Si Si6 0.637428 0.677062 0.656373
Si Si7 0.301187 0.318041 0.066069
O O1 0.313509 0.500000 0.547193
O O2 0.250000 0.250000 0.500000
O O3 0.358684 0.227673 0.592912
O O4 0.368245 0.305501 0.441514
O O5 0.820585 0.222680 0.745766
O O6 0.696867 0.212894 0.690052
O O7 0.722061 0.281846 0.843424
O O8 0.742392 0.000000 0.793066
O O9 0.944127 0.716538 0.715107
O O10 0.020993 0.762342 0.842145
O O11 0.067540 0.773265 0.694195
O O12 0.988111 0.000000 0.744470
O O13 0.852753 0.500000 0.696961
O O14 0.876092 0.250524 0.053706
O O15 0.949670 0.000000 0.065067
O O16 0.000000 0.253070 0.000000
O O17 0.655456 0.500000 0.681462
O O18 0.302844 0.500000 0.053324
O O19 0.250000 0.250000 0.000000
#
# Coordination Sequence:
#
# PCOD8110018 Si02
#       7
#     8   8   8   8   8   8   8
#     4  11  22  38  63  94 126 164 211 261 316 375
#     4  12  24  40  65  92 123 167 216 262 314 376
#     4  10  21  41  65  90 125 168 211 254 311 380
#     4  12  26  42  61  91 130 166 209 266 319 372
#     4   9  19  37  63  92 124 164 206 249 303 372
#     4  10  21  40  66  92 124 165 207 260 317 377
#     4  11  23  41  64  95 131 166 210 261 314 371
#
# _framework density 20.012383
#
# number of rings (size 3 to 8) (size 9 to 14) (size 15 to 20)
#    0.000    1.286    2.857    3.429    2.000    1.714 
#    0.000    2.857    0.000    2.143    0.000    0.000 
#    0.000    0.000    0.000    0.000    0.000    0.000 
#
# Total GULP energy -347346.977605 kJ/mol
# GULP energy per Si atom -12405.249200 kJ/mol
# Density = 1.996683 g / cm^3
# Si number density = 20.012383 Si / 1000 Ang^3
#
#
#
# Elastic Constant Matrix: (Units=GPa)
#
#
# Indices 1 2 3 4 5 6 
#
# 1 136.2759 29.7304 66.3646 0.0000 3.3792 0.0000
# 2 29.7304 62.8520 20.2592 0.0000 7.1072 0.0000
# 3 66.3646 20.2592 121.4571 0.0000 -2.6668 0.0000
# 4 0.0000 0.0000 0.0000 31.1452 0.0000 4.8997
# 5 3.3792 7.1072 -2.6668 0.0000 42.7949 0.0000
# 6 0.0000 0.0000 0.0000 4.8997 0.0000 31.4435
#
#
#
# Elastic Compliance Matrix: (Units=1/GPa)
#
#
# Indices 1 2 3 4 5 6 
#
# 1 0.010637 -0.003258 -0.005282 0.000000 -0.000628 0.000000
# 2 -0.003258 0.018198 -0.001318 0.000000 -0.002847 0.000000
# 3 -0.005282 -0.001318 0.011369 0.000000 0.001344 0.000000
# 4 0.000000 0.000000 0.000000 0.032915 0.000000 -0.005129
# 5 -0.000628 -0.002847 0.001344 0.000000 0.023974 0.000000
# 6 0.000000 0.000000 0.000000 -0.005129 0.000000 0.032602
#
#
# Mechanical properties :
#
#
# Convention : Reuss Voigt Hill
#
# Bulk Modulus (GPa) = 48.80948 61.47706 55.14327
# Shear Modulus (GPa) = 32.00209 34.69209 33.34709
#
# Velocity S-wave (km/s) = 4.00323 4.16809 4.08649
# Velocity P-wave (km/s) = 6.76834 7.34507 7.06260
#
# Compressibility (1/GPa) = 0.02048783
#
# Stress axis : x y z
#
# Youngs Moduli (GPa) = 94.01321 54.95062 87.95827
#
# Poissons Ratio (x) = 0.17902 0.46463
# Poissons Ratio (y) = 0.30627 0.11592
# Poissons Ratio (z) = 0.49661 0.07242
#
# Static dielectric constant tensor:
#      x y z
#    x 3.831670 0.000000 -0.251750 
#    y 0.000000 3.516740 0.000000 
#    z -0.251750 0.000000 3.998920 
# 
# 
# High freq. dielectric constant tensor:
#      x y z
#    x 1.787530 0.000000 -0.006410 
#    y 0.000000 1.768130 0.000000 
#    z -0.006410 0.000000 1.793740 
# 
# From -- ./inp_files/231056.got.cif
#   From: 2010.06.25/outbox.cif.g09.slc.cpg/sg12_116_cif.got.tgz:231056.got - 2010.06.28 00:19:55.
