data_PCOD8110440
_publ_section_title
;
Structure prediction by ZEFSAII (Michael W. Deem and Ramdas Pophale) SiO2 
 PCOD8110440
Probable space group: C 2/M
;
_chemical_formula_sum "Si O2"
_cell_formula_units_Z 40
_cell_length_a 27.274208
_cell_length_b 12.866947
_cell_length_c 7.559002
_cell_angle_alpha 90.000000
_cell_angle_beta 142.835060
_cell_angle_gamma 90.000000
_cell_volume 1602.541526
_symmetry_space_group_name_H-M "C 2/M"
_symmetry_group_IT_number 12
_symmetry_cell_setting 'monoclinic'
loop_
_space_group_symop_operation_xyz
x,y,z
-x,y,-z
-x,-y,-z
x,-y,z
1/2+x,1/2+y,z
1/2-x,1/2+y,-z
1/2-x,1/2-y,-z
1/2+x,1/2-y,z
loop_
_atom_site_type_symbol
_atom_site_label
_atom_site_fract_x
_atom_site_fract_y
_atom_site_fract_z
Si Si1 0.058690 0.378812 0.919441
Si Si2 0.333957 0.714527 0.657678
Si Si3 0.613771 0.122618 0.693096
Si Si4 0.088887 0.121002 0.789653
Si Si5 0.292458 0.623468 0.165318
O O1 0.076331 0.500000 0.998618
O O2 0.108420 0.315528 0.210778
O O3 0.037688 0.355194 0.344550
O O4 0.094487 0.334133 0.835361
O O5 0.250000 0.750000 0.500000
O O6 0.322979 0.653122 0.446079
O O7 0.380494 0.637119 0.923783
O O8 0.620826 0.000000 0.742892
O O9 0.699915 0.165209 0.863389
O O10 0.149127 0.173768 0.816817
O O11 0.000000 0.169673 0.500000
O O12 0.086237 0.000000 0.741003
O O13 0.292840 0.500000 0.150323
#
# Coordination Sequence:
#
# PCOD8110440 Si02
#       5
#     8   8   8   8   8
#     4   9  18  34  60  94 132 172 208 256 322 385
#     4  12  24  37  66 101 132 168 216 267 321 391
#     4   8  15  32  61  90 122 167 208 254 322 383
#     4  10  25  47  68  92 128 174 222 270 321 383
#     4  10  21  42  69  97 129 167 216 271 326 380
#
# _framework density 24.960350999999999
#
# number of rings (size 3 to 8) (size 9 to 14) (size 15 to 20)
#    0.000    2.200    2.000    1.800    2.800    2.400 
#    0.000    5.000    0.000    1.200    0.000    7.000 
#    0.000    0.000    0.000    0.000    0.000    0.000 
#
# Total GULP energy -248041.883661 kJ/mol
# GULP energy per Si atom -12402.094183 kJ/mol
# Density = 2.490354 g / cm^3
# Si number density = 24.960351 Si / 1000 Ang^3
#
#
#
# Elastic Constant Matrix: (Units=GPa)
#
#
# Indices 1 2 3 4 5 6 
#
# 1 174.4985 44.8726 70.3643 0.0000 32.2699 0.0000
# 2 44.8726 34.1589 22.9260 0.0000 12.4631 0.0000
# 3 70.3643 22.9260 126.8831 0.0000 33.4523 0.0000
# 4 0.0000 0.0000 0.0000 44.1024 0.0000 14.9485
# 5 32.2699 12.4631 33.4523 0.0000 48.2259 0.0000
# 6 0.0000 0.0000 0.0000 14.9485 0.0000 -3.4558
#
#
#
# Elastic Compliance Matrix: (Units=1/GPa)
#
#
# Indices 1 2 3 4 5 6 
#
# 1 0.010021 -0.010350 -0.003212 0.000000 -0.001803 0.000000
# 2 -0.010350 0.045208 -0.001437 0.000000 -0.003760 0.000000
# 3 -0.003212 -0.001437 0.011329 0.000000 -0.005338 0.000000
# 4 0.000000 0.000000 0.000000 0.009194 0.000000 0.039771
# 5 -0.001803 -0.003760 -0.005338 0.000000 0.026617 0.000000
# 6 0.000000 0.000000 0.000000 0.039771 0.000000 -0.117336
#
#
# Mechanical properties :
#
#
# Convention : Reuss Voigt Hill
#
# Bulk Modulus (GPa) = 27.35233 67.98515 47.66874
# Shear Modulus (GPa) = 183.69457 30.93301 107.31379
#
# Velocity S-wave (km/s) = 8.58803 3.52417 6.56407
# Velocity P-wave (km/s) = 10.45568 6.62239 8.75149
#
# Compressibility (1/GPa) = 0.03655996
#
# Stress axis : x y z
#
# Youngs Moduli (GPa) = 99.79269 22.11981 88.26568
#
# Poissons Ratio (x) = 0.22895 0.28348
# Poissons Ratio (y) = 1.03290 0.12685
# Poissons Ratio (z) = 0.32050 0.03179
#
# Static dielectric constant tensor:
#      x y z
#    x 5.004440 0.000000 0.421570 
#    y 0.000000 4.620180 0.000000 
#    z 0.421570 0.000000 4.374660 
# 
# 
# High freq. dielectric constant tensor:
#      x y z
#    x 1.997190 0.000000 0.020960 
#    y 0.000000 2.033070 0.000000 
#    z 0.020960 0.000000 1.983620 
# 
# From -- ./inp_files/28659.got.cif
#   From: 2010.06.25/outbox.cif.g09.slc.cpg/sg12_15_cif.got.tgz:28659.got - 2010.06.28 00:19:55.
