data_PCOD8110886
_publ_section_title
;
Structure prediction by ZEFSAII (Michael W. Deem and Ramdas Pophale) SiO2 
 PCOD8110886
Probable space group: C 2/M
;
_chemical_formula_sum "Si O2"
_cell_formula_units_Z 56
_cell_length_a 10.228987
_cell_length_b 25.216731
_cell_length_c 12.153368
_cell_angle_alpha 90.000000
_cell_angle_beta 77.415772
_cell_angle_gamma 90.000000
_cell_volume 3059.549918
_symmetry_space_group_name_H-M "C 2/M"
_symmetry_group_IT_number 12
_symmetry_cell_setting 'monoclinic'
loop_
_space_group_symop_operation_xyz
x,y,z
-x,y,-z
-x,-y,-z
x,-y,z
1/2+x,1/2+y,z
1/2-x,1/2+y,-z
1/2-x,1/2-y,-z
1/2+x,1/2-y,z
loop_
_atom_site_type_symbol
_atom_site_label
_atom_site_fract_x
_atom_site_fract_y
_atom_site_fract_z
Si Si1 0.295549 0.872547 0.292182
Si Si2 0.147121 0.439371 0.930701
Si Si3 0.686026 0.371418 0.697591
Si Si4 0.862025 0.939280 0.079402
Si Si5 0.460697 0.694798 0.632981
Si Si6 0.847643 0.062013 0.505123
Si Si7 0.964857 0.681735 0.632052
O O1 0.311125 0.897184 0.168939
O O2 0.190449 0.824038 0.315338
O O3 0.244864 0.920205 0.377696
O O4 0.437579 0.850859 0.306573
O O5 0.155761 0.500000 0.884222
O O6 0.244269 0.431281 0.014930
O O7 0.000000 0.425968 0.000000
O O8 0.664715 0.402931 0.812349
O O9 0.557966 0.335106 0.698592
O O10 0.708458 0.412640 0.595416
O O11 0.814306 0.334471 0.685834
O O12 0.872098 0.000000 0.117774
O O13 0.000000 0.920751 0.000000
O O14 0.500000 0.682054 0.500000
O O15 0.476795 0.756404 0.655416
O O16 0.000000 0.080063 0.500000
O O17 0.836237 0.000000 0.493400
O O18 0.000000 0.668961 0.500000
#
# Coordination Sequence:
#
# PCOD8110886 Si02
#       7
#     8   8   8   8   8   8   8
#     4  12  20  39  61  87 116 154 194 236 294 347
#     4  10  22  40  60  83 114 157 200 232 278 350
#     4  12  20  39  59  87 120 150 190 244 295 335
#     4  10  22  38  60  87 112 151 198 238 280 338
#     4  11  21  38  59  87 118 155 196 234 288 356
#     4  11  22  35  56  91 122 150 182 235 301 356
#     4  11  23  36  59  87 122 151 194 240 286 353
#
# _framework density 18.303346999999999
#
# number of rings (size 3 to 8) (size 9 to 14) (size 15 to 20)
#    0.000    1.000    4.286    3.429    0.000    2.286 
#    0.000    2.857    0.000   17.143    0.000    0.000 
#    0.000    0.000    0.000    0.000    0.000    0.000 
#
# Total GULP energy -347332.608060 kJ/mol
# GULP energy per Si atom -12404.736002 kJ/mol
# Density = 1.826169 g / cm^3
# Si number density = 18.303347 Si / 1000 Ang^3
#
#
#
# Elastic Constant Matrix: (Units=GPa)
#
#
# Indices 1 2 3 4 5 6 
#
# 1 70.9372 11.4422 11.8716 0.0000 2.7272 0.0000
# 2 11.4422 80.6706 38.6111 0.0000 5.7153 0.0000
# 3 11.8716 38.6111 100.8473 0.0000 2.2075 0.0000
# 4 0.0000 0.0000 0.0000 1.9181 0.0000 -66.0937
# 5 2.7272 5.7153 2.2075 0.0000 19.8360 0.0000
# 6 0.0000 0.0000 0.0000 -66.0937 0.0000 -186.2969
#
#
#
# Elastic Compliance Matrix: (Units=1/GPa)
#
#
# Indices 1 2 3 4 5 6 
#
# 1 0.014573 -0.001417 -0.001141 0.000000 -0.001468 0.000000
# 2 -0.001417 0.015596 -0.005724 0.000000 -0.003662 0.000000
# 3 -0.001141 -0.005724 0.012232 0.000000 0.000445 0.000000
# 4 0.000000 0.000000 0.000000 0.039422 0.000000 -0.013986
# 5 -0.001468 -0.003662 0.000445 0.000000 0.051621 0.000000
# 6 0.000000 0.000000 0.000000 -0.013986 0.000000 -0.000406
#
#
# Mechanical properties :
#
#
# Convention : Reuss Voigt Hill
#
# Bulk Modulus (GPa) = 38.70395 41.81165 40.25780
# Shear Modulus (GPa) = 31.60255 -20.20653 5.69801
#
# Velocity S-wave (km/s) = 4.15974 -3.32622 1.76631
# Velocity P-wave (km/s) = 6.65305 2.85335 5.11882
#
# Compressibility (1/GPa) = 0.02583715
#
# Stress axis : x y z
#
# Youngs Moduli (GPa) = 68.62051 64.11764 81.75131
#
# Poissons Ratio (x) = 0.09085 0.09327
# Poissons Ratio (y) = 0.09723 0.46797
# Poissons Ratio (z) = 0.07829 0.36703
#
# Static dielectric constant tensor:
#      x y z
#    x 3.566730 0.000000 -0.000340 
#    y 0.000000 3.398260 0.000000 
#    z -0.000340 0.000000 3.182090 
# 
# 
# High freq. dielectric constant tensor:
#      x y z
#    x 1.726560 0.000000 -0.001030 
#    y 0.000000 1.717580 0.000000 
#    z -0.001030 0.000000 1.700150 
# 
# From -- ./inp_files/124229.got.cif
#   From: 2010.06.25/outbox.cif.g09.slc.cpg/sg12_63_cif.got.tgz:124229.got - 2010.06.28 00:19:55.
