data_PCOD8110838
_publ_section_title
;
Structure prediction by ZEFSAII (Michael W. Deem and Ramdas Pophale) SiO2 
 PCOD8110838
Probable space group: C 2/M
;
_chemical_formula_sum "Si O2"
_cell_formula_units_Z 48
_cell_length_a 13.132059
_cell_length_b 23.018259
_cell_length_c 8.827426
_cell_angle_alpha 90.000000
_cell_angle_beta 73.399833
_cell_angle_gamma 90.000000
_cell_volume 2557.117736
_symmetry_space_group_name_H-M "C 2/M"
_symmetry_group_IT_number 12
_symmetry_cell_setting 'monoclinic'
loop_
_space_group_symop_operation_xyz
x,y,z
-x,y,-z
-x,-y,-z
x,-y,z
1/2+x,1/2+y,z
1/2-x,1/2+y,-z
1/2-x,1/2-y,-z
1/2+x,1/2-y,z
loop_
_atom_site_type_symbol
_atom_site_label
_atom_site_fract_x
_atom_site_fract_y
_atom_site_fract_z
Si Si1 0.226672 0.670450 0.362455
Si Si2 0.389700 0.932997 0.465304
Si Si3 0.226295 0.333168 0.000584
Si Si4 0.614517 0.933294 0.885656
Si Si5 0.080047 0.234382 0.581539
Si Si6 0.073756 0.764866 0.094392
O O1 0.203454 0.604710 0.421447
O O2 0.229910 0.670834 0.180521
O O3 0.138086 0.713157 0.469670
O O4 0.340546 0.687760 0.381121
O O5 0.500000 0.916859 0.500000
O O6 0.393040 0.917477 0.287131
O O7 0.361387 0.000000 0.505326
O O8 0.134523 0.288761 0.987061
O O9 0.202151 0.395789 0.938884
O O10 0.339443 0.311958 0.884232
O O11 0.647196 0.000000 0.897741
O O12 0.500000 0.919360 0.000000
O O13 0.000000 0.201678 0.500000
O O14 0.002068 0.260295 0.742617
O O15 0.000000 0.795435 0.000000
#
# Coordination Sequence:
#
# PCOD8110838 Si02
#       6
#     8   8   8   8   8   8
#     4  11  23  36  58  87 114 152 192 231 285 339
#     4  10  22  38  59  85 115 148 187 236 286 335
#     4  11  23  36  59  86 115 154 190 232 282 339
#     4  10  22  38  58  85 114 149 189 234 286 336
#     4  11  23  38  56  84 119 151 188 234 283 340
#     4  11  23  38  55  85 119 150 188 231 281 339
#
# _framework density 18.771135000000001
#
# number of rings (size 3 to 8) (size 9 to 14) (size 15 to 20)
#    0.000    1.333    3.333    2.000    7.000    2.000 
#    0.000    0.000    0.000    2.000    0.000    0.000 
#    0.000    0.000    0.000    0.000    0.000    0.000 
#
# Total GULP energy -297538.164661 kJ/mol
# GULP energy per Si atom -12397.423528 kJ/mol
# Density = 1.872841 g / cm^3
# Si number density = 18.771135 Si / 1000 Ang^3
#
#
#
# Elastic Constant Matrix: (Units=GPa)
#
#
# Indices 1 2 3 4 5 6 
#
# 1 130.0154 54.5762 49.5730 0.0000 11.4204 0.0000
# 2 54.5762 93.4939 33.0061 0.0000 9.0181 0.0000
# 3 49.5730 33.0061 93.9064 0.0000 6.5973 0.0000
# 4 0.0000 0.0000 0.0000 29.8912 0.0000 5.9341
# 5 11.4204 9.0181 6.5973 0.0000 34.4635 0.0000
# 6 0.0000 0.0000 0.0000 5.9341 0.0000 25.2109
#
#
#
# Elastic Compliance Matrix: (Units=1/GPa)
#
#
# Indices 1 2 3 4 5 6 
#
# 1 0.011591 -0.005120 -0.004200 0.000000 -0.001697 0.000000
# 2 -0.005120 0.014672 -0.002335 0.000000 -0.001696 0.000000
# 3 -0.004200 -0.002335 0.013731 0.000000 -0.000626 0.000000
# 4 0.000000 0.000000 0.000000 0.035095 0.000000 -0.008260
# 5 -0.001697 -0.001696 -0.000626 0.000000 0.030142 0.000000
# 6 0.000000 0.000000 0.000000 -0.008260 0.000000 0.041610
#
#
# Mechanical properties :
#
#
# Convention : Reuss Voigt Hill
#
# Bulk Modulus (GPa) = 59.93709 65.74740 62.84224
# Shear Modulus (GPa) = 28.45559 29.93047 29.19303
#
# Velocity S-wave (km/s) = 3.89771 3.99744 3.94789
# Velocity P-wave (km/s) = 7.22883 7.51052 7.37102
#
# Compressibility (1/GPa) = 0.01668416
#
# Stress axis : x y z
#
# Youngs Moduli (GPa) = 86.27368 68.15510 72.82838
#
# Poissons Ratio (x) = 0.34893 0.30589
# Poissons Ratio (y) = 0.44169 0.17007
# Poissons Ratio (z) = 0.36237 0.15916
#
# Static dielectric constant tensor:
#      x y z
#    x 3.584750 0.000000 0.089270 
#    y 0.000000 3.279410 0.000000 
#    z 0.089270 0.000000 3.658040 
# 
# 
# High freq. dielectric constant tensor:
#      x y z
#    x 1.731910 0.000000 0.010520 
#    y 0.000000 1.703340 0.000000 
#    z 0.010520 0.000000 1.746360 
# 
# From -- ./inp_files/50606.got.cif
#   From: 2010.06.25/outbox.cif.g09.slc.cpg/sg12_26_cif.got.tgz:50606.got - 2010.06.28 00:19:55.
