data_PCOD8110867
_publ_section_title
;
Structure prediction by ZEFSAII (Michael W. Deem and Ramdas Pophale) SiO2 
 PCOD8110867
Probable space group: C 2/M
;
_chemical_formula_sum "Si O2"
_cell_formula_units_Z 48
_cell_length_a 23.843374
_cell_length_b 8.566459
_cell_length_c 11.888816
_cell_angle_alpha 90.000000
_cell_angle_beta 88.688388
_cell_angle_gamma 90.000000
_cell_volume 2427.693487
_symmetry_space_group_name_H-M "C 2/M"
_symmetry_group_IT_number 12
_symmetry_cell_setting 'monoclinic'
loop_
_space_group_symop_operation_xyz
x,y,z
-x,y,-z
-x,-y,-z
x,-y,z
1/2+x,1/2+y,z
1/2-x,1/2+y,-z
1/2-x,1/2-y,-z
1/2+x,1/2-y,z
loop_
_atom_site_type_symbol
_atom_site_label
_atom_site_fract_x
_atom_site_fract_y
_atom_site_fract_z
Si Si1 0.296270 0.814531 0.080552
Si Si2 0.582935 0.317000 0.964824
Si Si3 0.514258 0.181773 0.164391
Si Si4 0.835528 0.815566 0.530224
Si Si5 0.542978 0.317979 0.398303
Si Si6 0.727251 0.184236 0.666793
O O1 0.353863 0.739020 0.039682
O O2 0.280851 0.756379 0.206288
O O3 0.299872 0.000000 0.073235
O O4 0.250000 0.750000 0.000000
O O5 0.578968 0.500000 0.941923
O O6 0.548668 0.227282 0.869372
O O7 0.558328 0.280044 0.088919
O O8 0.522085 0.219397 0.293993
O O9 0.524218 0.000000 0.141335
O O10 0.895758 0.754785 0.569066
O O11 0.787533 0.755281 0.618512
O O12 0.823191 0.750840 0.406481
O O13 0.836176 0.000000 0.522329
O O14 0.500000 0.285163 0.500000
O O15 0.544898 0.500000 0.366076
O O16 0.724621 0.000000 0.660446
#
# Coordination Sequence:
#
# PCOD8110867 Si02
#       6
#     8   8   8   8   8   8
#     4  11  24  40  60  92 125 160 204 254 304 360
#     4  11  23  42  66  89 119 162 203 250 309 369
#     4  11  23  41  64  92 123 157 201 254 306 367
#     4   9  19  37  60  85 116 157 201 243 292 355
#     4  10  22  38  59  90 124 160 204 248 296 361
#     4   9  20  38  59  84 117 156 197 245 299 352
#
# _framework density 19.771853
#
# number of rings (size 3 to 8) (size 9 to 14) (size 15 to 20)
#    0.000    1.833    0.000    4.500    4.667    2.333 
#    0.000    0.000    0.000    0.000    0.000    0.000 
#    0.000    0.000    0.000    0.000    0.000    0.000 
#
# Total GULP energy -297704.601016 kJ/mol
# GULP energy per Si atom -12404.358376 kJ/mol
# Density = 1.972685 g / cm^3
# Si number density = 19.771853 Si / 1000 Ang^3
#
#
#
# Elastic Constant Matrix: (Units=GPa)
#
#
# Indices 1 2 3 4 5 6 
#
# 1 142.7765 24.3019 59.6403 0.0000 14.8784 0.0000
# 2 24.3019 58.0002 29.9964 0.0000 4.0108 0.0000
# 3 59.6403 29.9964 134.9146 0.0000 17.2922 0.0000
# 4 0.0000 0.0000 0.0000 32.4424 0.0000 5.0682
# 5 14.8784 4.0108 17.2922 0.0000 22.4206 0.0000
# 6 0.0000 0.0000 0.0000 5.0682 0.0000 29.3771
#
#
#
# Elastic Compliance Matrix: (Units=1/GPa)
#
#
# Indices 1 2 3 4 5 6 
#
# 1 0.008971 -0.001919 -0.003129 0.000000 -0.003196 0.000000
# 2 -0.001919 0.019893 -0.003641 0.000000 0.000524 0.000000
# 3 -0.003129 -0.003641 0.010271 0.000000 -0.005193 0.000000
# 4 0.000000 0.000000 0.000000 0.031678 0.000000 -0.005465
# 5 -0.003196 0.000524 -0.005193 0.000000 0.050635 0.000000
# 6 0.000000 0.000000 0.000000 -0.005465 0.000000 0.034983
#
#
# Mechanical properties :
#
#
# Convention : Reuss Voigt Hill
#
# Bulk Modulus (GPa) = 45.96867 62.61873 54.29370
# Shear Modulus (GPa) = 27.61501 31.63154 29.62328
#
# Velocity S-wave (km/s) = 3.74128 4.00412 3.87493
# Velocity P-wave (km/s) = 6.47788 7.28812 6.89491
#
# Compressibility (1/GPa) = 0.02175395
#
# Stress axis : x y z
#
# Youngs Moduli (GPa) = 111.47203 50.26993 97.36445
#
# Poissons Ratio (x) = 0.09649 0.30468
# Poissons Ratio (y) = 0.21396 0.35455
# Poissons Ratio (z) = 0.34882 0.18306
#
# Static dielectric constant tensor:
#      x y z
#    x 3.806610 0.000000 -0.016840 
#    y 0.000000 3.542000 0.000000 
#    z -0.016840 0.000000 3.666480 
# 
# 
# High freq. dielectric constant tensor:
#      x y z
#    x 1.780150 0.000000 0.002590 
#    y 0.000000 1.769450 0.000000 
#    z 0.002590 0.000000 1.777760 
# 
# From -- ./inp_files/172389.got.cif
#   From: 2010.06.25/outbox.cif.g09.slc.cpg/sg12_87_cif.got.tgz:172389.got - 2010.06.28 00:19:55.
