data_PCOD8110633
_publ_section_title
;
Structure prediction by ZEFSAII (Michael W. Deem and Ramdas Pophale) SiO2 
 PCOD8110633
Probable space group: C 2/M
;
_chemical_formula_sum "Si O2"
_cell_formula_units_Z 44
_cell_length_a 9.826851
_cell_length_b 21.042506
_cell_length_c 11.466698
_cell_angle_alpha 90.000000
_cell_angle_beta 111.352880
_cell_angle_gamma 90.000000
_cell_volume 2208.338907
_symmetry_space_group_name_H-M "C 2/M"
_symmetry_group_IT_number 12
_symmetry_cell_setting 'monoclinic'
loop_
_space_group_symop_operation_xyz
x,y,z
-x,y,-z
-x,-y,-z
x,-y,z
1/2+x,1/2+y,z
1/2-x,1/2+y,-z
1/2-x,1/2-y,-z
1/2+x,1/2-y,z
loop_
_atom_site_type_symbol
_atom_site_label
_atom_site_fract_x
_atom_site_fract_y
_atom_site_fract_z
Si Si1 0.824820 0.000000 0.808556
Si Si2 0.793946 0.630522 0.854845
Si Si3 0.913088 0.676770 0.126096
Si Si4 0.755939 0.632611 0.302711
Si Si5 0.172732 0.000000 0.915782
Si Si6 0.522273 0.293136 0.723854
Si Si7 0.000000 0.703258 0.500000
O O1 0.748835 0.942410 0.717244
O O2 0.998931 0.000000 0.847002
O O3 0.785085 0.000000 0.933995
O O4 0.742311 0.560300 0.872787
O O5 0.672042 0.668796 0.743374
O O6 0.945496 0.629143 0.828801
O O7 0.823164 0.671377 0.979843
O O8 0.804089 0.663386 0.196989
O O9 0.966935 0.749326 0.157446
O O10 0.595027 0.653437 0.286964
O O11 0.863462 0.655853 0.438915
O O12 0.473941 0.248578 0.601983
#
# Coordination Sequence:
#
# PCOD8110633 Si02
#       7
#     4   8   8   8   4   8   4
#     4  11  22  40  64  93 122 161 207 251 300 370
#     4  11  22  38  60  91 129 165 199 243 307 369
#     4  10  22  36  58  97 128 160 198 249 310 360
#     4  11  22  40  65  90 122 162 209 252 304 360
#     4  11  22  40  63  90 129 165 200 245 302 377
#     4  11  22  41  64  89 124 162 206 254 306 369
#     4  10  24  41  64  91 118 160 208 266 310 346
#
# _framework density 19.924478000000001
#
# number of rings (size 3 to 8) (size 9 to 14) (size 15 to 20)
#    0.000    1.273    3.636    3.273    0.000    6.182 
#    0.000    0.000    0.000    6.545    0.000    0.000 
#    0.000    0.000    0.000    0.000    0.000    0.000 
#
# Total GULP energy -272757.224551 kJ/mol
# GULP energy per Si atom -12398.055661 kJ/mol
# Density = 1.987913 g / cm^3
# Si number density = 19.924478 Si / 1000 Ang^3
#
#
#
# Elastic Constant Matrix: (Units=GPa)
#
#
# Indices 1 2 3 4 5 6 
#
# 1 83.0547 12.7804 19.7296 0.0000 12.1782 0.0000
# 2 12.7804 122.5942 40.6131 0.0000 9.3670 0.0000
# 3 19.7296 40.6131 83.6865 0.0000 11.4401 0.0000
# 4 0.0000 0.0000 0.0000 25.6110 0.0000 5.8650
# 5 12.1782 9.3670 11.4401 0.0000 23.5366 0.0000
# 6 0.0000 0.0000 0.0000 5.8650 0.0000 28.0314
#
#
#
# Elastic Compliance Matrix: (Units=1/GPa)
#
#
# Indices 1 2 3 4 5 6 
#
# 1 0.013461 -0.000205 -0.002285 0.000000 -0.005773 0.000000
# 2 -0.000205 0.009786 -0.004480 0.000000 -0.001610 0.000000
# 3 -0.002285 -0.004480 0.015272 0.000000 -0.004458 0.000000
# 4 0.000000 0.000000 0.000000 0.041011 0.000000 -0.008581
# 5 -0.005773 -0.001610 -0.004458 0.000000 0.048281 0.000000
# 6 0.000000 0.000000 0.000000 -0.008581 0.000000 0.037470
#
#
# Mechanical properties :
#
#
# Convention : Reuss Voigt Hill
#
# Bulk Modulus (GPa) = 40.68770 48.39796 44.54283
# Shear Modulus (GPa) = 26.67892 29.84996 28.26444
#
# Velocity S-wave (km/s) = 3.66321 3.87480 3.77049
# Velocity P-wave (km/s) = 6.19334 6.66050 6.43116
#
# Compressibility (1/GPa) = 0.02457745
#
# Stress axis : x y z
#
# Youngs Moduli (GPa) = 74.28848 102.18954 65.48049
#
# Poissons Ratio (x) = 0.02098 0.14960
# Poissons Ratio (y) = 0.01525 0.29338
# Poissons Ratio (z) = 0.16973 0.45786
#
# Static dielectric constant tensor:
#      x y z
#    x 3.704150 0.000000 0.153700 
#    y 0.000000 3.725380 0.000000 
#    z 0.153700 0.000000 3.628640 
# 
# 
# High freq. dielectric constant tensor:
#      x y z
#    x 1.788330 0.000000 0.012160 
#    y 0.000000 1.780070 0.000000 
#    z 0.012160 0.000000 1.761760 
# 
# From -- ./inp_files/122152.got.cif
#   From: 2010.06.25/outbox.cif.g09.slc.cpg/sg12_62_cif.got.tgz:122152.got - 2010.06.28 00:19:55.
