data_PCOD8110473
_publ_section_title
;
Structure prediction by ZEFSAII (Michael W. Deem and Ramdas Pophale) SiO2 
 PCOD8110473
Probable space group: C 2/M
;
_chemical_formula_sum "Si O2"
_cell_formula_units_Z 24
_cell_length_a 13.452517
_cell_length_b 5.163552
_cell_length_c 25.314644
_cell_angle_alpha 90.000000
_cell_angle_beta 139.275254
_cell_angle_gamma 90.000000
_cell_volume 1147.242012
_symmetry_space_group_name_H-M "C 2/M"
_symmetry_group_IT_number 12
_symmetry_cell_setting 'monoclinic'
loop_
_space_group_symop_operation_xyz
x,y,z
-x,y,-z
-x,-y,-z
x,-y,z
1/2+x,1/2+y,z
1/2-x,1/2+y,-z
1/2-x,1/2-y,-z
1/2+x,1/2-y,z
loop_
_atom_site_type_symbol
_atom_site_label
_atom_site_fract_x
_atom_site_fract_y
_atom_site_fract_z
Si Si1 0.208994 0.000000 0.388078
Si Si2 0.739162 0.500000 0.278195
Si Si3 0.589003 0.000000 0.980637
Si Si4 0.065971 0.000000 0.901956
Si Si5 0.419931 0.500000 0.323855
Si Si6 0.128653 0.000000 0.508707
O O1 0.270196 0.000000 0.353067
O O2 0.267168 0.750851 0.442901
O O3 0.023513 0.000000 0.312528
O O4 0.559739 0.500000 0.194510
O O5 0.813645 0.750756 0.282177
O O6 0.541618 0.748385 0.928886
O O7 0.500000 0.000000 0.000000
O O8 0.771711 0.000000 0.062643
O O9 0.548726 0.500000 0.420373
O O10 0.000000 0.000000 0.500000
#
# Coordination Sequence:
#
# PCOD8110473 Si02
#       6
#     4   4   4   4   4   4
#     4  12  24  41  61  88 120 164 210 256 310 353
#     4  12  24  41  59  91 129 158 198 253 308 364
#     4  10  21  43  68  94 120 160 200 241 295 359
#     4  10  23  39  64  95 125 156 200 246 295 365
#     4  12  25  40  62  88 123 165 210 255 306 358
#     4  12  21  41  65  84 118 166 212 264 299 351
#
# _framework density 20.919737000000001
#
# number of rings (size 3 to 8) (size 9 to 14) (size 15 to 20)
#    0.000    0.667    3.333    5.000    0.000    2.667 
#    0.000    0.000    0.000    0.000    0.000    0.000 
#    0.000    0.000    0.000    0.000    0.000    0.000 
#
# Total GULP energy -148847.229137 kJ/mol
# GULP energy per Si atom -12403.935761 kJ/mol
# Density = 2.087212 g / cm^3
# Si number density = 20.919737 Si / 1000 Ang^3
#
#
#
# Elastic Constant Matrix: (Units=GPa)
#
#
# Indices 1 2 3 4 5 6 
#
# 1 112.5458 32.0364 13.8008 -0.0002 20.9544 0.0005
# 2 32.0364 187.3442 43.2317 -0.0008 14.4424 -0.0001
# 3 13.8008 43.2317 105.2845 0.0000 19.6907 0.0001
# 4 -0.0002 -0.0008 0.0000 52.3813 0.0001 22.5703
# 5 20.9544 14.4424 19.6907 0.0001 26.7682 -0.0002
# 6 0.0005 -0.0001 0.0001 22.5703 -0.0002 45.4435
#
#
#
# Elastic Compliance Matrix: (Units=1/GPa)
#
#
# Indices 1 2 3 4 5 6 
#
# 1 0.010706 -0.001359 0.000678 0.000000 -0.008146 0.000000
# 2 -0.001359 0.006131 -0.002226 0.000000 -0.000606 0.000000
# 3 0.000678 -0.002226 0.011825 0.000000 -0.008028 0.000000
# 4 0.000000 0.000000 0.000000 0.024289 0.000000 -0.012063
# 5 -0.008146 -0.000606 -0.008028 0.000000 0.049967 0.000001
# 6 0.000000 0.000000 0.000000 -0.012063 0.000001 0.027997
#
#
# Mechanical properties :
#
#
# Convention : Reuss Voigt Hill
#
# Bulk Modulus (GPa) = 43.76845 64.81247 54.29046
# Shear Modulus (GPa) = 34.63973 45.99230 40.31602
#
# Velocity S-wave (km/s) = 4.07362 4.69392 4.39472
# Velocity P-wave (km/s) = 6.56455 7.77341 7.19441
#
# Compressibility (1/GPa) = 0.02284751
#
# Stress axis : x y z
#
# Youngs Moduli (GPa) = 93.40831 163.11714 84.56970
#
# Poissons Ratio (x) = 0.22172 -0.05737
# Poissons Ratio (y) = 0.12697 0.18823
# Poissons Ratio (z) = -0.06336 0.36306
#
# Static dielectric constant tensor:
#      x y z
#    x -13.161460 -0.000050 2.302740 
#    y -0.000050 4.114530 0.000010 
#    z 2.302740 0.000010 3.416950 
# 
# 
# High freq. dielectric constant tensor:
#      x y z
#    x 1.831370 0.000000 0.018600 
#    y 0.000000 1.842590 0.000000 
#    z 0.018600 0.000000 1.808700 
# 
# From -- ./inp_files/359288.got.cif
#   From: 2010.06.25/outbox.cif.g09.slc.cpg/sg12_180_cif.got.tgz:359288.got - 2010.06.28 00:19:55.
