data_PCOD8110986
_publ_section_title
;
Structure prediction by ZEFSAII (Michael W. Deem and Ramdas Pophale) SiO2 
 PCOD8110986
Probable space group: C 2/M
;
_chemical_formula_sum "Si O2"
_cell_formula_units_Z 44
_cell_length_a 8.489625
_cell_length_b 31.208677
_cell_length_c 10.828043
_cell_angle_alpha 90.000000
_cell_angle_beta 48.577217
_cell_angle_gamma 90.000000
_cell_volume 2151.231271
_symmetry_space_group_name_H-M "C 2/M"
_symmetry_group_IT_number 12
_symmetry_cell_setting 'monoclinic'
loop_
_space_group_symop_operation_xyz
x,y,z
-x,y,-z
-x,-y,-z
x,-y,z
1/2+x,1/2+y,z
1/2-x,1/2+y,-z
1/2-x,1/2-y,-z
1/2+x,1/2-y,z
loop_
_atom_site_type_symbol
_atom_site_label
_atom_site_fract_x
_atom_site_fract_y
_atom_site_fract_z
Si Si1 0.000000 0.106411 0.000000
Si Si2 0.107709 0.451880 0.183617
Si Si3 0.347792 0.115750 0.189565
Si Si4 0.500000 0.925585 0.500000
Si Si5 0.000000 0.739923 0.500000
Si Si6 0.805415 0.690519 0.403553
Si Si7 0.904195 0.869484 0.312860
O O1 0.186246 0.075969 0.950709
O O2 0.064970 0.136407 0.850797
O O3 0.137651 0.500000 0.117102
O O4 0.914883 0.429833 0.211776
O O5 0.067476 0.454945 0.350838
O O6 0.375815 0.152627 0.277579
O O7 0.109438 0.109267 0.268313
O O8 0.500000 0.129664 0.000000
O O9 0.696690 0.897520 0.444199
O O10 0.997515 0.709210 0.622095
O O11 0.204954 0.769856 0.381991
O O12 0.633861 0.675000 0.595574
#
# Coordination Sequence:
#
# PCOD8110986 Si02
#       7
#     4   8   8   4   4   8   8
#     4  10  23  40  64  94 122 178 218 256 314 374
#     4  11  23  41  62  94 131 169 217 266 314 369
#     4  12  24  41  64  94 131 169 213 256 324 380
#     4  10  22  38  65  90 118 170 224 257 314 365
#     4  10  23  38  69  96 122 164 214 261 316 375
#     4  11  22  42  67  92 129 167 211 261 314 385
#     4  11  21  41  66  91 123 168 216 259 309 390
#
# _framework density 20.453403999999999
#
# number of rings (size 3 to 8) (size 9 to 14) (size 15 to 20)
#    0.000    1.091    5.455    1.091    2.545    0.364 
#    0.000    3.636    8.000    0.000    0.000    0.000 
#    0.000    0.000    0.000    0.000    0.000    0.000 
#
# Total GULP energy -272757.365449 kJ/mol
# GULP energy per Si atom -12398.062066 kJ/mol
# Density = 2.040685 g / cm^3
# Si number density = 20.453404 Si / 1000 Ang^3
#
#
#
# Elastic Constant Matrix: (Units=GPa)
#
#
# Indices 1 2 3 4 5 6 
#
# 1 139.6769 50.8883 31.5056 0.0000 -9.3312 0.0000
# 2 50.8883 93.3646 43.6785 0.0000 11.5658 0.0000
# 3 31.5056 43.6785 105.8546 0.0000 12.3516 0.0000
# 4 0.0000 0.0000 0.0000 11.6440 0.0000 -2.6140
# 5 -9.3312 11.5658 12.3516 0.0000 38.5631 0.0000
# 6 0.0000 0.0000 0.0000 -2.6140 0.0000 24.3934
#
#
#
# Elastic Compliance Matrix: (Units=1/GPa)
#
#
# Indices 1 2 3 4 5 6 
#
# 1 0.009614 -0.005202 -0.001214 0.000000 0.004275 0.000000
# 2 -0.005202 0.016289 -0.004629 0.000000 -0.004661 0.000000
# 3 -0.001214 -0.004629 0.012041 0.000000 -0.002762 0.000000
# 4 0.000000 0.000000 0.000000 0.087998 0.000000 0.009430
# 5 0.004275 -0.004661 -0.002762 0.000000 0.029249 0.000000
# 6 0.000000 0.000000 0.000000 0.009430 0.000000 0.042005
#
#
# Mechanical properties :
#
#
# Convention : Reuss Voigt Hill
#
# Bulk Modulus (GPa) = 63.07591 65.67122 64.37356
# Shear Modulus (GPa) = 22.26475 29.10834 25.68654
#
# Velocity S-wave (km/s) = 3.30291 3.77656 3.54765
# Velocity P-wave (km/s) = 6.74177 7.15500 6.95145
#
# Compressibility (1/GPa) = 0.01585391
#
# Stress axis : x y z
#
# Youngs Moduli (GPa) = 104.01548 61.39102 83.05236
#
# Poissons Ratio (x) = 0.31934 0.10081
# Poissons Ratio (y) = 0.54107 0.38446
# Poissons Ratio (z) = 0.12626 0.28419
#
# Static dielectric constant tensor:
#      x y z
#    x 4.023640 0.000000 0.094980 
#    y 0.000000 3.557250 0.000000 
#    z 0.094980 0.000000 3.689870 
# 
# 
# High freq. dielectric constant tensor:
#      x y z
#    x 1.824780 0.000000 0.008260 
#    y 0.000000 1.782920 0.000000 
#    z 0.008260 0.000000 1.786180 
# 
# From -- ./inp_files/125096.got.cif
#   From: 2010.06.25/outbox.cif.g09.slc.cpg/sg12_63_cif.got.tgz:125096.got - 2010.06.28 00:19:55.
