data_PCOD8110266
_publ_section_title
;
Structure prediction by ZEFSAII (Michael W. Deem and Ramdas Pophale) SiO2 
 PCOD8110266
Probable space group: C 2/M
;
_chemical_formula_sum "Si O2"
_cell_formula_units_Z 64
_cell_length_a 17.624847
_cell_length_b 14.276855
_cell_length_c 15.160688
_cell_angle_alpha 90.000000
_cell_angle_beta 129.356111
_cell_angle_gamma 90.000000
_cell_volume 2949.712194
_symmetry_space_group_name_H-M "C 2/M"
_symmetry_group_IT_number 12
_symmetry_cell_setting 'monoclinic'
loop_
_space_group_symop_operation_xyz
x,y,z
-x,y,-z
-x,-y,-z
x,-y,z
1/2+x,1/2+y,z
1/2-x,1/2+y,-z
1/2-x,1/2-y,-z
1/2+x,1/2-y,z
loop_
_atom_site_type_symbol
_atom_site_label
_atom_site_fract_x
_atom_site_fract_y
_atom_site_fract_z
Si Si1 0.747878 0.246113 0.352132
Si Si2 0.072173 0.806605 0.969358
Si Si3 0.269767 0.607950 0.799400
Si Si4 0.298722 0.604848 0.245760
Si Si5 0.909338 0.601180 0.997904
Si Si6 0.396706 0.226480 0.612309
Si Si7 0.038873 0.393252 0.621999
Si Si8 0.475756 0.608221 0.249270
O O1 0.698847 0.332211 0.262768
O O2 0.807684 0.174431 0.334866
O O3 0.657287 0.197160 0.336475
O O4 0.822599 0.288858 0.477378
O O5 0.079885 0.698252 0.939604
O O6 0.035225 0.868881 0.861903
O O7 0.178209 0.847413 0.076531
O O8 0.000000 0.815657 0.000000
O O9 0.301109 0.500000 0.810377
O O10 0.153537 0.619725 0.722149
O O11 0.322025 0.500000 0.296079
O O12 0.375261 0.634091 0.226246
O O13 0.189013 0.613054 0.130217
O O14 0.903961 0.500000 0.047156
O O15 0.000000 0.594046 0.000000
O O16 0.488339 0.158190 0.666857
O O17 0.434248 0.333584 0.643347
O O18 0.005619 0.500000 0.601518
O O19 0.000000 0.350694 0.500000
O O20 0.502837 0.500000 0.280135
#
# Coordination Sequence:
#
# PCOD8110266 Si02
#       8
#     8   8   8   8   8   8   8   8
#     4  11  23  42  62  96 127 165 220 264 327 389
#     4  11  23  41  68  97 131 174 219 269 327 387
#     4  11  22  39  68  96 127 172 216 267 328 386
#     4  10  22  42  65  89 126 167 209 266 319 382
#     4   9  19  37  62  92 126 165 205 255 318 379
#     4  11  25  40  66  92 129 172 211 272 325 382
#     4  10  21  41  66  94 127 163 209 267 327 382
#     4  11  26  44  63  95 132 172 221 266 319 384
#
# _framework density 21.697032
#
# number of rings (size 3 to 8) (size 9 to 14) (size 15 to 20)
#    0.000    1.500    2.500    1.875    1.750    4.000 
#    0.000    4.375    0.000    0.000    0.000    0.000 
#    0.000    0.000    0.000    0.000    0.000    0.000 
#
# Total GULP energy -396701.101943 kJ/mol
# GULP energy per Si atom -12396.909436 kJ/mol
# Density = 2.164765 g / cm^3
# Si number density = 21.697032 Si / 1000 Ang^3
#
#
#
# Elastic Constant Matrix: (Units=GPa)
#
#
# Indices 1 2 3 4 5 6 
#
# 1 97.3669 32.8945 13.6967 0.0000 -12.8636 0.0000
# 2 32.8945 108.3805 14.1620 0.0000 -14.6084 0.0000
# 3 13.6967 14.1620 52.9932 0.0000 3.1786 0.0000
# 4 0.0000 0.0000 0.0000 31.7403 0.0000 -1.2315
# 5 -12.8636 -14.6084 3.1786 0.0000 29.6219 0.0000
# 6 0.0000 0.0000 0.0000 -1.2315 0.0000 38.8799
#
#
#
# Elastic Compliance Matrix: (Units=1/GPa)
#
#
# Indices 1 2 3 4 5 6 
#
# 1 0.012132 -0.002772 -0.002646 0.000000 0.004185 0.000000
# 2 -0.002772 0.010999 -0.002492 0.000000 0.004488 0.000000
# 3 -0.002646 -0.002492 0.020495 0.000000 -0.004577 0.000000
# 4 0.000000 0.000000 0.000000 0.031544 0.000000 0.000999
# 5 0.004185 0.004488 -0.004577 0.000000 0.038281 0.000000
# 6 0.000000 0.000000 0.000000 0.000999 0.000000 0.025752
#
#
# Mechanical properties :
#
#
# Convention : Reuss Voigt Hill
#
# Bulk Modulus (GPa) = 35.96443 42.24966 39.10705
# Shear Modulus (GPa) = 30.43379 33.24759 31.84069
#
# Velocity S-wave (km/s) = 3.74929 3.91878 3.83497
# Velocity P-wave (km/s) = 5.94597 6.32381 6.13780
#
# Compressibility (1/GPa) = 0.02780525
#
# Stress axis : x y z
#
# Youngs Moduli (GPa) = 82.42545 90.91998 48.79315
#
# Poissons Ratio (x) = 0.25206 0.12910
# Poissons Ratio (y) = 0.22851 0.12159
# Poissons Ratio (z) = 0.21808 0.22657
#
# Static dielectric constant tensor:
#      x y z
#    x 4.124610 0.000000 0.132610 
#    y 0.000000 4.319770 0.000000 
#    z 0.132610 0.000000 3.744770 
# 
# 
# High freq. dielectric constant tensor:
#      x y z
#    x 1.854650 0.000000 0.017800 
#    y 0.000000 1.862100 0.000000 
#    z 0.017800 0.000000 1.841520 
# 
# From -- ./inp_files/225753.got.cif
#   From: 2010.06.25/outbox.cif.g09.slc.cpg/sg12_113_cif.got.tgz:225753.got - 2010.06.28 00:19:55.
