data_PCOD8110166
_publ_section_title
;
Structure prediction by ZEFSAII (Michael W. Deem and Ramdas Pophale) SiO2 
 PCOD8110166
Probable space group: C 2/M
;
_chemical_formula_sum "Si O2"
_cell_formula_units_Z 48
_cell_length_a 30.060403
_cell_length_b 8.752097
_cell_length_c 14.791318
_cell_angle_alpha 90.000000
_cell_angle_beta 140.291637
_cell_angle_gamma 90.000000
_cell_volume 2486.183416
_symmetry_space_group_name_H-M "C 2/M"
_symmetry_group_IT_number 12
_symmetry_cell_setting 'monoclinic'
loop_
_space_group_symop_operation_xyz
x,y,z
-x,y,-z
-x,-y,-z
x,-y,z
1/2+x,1/2+y,z
1/2-x,1/2+y,-z
1/2-x,1/2-y,-z
1/2+x,1/2-y,z
loop_
_atom_site_type_symbol
_atom_site_label
_atom_site_fract_x
_atom_site_fract_y
_atom_site_fract_z
Si Si1 0.179123 0.320535 0.853148
Si Si2 0.554435 0.821188 0.322079
Si Si3 0.180401 0.677887 0.646743
Si Si4 0.176842 0.319663 0.161037
Si Si5 0.072779 0.319827 0.149002
Si Si6 0.092585 0.819964 0.866901
O O1 0.181701 0.500000 0.873201
O O2 0.168746 0.278314 0.732437
O O3 0.113322 0.251137 0.802897
O O4 0.250000 0.250000 0.000000
O O5 0.610641 0.776546 0.484911
O O6 0.585247 0.773697 0.272502
O O7 0.485425 0.725964 0.231736
O O8 0.535212 0.000000 0.294412
O O9 0.197894 0.500000 0.661815
O O10 0.242974 0.774632 0.701680
O O11 0.168993 0.500000 0.136418
O O12 0.135756 0.258641 0.185305
O O13 0.146688 0.239342 0.025528
O O14 0.069110 0.500000 0.132598
O O15 0.000000 0.248238 0.000000
O O16 0.099376 0.000000 0.871816
#
# Coordination Sequence:
#
# PCOD8110166 Si02
#       6
#     8   8   8   8   8   8
#     4  11  22  38  61  89 118 155 199 243 293 350
#     4  10  21  41  63  85 120 160 194 238 297 354
#     4  10  23  40  60  88 122 154 192 244 297 353
#     4  11  21  36  62  89 117 157 199 242 292 353
#     4   9  17  33  60  90 115 150 200 240 285 352
#     4  12  24  38  59  89 120 153 200 250 295 347
#
# _framework density 19.306702000000001
#
# number of rings (size 3 to 8) (size 9 to 14) (size 15 to 20)
#    0.000    1.500    3.333    2.500    0.000    2.667 
#    0.000    5.833    0.000    0.000    0.000    0.000 
#    0.000    0.000    0.000    0.000    0.000    0.000 
#
# Total GULP energy -297691.726899 kJ/mol
# GULP energy per Si atom -12403.821954 kJ/mol
# Density = 1.926276 g / cm^3
# Si number density = 19.306702 Si / 1000 Ang^3
#
#
#
# Elastic Constant Matrix: (Units=GPa)
#
#
# Indices 1 2 3 4 5 6 
#
# 1 110.5704 29.4759 9.4857 0.0000 -8.0886 0.0000
# 2 29.4759 67.7973 17.5840 0.0000 -2.5791 0.0000
# 3 9.4857 17.5840 80.8207 0.0000 -14.1603 0.0000
# 4 0.0000 0.0000 0.0000 24.8967 0.0000 9.2480
# 5 -8.0886 -2.5791 -14.1603 0.0000 32.1595 0.0000
# 6 0.0000 0.0000 0.0000 9.2480 0.0000 28.3074
#
#
#
# Elastic Compliance Matrix: (Units=1/GPa)
#
#
# Indices 1 2 3 4 5 6 
#
# 1 0.010392 -0.004471 0.000161 0.000000 0.002326 0.000000
# 2 -0.004471 0.017558 -0.003517 0.000000 -0.001265 0.000000
# 3 0.000161 -0.003517 0.014170 0.000000 0.005998 0.000000
# 4 0.000000 0.000000 0.000000 0.045713 0.000000 -0.014935
# 5 0.002326 -0.001265 0.005998 0.000000 0.034219 0.000000
# 6 0.000000 0.000000 0.000000 -0.014935 0.000000 0.040206
#
#
# Mechanical properties :
#
#
# Convention : Reuss Voigt Hill
#
# Bulk Modulus (GPa) = 37.78555 41.36440 39.57498
# Shear Modulus (GPa) = 26.77578 30.58225 28.67901
#
# Velocity S-wave (km/s) = 3.72810 3.98430 3.85833
# Velocity P-wave (km/s) = 6.17619 6.52974 6.35543
#
# Compressibility (1/GPa) = 0.02646514
#
# Stress axis : x y z
#
# Youngs Moduli (GPa) = 96.22435 56.95446 70.57057
#
# Poissons Ratio (x) = 0.25467 -0.01134
# Poissons Ratio (y) = 0.43026 0.24819
# Poissons Ratio (z) = -0.01546 0.20030
#
# Static dielectric constant tensor:
#      x y z
#    x 3.885780 0.000000 -0.129270 
#    y 0.000000 3.376310 0.000000 
#    z -0.129270 0.000000 3.515890 
# 
# 
# High freq. dielectric constant tensor:
#      x y z
#    x 1.770710 0.000000 -0.002360 
#    y 0.000000 1.736740 0.000000 
#    z -0.002360 0.000000 1.747090 
# 
# From -- ./inp_files/248784.got.cif
#   From: 2010.06.25/outbox.cif.g09.slc.cpg/sg12_125_cif.got.tgz:248784.got - 2010.06.28 00:19:55.
