data_PCOD8110273
_publ_section_title
;
Structure prediction by ZEFSAII (Michael W. Deem and Ramdas Pophale) SiO2 
 PCOD8110273
Probable space group: C 2/M
;
_chemical_formula_sum "Si O2"
_cell_formula_units_Z 56
_cell_length_a 18.312683
_cell_length_b 26.142804
_cell_length_c 9.630951
_cell_angle_alpha 90.000000
_cell_angle_beta 146.802611
_cell_angle_gamma 90.000000
_cell_volume 2524.511445
_symmetry_space_group_name_H-M "C 2/M"
_symmetry_group_IT_number 12
_symmetry_cell_setting 'monoclinic'
loop_
_space_group_symop_operation_xyz
x,y,z
-x,y,-z
-x,-y,-z
x,-y,z
1/2+x,1/2+y,z
1/2-x,1/2+y,-z
1/2-x,1/2-y,-z
1/2+x,1/2-y,z
loop_
_atom_site_type_symbol
_atom_site_label
_atom_site_fract_x
_atom_site_fract_y
_atom_site_fract_z
Si Si1 0.373657 0.559710 0.641077
Si Si2 0.309279 0.785912 0.804973
Si Si3 0.713811 0.902311 0.622207
Si Si4 0.893775 0.705215 0.625680
Si Si5 0.363121 0.439355 0.104723
Si Si6 0.761514 0.108245 0.205914
Si Si7 0.479016 0.056545 0.117928
O O1 0.375135 0.500000 0.682859
O O2 0.348964 0.593361 0.741714
O O3 0.509632 0.576408 0.782354
O O4 0.265522 0.574510 0.353825
O O5 0.200521 0.740226 0.624052
O O6 0.341730 0.799127 0.698895
O O7 0.226854 0.831515 0.747490
O O8 0.448898 0.776215 0.114439
O O9 0.629068 0.850276 0.476474
O O10 0.622782 0.947886 0.418827
O O11 0.740708 0.914950 0.825388
O O12 0.350688 0.500000 0.108464
O O13 0.367919 0.411009 0.261370
O O14 0.610758 0.092858 0.924435
O O15 0.417251 0.000000 0.006160
O O16 0.500000 0.082264 0.000000
#
# Coordination Sequence:
#
# PCOD8110273 Si02
#       7
#     8   8   8   8   8   8   8
#     4  11  22  40  65  92 131 180 228 272 323 404
#     4  10  21  41  68 100 129 168 220 289 344 405
#     4  12  22  40  65  96 129 171 222 276 335 394
#     4  10  21  41  67 100 131 165 224 288 344 398
#     4  11  26  42  59  95 142 180 218 270 334 403
#     4  12  22  40  65  93 131 175 221 270 336 406
#     4  11  20  33  61  94 124 162 215 267 322 393
#
# _framework density 22.182509
#
# number of rings (size 3 to 8) (size 9 to 14) (size 15 to 20)
#    0.000    1.000    4.286    3.429    0.000    4.000 
#    5.143    2.143    0.000    0.000    0.000    0.000 
#    0.000    0.000    0.000    0.000    0.000    0.000 
#
# Total GULP energy -346874.940890 kJ/mol
# GULP energy per Si atom -12388.390746 kJ/mol
# Density = 2.213202 g / cm^3
# Si number density = 22.182509 Si / 1000 Ang^3
#
#
#
# Elastic Constant Matrix: (Units=GPa)
#
#
# Indices 1 2 3 4 5 6 
#
# 1 74.1627 39.8578 34.4608 0.0000 -0.7269 0.0000
# 2 39.8578 112.4839 45.6850 0.0000 6.6562 0.0000
# 3 34.4608 45.6850 66.8718 0.0000 11.5946 0.0000
# 4 0.0000 0.0000 0.0000 29.0039 0.0000 -0.9862
# 5 -0.7269 6.6562 11.5946 0.0000 27.8541 0.0000
# 6 0.0000 0.0000 0.0000 -0.9862 0.0000 29.7724
#
#
#
# Elastic Compliance Matrix: (Units=1/GPa)
#
#
# Indices 1 2 3 4 5 6 
#
# 1 0.019410 -0.003821 -0.008233 0.000000 0.004847 0.000000
# 2 -0.003821 0.013066 -0.006896 0.000000 -0.000351 0.000000
# 3 -0.008233 -0.006896 0.025500 0.000000 -0.009181 0.000000
# 4 0.000000 0.000000 0.000000 0.034517 0.000000 0.001143
# 5 0.004847 -0.000351 -0.009181 0.000000 0.039934 0.000000
# 6 0.000000 0.000000 0.000000 0.001143 0.000000 0.033626
#
#
# Mechanical properties :
#
#
# Convention : Reuss Voigt Hill
#
# Bulk Modulus (GPa) = 49.81020 54.83619 52.32320
# Shear Modulus (GPa) = 23.73672 26.22705 24.98189
#
# Velocity S-wave (km/s) = 3.27473 3.44223 3.35953
# Velocity P-wave (km/s) = 6.06646 6.36967 6.21992
#
# Compressibility (1/GPa) = 0.02007621
#
# Stress axis : x y z
#
# Youngs Moduli (GPa) = 51.51898 76.53581 39.21628
#
# Poissons Ratio (x) = 0.29245 0.32285
# Poissons Ratio (y) = 0.19686 0.27044
# Poissons Ratio (z) = 0.42413 0.52780
#
# Static dielectric constant tensor:
#      x y z
#    x 3.879360 0.000000 0.124540 
#    y 0.000000 3.713870 0.000000 
#    z 0.124540 0.000000 4.358400 
# 
# 
# High freq. dielectric constant tensor:
#      x y z
#    x 1.852780 0.000000 0.016180 
#    y 0.000000 1.854590 0.000000 
#    z 0.016180 0.000000 1.887590 
# 
# From -- ./inp_files/80120.got.cif
#   From: 2010.06.25/outbox.cif.g09.slc.cpg/sg12_41_cif.got.tgz:80120.got - 2010.06.28 00:19:55.
