data_PCOD8110559
_publ_section_title
;
Structure prediction by ZEFSAII (Michael W. Deem and Ramdas Pophale) SiO2 
 PCOD8110559
Probable space group: C 2/M
;
_chemical_formula_sum "Si O2"
_cell_formula_units_Z 56
_cell_length_a 9.463882
_cell_length_b 26.934986
_cell_length_c 12.118083
_cell_angle_alpha 90.000000
_cell_angle_beta 74.706853
_cell_angle_gamma 90.000000
_cell_volume 2979.629644
_symmetry_space_group_name_H-M "C 2/M"
_symmetry_group_IT_number 12
_symmetry_cell_setting 'monoclinic'
loop_
_space_group_symop_operation_xyz
x,y,z
-x,y,-z
-x,-y,-z
x,-y,z
1/2+x,1/2+y,z
1/2-x,1/2+y,-z
1/2-x,1/2-y,-z
1/2+x,1/2-y,z
loop_
_atom_site_type_symbol
_atom_site_label
_atom_site_fract_x
_atom_site_fract_y
_atom_site_fract_z
Si Si1 0.487546 0.228274 0.123238
Si Si2 0.962030 0.444584 0.880151
Si Si3 0.163339 0.893746 0.985006
Si Si4 0.853792 0.302075 0.576082
Si Si5 0.143753 0.810639 0.416232
Si Si6 0.801651 0.367090 0.187482
Si Si7 0.268145 0.306199 0.182518
O O1 0.412370 0.175005 0.124214
O O2 0.386164 0.267334 0.209585
O O3 0.644105 0.225318 0.146547
O O4 0.500000 0.252033 0.000000
O O5 0.971417 0.500000 0.828303
O O6 0.793858 0.425939 0.902771
O O7 0.087827 0.411134 0.795033
O O8 0.000000 0.444263 0.000000
O O9 0.156678 0.843058 0.917840
O O10 0.196037 0.883887 0.108148
O O11 0.000000 0.918021 0.000000
O O12 0.885043 0.246068 0.617666
O O13 0.751625 0.305161 0.494203
O O14 0.797167 0.333058 0.694511
O O15 0.000000 0.327158 0.500000
O O16 0.202254 0.847054 0.308259
O O17 0.000000 0.835226 0.500000
#
# Coordination Sequence:
#
# PCOD8110559 Si02
#       7
#     8   8   8   8   8   8   8
#     4  12  22  34  49  79 115 158 190 229 278 340
#     4   9  19  40  66  86 108 144 188 238 298 352
#     4  11  24  35  55  90 120 144 185 235 292 347
#     4  10  22  35  50  73 106 161 206 232 266 321
#     4  10  22  36  53  75 110 153 200 238 269 317
#     4  11  20  40  58  81 116 149 193 236 278 348
#     4  12  24  34  52  77 118 156 195 230 279 336
#
# _framework density 18.794281999999999
#
# number of rings (size 3 to 8) (size 9 to 14) (size 15 to 20)
#    0.000    1.286    4.286    2.143    8.000    0.286 
#    0.000    0.000    0.000    0.429    0.000    2.000 
#    0.000    0.000    0.000    0.000    0.000    0.000 
#
# Total GULP energy -346953.945793 kJ/mol
# GULP energy per Si atom -12391.212350 kJ/mol
# Density = 1.875150 g / cm^3
# Si number density = 18.794282 Si / 1000 Ang^3
#
#
#
# Elastic Constant Matrix: (Units=GPa)
#
#
# Indices 1 2 3 4 5 6 
#
# 1 92.0818 27.1973 11.9695 0.0000 -19.2453 0.0000
# 2 27.1973 72.8878 15.1611 0.0000 -9.5585 0.0000
# 3 11.9695 15.1611 96.0855 0.0000 -13.9473 0.0000
# 4 0.0000 0.0000 0.0000 11.3187 0.0000 -5.9952
# 5 -19.2453 -9.5585 -13.9473 0.0000 29.7997 0.0000
# 6 0.0000 0.0000 0.0000 -5.9952 0.0000 18.4427
#
#
#
# Elastic Compliance Matrix: (Units=1/GPa)
#
#
# Indices 1 2 3 4 5 6 
#
# 1 0.013639 -0.004113 0.000040 0.000000 0.007507 0.000000
# 2 -0.004113 0.015829 -0.001753 0.000000 0.001601 0.000000
# 3 0.000040 -0.001753 0.011374 0.000000 0.004787 0.000000
# 4 0.000000 0.000000 0.000000 0.106725 0.000000 0.034693
# 5 0.007507 0.001601 0.004787 0.000000 0.041160 0.000000
# 6 0.000000 0.000000 0.000000 0.034693 0.000000 0.065500
#
#
# Mechanical properties :
#
#
# Convention : Reuss Voigt Hill
#
# Bulk Modulus (GPa) = 34.25913 41.07898 37.66906
# Shear Modulus (GPa) = 18.14170 25.69403 21.91787
#
# Velocity S-wave (km/s) = 3.11026 3.70147 3.41867
# Velocity P-wave (km/s) = 5.58268 6.33817 5.97239
#
# Compressibility (1/GPa) = 0.02918930
#
# Stress axis : x y z
#
# Youngs Moduli (GPa) = 73.32131 63.17553 87.92090
#
# Poissons Ratio (x) = 0.25983 -0.00349
# Poissons Ratio (y) = 0.30156 0.15412
# Poissons Ratio (z) = -0.00291 0.11074
#
# Static dielectric constant tensor:
#      x y z
#    x 3.622340 0.000000 -0.170890 
#    y 0.000000 3.289490 0.000000 
#    z -0.170890 0.000000 3.466020 
# 
# 
# High freq. dielectric constant tensor:
#      x y z
#    x 1.751400 0.000000 -0.011240 
#    y 0.000000 1.673240 0.000000 
#    z -0.011240 0.000000 1.725740 
# 
# From -- ./inp_files/124271.got.cif
#   From: 2010.06.25/outbox.cif.g09.slc.cpg/sg12_63_cif.got.tgz:124271.got - 2010.06.28 00:19:55.
