data_PCOD8110896
_publ_section_title
;
Structure prediction by ZEFSAII (Michael W. Deem and Ramdas Pophale) SiO2 
 PCOD8110896
Probable space group: C 2/M
;
_chemical_formula_sum "Si O2"
_cell_formula_units_Z 64
_cell_length_a 32.211713
_cell_length_b 8.616462
_cell_length_c 15.037918
_cell_angle_alpha 90.000000
_cell_angle_beta 132.975069
_cell_angle_gamma 90.000000
_cell_volume 3053.754487
_symmetry_space_group_name_H-M "C 2/M"
_symmetry_group_IT_number 12
_symmetry_cell_setting 'monoclinic'
loop_
_space_group_symop_operation_xyz
x,y,z
-x,y,-z
-x,-y,-z
x,-y,z
1/2+x,1/2+y,z
1/2-x,1/2+y,-z
1/2-x,1/2-y,-z
1/2+x,1/2-y,z
loop_
_atom_site_type_symbol
_atom_site_label
_atom_site_fract_x
_atom_site_fract_y
_atom_site_fract_z
Si Si1 0.705376 0.819079 0.080181
Si Si2 0.873463 0.180806 0.502410
Si Si3 0.652010 0.318976 0.164571
Si Si4 0.187735 0.182826 0.408805
Si Si5 0.033942 0.679854 0.962461
Si Si6 0.614918 0.318711 0.815793
Si Si7 0.498330 0.679489 0.736068
Si Si8 0.175285 0.680487 0.744274
O O1 0.697618 0.775501 0.172589
O O2 0.768810 0.774337 0.144507
O O3 0.695471 0.000000 0.048924
O O4 0.659819 0.723985 0.957120
O O5 0.848354 0.241392 0.559567
O O6 0.844142 0.279241 0.383007
O O7 0.940818 0.211460 0.597775
O O8 0.859515 0.000000 0.466955
O O9 0.665554 0.500000 0.174110
O O10 0.656499 0.262233 0.273023
O O11 0.589777 0.284004 0.036916
O O12 0.250000 0.250000 0.500000
O O13 0.192187 0.000000 0.417474
O O14 0.051206 0.500000 0.990112
O O15 0.995880 0.716988 0.821249
O O16 0.000000 0.729672 0.000000
O O17 0.619011 0.500000 0.801065
O O18 0.551692 0.271779 0.753784
O O19 0.626153 0.225176 0.741751
O O20 0.502079 0.500000 0.770312
O O21 0.189290 0.500000 0.770521
#
# Coordination Sequence:
#
# PCOD8110896 Si02
#       8
#     8   8   8   8   8   8   8   8
#     4  12  24  41  65  95 130 165 205 264 321 380
#     4  10  22  43  65  91 124 166 215 264 315 372
#     4  11  22  38  61  91 124 163 208 254 311 379
#     4  10  22  38  60  88 123 163 209 258 309 368
#     4  11  23  37  57  89 126 164 207 256 310 366
#     4  11  23  42  67  96 126 163 209 262 320 382
#     4  10  22  41  67  92 123 165 211 262 316 377
#     4  12  26  43  64  92 125 167 212 262 319 381
#
# _framework density 20.957806999999999
#
# number of rings (size 3 to 8) (size 9 to 14) (size 15 to 20)
#    0.000    1.125    1.250    5.250    0.000    7.000 
#    0.000    2.500    0.000    0.000    0.000    0.000 
#    0.000    0.000    0.000    0.000    0.000    0.000 
#
# Total GULP energy -397029.031890 kJ/mol
# GULP energy per Si atom -12407.157247 kJ/mol
# Density = 2.091011 g / cm^3
# Si number density = 20.957807 Si / 1000 Ang^3
#
#
#
# Elastic Constant Matrix: (Units=GPa)
#
#
# Indices 1 2 3 4 5 6 
#
# 1 122.8351 24.1250 29.5726 0.0000 -0.3600 0.0000
# 2 24.1250 46.4044 12.9069 0.0000 -4.0592 0.0000
# 3 29.5726 12.9069 79.8103 0.0000 1.8504 0.0000
# 4 0.0000 0.0000 0.0000 33.0861 0.0000 -1.1069
# 5 -0.3600 -4.0592 1.8504 0.0000 41.5644 0.0000
# 6 0.0000 0.0000 0.0000 -1.1069 0.0000 32.2077
#
#
#
# Elastic Compliance Matrix: (Units=1/GPa)
#
#
# Indices 1 2 3 4 5 6 
#
# 1 0.009670 -0.004240 -0.002893 0.000000 -0.000202 0.000000
# 2 -0.004240 0.024659 -0.002474 0.000000 0.002482 0.000000
# 3 -0.002893 -0.002474 0.014022 0.000000 -0.000891 0.000000
# 4 0.000000 0.000000 0.000000 0.030259 0.000000 0.001040
# 5 -0.000202 0.002482 -0.000891 0.000000 0.024339 0.000000
# 6 0.000000 0.000000 0.000000 0.001040 0.000000 0.031084
#
#
# Mechanical properties :
#
#
# Convention : Reuss Voigt Hill
#
# Bulk Modulus (GPa) = 34.32038 42.47320 38.39679
# Shear Modulus (GPa) = 30.68235 33.53467 32.10851
#
# Velocity S-wave (km/s) = 3.83038 4.00447 3.91839
# Velocity P-wave (km/s) = 5.99783 6.45686 6.23157
#
# Compressibility (1/GPa) = 0.02913721
#
# Stress axis : x y z
#
# Youngs Moduli (GPa) = 103.41739 40.55253 71.31503
#
# Poissons Ratio (x) = 0.17195 0.20628
# Poissons Ratio (y) = 0.43851 0.17646
# Poissons Ratio (z) = 0.29914 0.10034
#
# Static dielectric constant tensor:
#      x y z
#    x 4.089010 0.000000 -0.054160 
#    y 0.000000 3.662590 0.000000 
#    z -0.054160 0.000000 3.748550 
# 
# 
# High freq. dielectric constant tensor:
#      x y z
#    x 1.836170 0.000000 -0.002140 
#    y 0.000000 1.816770 0.000000 
#    z -0.002140 0.000000 1.821670 
# 
# From -- ./inp_files/250008.got.cif
#   From: 2010.06.25/outbox.cif.g09.slc.cpg/sg12_126_cif.got.tgz:250008.got - 2010.06.28 00:19:55.
