data_PCOD8110665
_publ_section_title
;
Structure prediction by ZEFSAII (Michael W. Deem and Ramdas Pophale) SiO2 
 PCOD8110665
Probable space group: C 2/M
;
_chemical_formula_sum "Si O2"
_cell_formula_units_Z 56
_cell_length_a 18.895538
_cell_length_b 8.694001
_cell_length_c 32.416369
_cell_angle_alpha 90.000000
_cell_angle_beta 147.095975
_cell_angle_gamma 90.000000
_cell_volume 2892.875905
_symmetry_space_group_name_H-M "C 2/M"
_symmetry_group_IT_number 12
_symmetry_cell_setting 'monoclinic'
loop_
_space_group_symop_operation_xyz
x,y,z
-x,y,-z
-x,-y,-z
x,-y,z
1/2+x,1/2+y,z
1/2-x,1/2+y,-z
1/2-x,1/2-y,-z
1/2+x,1/2-y,z
loop_
_atom_site_type_symbol
_atom_site_label
_atom_site_fract_x
_atom_site_fract_y
_atom_site_fract_z
Si Si1 0.707262 0.665011 0.809466
Si Si2 0.895177 0.183866 0.072505
Si Si3 0.462549 0.676979 0.938434
Si Si4 0.568273 0.320637 0.301685
Si Si5 0.876709 0.318707 0.582614
Si Si6 0.126049 0.831019 0.677365
Si Si7 0.611361 0.182530 0.236861
O O1 0.772661 0.500000 0.853681
O O2 0.808266 0.803793 0.858736
O O3 0.587309 0.701909 0.780963
O O4 0.646445 0.646703 0.735292
O O5 0.962726 0.249452 0.063861
O O6 0.982053 0.242496 0.153329
O O7 0.890500 0.000000 0.072034
O O8 0.750000 0.250000 0.000000
O O9 0.500606 0.500000 0.958693
O O10 0.500000 0.758196 0.000000
O O11 0.607279 0.500000 0.320420
O O12 0.615761 0.246427 0.367423
O O13 0.630906 0.233454 0.293590
O O14 0.866466 0.500000 0.580476
O O15 0.750000 0.250000 0.500000
O O16 0.998708 0.276778 0.612120
O O17 0.256413 0.758615 0.720948
O O18 0.097627 0.000000 0.643727
O O19 0.597165 0.000000 0.226004
#
# Coordination Sequence:
#
# PCOD8110665 Si02
#       7
#     8   8   8   8   8   8   8
#     4   9  18  35  56  79 107 146 188 236 291 346
#     4  11  24  40  57  81 116 158 201 251 308 359
#     4  10  22  37  53  77 108 144 192 247 295 346
#     4  10  22  39  59  89 123 154 196 244 292 351
#     4  11  22  39  65  94 124 159 196 239 291 348
#     4   9  19  37  60  86 118 153 193 240 292 351
#     4  11  22  39  62  87 119 159 201 248 301 357
#
# _framework density 19.357900000000001
#
# number of rings (size 3 to 8) (size 9 to 14) (size 15 to 20)
#    0.000    1.857    1.429    3.429    2.000    4.857 
#    0.000    0.714    0.000    4.286    0.000    0.000 
#    0.000    0.000    0.000    0.000    0.000    0.000 
#
# Total GULP energy -347019.374379 kJ/mol
# GULP energy per Si atom -12393.549085 kJ/mol
# Density = 1.931384 g / cm^3
# Si number density = 19.357900 Si / 1000 Ang^3
#
#
#
# Elastic Constant Matrix: (Units=GPa)
#
#
# Indices 1 2 3 4 5 6 
#
# 1 106.8230 39.9344 51.9608 0.0001 4.9609 -0.0003
# 2 39.9344 90.2837 46.6431 -0.0001 5.2944 -0.0005
# 3 51.9608 46.6431 112.6866 0.0000 12.4852 -0.0001
# 4 0.0001 -0.0001 0.0000 33.0567 0.0000 2.1233
# 5 4.9609 5.2944 12.4852 0.0000 30.1992 0.0000
# 6 -0.0003 -0.0005 -0.0001 2.1233 0.0000 24.1022
#
#
#
# Elastic Compliance Matrix: (Units=1/GPa)
#
#
# Indices 1 2 3 4 5 6 
#
# 1 0.012811 -0.003327 -0.004571 0.000000 0.000369 0.000000
# 2 -0.003327 0.014953 -0.004638 0.000000 -0.000158 0.000000
# 3 -0.004571 -0.004638 0.013339 0.000000 -0.003951 0.000000
# 4 0.000000 0.000000 0.000000 0.030423 0.000000 -0.002680
# 5 0.000369 -0.000158 -0.003951 0.000000 0.034714 0.000000
# 6 0.000000 0.000000 0.000000 -0.002680 0.000000 0.041726
#
#
# Mechanical properties :
#
#
# Convention : Reuss Voigt Hill
#
# Bulk Modulus (GPa) = 62.37497 65.20776 63.79137
# Shear Modulus (GPa) = 28.02961 28.88863 28.45912
#
# Velocity S-wave (km/s) = 3.80935 3.86728 3.83842
# Velocity P-wave (km/s) = 7.18610 7.32800 7.25740
#
# Compressibility (1/GPa) = 0.01603207
#
# Stress axis : x y z
#
# Youngs Moduli (GPa) = 78.05570 66.87639 74.96546
#
# Poissons Ratio (x) = 0.22248 0.34269
# Poissons Ratio (y) = 0.25967 0.34768
# Poissons Ratio (z) = 0.35682 0.31016
#
# Static dielectric constant tensor:
#      x y z
#    x 3.802280 0.000000 0.065370 
#    y 0.000000 3.634990 0.000000 
#    z 0.065370 0.000000 3.420710 
# 
# 
# High freq. dielectric constant tensor:
#      x y z
#    x 1.762240 0.000000 0.004970 
#    y 0.000000 1.754220 0.000000 
#    z 0.004970 0.000000 1.738040 
# 
# From -- ./inp_files/377743.got.cif
#   From: 2010.06.25/outbox.cif.g09.slc.cpg/sg12_189_cif.got.tgz:377743.got - 2010.06.28 00:19:55.
