data_PCOD8110235
_publ_section_title
;
Structure prediction by ZEFSAII (Michael W. Deem and Ramdas Pophale) SiO2 
 PCOD8110235
Probable space group: C 2/M
;
_chemical_formula_sum "Si O2"
_cell_formula_units_Z 44
_cell_length_a 15.133332
_cell_length_b 15.219858
_cell_length_c 18.239098
_cell_angle_alpha 90.000000
_cell_angle_beta 149.086512
_cell_angle_gamma 90.000000
_cell_volume 2158.214635
_symmetry_space_group_name_H-M "C 2/M"
_symmetry_group_IT_number 12
_symmetry_cell_setting 'monoclinic'
loop_
_space_group_symop_operation_xyz
x,y,z
-x,y,-z
-x,-y,-z
x,-y,z
1/2+x,1/2+y,z
1/2-x,1/2+y,-z
1/2-x,1/2-y,-z
1/2+x,1/2-y,z
loop_
_atom_site_type_symbol
_atom_site_label
_atom_site_fract_x
_atom_site_fract_y
_atom_site_fract_z
Si Si1 0.800412 0.096216 0.359663
Si Si2 0.368850 0.500000 0.009211
Si Si3 0.734101 0.000000 0.750288
Si Si4 0.359962 0.668142 0.103664
Si Si5 0.806357 0.396350 0.869365
Si Si6 0.728811 0.742994 0.398464
Si Si7 0.000000 0.637179 0.500000
O O1 0.769396 0.141016 0.259488
O O2 0.720693 0.156328 0.366037
O O3 0.000000 0.082204 0.500000
O O4 0.709955 0.000000 0.303262
O O5 0.251198 0.500000 0.851516
O O6 0.572100 0.500000 0.140578
O O7 0.324500 0.587071 0.023935
O O8 0.629309 0.917011 0.644341
O O9 0.294761 0.648016 0.137783
O O10 0.561025 0.690142 0.253151
O O11 0.250000 0.750000 0.000000
O O12 0.785734 0.500000 0.862740
O O13 0.000000 0.364953 0.000000
O O14 0.750000 0.750000 0.500000
O O15 0.893301 0.696956 0.479774
#
# Coordination Sequence:
#
# PCOD8110235 Si02
#       7
#     8   4   4   8   8   8   4
#     4  10  21  41  65  93 127 174 218 269 335 401
#     4  11  24  48  73 100 141 178 242 293 340 430
#     4  10  24  48  74  98 134 195 229 279 357 409
#     4  12  26  44  68 104 138 179 232 288 346 414
#     4  10  21  41  66  90 128 170 215 278 337 393
#     4  12  26  44  68 104 141 178 231 288 347 419
#     4  11  24  48  71 102 144 180 235 288 348 427
#
# _framework density 20.387222999999999
#
# number of rings (size 3 to 8) (size 9 to 14) (size 15 to 20)
#    0.000    1.091    3.636    2.182    2.545    0.000 
#    9.818    0.000    0.000    0.000    0.000    0.000 
#    0.000    0.000    0.000    0.000    0.000    0.000 
#
# Total GULP energy -272710.658087 kJ/mol
# GULP energy per Si atom -12395.939004 kJ/mol
# Density = 2.034082 g / cm^3
# Si number density = 20.387223 Si / 1000 Ang^3
#
#
#
# Elastic Constant Matrix: (Units=GPa)
#
#
# Indices 1 2 3 4 5 6 
#
# 1 163.6300 77.5643 62.9185 -0.0039 -20.1399 -0.0005
# 2 77.5643 128.4745 49.3993 -0.0065 -15.0586 -0.0004
# 3 62.9185 49.3993 131.2288 -0.0037 -21.2150 0.0010
# 4 -0.0039 -0.0065 -0.0037 9.4884 -0.0019 -5.4770
# 5 -20.1399 -15.0586 -21.2150 -0.0019 43.7195 0.0001
# 6 -0.0005 -0.0004 0.0010 -5.4770 0.0001 37.1608
#
#
#
# Elastic Compliance Matrix: (Units=1/GPa)
#
#
# Indices 1 2 3 4 5 6 
#
# 1 0.009436 -0.004528 -0.002571 0.000000 0.001540 0.000000
# 2 -0.004528 0.011378 -0.001970 0.000006 0.000877 0.000001
# 3 -0.002571 -0.001970 0.010084 0.000002 0.003031 0.000000
# 4 0.000000 0.000006 0.000002 0.115192 0.000008 0.016978
# 5 0.001540 0.000877 0.003031 0.000008 0.025355 0.000001
# 6 0.000000 0.000001 0.000000 0.016978 0.000001 0.029412
#
#
# Mechanical properties :
#
#
# Convention : Reuss Voigt Hill
#
# Bulk Modulus (GPa) = 78.36823 89.23305 83.80064
# Shear Modulus (GPa) = 22.39668 33.63715 28.01691
#
# Velocity S-wave (km/s) = 3.31806 4.06632 3.71109
# Velocity P-wave (km/s) = 7.29401 8.11854 7.71730
#
# Compressibility (1/GPa) = 0.01276027
#
# Stress axis : x y z
#
# Youngs Moduli (GPa) = 105.98260 87.89256 99.16267
#
# Poissons Ratio (x) = 0.39795 0.25491
# Poissons Ratio (y) = 0.47985 0.19538
# Poissons Ratio (z) = 0.27244 0.17318
#
# Static dielectric constant tensor:
#      x y z
#    x 3.747920 0.000230 -0.052540 
#    y 0.000230 4.585120 -0.000070 
#    z -0.052540 -0.000070 4.095660 
# 
# 
# High freq. dielectric constant tensor:
#      x y z
#    x 1.805110 0.000000 -0.004400 
#    y 0.000000 1.803410 0.000000 
#    z -0.004400 0.000000 1.814850 
# 
# From -- ./inp_files/271520.got.cif
#   From: 2010.06.25/outbox.cif.g09.slc.cpg/sg12_136_cif.got.tgz:271520.got - 2010.06.28 00:19:55.
