data_PCOD8110110
_publ_section_title
;
Structure prediction by ZEFSAII (Michael W. Deem and Ramdas Pophale) SiO2 
 PCOD8110110
Probable space group: C 2/M
;
_chemical_formula_sum "Si O2"
_cell_formula_units_Z 48
_cell_length_a 14.773410
_cell_length_b 23.375580
_cell_length_c 11.018284
_cell_angle_alpha 90.000000
_cell_angle_beta 144.982046
_cell_angle_gamma 90.000000
_cell_volume 2183.447230
_symmetry_space_group_name_H-M "C 2/M"
_symmetry_group_IT_number 12
_symmetry_cell_setting 'monoclinic'
loop_
_space_group_symop_operation_xyz
x,y,z
-x,y,-z
-x,-y,-z
x,-y,z
1/2+x,1/2+y,z
1/2-x,1/2+y,-z
1/2-x,1/2-y,-z
1/2+x,1/2-y,z
loop_
_atom_site_type_symbol
_atom_site_label
_atom_site_fract_x
_atom_site_fract_y
_atom_site_fract_z
Si Si1 0.904991 0.227122 0.018905
Si Si2 0.826428 0.377188 0.268559
Si Si3 0.747001 0.343459 0.813100
Si Si4 0.438330 0.344469 0.622160
Si Si5 0.075896 0.435061 0.865744
Si Si6 0.275412 0.565229 0.602662
O O1 0.027901 0.212631 0.261999
O O2 0.771064 0.179287 0.866786
O O3 0.821980 0.287242 0.956556
O O4 0.000000 0.231954 0.000000
O O5 0.835714 0.416272 0.159896
O O6 0.739553 0.414225 0.275514
O O7 0.000000 0.357338 0.500000
O O8 0.589670 0.361507 0.710392
O O9 0.709279 0.332331 0.629560
O O10 0.869195 0.395780 0.961323
O O11 0.404560 0.396792 0.675770
O O12 0.122932 0.500000 0.947011
O O13 0.889410 0.428437 0.647479
O O14 0.334300 0.500000 0.667223
#
# Coordination Sequence:
#
# PCOD8110110 Si02
#       6
#     8   8   8   8   8   8
#     4  12  25  44  69  98 129 169 220 275 332 390
#     4  10  21  40  69 103 133 169 217 273 331 386
#     4  11  27  43  66  95 136 177 217 267 329 393
#     4  11  25  45  64  98 133 171 220 267 325 393
#     4  10  22  42  69  98 133 177 221 266 323 390
#     4  10  22  42  69 100 134 172 220 275 322 381
#
# _framework density 21.983585999999999
#
# number of rings (size 3 to 8) (size 9 to 14) (size 15 to 20)
#    0.000    1.333    3.333    1.000    4.667    5.333 
#    0.000    4.167    0.000    0.000    0.000    0.000 
#    0.000    0.000    0.000    0.000    0.000    0.000 
#
# Total GULP energy -297714.640895 kJ/mol
# GULP energy per Si atom -12404.776704 kJ/mol
# Density = 2.193355 g / cm^3
# Si number density = 21.983586 Si / 1000 Ang^3
#
#
#
# Elastic Constant Matrix: (Units=GPa)
#
#
# Indices 1 2 3 4 5 6 
#
# 1 86.2617 31.2691 30.7049 0.0000 -0.3653 0.0000
# 2 31.2691 169.9608 69.9057 0.0000 -2.3049 0.0000
# 3 30.7049 69.9057 101.1753 0.0000 -31.0923 0.0000
# 4 0.0000 0.0000 0.0000 27.3206 0.0000 -0.2198
# 5 -0.3653 -2.3049 -31.0923 0.0000 33.4795 0.0000
# 6 0.0000 0.0000 0.0000 -0.2198 0.0000 27.3899
#
#
#
# Elastic Compliance Matrix: (Units=1/GPa)
#
#
# Indices 1 2 3 4 5 6 
#
# 1 0.013618 -0.000357 -0.005385 0.000000 -0.004877 0.000000
# 2 -0.000357 0.009418 -0.008677 0.000000 -0.007414 0.000000
# 3 -0.005385 -0.008677 0.024226 0.000000 0.021843 0.000000
# 4 0.000000 0.000000 0.000000 0.036605 0.000000 0.000294
# 5 -0.004877 -0.007414 0.021843 0.000000 0.049591 0.000000
# 6 0.000000 0.000000 0.000000 0.000294 0.000000 0.036512
#
#
# Mechanical properties :
#
#
# Convention : Reuss Voigt Hill
#
# Bulk Modulus (GPa) = 54.27824 69.01747 61.64785
# Shear Modulus (GPa) = 24.39626 32.67253 28.53439
#
# Velocity S-wave (km/s) = 3.33490 3.85934 3.60667
# Velocity P-wave (km/s) = 6.29069 7.16397 6.74148
#
# Compressibility (1/GPa) = 0.01842359
#
# Stress axis : x y z
#
# Youngs Moduli (GPa) = 73.43134 106.18197 41.27765
#
# Poissons Ratio (x) = 0.03786 0.22230
# Poissons Ratio (y) = 0.02618 0.35818
# Poissons Ratio (z) = 0.39546 0.92138
#
# Static dielectric constant tensor:
#      x y z
#    x 4.019160 0.000000 -0.129720 
#    y 0.000000 3.972990 0.000000 
#    z -0.129720 0.000000 4.255710 
# 
# 
# High freq. dielectric constant tensor:
#      x y z
#    x 1.872060 0.000000 -0.003290 
#    y 0.000000 1.858840 0.000000 
#    z -0.003290 0.000000 1.871530 
# 
# From -- ./inp_files/147905.got.cif
#   From: 2010.06.25/outbox.cif.g09.slc.cpg/sg12_74_cif.got.tgz:147905.got - 2010.06.28 00:19:55.
