data_PCOD8110134
_publ_section_title
;
Structure prediction by ZEFSAII (Michael W. Deem and Ramdas Pophale) SiO2 
 PCOD8110134
Probable space group: C 2/M
;
_chemical_formula_sum "Si O2"
_cell_formula_units_Z 64
_cell_length_a 9.313511
_cell_length_b 28.014887
_cell_length_c 12.412025
_cell_angle_alpha 90.000000
_cell_angle_beta 85.803180
_cell_angle_gamma 90.000000
_cell_volume 3229.823881
_symmetry_space_group_name_H-M "C 2/M"
_symmetry_group_IT_number 12
_symmetry_cell_setting 'monoclinic'
loop_
_space_group_symop_operation_xyz
x,y,z
-x,y,-z
-x,-y,-z
x,-y,z
1/2+x,1/2+y,z
1/2-x,1/2+y,-z
1/2-x,1/2-y,-z
1/2+x,1/2-y,z
loop_
_atom_site_type_symbol
_atom_site_label
_atom_site_fract_x
_atom_site_fract_y
_atom_site_fract_z
Si Si1 0.667289 0.887539 0.493497
Si Si2 0.169278 0.203289 0.467180
Si Si3 0.662790 0.601272 0.127222
Si Si4 0.342051 0.945961 0.714963
Si Si5 0.585759 0.278960 0.885545
Si Si6 0.162172 0.886252 0.885166
Si Si7 0.822451 0.552637 0.302314
Si Si8 0.692701 0.702540 0.214526
O O1 0.500000 0.872100 0.500000
O O2 0.765983 0.841137 0.468619
O O3 0.694888 0.927833 0.402582
O O4 0.718160 0.909478 0.604073
O O5 0.250000 0.250000 0.500000
O O6 0.211361 0.197274 0.340521
O O7 0.000000 0.206802 0.500000
O O8 0.491892 0.598852 0.153968
O O9 0.737082 0.561587 0.196501
O O10 0.726247 0.652396 0.156897
O O11 0.694650 0.591469 0.000325
O O12 0.279485 0.907836 0.800682
O O13 0.509512 0.945240 0.730789
O O14 0.280819 0.000000 0.731251
O O15 0.670760 0.328880 0.893251
O O16 0.471067 0.281100 0.795461
O O17 0.699608 0.239027 0.848623
O O18 0.500000 0.266980 0.000000
O O19 0.780231 0.500000 0.345893
#
# Coordination Sequence:
#
# PCOD8110134 Si02
#       8
#     8   8   8   8   8   8   8   8
#     4  10  22  41  65  91 125 163 208 257 310 369
#     4  12  26  42  62  93 130 167 206 254 313 374
#     4  10  21  41  59  90 122 160 201 253 310 367
#     4  10  23  40  63  93 122 161 208 256 314 369
#     4  11  22  40  63  91 120 164 209 254 305 367
#     4  10  22  40  63  86 128 158 202 254 308 367
#     4  10  21  41  65  90 121 159 205 261 312 368
#     4  11  23  40  61  88 126 160 207 253 306 368
#
# _framework density 19.815321999999998
#
# number of rings (size 3 to 8) (size 9 to 14) (size 15 to 20)
#    0.000    1.500    3.750    1.875    5.250    4.000 
#    0.000    2.500    0.000    2.250    0.000    0.000 
#    0.000    0.000    0.000    0.000    0.000    0.000 
#
# Total GULP energy -396832.830585 kJ/mol
# GULP energy per Si atom -12401.025956 kJ/mol
# Density = 1.977022 g / cm^3
# Si number density = 19.815322 Si / 1000 Ang^3
#
#
#
# Elastic Constant Matrix: (Units=GPa)
#
#
# Indices 1 2 3 4 5 6 
#
# 1 62.7838 57.6593 35.3459 0.0000 4.5596 0.0000
# 2 57.6593 100.3424 33.3355 0.0000 -2.5710 0.0000
# 3 35.3459 33.3355 94.1766 0.0000 7.4327 0.0000
# 4 0.0000 0.0000 0.0000 27.3653 0.0000 0.5177
# 5 4.5596 -2.5710 7.4327 0.0000 36.9939 0.0000
# 6 0.0000 0.0000 0.0000 0.5177 0.0000 30.2351
#
#
#
# Elastic Compliance Matrix: (Units=1/GPa)
#
#
# Indices 1 2 3 4 5 6 
#
# 1 0.038528 -0.019923 -0.007036 0.000000 -0.004720 0.000000
# 2 -0.019923 0.021692 -0.000522 0.000000 0.004068 0.000000
# 3 -0.007036 -0.000522 0.013594 0.000000 -0.001900 0.000000
# 4 0.000000 0.000000 0.000000 0.036555 0.000000 -0.000626
# 5 -0.004720 0.004068 -0.001900 0.000000 0.028278 0.000000
# 6 0.000000 0.000000 0.000000 -0.000626 0.000000 0.033085
#
#
# Mechanical properties :
#
#
# Convention : Reuss Voigt Hill
#
# Bulk Modulus (GPa) = 53.04272 56.66490 54.85381
# Shear Modulus (GPa) = 21.46156 27.64966 24.55561
#
# Velocity S-wave (km/s) = 3.29459 3.73951 3.52408
# Velocity P-wave (km/s) = 6.42643 6.87778 6.65593
#
# Compressibility (1/GPa) = 0.01885273
#
# Stress axis : x y z
#
# Youngs Moduli (GPa) = 25.95523 46.10089 73.56387
#
# Poissons Ratio (x) = 0.91845 0.51757
# Poissons Ratio (y) = 0.51710 0.03839
# Poissons Ratio (z) = 0.18261 0.02406
#
# Static dielectric constant tensor:
#      x y z
#    x 3.561790 0.000000 0.200100 
#    y 0.000000 3.659740 0.000000 
#    z 0.200100 0.000000 3.784530 
# 
# 
# High freq. dielectric constant tensor:
#      x y z
#    x 1.766410 0.000000 0.011720 
#    y 0.000000 1.777620 0.000000 
#    z 0.011720 0.000000 1.782150 
# 
# From -- ./inp_files/125751.got.cif
#   From: 2010.06.25/outbox.cif.g09.slc.cpg/sg12_63_cif.got.tgz:125751.got - 2010.06.28 00:19:55.
