data_PCOD8110516
_publ_section_title
;
Structure prediction by ZEFSAII (Michael W. Deem and Ramdas Pophale) SiO2 
 PCOD8110516
Probable space group: C 2/M
;
_chemical_formula_sum "Si O2"
_cell_formula_units_Z 36
_cell_length_a 14.519173
_cell_length_b 9.526150
_cell_length_c 20.817819
_cell_angle_alpha 90.000000
_cell_angle_beta 141.427109
_cell_angle_gamma 90.000000
_cell_volume 1795.303089
_symmetry_space_group_name_H-M "C 2/M"
_symmetry_group_IT_number 12
_symmetry_cell_setting 'monoclinic'
loop_
_space_group_symop_operation_xyz
x,y,z
-x,y,-z
-x,-y,-z
x,-y,z
1/2+x,1/2+y,z
1/2-x,1/2+y,-z
1/2-x,1/2-y,-z
1/2+x,1/2-y,z
loop_
_atom_site_type_symbol
_atom_site_label
_atom_site_fract_x
_atom_site_fract_y
_atom_site_fract_z
Si Si1 0.803329 0.273627 0.232345
Si Si2 0.638026 0.830702 0.393419
Si Si3 0.326397 0.000000 0.892698
Si Si4 0.879454 0.000000 0.100009
Si Si5 0.153884 0.847673 0.281306
Si Si6 0.668984 0.500000 0.072139
O O1 0.757234 0.330723 0.276217
O O2 0.748793 0.365326 0.143408
O O3 0.979644 0.270902 0.327277
O O4 0.726942 0.125752 0.180782
O O5 0.750000 0.750000 0.500000
O O6 0.674774 0.782112 0.340799
O O7 0.649440 0.000000 0.404618
O O8 0.252706 0.000000 0.922054
O O9 0.500000 0.000000 0.000000
O O10 0.981813 0.860528 0.165030
O O11 0.807797 0.000000 0.991091
O O12 0.197042 0.000000 0.336789
O O13 0.500000 0.500000 0.000000
#
# Coordination Sequence:
#
# PCOD8110516 Si02
#       6
#     8   8   4   4   8   4
#     4  12  24  45  69 101 143 183 238 286 337 428
#     4  12  27  47  74 103 137 183 233 296 360 412
#     4  12  28  40  63 104 149 186 219 289 348 397
#     4  10  22  42  73  93 147 188 227 287 333 419
#     4  10  21  44  72  99 134 184 227 288 347 410
#     4  12  20  40  72 102 131 184 242 271 343 412
#
# _framework density 20.052325
#
# number of rings (size 3 to 8) (size 9 to 14) (size 15 to 20)
#    0.667    0.000    6.667    1.333    3.111    3.556 
#    0.000    3.333    0.000    0.000    0.000    0.000 
#    0.000    0.000    0.000    0.000    0.000    0.000 
#
# Total GULP energy -223141.630341 kJ/mol
# GULP energy per Si atom -12396.757241 kJ/mol
# Density = 2.000669 g / cm^3
# Si number density = 20.052325 Si / 1000 Ang^3
#
#
#
# Elastic Constant Matrix: (Units=GPa)
#
#
# Indices 1 2 3 4 5 6 
#
# 1 112.5102 13.3457 47.9822 0.0000 -3.6362 0.0000
# 2 13.3457 140.5518 54.3087 0.0000 1.7325 0.0000
# 3 47.9822 54.3087 136.5499 0.0000 10.6293 0.0000
# 4 0.0000 0.0000 0.0000 42.3454 0.0000 -1.6941
# 5 -3.6362 1.7325 10.6293 0.0000 37.4132 0.0000
# 6 0.0000 0.0000 0.0000 -1.6941 0.0000 25.8935
#
#
#
# Elastic Compliance Matrix: (Units=1/GPa)
#
#
# Indices 1 2 3 4 5 6 
#
# 1 0.010657 0.000560 -0.004137 0.000000 0.002185 0.000000
# 2 0.000560 0.008448 -0.003610 0.000000 0.000689 0.000000
# 3 -0.004137 -0.003610 0.010463 0.000000 -0.003207 0.000000
# 4 0.000000 0.000000 0.000000 0.023677 0.000000 0.001549
# 5 0.002185 0.000689 -0.003207 0.000000 0.027820 0.000000
# 6 0.000000 0.000000 0.000000 0.001549 0.000000 0.038721
#
#
# Mechanical properties :
#
#
# Convention : Reuss Voigt Hill
#
# Bulk Modulus (GPa) = 65.82479 68.98722 67.40601
# Shear Modulus (GPa) = 35.91274 39.39544 37.65409
#
# Velocity S-wave (km/s) = 4.23655 4.43723 4.33805
# Velocity P-wave (km/s) = 7.53850 7.79296 7.66679
#
# Compressibility (1/GPa) = 0.01519184
#
# Stress axis : x y z
#
# Youngs Moduli (GPa) = 93.83675 118.36842 95.57673
#
# Poissons Ratio (x) = -0.06627 0.39545
# Poissons Ratio (y) = -0.05254 0.34507
# Poissons Ratio (z) = 0.38825 0.42736
#
# Static dielectric constant tensor:
#      x y z
#    x 3.671980 0.000000 -0.233810 
#    y 0.000000 3.943160 0.000000 
#    z -0.233810 0.000000 6.501790 
# 
# 
# High freq. dielectric constant tensor:
#      x y z
#    x 1.793040 0.000000 0.000510 
#    y 0.000000 1.788310 0.000000 
#    z 0.000510 0.000000 1.779610 
# 
# From -- ./inp_files/309131.got.cif
#   From: 2010.06.25/outbox.cif.g09.slc.cpg/sg12_155_cif.got.tgz:309131.got - 2010.06.28 00:19:55.
