data_PCOD8110245
_publ_section_title
;
Structure prediction by ZEFSAII (Michael W. Deem and Ramdas Pophale) SiO2 
 PCOD8110245
Probable space group: C 2/M
;
_chemical_formula_sum "Si O2"
_cell_formula_units_Z 44
_cell_length_a 11.109488
_cell_length_b 17.673844
_cell_length_c 12.004542
_cell_angle_alpha 90.000000
_cell_angle_beta 118.975341
_cell_angle_gamma 90.000000
_cell_volume 2062.022834
_symmetry_space_group_name_H-M "C 2/M"
_symmetry_group_IT_number 12
_symmetry_cell_setting 'monoclinic'
loop_
_space_group_symop_operation_xyz
x,y,z
-x,y,-z
-x,-y,-z
x,-y,z
1/2+x,1/2+y,z
1/2-x,1/2+y,-z
1/2-x,1/2-y,-z
1/2+x,1/2-y,z
loop_
_atom_site_type_symbol
_atom_site_label
_atom_site_fract_x
_atom_site_fract_y
_atom_site_fract_z
Si Si1 0.655606 0.000000 0.171333
Si Si2 0.000000 0.372317 0.000000
Si Si3 0.905686 0.128620 0.729790
Si Si4 0.858846 0.000000 0.875878
Si Si5 0.565511 0.000000 0.733155
Si Si6 0.887032 0.656729 0.362554
Si Si7 0.891264 0.737459 0.130324
Si Si8 0.472295 0.500000 0.360601
O O1 0.630025 0.925709 0.085074
O O2 0.811732 0.000000 0.272512
O O3 0.561373 0.000000 0.239663
O O4 0.976846 0.323838 0.100003
O O5 0.757140 0.164508 0.632718
O O6 0.020938 0.186060 0.824212
O O7 0.859190 0.077226 0.810386
O O8 0.963318 0.076734 0.657711
O O9 0.709693 0.000000 0.871082
O O10 0.000000 0.000000 0.000000
O O11 0.563501 0.072855 0.651539
O O12 0.869679 0.709707 0.246350
O O13 0.000000 0.689203 0.500000
O O14 0.750000 0.750000 0.000000
O O15 0.500000 0.500000 0.500000
#
# Coordination Sequence:
#
# PCOD8110245 Si02
#       8
#     4   4   8   4   4   8   8   4
#     4  11  23  42  65  97 137 171 234 274 336 412
#     4  11  24  40  66  97 136 178 224 275 346 398
#     4  10  25  44  62 101 131 170 233 273 338 417
#     4   9  21  37  67  93 131 172 215 278 339 387
#     4  10  21  41  66 101 130 178 223 287 332 410
#     4  11  25  44  71  98 134 181 228 283 344 409
#     4  12  25  42  68  99 141 181 223 283 345 404
#     4  11  26  44  69  94 131 181 218 286 341 399
#
# _framework density 21.338270999999999
#
# number of rings (size 3 to 8) (size 9 to 14) (size 15 to 20)
#    0.000    1.273    1.818    3.000    8.909    4.364 
#    0.000    0.000    0.000    0.000    0.000    0.000 
#    0.000    0.000    0.000    0.000    0.000    0.000 
#
# Total GULP energy -272644.023165 kJ/mol
# GULP energy per Si atom -12392.910144 kJ/mol
# Density = 2.128970 g / cm^3
# Si number density = 21.338271 Si / 1000 Ang^3
#
#
#
# Elastic Constant Matrix: (Units=GPa)
#
#
# Indices 1 2 3 4 5 6 
#
# 1 159.8548 46.7517 75.2452 0.0000 15.3913 0.0000
# 2 46.7517 115.9872 45.6561 0.0000 1.8658 0.0000
# 3 75.2452 45.6561 156.3005 0.0000 21.7796 0.0000
# 4 0.0000 0.0000 0.0000 17.1755 0.0000 27.8938
# 5 15.3913 1.8658 21.7796 0.0000 40.7410 0.0000
# 6 0.0000 0.0000 0.0000 27.8938 0.0000 -37.3025
#
#
#
# Elastic Compliance Matrix: (Units=1/GPa)
#
#
# Indices 1 2 3 4 5 6 
#
# 1 0.008569 -0.002128 -0.003313 0.000000 -0.001369 0.000000
# 2 -0.002128 0.010321 -0.002201 0.000000 0.001508 0.000000
# 3 -0.003313 -0.002201 0.009127 0.000000 -0.003527 0.000000
# 4 0.000000 0.000000 0.000000 0.026292 0.000000 0.019661
# 5 -0.001369 0.001508 -0.003527 0.000000 0.026879 0.000000
# 6 0.000000 0.000000 0.000000 0.019661 0.000000 -0.012106
#
#
# Mechanical properties :
#
#
# Convention : Reuss Voigt Hill
#
# Bulk Modulus (GPa) = 78.52616 85.27207 81.89912
# Shear Modulus (GPa) = 56.42646 21.75544 39.09095
#
# Velocity S-wave (km/s) = 5.14793 3.19650 4.28479
# Velocity P-wave (km/s) = 8.49797 7.32614 7.93372
#
# Compressibility (1/GPa) = 0.01273461
#
# Stress axis : x y z
#
# Youngs Moduli (GPa) = 116.69558 96.88679 109.56345
#
# Poissons Ratio (x) = 0.20617 0.36299
# Poissons Ratio (y) = 0.24832 0.24110
# Poissons Ratio (z) = 0.38662 0.21321
#
# Static dielectric constant tensor:
#      x y z
#    x 3.941940 0.000000 0.033390 
#    y 0.000000 3.762940 0.000000 
#    z 0.033390 0.000000 3.612530 
# 
# 
# High freq. dielectric constant tensor:
#      x y z
#    x 1.851300 0.000000 0.011130 
#    y 0.000000 1.844180 0.000000 
#    z 0.011130 0.000000 1.831440 
# 
# From -- ./inp_files/131630.got.cif
#   From: 2010.06.25/outbox.cif.g09.slc.cpg/sg12_66_cif.got.tgz:131630.got - 2010.06.28 00:19:55.
