data_PCOD8110177
_publ_section_title
;
Structure prediction by ZEFSAII (Michael W. Deem and Ramdas Pophale) SiO2 
 PCOD8110177
Probable space group: C 2/M
;
_chemical_formula_sum "Si O2"
_cell_formula_units_Z 44
_cell_length_a 16.280405
_cell_length_b 15.119815
_cell_length_c 16.861103
_cell_angle_alpha 90.000000
_cell_angle_beta 148.961171
_cell_angle_gamma 90.000000
_cell_volume 2140.062476
_symmetry_space_group_name_H-M "C 2/M"
_symmetry_group_IT_number 12
_symmetry_cell_setting 'monoclinic'
loop_
_space_group_symop_operation_xyz
x,y,z
-x,y,-z
-x,-y,-z
x,-y,z
1/2+x,1/2+y,z
1/2-x,1/2+y,-z
1/2-x,1/2-y,-z
1/2+x,1/2-y,z
loop_
_atom_site_type_symbol
_atom_site_label
_atom_site_fract_x
_atom_site_fract_y
_atom_site_fract_z
Si Si1 0.134030 0.203537 0.732109
Si Si2 0.817917 0.397180 0.746555
Si Si3 0.679255 0.404172 0.298952
Si Si4 0.179166 0.155260 0.463650
Si Si5 0.457108 0.257885 0.051302
Si Si6 0.500000 0.166264 0.500000
O O1 0.207489 0.138734 0.726373
O O2 0.013793 0.153923 0.691142
O O3 0.024288 0.275862 0.598377
O O4 0.265684 0.251360 0.897281
O O5 0.855650 0.500000 0.792472
O O6 0.738985 0.383335 0.596180
O O7 0.980776 0.341584 0.881892
O O8 0.611382 0.500000 0.216938
O O9 0.726938 0.408899 0.431104
O O10 0.542649 0.328848 0.178841
O O11 0.838309 0.388767 0.378814
O O12 0.250000 0.250000 0.500000
O O13 0.500000 0.292544 0.000000
#
# Coordination Sequence:
#
# PCOD8110177 Si02
#       6
#     8   8   8   8   8   4
#     4  11  21  39  69  90 122 166 203 245 317 363
#     4  11  22  40  66  96 126 158 200 252 308 369
#     4  12  25  41  63  93 124 164 210 256 304 358
#     4  12  21  41  66  88 126 163 204 255 301 362
#     4  10  21  41  63  90 126 163 201 250 309 370
#     4  12  19  44  63  90 116 164 211 258 297 360
#
# _framework density 20.560147000000001
#
# number of rings (size 3 to 8) (size 9 to 14) (size 15 to 20)
#    0.000    0.727    9.091    0.818    0.000    6.545 
#    0.000    0.000    0.000    0.000    0.000    0.000 
#    0.000    0.000    0.000    0.000    0.000    0.000 
#
# Total GULP energy -272668.139841 kJ/mol
# GULP energy per Si atom -12394.006356 kJ/mol
# Density = 2.051335 g / cm^3
# Si number density = 20.560147 Si / 1000 Ang^3
#
#
#
# Elastic Constant Matrix: (Units=GPa)
#
#
# Indices 1 2 3 4 5 6 
#
# 1 68.2895 9.8893 20.7975 0.0006 -3.3101 0.0008
# 2 9.8893 134.9445 27.1796 0.0001 -5.5362 0.0006
# 3 20.7975 27.1796 98.8076 0.0012 7.0499 0.0017
# 4 0.0006 0.0001 0.0012 9.7298 0.0002 -3.0119
# 5 -3.3101 -5.5362 7.0499 0.0002 23.2849 0.0008
# 6 0.0008 0.0006 0.0017 -3.0119 0.0008 14.1772
#
#
#
# Elastic Compliance Matrix: (Units=1/GPa)
#
#
# Indices 1 2 3 4 5 6 
#
# 1 0.015911 -0.000330 -0.003489 -0.000001 0.003240 -0.000001
# 2 -0.000330 0.008006 -0.002315 0.000000 0.002557 0.000000
# 3 -0.003489 -0.002315 0.011822 -0.000002 -0.004626 -0.000001
# 4 -0.000001 0.000000 -0.000002 0.110012 -0.000001 0.023372
# 5 0.003240 0.002557 -0.004626 -0.000001 0.045415 -0.000002
# 6 -0.000001 0.000000 -0.000001 0.023372 -0.000002 0.075501
#
#
# Mechanical properties :
#
#
# Convention : Reuss Voigt Hill
#
# Bulk Modulus (GPa) = 42.60878 46.41939 44.51408
# Shear Modulus (GPa) = 17.43615 25.71673 21.57644
#
# Velocity S-wave (km/s) = 2.91530 3.54051 3.24301
# Velocity P-wave (km/s) = 5.66577 6.27216 5.97666
#
# Compressibility (1/GPa) = 0.02346934
#
# Stress axis : x y z
#
# Youngs Moduli (GPa) = 62.84928 124.90806 84.58783
#
# Poissons Ratio (x) = 0.04126 0.29516
# Poissons Ratio (y) = 0.02076 0.19584
# Poissons Ratio (z) = 0.21930 0.28918
#
# Static dielectric constant tensor:
#      x y z
#    x 3.729710 0.000000 -0.091960 
#    y 0.000000 3.625950 0.000000 
#    z -0.091960 0.000000 4.029510 
# 
# 
# High freq. dielectric constant tensor:
#      x y z
#    x 1.803080 0.000000 -0.004380 
#    y 0.000000 1.788910 0.000000 
#    z -0.004380 0.000000 1.807320 
# 
# From -- ./inp_files/73058.got.cif
#   From: 2010.06.25/outbox.cif.g09.slc.cpg/sg12_37_cif.got.tgz:73058.got - 2010.06.28 00:19:55.
