data_PCOD8110164
_publ_section_title
;
Structure prediction by ZEFSAII (Michael W. Deem and Ramdas Pophale) SiO2 
 PCOD8110164
Probable space group: C 2/M
;
_chemical_formula_sum "Si O2"
_cell_formula_units_Z 48
_cell_length_a 9.242548
_cell_length_b 28.897747
_cell_length_c 17.606956
_cell_angle_alpha 90.000000
_cell_angle_beta 149.694429
_cell_angle_gamma 90.000000
_cell_volume 2372.996968
_symmetry_space_group_name_H-M "C 2/M"
_symmetry_group_IT_number 12
_symmetry_cell_setting 'monoclinic'
loop_
_space_group_symop_operation_xyz
x,y,z
-x,y,-z
-x,-y,-z
x,-y,z
1/2+x,1/2+y,z
1/2-x,1/2+y,-z
1/2-x,1/2-y,-z
1/2+x,1/2-y,z
loop_
_atom_site_type_symbol
_atom_site_label
_atom_site_fract_x
_atom_site_fract_y
_atom_site_fract_z
Si Si1 0.939964 0.761492 0.391216
Si Si2 0.384005 0.000000 0.601382
Si Si3 0.754607 0.500000 0.720370
Si Si4 0.239477 0.585984 0.784437
Si Si5 0.746187 0.660505 0.331661
Si Si6 0.172554 0.329348 0.149100
Si Si7 0.111579 0.413767 0.897113
O O1 0.755297 0.715277 0.320421
O O2 0.753532 0.792579 0.250388
O O3 0.000000 0.786240 0.500000
O O4 0.250000 0.750000 0.500000
O O5 0.564602 0.954282 0.661746
O O6 0.329599 0.000000 0.666065
O O7 0.086653 0.000000 0.420213
O O8 0.891901 0.454461 0.820575
O O9 0.223226 0.634222 0.733416
O O10 0.096576 0.596892 0.800768
O O11 0.568164 0.569429 0.938428
O O12 0.456863 0.647181 0.244518
O O13 0.000000 0.643606 0.500000
O O14 0.970113 0.368157 0.093624
O O15 0.000000 0.306065 0.000000
#
# Coordination Sequence:
#
# PCOD8110164 Si02
#       7
#     8   4   4   8   8   8   8
#     4  11  24  46  67  93 127 175 214 262 325 382
#     4   9  19  35  63  93 129 158 217 262 306 376
#     4   9  19  37  59  99 121 165 212 264 306 373
#     4  10  21  41  62  95 123 171 211 260 316 377
#     4  11  24  43  64  90 131 167 210 265 321 385
#     4  12  25  44  65  99 132 168 213 269 322 382
#     4  10  22  39  66  89 130 167 211 259 319 377
#
# _framework density 20.227585000000001
#
# number of rings (size 3 to 8) (size 9 to 14) (size 15 to 20)
#    0.000    1.500    5.000    0.500    4.667    2.667 
#    6.000    1.667    0.000    0.000    0.000    0.000 
#    0.000    0.000    0.000    0.000    0.000    0.000 
#
# Total GULP energy -297601.406804 kJ/mol
# GULP energy per Si atom -12400.058617 kJ/mol
# Density = 2.018155 g / cm^3
# Si number density = 20.227585 Si / 1000 Ang^3
#
#
#
# Elastic Constant Matrix: (Units=GPa)
#
#
# Indices 1 2 3 4 5 6 
#
# 1 93.8512 39.1719 48.6768 0.0000 -1.3584 0.0000
# 2 39.1719 91.6196 47.2458 0.0000 -10.9171 0.0000
# 3 48.6768 47.2458 139.8060 0.0002 -4.9797 0.0000
# 4 0.0000 0.0000 0.0002 -22.9576 0.0001 -16.7274
# 5 -1.3584 -10.9171 -4.9797 0.0001 41.9606 0.0000
# 6 0.0000 0.0000 0.0000 -16.7274 0.0000 19.6061
#
#
#
# Elastic Compliance Matrix: (Units=1/GPa)
#
#
# Indices 1 2 3 4 5 6 
#
# 1 0.014319 -0.004436 -0.003526 0.000000 -0.001109 0.000000
# 2 -0.004436 0.014959 -0.003391 0.000000 0.003346 0.000000
# 3 -0.003526 -0.003391 0.009531 0.000000 0.000135 0.000000
# 4 0.000000 0.000000 0.000000 -0.026861 0.000000 -0.022917
# 5 -0.001109 0.003346 0.000135 0.000000 0.024682 0.000000
# 6 0.000000 0.000000 0.000000 -0.022917 0.000000 0.031452
#
#
# Mechanical properties :
#
#
# Convention : Reuss Voigt Hill
#
# Bulk Modulus (GPa) = 62.10230 66.16285 64.13257
# Shear Modulus (GPa) = 51.99738 20.40064 36.19901
#
# Velocity S-wave (km/s) = 5.07563 3.17922 4.23494
# Velocity P-wave (km/s) = 8.06956 6.80124 7.46239
#
# Compressibility (1/GPa) = 0.01610246
#
# Stress axis : x y z
#
# Youngs Moduli (GPa) = 69.83487 66.84967 104.91709
#
# Poissons Ratio (x) = 0.29656 0.36994
# Poissons Ratio (y) = 0.30980 0.35582
# Poissons Ratio (z) = 0.24624 0.22672
#
# Static dielectric constant tensor:
#      x y z
#    x 3.790320 0.000000 -0.039310 
#    y 0.000000 3.559260 0.000000 
#    z -0.039310 0.000000 3.924790 
# 
# 
# High freq. dielectric constant tensor:
#      x y z
#    x 1.787830 0.000000 0.006840 
#    y 0.000000 1.775350 0.000000 
#    z 0.006840 0.000000 1.804270 
# 
# From -- ./inp_files/260248.got.cif
#   From: 2010.06.25/outbox.cif.g09.slc.cpg/sg12_131_cif.got.tgz:260248.got - 2010.06.28 00:19:55.
