data_PCOD8110704
_publ_section_title
;
Structure prediction by ZEFSAII (Michael W. Deem and Ramdas Pophale) SiO2 
 PCOD8110704
Probable space group: C 2/M
;
_chemical_formula_sum "Si O2"
_cell_formula_units_Z 64
_cell_length_a 24.676153
_cell_length_b 8.903001
_cell_length_c 14.248591
_cell_angle_alpha 90.000000
_cell_angle_beta 95.575057
_cell_angle_gamma 90.000000
_cell_volume 3115.491836
_symmetry_space_group_name_H-M "C 2/M"
_symmetry_group_IT_number 12
_symmetry_cell_setting 'monoclinic'
loop_
_space_group_symop_operation_xyz
x,y,z
-x,y,-z
-x,-y,-z
x,-y,z
1/2+x,1/2+y,z
1/2-x,1/2+y,-z
1/2-x,1/2-y,-z
1/2+x,1/2-y,z
loop_
_atom_site_type_symbol
_atom_site_label
_atom_site_fract_x
_atom_site_fract_y
_atom_site_fract_z
Si Si1 0.873630 0.677090 0.870517
Si Si2 0.974967 0.673969 0.593855
Si Si3 0.119056 0.823123 0.319007
Si Si4 0.739692 0.322519 0.399171
Si Si5 0.177164 0.824975 0.727305
Si Si6 0.557420 0.326463 0.959608
Si Si7 0.243767 0.329193 0.095947
Si Si8 0.567463 0.824806 0.760954
O O1 0.884599 0.500000 0.871024
O O2 0.900219 0.748027 0.781966
O O3 0.809984 0.723238 0.857262
O O4 0.897836 0.746339 0.969125
O O5 0.959040 0.500000 0.581872
O O6 0.016288 0.702047 0.685611
O O7 0.000000 0.732382 0.500000
O O8 0.920085 0.766621 0.604473
O O9 0.180340 0.772826 0.353070
O O10 0.113425 0.000000 0.307328
O O11 0.744094 0.500000 0.407823
O O12 0.750000 0.250000 0.500000
O O13 0.786361 0.263078 0.339672
O O14 0.202576 0.800555 0.834329
O O15 0.117444 0.755935 0.718021
O O16 0.175105 0.000000 0.699306
O O17 0.573760 0.500000 0.948302
O O18 0.554553 0.247597 0.858767
O O19 0.500000 0.308755 0.000000
O O20 0.235462 0.500000 0.068239
O O21 0.250000 0.250000 0.000000
O O22 0.580675 0.000000 0.776407
#
# Coordination Sequence:
#
# PCOD8110704 Si02
#       8
#     8   8   8   8   8   8   8   8
#     4  11  22  39  63  91 124 165 209 257 312 376
#     4  10  24  45  68  94 126 168 213 263 322 381
#     4  11  24  42  66  98 130 165 211 264 319 377
#     4  11  25  43  66  97 130 170 214 263 320 381
#     4  11  23  42  65  93 131 172 213 261 320 378
#     4  11  24  41  62  91 127 168 214 267 321 377
#     4  10  22  37  57  87 122 163 205 250 304 364
#     4  11  24  42  64  95 130 170 218 265 318 383
#
# _framework density 20.542503
#
# number of rings (size 3 to 8) (size 9 to 14) (size 15 to 20)
#    0.000    1.250    1.250    3.750    1.750    9.750 
#    0.000    0.000    0.000    0.000    0.000    0.000 
#    0.000    0.000    0.000    0.000    0.000    0.000 
#
# Total GULP energy -396971.390733 kJ/mol
# GULP energy per Si atom -12405.355960 kJ/mol
# Density = 2.049575 g / cm^3
# Si number density = 20.542503 Si / 1000 Ang^3
#
#
#
# Elastic Constant Matrix: (Units=GPa)
#
#
# Indices 1 2 3 4 5 6 
#
# 1 81.1215 38.9250 32.0340 0.0000 -9.7199 0.0000
# 2 38.9250 89.8135 52.5798 0.0000 2.8454 0.0000
# 3 32.0340 52.5798 133.1584 0.0000 -13.4138 0.0000
# 4 0.0000 0.0000 0.0000 39.1453 0.0000 -6.5809
# 5 -9.7199 2.8454 -13.4138 0.0000 30.7866 0.0000
# 6 0.0000 0.0000 0.0000 -6.5809 0.0000 34.2740
#
#
#
# Elastic Compliance Matrix: (Units=1/GPa)
#
#
# Indices 1 2 3 4 5 6 
#
# 1 0.016615 -0.006982 -0.000676 0.000000 0.005596 0.000000
# 2 -0.006982 0.017904 -0.006044 0.000000 -0.006493 0.000000
# 3 -0.000676 -0.006044 0.010557 0.000000 0.004945 0.000000
# 4 0.000000 0.000000 0.000000 0.026398 0.000000 0.005069
# 5 0.005596 -0.006493 0.004945 0.000000 0.037003 0.000000
# 6 0.000000 0.000000 0.000000 0.005069 0.000000 0.030150
#
#
# Mechanical properties :
#
#
# Convention : Reuss Voigt Hill
#
# Bulk Modulus (GPa) = 56.58876 61.24124 58.91500
# Shear Modulus (GPa) = 29.08258 32.87814 30.98036
#
# Velocity S-wave (km/s) = 3.76670 4.00496 3.88765
# Velocity P-wave (km/s) = 6.82087 7.15981 6.99240
#
# Compressibility (1/GPa) = 0.01767135
#
# Stress axis : x y z
#
# Youngs Moduli (GPa) = 60.18582 55.85190 94.72108
#
# Poissons Ratio (x) = 0.38998 0.06406
# Poissons Ratio (y) = 0.42024 0.57251
# Poissons Ratio (z) = 0.04070 0.33758
#
# Static dielectric constant tensor:
#      x y z
#    x 3.841260 0.000000 -0.042710 
#    y 0.000000 3.781780 0.000000 
#    z -0.042710 0.000000 3.666000 
# 
# 
# High freq. dielectric constant tensor:
#      x y z
#    x 1.815270 0.000000 -0.004800 
#    y 0.000000 1.811310 0.000000 
#    z -0.004800 0.000000 1.814810 
# 
# From -- ./inp_files/238629.got.cif
#   From: 2010.06.25/outbox.cif.g09.slc.cpg/sg12_120_cif.got.tgz:238629.got - 2010.06.28 00:19:55.
