data_PCOD8110215
_publ_section_title
;
Structure prediction by ZEFSAII (Michael W. Deem and Ramdas Pophale) SiO2 
 PCOD8110215
Probable space group: C 2/M
;
_chemical_formula_sum "Si O2"
_cell_formula_units_Z 56
_cell_length_a 28.686438
_cell_length_b 9.414090
_cell_length_c 18.080099
_cell_angle_alpha 90.000000
_cell_angle_beta 146.179557
_cell_angle_gamma 90.000000
_cell_volume 2717.645421
_symmetry_space_group_name_H-M "C 2/M"
_symmetry_group_IT_number 12
_symmetry_cell_setting 'monoclinic'
loop_
_space_group_symop_operation_xyz
x,y,z
-x,y,-z
-x,-y,-z
x,-y,z
1/2+x,1/2+y,z
1/2-x,1/2+y,-z
1/2-x,1/2-y,-z
1/2+x,1/2-y,z
loop_
_atom_site_type_symbol
_atom_site_label
_atom_site_fract_x
_atom_site_fract_y
_atom_site_fract_z
Si Si1 0.128341 0.161682 0.700629
Si Si2 0.857019 0.663107 0.531224
Si Si3 0.468426 0.339569 0.577047
Si Si4 0.907124 0.161044 0.022215
Si Si5 0.072291 0.665103 0.219469
Si Si6 0.234783 0.836348 0.054144
Si Si7 0.676269 0.335124 0.241427
O O1 0.082885 0.191094 0.564384
O O2 0.202825 0.273850 0.802214
O O3 0.065877 0.188047 0.687662
O O4 0.162034 0.000000 0.749036
O O5 0.865219 0.500000 0.519695
O O6 0.936463 0.740296 0.600085
O O7 0.863275 0.685487 0.627570
O O8 0.768838 0.723566 0.384171
O O9 0.455140 0.500000 0.586544
O O10 0.981994 0.272213 0.120517
O O11 0.942317 0.000000 0.062808
O O12 0.858318 0.181029 0.035436
O O13 0.842374 0.188427 0.869529
O O14 0.061010 0.500000 0.184950
O O15 0.107517 0.746395 0.195216
O O16 0.255773 0.000000 0.066638
O O17 0.250000 0.750000 0.000000
O O18 0.668860 0.500000 0.254761
#
# Coordination Sequence:
#
# PCOD8110215 Si02
#       7
#     8   8   8   8   8   8   8
#     4   9  19  37  57  83 117 152 195 244 293 347
#     4  10  22  38  58  87 122 154 195 246 295 352
#     4   9  19  35  58  85 116 154 194 240 293 351
#     4  10  23  42  63  86 115 158 203 241 293 357
#     4  11  24  39  59  91 125 154 192 247 303 352
#     4  11  24  40  60  86 118 157 199 244 294 350
#     4  10  21  41  65  86 115 156 201 246 292 354
#
# _framework density 20.606072000000001
#
# number of rings (size 3 to 8) (size 9 to 14) (size 15 to 20)
#    0.000    2.000    0.000    3.429    2.000    7.429 
#    0.000    1.429    0.000    0.000    0.000    0.000 
#    0.000    0.000    0.000    0.000    0.000    0.000 
#
# Total GULP energy -347257.473129 kJ/mol
# GULP energy per Si atom -12402.052612 kJ/mol
# Density = 2.055917 g / cm^3
# Si number density = 20.606072 Si / 1000 Ang^3
#
#
#
# Elastic Constant Matrix: (Units=GPa)
#
#
# Indices 1 2 3 4 5 6 
#
# 1 93.1089 44.8631 4.2298 0.0000 -2.6749 0.0000
# 2 44.8631 94.0937 24.8748 0.0000 2.4352 0.0000
# 3 4.2298 24.8748 60.5108 0.0000 3.7330 0.0000
# 4 0.0000 0.0000 0.0000 31.4414 0.0000 2.4569
# 5 -2.6749 2.4352 3.7330 0.0000 24.5472 0.0000
# 6 0.0000 0.0000 0.0000 2.4569 0.0000 32.8448
#
#
#
# Elastic Compliance Matrix: (Units=1/GPa)
#
#
# Indices 1 2 3 4 5 6 
#
# 1 0.014252 -0.007350 0.001902 0.000000 0.001993 0.000000
# 2 -0.007350 0.015718 -0.005857 0.000000 -0.001470 0.000000
# 3 0.001902 -0.005857 0.018930 0.000000 -0.002090 0.000000
# 4 0.000000 0.000000 0.000000 0.031992 0.000000 -0.002393
# 5 0.001993 -0.001470 -0.002090 0.000000 0.041419 0.000000
# 6 0.000000 0.000000 0.000000 -0.002393 0.000000 0.030625
#
#
# Mechanical properties :
#
#
# Convention : Reuss Voigt Hill
#
# Bulk Modulus (GPa) = 38.03593 43.96098 40.99846
# Shear Modulus (GPa) = 27.12822 29.34972 28.23897
#
# Velocity S-wave (km/s) = 3.63232 3.77812 3.70593
# Velocity P-wave (km/s) = 6.00752 6.35708 6.18477
#
# Compressibility (1/GPa) = 0.02629093
#
# Stress axis : x y z
#
# Youngs Moduli (GPa) = 70.16386 63.61946 52.82702
#
# Poissons Ratio (x) = 0.46759 -0.10048
# Poissons Ratio (y) = 0.51569 0.30941
# Poissons Ratio (z) = -0.13346 0.37263
#
# Static dielectric constant tensor:
#      x y z
#    x 3.881910 0.000000 0.109620 
#    y 0.000000 3.727980 0.000000 
#    z 0.109620 0.000000 3.856410 
# 
# 
# High freq. dielectric constant tensor:
#      x y z
#    x 1.808160 0.000000 -0.004240 
#    y 0.000000 1.801270 0.000000 
#    z -0.004240 0.000000 1.811300 
# 
# From -- ./inp_files/292561.got.cif
#   From: 2010.06.25/outbox.cif.g09.slc.cpg/sg12_147_cif.got.tgz:292561.got - 2010.06.28 00:19:55.
