data_PCOD8110323
_publ_section_title
;
Structure prediction by ZEFSAII (Michael W. Deem and Ramdas Pophale) SiO2 
 PCOD8110323
Probable space group: C 2/M
;
_chemical_formula_sum "Si O2"
_cell_formula_units_Z 40
_cell_length_a 11.591170
_cell_length_b 18.720010
_cell_length_c 18.393700
_cell_angle_alpha 90.000000
_cell_angle_beta 151.453396
_cell_angle_gamma 90.000000
_cell_volume 1907.283850
_symmetry_space_group_name_H-M "C 2/M"
_symmetry_group_IT_number 12
_symmetry_cell_setting 'monoclinic'
loop_
_space_group_symop_operation_xyz
x,y,z
-x,y,-z
-x,-y,-z
x,-y,z
1/2+x,1/2+y,z
1/2-x,1/2+y,-z
1/2-x,1/2-y,-z
1/2+x,1/2-y,z
loop_
_atom_site_type_symbol
_atom_site_label
_atom_site_fract_x
_atom_site_fract_y
_atom_site_fract_z
Si Si1 0.055751 0.321510 0.171915
Si Si2 0.843817 0.418453 0.640864
Si Si3 0.558419 0.328238 0.834858
Si Si4 0.437479 0.684713 0.609688
Si Si5 0.651491 0.418140 0.152445
O O1 0.104365 0.388705 0.250497
O O2 0.289348 0.292285 0.258213
O O3 0.965067 0.256972 0.171837
O O4 0.843747 0.346179 0.999208
O O5 0.765460 0.500000 0.607088
O O6 0.625743 0.376287 0.483047
O O7 0.068775 0.410630 0.711194
O O8 0.445972 0.349194 0.694855
O O9 0.404045 0.370215 0.808930
O O10 0.250000 0.750000 0.500000
O O11 0.578827 0.500000 0.129148
O O12 0.500000 0.389308 0.000000
#
# Coordination Sequence:
#
# PCOD8110323 Si02
#       5
#     8   8   8   8   8
#     4  11  24  41  65  93 130 174 220 269 320 396
#     4  11  24  43  68  96 130 177 220 265 330 396
#     4  11  24  40  68  96 128 171 221 271 325 390
#     4  12  25  42  62  97 136 171 213 275 335 387
#     4  10  21  41  68  95 128 169 217 268 321 386
#
# _framework density 20.972232999999999
#
# number of rings (size 3 to 8) (size 9 to 14) (size 15 to 20)
#    0.000    1.000    4.000    2.400    0.000    4.800 
#    0.000    2.000    0.000    3.600    0.000    0.000 
#    0.000    0.000    0.000    0.000    0.000    0.000 
#
# Total GULP energy -248073.626044 kJ/mol
# GULP energy per Si atom -12403.681302 kJ/mol
# Density = 2.092450 g / cm^3
# Si number density = 20.972233 Si / 1000 Ang^3
#
#
#
# Elastic Constant Matrix: (Units=GPa)
#
#
# Indices 1 2 3 4 5 6 
#
# 1 95.6418 31.8461 46.4508 -0.0077 -0.3268 -0.0033
# 2 31.8461 97.7290 32.2429 0.0024 -10.2480 -0.0006
# 3 46.4508 32.2429 117.3154 -0.0135 -14.3333 -0.0120
# 4 -0.0077 0.0024 -0.0135 25.9665 -0.0132 -5.5564
# 5 -0.3268 -10.2480 -14.3333 -0.0132 48.5307 -0.0105
# 6 -0.0033 -0.0006 -0.0120 -5.5564 -0.0105 34.4063
#
#
#
# Elastic Compliance Matrix: (Units=1/GPa)
#
#
# Indices 1 2 3 4 5 6 
#
# 1 0.013854 -0.003117 -0.004874 0.000001 -0.002004 -0.000001
# 2 -0.003117 0.012063 -0.001839 -0.000002 0.001983 0.000000
# 3 -0.004874 -0.001839 0.011316 0.000007 0.002921 0.000006
# 4 0.000001 -0.000002 0.000007 0.039890 0.000014 0.006442
# 5 -0.002004 0.001983 0.002921 0.000014 0.021873 0.000010
# 6 -0.000001 0.000000 0.000006 0.006442 0.000010 0.030105
#
#
# Mechanical properties :
#
#
# Convention : Reuss Voigt Hill
#
# Bulk Modulus (GPa) = 56.90273 59.08509 57.99391
# Shear Modulus (GPa) = 32.33811 35.12381 33.73096
#
# Velocity S-wave (km/s) = 3.93103 4.09684 4.01479
# Velocity P-wave (km/s) = 6.91341 7.11428 7.01457
#
# Compressibility (1/GPa) = 0.01757385
#
# Stress axis : x y z
#
# Youngs Moduli (GPa) = 72.18361 82.90071 88.37021
#
# Poissons Ratio (x) = 0.25837 0.43068
# Poissons Ratio (y) = 0.22497 0.16251
# Poissons Ratio (z) = 0.35179 0.15245
#
# Static dielectric constant tensor:
#      x y z
#    x 3.643590 -0.000010 0.096320 
#    y -0.000010 3.715090 -0.000020 
#    z 0.096320 -0.000020 4.004910 
# 
# 
# High freq. dielectric constant tensor:
#      x y z
#    x 1.821930 0.000000 0.008000 
#    y 0.000000 1.811460 0.000000 
#    z 0.008000 0.000000 1.835620 
# 
# From -- ./inp_files/132762.got.cif
#   From: 2010.06.25/outbox.cif.g09.slc.cpg/sg12_67_cif.got.tgz:132762.got - 2010.06.28 00:19:55.
