data_PCOD8110088
_publ_section_title
;
Structure prediction by ZEFSAII (Michael W. Deem and Ramdas Pophale) SiO2 
 PCOD8110088
Probable space group: C 2/M
;
_chemical_formula_sum "Si O2"
_cell_formula_units_Z 48
_cell_length_a 17.998402
_cell_length_b 13.648212
_cell_length_c 8.905094
_cell_angle_alpha 90.000000
_cell_angle_beta 80.178794
_cell_angle_gamma 90.000000
_cell_volume 2155.442589
_symmetry_space_group_name_H-M "C 2/M"
_symmetry_group_IT_number 12
_symmetry_cell_setting 'monoclinic'
loop_
_space_group_symop_operation_xyz
x,y,z
-x,y,-z
-x,-y,-z
x,-y,z
1/2+x,1/2+y,z
1/2-x,1/2+y,-z
1/2-x,1/2-y,-z
1/2+x,1/2-y,z
loop_
_atom_site_type_symbol
_atom_site_label
_atom_site_fract_x
_atom_site_fract_y
_atom_site_fract_z
Si Si1 0.332970 0.311639 0.205854
Si Si2 0.897665 0.000000 0.364181
Si Si3 0.922231 0.000000 0.690666
Si Si4 0.176059 0.609171 0.302727
Si Si5 0.485542 0.195338 0.668103
Si Si6 0.940331 0.844822 0.910035
Si Si7 0.638231 0.893264 0.650653
O O1 0.366392 0.400956 0.296961
O O2 0.244965 0.330968 0.208294
O O3 0.336962 0.203321 0.272261
O O4 0.372858 0.301857 0.031641
O O5 0.876734 0.000000 0.549691
O O6 0.987341 0.000000 0.340798
O O7 0.897942 0.093207 0.797290
O O8 0.179264 0.500000 0.236040
O O9 0.098163 0.656815 0.280274
O O10 0.183392 0.608231 0.479615
O O11 0.500000 0.248443 0.500000
O O12 0.495907 0.268283 0.805082
O O13 0.547646 0.109696 0.655136
O O14 0.000000 0.901298 0.000000
O O15 0.654639 0.000000 0.723350
#
# Coordination Sequence:
#
# PCOD8110088 Si02
#       7
#     8   4   4   8   8   8   8
#     4  12  23  42  68  98 139 175 217 281 344 400
#     4  11  23  38  69  98 131 175 228 279 330 396
#     4  11  24  37  62 101 130 173 234 273 325 409
#     4  10  22  40  68  96 133 178 222 274 339 396
#     4  10  22  41  68  93 127 173 232 281 322 396
#     4  12  23  39  64  97 132 182 218 279 341 393
#     4  10  21  40  67  99 129 175 226 279 326 394
#
# _framework density 22.269207999999999
#
# number of rings (size 3 to 8) (size 9 to 14) (size 15 to 20)
#    0.000    1.167    4.167    1.750    7.000    2.667 
#    0.000    2.500    0.000    0.000    0.000    0.000 
#    0.000    0.000    0.000    0.000    0.000    0.000 
#
# Total GULP energy -297342.040195 kJ/mol
# GULP energy per Si atom -12389.251675 kJ/mol
# Density = 2.221852 g / cm^3
# Si number density = 22.269208 Si / 1000 Ang^3
#
#
#
# Elastic Constant Matrix: (Units=GPa)
#
#
# Indices 1 2 3 4 5 6 
#
# 1 86.6293 10.5181 10.4318 0.0000 -13.0131 0.0000
# 2 10.5181 131.5374 42.3678 0.0000 -0.3747 0.0000
# 3 10.4318 42.3678 99.3804 0.0000 -9.9821 0.0000
# 4 0.0000 0.0000 0.0000 -30.9801 0.0000 -9.8548
# 5 -13.0131 -0.3747 -9.9821 0.0000 28.8157 0.0000
# 6 0.0000 0.0000 0.0000 -9.8548 0.0000 16.3555
#
#
#
# Elastic Compliance Matrix: (Units=1/GPa)
#
#
# Indices 1 2 3 4 5 6 
#
# 1 0.012523 -0.000858 -0.000395 0.000000 0.005507 0.000000
# 2 -0.000858 0.008914 -0.003872 0.000000 -0.001613 0.000000
# 3 -0.000395 -0.003872 0.012154 0.000000 0.003982 0.000000
# 4 0.000000 0.000000 0.000000 -0.027087 0.000000 -0.016321
# 5 0.005507 -0.001613 0.003982 0.000000 0.038548 0.000000
# 6 0.000000 0.000000 0.000000 -0.016321 0.000000 0.051307
#
#
# Mechanical properties :
#
#
# Convention : Reuss Voigt Hill
#
# Bulk Modulus (GPa) = 42.84634 49.35362 46.09998
# Shear Modulus (GPa) = 43.70990 19.78684 31.74837
#
# Velocity S-wave (km/s) = 4.43515 2.98405 3.77989
# Velocity P-wave (km/s) = 6.74606 5.83808 6.30843
#
# Compressibility (1/GPa) = 0.02333922
#
# Stress axis : x y z
#
# Youngs Moduli (GPa) = 79.85625 112.18830 82.27432
#
# Poissons Ratio (x) = 0.09629 0.03253
# Poissons Ratio (y) = 0.06854 0.31856
# Poissons Ratio (z) = 0.03158 0.43439
#
# Static dielectric constant tensor:
#      x y z
#    x 3.951440 0.000000 -0.195960 
#    y 0.000000 4.034000 0.000000 
#    z -0.195960 0.000000 4.217940 
# 
# 
# High freq. dielectric constant tensor:
#      x y z
#    x 1.873910 0.000000 -0.019830 
#    y 0.000000 1.874710 0.000000 
#    z -0.019830 0.000000 1.868320 
# 
# From -- ./inp_files/73659.got.cif
#   From: 2010.06.25/outbox.cif.g09.slc.cpg/sg12_37_cif.got.tgz:73659.got - 2010.06.28 00:19:55.
