data_PCOD8110858
_publ_section_title
;
Structure prediction by ZEFSAII (Michael W. Deem and Ramdas Pophale) SiO2 
 PCOD8110858
Probable space group: C 2/M
;
_chemical_formula_sum "Si O2"
_cell_formula_units_Z 48
_cell_length_a 28.821005
_cell_length_b 8.966478
_cell_length_c 16.028244
_cell_angle_alpha 90.000000
_cell_angle_beta 36.913250
_cell_angle_gamma 90.000000
_cell_volume 2487.745782
_symmetry_space_group_name_H-M "C 2/M"
_symmetry_group_IT_number 12
_symmetry_cell_setting 'monoclinic'
loop_
_space_group_symop_operation_xyz
x,y,z
-x,y,-z
-x,-y,-z
x,-y,z
1/2+x,1/2+y,z
1/2-x,1/2+y,-z
1/2-x,1/2-y,-z
1/2+x,1/2-y,z
loop_
_atom_site_type_symbol
_atom_site_label
_atom_site_fract_x
_atom_site_fract_y
_atom_site_fract_z
Si Si1 0.519259 0.675266 0.236667
Si Si2 0.067190 0.674314 0.338854
Si Si3 0.190115 0.324152 0.696388
Si Si4 0.860697 0.326561 0.049285
Si Si5 0.143741 0.825714 0.601106
Si Si6 0.277677 0.326814 0.876483
O O1 0.530774 0.500000 0.234155
O O2 0.547059 0.762174 0.277643
O O3 0.430153 0.716973 0.348183
O O4 0.569458 0.727870 0.085738
O O5 0.083471 0.500000 0.305129
O O6 0.142500 0.753584 0.268009
O O7 0.000000 0.709693 0.500000
O O8 0.184347 0.500000 0.697954
O O9 0.156980 0.269271 0.832206
O O10 0.137924 0.254737 0.698675
O O11 0.279520 0.272625 0.558418
O O12 0.884568 0.500000 0.012937
O O13 0.783715 0.298881 0.107285
O O14 0.145872 0.000000 0.616596
O O15 0.290986 0.500000 0.875285
O O16 0.250000 0.250000 0.000000
#
# Coordination Sequence:
#
# PCOD8110858 Si02
#       6
#     8   8   8   8   8   8
#     4  11  23  38  60  86 116 153 192 240 292 346
#     4  11  25  42  59  85 120 155 196 244 291 345
#     4   9  19  38  61  84 111 150 192 232 287 347
#     4  10  22  38  59  85 117 153 192 238 285 344
#     4   9  20  38  59  85 115 146 188 240 288 340
#     4  11  22  38  62  87 118 157 195 239 288 344
#
# _framework density 19.294575999999999
#
# number of rings (size 3 to 8) (size 9 to 14) (size 15 to 20)
#    0.000    1.833    1.667    1.500    2.333    4.667 
#    0.000    3.333    0.000    0.000    0.000    0.000 
#    0.000    0.000    0.000    0.000    0.000    0.000 
#
# Total GULP energy -297700.560080 kJ/mol
# GULP energy per Si atom -12404.190003 kJ/mol
# Density = 1.925066 g / cm^3
# Si number density = 19.294576 Si / 1000 Ang^3
#
#
#
# Elastic Constant Matrix: (Units=GPa)
#
#
# Indices 1 2 3 4 5 6 
#
# 1 36.0607 6.7953 16.7157 -0.0001 -0.3575 0.0005
# 2 6.7953 53.3619 33.4280 0.0020 -4.9690 -0.0018
# 3 16.7157 33.4280 93.9328 0.0020 5.2761 -0.0013
# 4 -0.0001 0.0020 0.0020 30.5259 -0.0001 -3.3376
# 5 -0.3575 -4.9690 5.2761 -0.0001 37.6428 0.0000
# 6 0.0005 -0.0018 -0.0013 -3.3376 0.0000 31.6514
#
#
#
# Elastic Compliance Matrix: (Units=1/GPa)
#
#
# Indices 1 2 3 4 5 6 
#
# 1 0.030274 -0.000459 -0.005278 0.000000 0.000967 -0.000001
# 2 -0.000459 0.024876 -0.009026 -0.000001 0.004545 0.000001
# 3 -0.005278 -0.009026 0.014985 0.000000 -0.003342 0.000000
# 4 0.000000 -0.000001 0.000000 0.033141 0.000000 0.003495
# 5 0.000967 0.004545 -0.003342 0.000000 0.027643 0.000000
# 6 -0.000001 0.000001 0.000000 0.003495 0.000000 0.031963
#
#
# Mechanical properties :
#
#
# Convention : Reuss Voigt Hill
#
# Bulk Modulus (GPa) = 24.62549 33.02595 28.82572
# Shear Modulus (GPa) = 24.27836 28.39177 26.33507
#
# Velocity S-wave (km/s) = 3.55110 3.84016 3.69846
# Velocity P-wave (km/s) = 5.44099 6.06765 5.76284
#
# Compressibility (1/GPa) = 0.04060832
#
# Stress axis : x y z
#
# Youngs Moduli (GPa) = 33.03183 40.19938 66.73259
#
# Poissons Ratio (x) = 0.01843 0.35225
# Poissons Ratio (y) = 0.01515 0.60235
# Poissons Ratio (z) = 0.17436 0.36285
#
# Static dielectric constant tensor:
#      x y z
#    x 3.665760 -0.000190 -0.208220 
#    y -0.000190 10.923950 0.000410 
#    z -0.208220 0.000410 3.775150 
# 
# 
# High freq. dielectric constant tensor:
#      x y z
#    x 1.755070 0.000000 -0.003140 
#    y 0.000000 1.752760 0.000000 
#    z -0.003140 0.000000 1.759920 
# 
# From -- ./inp_files/244664.got.cif
#   From: 2010.06.25/outbox.cif.g09.slc.cpg/sg12_123_cif.got.tgz:244664.got - 2010.06.28 00:19:55.
