data_PCOD8110100
_publ_section_title
;
Structure prediction by ZEFSAII (Michael W. Deem and Ramdas Pophale) SiO2 
 PCOD8110100
Probable space group: C 2/M
;
_chemical_formula_sum "Si O2"
_cell_formula_units_Z 64
_cell_length_a 9.296493
_cell_length_b 24.102579
_cell_length_c 14.119185
_cell_angle_alpha 90.000000
_cell_angle_beta 109.570435
_cell_angle_gamma 90.000000
_cell_volume 2980.913768
_symmetry_space_group_name_H-M "C 2/M"
_symmetry_group_IT_number 12
_symmetry_cell_setting 'monoclinic'
loop_
_space_group_symop_operation_xyz
x,y,z
-x,y,-z
-x,-y,-z
x,-y,z
1/2+x,1/2+y,z
1/2-x,1/2+y,-z
1/2-x,1/2-y,-z
1/2+x,1/2-y,z
loop_
_atom_site_type_symbol
_atom_site_label
_atom_site_fract_x
_atom_site_fract_y
_atom_site_fract_z
Si Si1 0.903089 0.650033 0.882541
Si Si2 0.359077 0.909830 0.405952
Si Si3 0.395688 0.214867 0.393500
Si Si4 0.472364 0.562250 0.602394
Si Si5 0.065911 0.562040 0.792739
Si Si6 0.903598 0.937006 0.891482
Si Si7 0.584514 0.759145 0.264314
Si Si8 0.940468 0.138422 0.219351
O O1 0.924271 0.710328 0.838995
O O2 0.725013 0.640362 0.866682
O O3 0.949922 0.603498 0.817235
O O4 0.000000 0.647187 0.000000
O O5 0.500000 0.930573 0.500000
O O6 0.330990 0.844134 0.412229
O O7 0.401198 0.925732 0.308986
O O8 0.206135 0.938584 0.409238
O O9 0.500000 0.241463 0.500000
O O10 0.495024 0.204524 0.321411
O O11 0.258681 0.256473 0.338555
O O12 0.500000 0.578304 0.500000
O O13 0.535389 0.500000 0.636143
O O14 0.569277 0.608569 0.680802
O O15 0.998963 0.500000 0.788896
O O16 0.227420 0.566989 0.882330
O O17 0.937767 0.898108 0.810586
O O18 0.950208 0.000000 0.875270
O O19 0.000000 0.914142 0.000000
O O20 0.508920 0.699389 0.239790
#
# Coordination Sequence:
#
# PCOD8110100 Si02
#       8
#     8   8   8   8   8   8   8   8
#     4  12  29  48  68  99 137 176 228 291 350 407
#     4  11  23  42  69 102 137 180 223 271 330 399
#     4  11  23  42  71 100 137 178 224 279 331 411
#     4  11  25  43  67 102 143 182 223 271 333 403
#     4  11  23  43  71  98 136 178 224 279 333 406
#     4  10  21  40  68  97 125 168 224 277 332 398
#     4  12  24  46  67 101 131 176 229 277 346 402
#     4  12  25  43  69  97 136 177 223 283 341 410
#
# _framework density 21.469926999999998
#
# number of rings (size 3 to 8) (size 9 to 14) (size 15 to 20)
#    0.000    0.750    5.000    1.875    1.750    3.750 
#    0.000    0.000    0.000    0.000    0.000    0.000 
#    0.000    0.000    0.000    0.000    0.000    0.000 
#
# Total GULP energy -396898.090470 kJ/mol
# GULP energy per Si atom -12403.065327 kJ/mol
# Density = 2.142106 g / cm^3
# Si number density = 21.469927 Si / 1000 Ang^3
#
#
#
# Elastic Constant Matrix: (Units=GPa)
#
#
# Indices 1 2 3 4 5 6 
#
# 1 90.4605 27.0050 29.4955 0.0000 7.2749 0.0000
# 2 27.0050 111.8950 36.3019 0.0000 -4.1660 0.0000
# 3 29.4955 36.3019 100.8741 0.0000 11.8342 0.0000
# 4 0.0000 0.0000 0.0000 13.2288 0.0000 -19.7537
# 5 7.2749 -4.1660 11.8342 0.0000 39.5643 0.0000
# 6 0.0000 0.0000 0.0000 -19.7537 0.0000 -26.6744
#
#
#
# Elastic Compliance Matrix: (Units=1/GPa)
#
#
# Indices 1 2 3 4 5 6 
#
# 1 0.012756 -0.002267 -0.002706 0.000000 -0.001775 0.000000
# 2 -0.002267 0.010715 -0.003497 0.000000 0.002591 0.000000
# 3 -0.002706 -0.003497 0.012382 0.000000 -0.003574 0.000000
# 4 0.000000 0.000000 0.000000 0.035897 0.000000 -0.026584
# 5 -0.001775 0.002591 -0.003574 0.000000 0.026944 0.000000
# 6 0.000000 0.000000 0.000000 -0.026584 0.000000 -0.017803
#
#
# Mechanical properties :
#
#
# Convention : Reuss Voigt Hill
#
# Bulk Modulus (GPa) = 52.87133 54.31493 53.59313
# Shear Modulus (GPa) = 48.01387 19.25222 33.63305
#
# Velocity S-wave (km/s) = 4.73412 2.99775 3.96222
# Velocity P-wave (km/s) = 7.38659 6.11025 6.77853
#
# Compressibility (1/GPa) = 0.01891384
#
# Stress axis : x y z
#
# Youngs Moduli (GPa) = 78.39272 93.32612 80.75938
#
# Poissons Ratio (x) = 0.21155 0.21853
# Poissons Ratio (y) = 0.17770 0.28244
# Poissons Ratio (z) = 0.21213 0.32638
#
# Static dielectric constant tensor:
#      x y z
#    x 4.023500 0.000000 0.101390 
#    y 0.000000 3.880540 0.000000 
#    z 0.101390 0.000000 3.940670 
# 
# 
# High freq. dielectric constant tensor:
#      x y z
#    x 1.845400 0.000000 0.006790 
#    y 0.000000 1.848400 0.000000 
#    z 0.006790 0.000000 1.845750 
# 
# From -- ./inp_files/199894.got.cif
#   From: 2010.06.25/outbox.cif.g09.slc.cpg/sg12_100_cif.got.tgz:199894.got - 2010.06.28 00:19:55.
