data_PCOD8110351
_publ_section_title
;
Structure prediction by ZEFSAII (Michael W. Deem and Ramdas Pophale) SiO2 
 PCOD8110351
Probable space group: C 2/M
;
_chemical_formula_sum "Si O2"
_cell_formula_units_Z 32
_cell_length_a 18.358911
_cell_length_b 13.393618
_cell_length_c 5.424370
_cell_angle_alpha 90.000000
_cell_angle_beta 87.881443
_cell_angle_gamma 90.000000
_cell_volume 1332.898799
_symmetry_space_group_name_H-M "C 2/M"
_symmetry_group_IT_number 12
_symmetry_cell_setting 'monoclinic'
loop_
_space_group_symop_operation_xyz
x,y,z
-x,y,-z
-x,-y,-z
x,-y,z
1/2+x,1/2+y,z
1/2-x,1/2+y,-z
1/2-x,1/2-y,-z
1/2+x,1/2-y,z
loop_
_atom_site_type_symbol
_atom_site_label
_atom_site_fract_x
_atom_site_fract_y
_atom_site_fract_z
Si Si1 0.044214 0.312062 0.236419
Si Si2 0.921232 0.892422 0.617725
Si Si3 0.194267 0.791418 0.702315
Si Si4 0.180659 0.612255 0.027937
O O1 0.073335 0.197902 0.186874
O O2 0.117017 0.380630 0.245181
O O3 0.000000 0.321886 0.500000
O O4 0.000000 0.346519 0.000000
O O5 0.866968 0.861006 0.406274
O O6 0.000000 0.909610 0.500000
O O7 0.895574 0.000000 0.735302
O O8 0.250000 0.750000 0.500000
O O9 0.238523 0.859328 0.890681
O O10 0.156803 0.693120 0.825102
O O11 0.183823 0.500000 0.920751
#
# Coordination Sequence:
#
# PCOD8110351 Si02
#       4
#     8   8   8   8
#     4  11  24  45  70 104 151 189 239 302 355 425
#     4  10  21  41  70 100 135 183 235 293 358 420
#     4  11  23  46  67  99 143 184 234 307 354 430
#     4  11  25  43  70 101 138 191 241 294 364 431
#
# _framework density 24.007823999999999
#
# number of rings (size 3 to 8) (size 9 to 14) (size 15 to 20)
#    0.000    1.250    2.500    3.750    0.000    3.500 
#    0.000    3.750    0.000    0.750    0.000    0.000 
#    0.000    0.000    0.000    0.000    0.000    0.000 
#
# Total GULP energy -198257.849995 kJ/mol
# GULP energy per Si atom -12391.115625 kJ/mol
# Density = 2.395318 g / cm^3
# Si number density = 24.007824 Si / 1000 Ang^3
#
#
#
# Elastic Constant Matrix: (Units=GPa)
#
#
# Indices 1 2 3 4 5 6 
#
# 1 123.5928 43.5640 26.5021 0.0000 10.2024 0.0000
# 2 43.5640 147.8690 15.7664 0.0000 -15.2013 0.0000
# 3 26.5021 15.7664 76.7828 0.0000 -4.5414 0.0000
# 4 0.0000 0.0000 0.0000 31.0067 0.0000 -1.3792
# 5 10.2024 -15.2013 -4.5414 0.0000 29.5965 0.0000
# 6 0.0000 0.0000 0.0000 -1.3792 0.0000 19.3825
#
#
#
# Elastic Compliance Matrix: (Units=1/GPa)
#
#
# Indices 1 2 3 4 5 6 
#
# 1 0.010443 -0.003326 -0.003265 0.000000 -0.005809 0.000000
# 2 -0.003326 0.008322 -0.000242 0.000000 0.005383 0.000000
# 3 -0.003265 -0.000242 0.014390 0.000000 0.003209 0.000000
# 4 0.000000 0.000000 0.000000 0.032353 0.000000 0.002302
# 5 -0.005809 0.005383 0.003209 0.000000 0.039048 0.000000
# 6 0.000000 0.000000 0.000000 0.002302 0.000000 0.051757
#
#
# Mechanical properties :
#
#
# Convention : Reuss Voigt Hill
#
# Bulk Modulus (GPa) = 51.31232 57.76772 54.54002
# Shear Modulus (GPa) = 28.33248 33.49129 30.91189
#
# Velocity S-wave (km/s) = 3.43904 3.73904 3.59217
# Velocity P-wave (km/s) = 6.09827 6.53872 6.32233
#
# Compressibility (1/GPa) = 0.01948850
#
# Stress axis : x y z
#
# Youngs Moduli (GPa) = 95.75791 120.16605 69.49104
#
# Poissons Ratio (x) = 0.39963 0.22690
# Poissons Ratio (y) = 0.31846 0.01685
# Poissons Ratio (z) = 0.31267 0.02914
#
# Static dielectric constant tensor:
#      x y z
#    x 4.793320 0.000000 -0.101130 
#    y 0.000000 4.786990 0.000000 
#    z -0.101130 0.000000 3.819650 
# 
# 
# High freq. dielectric constant tensor:
#      x y z
#    x 1.978960 0.000000 0.000360 
#    y 0.000000 1.953150 0.000000 
#    z 0.000360 0.000000 1.920120 
# 
# From -- ./inp_files/14330.got.cif
#   From: 2010.06.25/outbox.cif.g09.slc.cpg/sg12_8_cif.got.tgz:14330.got - 2010.06.28 00:19:55.
