data_PCOD8110221
_publ_section_title
;
Structure prediction by ZEFSAII (Michael W. Deem and Ramdas Pophale) SiO2 
 PCOD8110221
Probable space group: C 2/M
;
_chemical_formula_sum "Si O2"
_cell_formula_units_Z 64
_cell_length_a 13.021676
_cell_length_b 14.356460
_cell_length_c 28.210192
_cell_angle_alpha 90.000000
_cell_angle_beta 35.658582
_cell_angle_gamma 90.000000
_cell_volume 3074.359099
_symmetry_space_group_name_H-M "C 2/M"
_symmetry_group_IT_number 12
_symmetry_cell_setting 'monoclinic'
loop_
_space_group_symop_operation_xyz
x,y,z
-x,y,-z
-x,-y,-z
x,-y,z
1/2+x,1/2+y,z
1/2-x,1/2+y,-z
1/2-x,1/2-y,-z
1/2+x,1/2-y,z
loop_
_atom_site_type_symbol
_atom_site_label
_atom_site_fract_x
_atom_site_fract_y
_atom_site_fract_z
Si Si1 0.124720 0.336278 0.885349
Si Si2 0.949056 0.600514 0.732621
Si Si3 0.907536 0.167304 0.166122
Si Si4 0.996275 0.788116 0.594871
Si Si5 0.042612 0.106855 0.291716
Si Si6 0.383000 0.740545 0.279380
Si Si7 0.820856 0.393352 0.443421
Si Si8 0.227386 0.602561 0.944403
O O1 0.092477 0.232818 0.879402
O O2 0.254340 0.391153 0.801268
O O3 0.211882 0.328457 0.905170
O O4 0.934138 0.385354 0.958603
O O5 0.961308 0.500000 0.753764
O O6 0.764047 0.602400 0.773606
O O7 0.967267 0.683673 0.763401
O O8 0.109444 0.610290 0.635950
O O9 0.896905 0.223190 0.218738
O O10 0.090146 0.111379 0.095803
O O11 0.071426 0.682112 0.565637
O O12 0.117866 0.859561 0.519881
O O13 0.980108 0.826513 0.654587
O O14 0.809409 0.783642 0.638350
O O15 0.916822 0.146865 0.297132
O O16 0.988582 0.000000 0.323014
O O17 0.837570 0.500000 0.457186
O O18 0.217386 0.500000 0.925683
#
# Coordination Sequence:
#
# PCOD8110221 Si02
#       8
#     8   8   8   8   8   8   8   8
#     4  11  21  39  60  92 126 159 201 258 303 363
#     4  11  23  41  62  90 123 161 210 257 302 368
#     4  12  21  41  63  90 124 165 205 249 313 365
#     4  11  23  42  64  89 131 159 206 261 311 367
#     4  12  23  40  64  92 125 162 206 257 311 364
#     4  12  22  41  60  93 120 164 204 254 306 364
#     4  10  21  41  65  89 123 167 206 254 312 368
#     4  11  23  38  62  94 123 160 208 252 306 368
#
# _framework density 20.817346000000001
#
# number of rings (size 3 to 8) (size 9 to 14) (size 15 to 20)
#    0.000    0.750    6.250    2.625    0.000    2.500 
#    0.000    1.250    0.000    2.250    0.000    7.000 
#    0.000    0.000    0.000    0.000    0.000    0.000 
#
# Total GULP energy -396730.321690 kJ/mol
# GULP energy per Si atom -12397.822553 kJ/mol
# Density = 2.076997 g / cm^3
# Si number density = 20.817346 Si / 1000 Ang^3
#
#
#
# Elastic Constant Matrix: (Units=GPa)
#
#
# Indices 1 2 3 4 5 6 
#
# 1 86.1903 41.4598 44.4055 -0.0010 -20.5329 0.0001
# 2 41.4598 138.0554 35.5975 -0.0028 -1.5872 0.0007
# 3 44.4055 35.5975 111.5619 -0.0131 -20.9095 0.0015
# 4 -0.0010 -0.0028 -0.0131 19.4491 0.0003 0.6147
# 5 -20.5329 -1.5872 -20.9095 0.0003 32.4423 -0.0002
# 6 0.0001 0.0007 0.0015 0.6147 -0.0002 18.4008
#
#
#
# Elastic Compliance Matrix: (Units=1/GPa)
#
#
# Indices 1 2 3 4 5 6 
#
# 1 0.017735 -0.004155 -0.004172 -0.000003 0.008333 0.000001
# 2 -0.004155 0.008923 -0.001825 0.000000 -0.003369 0.000000
# 3 -0.004172 -0.001825 0.012164 0.000008 0.005110 -0.000001
# 4 -0.000003 0.000000 0.000008 0.051471 0.000003 -0.001719
# 5 0.008333 -0.003369 0.005110 0.000003 0.039227 0.000000
# 6 0.000001 0.000000 -0.000001 -0.001719 0.000000 0.054403
#
#
# Mechanical properties :
#
#
# Convention : Reuss Voigt Hill
#
# Bulk Modulus (GPa) = 53.99660 64.30367 59.15014
# Shear Modulus (GPa) = 23.76445 28.34809 26.05627
#
# Velocity S-wave (km/s) = 3.38238 3.69420 3.54172
# Velocity P-wave (km/s) = 6.42250 7.01090 6.72314
#
# Compressibility (1/GPa) = 0.01851968
#
# Stress axis : x y z
#
# Youngs Moduli (GPa) = 56.38555 112.07027 82.20786
#
# Poissons Ratio (x) = 0.46560 0.34295
# Poissons Ratio (y) = 0.23426 0.15003
# Poissons Ratio (z) = 0.23523 0.20452
#
# Static dielectric constant tensor:
#      x y z
#    x 3.654120 0.000000 -0.335250 
#    y 0.000000 3.825940 0.000000 
#    z -0.335250 0.000000 4.010750 
# 
# 
# High freq. dielectric constant tensor:
#      x y z
#    x 1.796970 0.000000 -0.019860 
#    y 0.000000 1.816630 0.000000 
#    z -0.019860 0.000000 1.823020 
# 
# From -- ./inp_files/358417.got.cif
#   From: 2010.06.25/outbox.cif.g09.slc.cpg/sg12_180_cif.got.tgz:358417.got - 2010.06.28 00:19:55.
