data_PCOD8110052
_publ_section_title
;
Structure prediction by ZEFSAII (Michael W. Deem and Ramdas Pophale) SiO2 
 PCOD8110052
Probable space group: C 2/M
;
_chemical_formula_sum "Si O2"
_cell_formula_units_Z 64
_cell_length_a 17.527505
_cell_length_b 14.156273
_cell_length_c 14.358535
_cell_angle_alpha 90.000000
_cell_angle_beta 127.054697
_cell_angle_gamma 90.000000
_cell_volume 2843.249986
_symmetry_space_group_name_H-M "C 2/M"
_symmetry_group_IT_number 12
_symmetry_cell_setting 'monoclinic'
loop_
_space_group_symop_operation_xyz
x,y,z
-x,y,-z
-x,-y,-z
x,-y,z
1/2+x,1/2+y,z
1/2-x,1/2+y,-z
1/2-x,1/2-y,-z
1/2+x,1/2-y,z
loop_
_atom_site_type_symbol
_atom_site_label
_atom_site_fract_x
_atom_site_fract_y
_atom_site_fract_z
Si Si1 0.054845 0.605955 0.827439
Si Si2 0.568849 0.306614 0.767732
Si Si3 0.209106 0.209651 0.190386
Si Si4 0.777793 0.845168 0.470324
Si Si5 0.274487 0.608787 0.993987
Si Si6 0.111692 0.101506 0.278728
Si Si7 0.365610 0.894715 0.791679
Si Si8 0.899734 0.234256 0.403069
O O1 0.038420 0.500000 0.770791
O O2 0.041518 0.694151 0.747348
O O3 0.163917 0.612403 0.943007
O O4 0.979375 0.620088 0.856868
O O5 0.490798 0.368035 0.760671
O O6 0.579501 0.336760 0.668073
O O7 0.670636 0.326646 0.891019
O O8 0.201128 0.155464 0.088079
O O9 0.139159 0.172023 0.217870
O O10 0.178348 0.320910 0.165420
O O11 0.316950 0.194022 0.308359
O O12 0.750000 0.750000 0.500000
O O13 0.814124 0.910442 0.581006
O O14 0.687701 0.886989 0.348244
O O15 0.866107 0.827720 0.465522
O O16 0.310322 0.500000 0.018357
O O17 0.102043 0.000000 0.224018
O O18 0.348242 0.000000 0.819387
O O19 0.000000 0.287444 0.500000
#
# Coordination Sequence:
#
# PCOD8110052 Si02
#       8
#     8   8   8   8   8   8   8   8
#     4  10  21  40  69  95 128 172 223 278 334 400
#     4  12  23  45  68  97 138 180 228 278 347 398
#     4  11  23  42  69  97 139 177 224 290 337 406
#     4  11  20  40  66  97 137 179 220 277 344 402
#     4  11  25  45  70 101 135 181 234 286 339 403
#     4  12  24  41  66  98 135 182 227 278 343 409
#     4  10  21  40  66  99 133 178 227 276 342 412
#     4  11  23  39  71 100 133 180 223 276 343 409
#
# _framework density 22.509454000000002
#
# number of rings (size 3 to 8) (size 9 to 14) (size 15 to 20)
#    0.000    1.000    6.250    1.500    0.000    0.500 
#    0.000    8.750    0.000    3.375    0.000    0.000 
#    0.000    0.000    0.000    0.000    0.000    0.000 
#
# Total GULP energy -396509.313423 kJ/mol
# GULP energy per Si atom -12390.916044 kJ/mol
# Density = 2.245822 g / cm^3
# Si number density = 22.509454 Si / 1000 Ang^3
#
#
#
# Elastic Constant Matrix: (Units=GPa)
#
#
# Indices 1 2 3 4 5 6 
#
# 1 120.1303 24.6697 32.7793 0.0000 13.4233 0.0000
# 2 24.6697 125.2539 12.5382 0.0000 1.8154 0.0000
# 3 32.7793 12.5382 71.1518 0.0000 3.9326 0.0000
# 4 0.0000 0.0000 0.0000 20.7539 0.0000 6.3866
# 5 13.4233 1.8154 3.9326 0.0000 31.2237 0.0000
# 6 0.0000 0.0000 0.0000 6.3866 0.0000 22.4260
#
#
#
# Elastic Compliance Matrix: (Units=1/GPa)
#
#
# Indices 1 2 3 4 5 6 
#
# 1 0.010214 -0.001534 -0.004227 0.000000 -0.003769 0.000000
# 2 -0.001534 0.008360 -0.000782 0.000000 0.000272 0.000000
# 3 -0.004227 -0.000782 0.016149 0.000000 -0.000171 0.000000
# 4 0.000000 0.000000 0.000000 0.052812 0.000000 -0.015040
# 5 -0.003769 0.000272 -0.000171 0.000000 0.033653 0.000000
# 6 0.000000 0.000000 0.000000 -0.015040 0.000000 0.048874
#
#
# Mechanical properties :
#
#
# Convention : Reuss Voigt Hill
#
# Bulk Modulus (GPa) = 46.21428 50.72337 48.46882
# Shear Modulus (GPa) = 26.26603 31.31731 28.79167
#
# Velocity S-wave (km/s) = 3.41968 3.73405 3.58032
# Velocity P-wave (km/s) = 6.01398 6.41670 6.21860
#
# Compressibility (1/GPa) = 0.02163833
#
# Stress axis : x y z
#
# Youngs Moduli (GPa) = 97.90626 119.61430 61.92360
#
# Poissons Ratio (x) = 0.18348 0.26174
# Poissons Ratio (y) = 0.15018 0.04840
# Poissons Ratio (z) = 0.41383 0.09349
#
# Static dielectric constant tensor:
#      x y z
#    x 4.041090 0.000000 0.352120 
#    y 0.000000 4.115860 0.000000 
#    z 0.352120 0.000000 4.141920 
# 
# 
# High freq. dielectric constant tensor:
#      x y z
#    x 1.905330 0.000000 0.012300 
#    y 0.000000 1.876220 0.000000 
#    z 0.012300 0.000000 1.876500 
# 
# From -- ./inp_files/225716.got.cif
#   From: 2010.06.25/outbox.cif.g09.slc.cpg/sg12_113_cif.got.tgz:225716.got - 2010.06.28 00:19:55.
