data_PCOD8110420
_publ_section_title
;
Structure prediction by ZEFSAII (Michael W. Deem and Ramdas Pophale) SiO2 
 PCOD8110420
Probable space group: C 2/M
;
_chemical_formula_sum "Si O2"
_cell_formula_units_Z 56
_cell_length_a 25.116835
_cell_length_b 14.140279
_cell_length_c 9.150075
_cell_angle_alpha 90.000000
_cell_angle_beta 124.958187
_cell_angle_gamma 90.000000
_cell_volume 2663.384168
_symmetry_space_group_name_H-M "C 2/M"
_symmetry_group_IT_number 12
_symmetry_cell_setting 'monoclinic'
loop_
_space_group_symop_operation_xyz
x,y,z
-x,y,-z
-x,-y,-z
x,-y,z
1/2+x,1/2+y,z
1/2-x,1/2+y,-z
1/2-x,1/2-y,-z
1/2+x,1/2-y,z
loop_
_atom_site_type_symbol
_atom_site_label
_atom_site_fract_x
_atom_site_fract_y
_atom_site_fract_z
Si Si1 0.406330 0.107687 0.202931
Si Si2 0.258171 0.107923 0.890294
Si Si3 0.012497 0.717701 0.190142
Si Si4 0.019550 0.108175 0.696060
Si Si5 0.751660 0.273829 0.334167
Si Si6 0.833853 0.108435 0.986334
Si Si7 0.121071 0.389474 0.512079
O O1 0.452324 0.174999 0.183759
O O2 0.413057 0.129362 0.385666
O O3 0.426982 0.000000 0.203175
O O4 0.333133 0.126809 0.040002
O O5 0.234697 0.174553 0.723328
O O6 0.244938 0.000000 0.821884
O O7 0.218150 0.133459 0.971310
O O8 0.022009 0.825450 0.260867
O O9 0.077600 0.658489 0.319160
O O10 0.000000 0.716607 0.000000
O O11 0.000000 0.131736 0.500000
O O12 0.002485 0.000000 0.708043
O O13 0.095404 0.130422 0.838618
O O14 0.750000 0.250000 0.500000
O O15 0.683594 0.322676 0.176892
O O16 0.807303 0.347833 0.381048
O O17 0.828473 0.000000 0.926637
O O18 0.127081 0.500000 0.488909
#
# Coordination Sequence:
#
# PCOD8110420 Si02
#       7
#     8   8   8   8   8   8   8
#     4  10  21  42  68  95 125 168 223 273 323 383
#     4  10  22  40  66  96 125 165 217 268 318 386
#     4  12  27  41  64  96 133 174 217 270 337 392
#     4  10  23  43  70  98 128 171 223 275 326 391
#     4  12  26  39  64 100 138 175 210 264 331 395
#     4  10  21  42  70  97 128 170 220 273 328 388
#     4  11  25  45  68  95 128 173 224 270 319 390
#
# _framework density 21.025881999999999
#
# number of rings (size 3 to 8) (size 9 to 14) (size 15 to 20)
#    0.000    1.286    1.429    3.429    8.000    3.714 
#    0.000    0.000    0.000    0.000    0.000    0.000 
#    0.000    0.000    0.000    0.000    0.000    0.000 
#
# Total GULP energy -347343.970705 kJ/mol
# GULP energy per Si atom -12405.141811 kJ/mol
# Density = 2.097803 g / cm^3
# Si number density = 21.025882 Si / 1000 Ang^3
#
#
#
# Elastic Constant Matrix: (Units=GPa)
#
#
# Indices 1 2 3 4 5 6 
#
# 1 31.2898 33.1380 39.6747 0.0000 1.5450 0.0000
# 2 33.1380 125.8460 83.0992 0.0000 -4.3685 0.0000
# 3 39.6747 83.0992 161.7741 0.0000 -10.5362 0.0000
# 4 0.0000 0.0000 0.0000 35.2482 0.0000 11.8150
# 5 1.5450 -4.3685 -10.5362 0.0000 24.9497 0.0000
# 6 0.0000 0.0000 0.0000 11.8150 0.0000 15.1639
#
#
#
# Elastic Compliance Matrix: (Units=1/GPa)
#
#
# Indices 1 2 3 4 5 6 
#
# 1 0.052763 -0.007986 -0.009400 0.000000 -0.008635 0.000000
# 2 -0.007986 0.013240 -0.004791 0.000000 0.000790 0.000000
# 3 -0.009400 -0.004791 0.011240 0.000000 0.004490 0.000000
# 4 0.000000 0.000000 0.000000 0.038399 0.000000 -0.029918
# 5 -0.008635 0.000790 0.004490 0.000000 0.042650 0.000000
# 6 0.000000 0.000000 0.000000 -0.029918 0.000000 0.089257
#
#
# Mechanical properties :
#
#
# Convention : Reuss Voigt Hill
#
# Bulk Modulus (GPa) = 30.40579 70.08151 50.24365
# Shear Modulus (GPa) = 16.50891 25.93889 21.22390
#
# Velocity S-wave (km/s) = 2.80513 3.51617 3.18058
# Velocity P-wave (km/s) = 4.99842 7.06314 6.11850
#
# Compressibility (1/GPa) = 0.03288847
#
# Stress axis : x y z
#
# Youngs Moduli (GPa) = 18.95278 75.52691 88.96551
#
# Poissons Ratio (x) = 0.60318 0.83627
# Poissons Ratio (y) = 0.15136 0.42625
# Poissons Ratio (z) = 0.17816 0.36186
#
# Static dielectric constant tensor:
#      x y z
#    x 3.914800 0.000000 0.043770 
#    y 0.000000 4.139860 0.000000 
#    z 0.043770 0.000000 3.903480 
# 
# 
# High freq. dielectric constant tensor:
#      x y z
#    x 1.806600 0.000000 0.014030 
#    y 0.000000 1.846660 0.000000 
#    z 0.014030 0.000000 1.829470 
# 
# From -- ./inp_files/96940.got.cif
#   From: 2010.06.25/outbox.cif.g09.slc.cpg/sg12_49_cif.got.tgz:96940.got - 2010.06.28 00:19:55.
