data_PCOD8110772
_publ_section_title
;
Structure prediction by ZEFSAII (Michael W. Deem and Ramdas Pophale) SiO2 
 PCOD8110772
Probable space group: C 2/M
;
_chemical_formula_sum "Si O2"
_cell_formula_units_Z 64
_cell_length_a 27.199249
_cell_length_b 9.812262
_cell_length_c 12.659751
_cell_angle_alpha 90.000000
_cell_angle_beta 88.374598
_cell_angle_gamma 90.000000
_cell_volume 3377.352832
_symmetry_space_group_name_H-M "C 2/M"
_symmetry_group_IT_number 12
_symmetry_cell_setting 'monoclinic'
loop_
_space_group_symop_operation_xyz
x,y,z
-x,y,-z
-x,-y,-z
x,-y,z
1/2+x,1/2+y,z
1/2-x,1/2+y,-z
1/2-x,1/2-y,-z
1/2+x,1/2-y,z
loop_
_atom_site_type_symbol
_atom_site_label
_atom_site_fract_x
_atom_site_fract_y
_atom_site_fract_z
Si Si1 0.386257 0.159980 0.443644
Si Si2 0.183301 0.155195 0.995104
Si Si3 0.994537 0.849861 0.115489
Si Si4 0.764584 0.657411 0.164214
Si Si5 0.275320 0.839397 0.406006
Si Si6 0.472077 0.157746 0.290522
Si Si7 0.915087 0.342426 0.666833
Si Si8 0.605947 0.648104 0.158704
O O1 0.333059 0.198372 0.401548
O O2 0.430415 0.218045 0.369911
O O3 0.393689 0.219404 0.560056
O O4 0.393992 0.000000 0.450214
O O5 0.216089 0.185836 0.097887
O O6 0.128179 0.184217 0.041582
O O7 0.191026 0.000000 0.956128
O O8 0.193018 0.252139 0.894288
O O9 0.048033 0.865872 0.160275
O O10 0.963320 0.743824 0.185070
O O11 0.968963 0.000000 0.113417
O O12 0.000000 0.785554 0.000000
O O13 0.781360 0.500000 0.158071
O O14 0.756091 0.697843 0.288470
O O15 0.250000 0.750000 0.500000
O O16 0.266951 0.000000 0.431417
O O17 0.526147 0.181377 0.335733
O O18 0.463508 0.000000 0.263673
O O19 0.902648 0.500000 0.683717
O O20 0.883110 0.264980 0.757242
O O21 0.628355 0.500000 0.191962
#
# Coordination Sequence:
#
# PCOD8110772 Si02
#       8
#     8   8   8   8   8   8   8   8
#     4   9  18  33  52  74  99 132 166 201 251 298
#     4   9  18  33  53  74  96 128 167 207 252 299
#     4   9  18  32  47  67  99 133 160 195 245 296
#     4   9  19  35  52  72  99 128 163 210 256 296
#     4  10  22  38  54  75 105 137 170 209 255 306
#     4   9  17  31  51  73  98 127 164 207 244 288
#     4   9  17  30  50  75 100 129 167 205 242 294
#     4   9  18  31  48  71  99 130 163 202 249 296
#
# _framework density 18.949753000000001
#
# number of rings (size 3 to 8) (size 9 to 14) (size 15 to 20)
#    0.000    2.875    0.000    0.375    1.750    3.750 
#    0.000    1.250    0.000    3.000    0.000    0.000 
#    0.000    0.000    0.000    0.000    0.000    0.000 
#
# Total GULP energy -396534.064835 kJ/mol
# GULP energy per Si atom -12391.689526 kJ/mol
# Density = 1.890662 g / cm^3
# Si number density = 18.949753 Si / 1000 Ang^3
#
#
#
# Elastic Constant Matrix: (Units=GPa)
#
#
# Indices 1 2 3 4 5 6 
#
# 1 36.7299 26.6791 19.6993 0.0000 -16.1304 0.0000
# 2 26.6791 74.3521 63.3156 0.0000 -16.2588 0.0000
# 3 19.6993 63.3156 138.9824 0.0000 -14.4237 0.0000
# 4 0.0000 0.0000 0.0000 29.2656 0.0000 -4.7384
# 5 -16.1304 -16.2588 -14.4237 0.0000 30.5963 0.0000
# 6 0.0000 0.0000 0.0000 -4.7384 0.0000 18.0901
#
#
#
# Elastic Compliance Matrix: (Units=1/GPa)
#
#
# Indices 1 2 3 4 5 6 
#
# 1 0.043266 -0.013318 0.001648 0.000000 0.016510 0.000000
# 2 -0.013318 0.027750 -0.010465 0.000000 0.002792 0.000000
# 3 0.001648 -0.010465 0.011820 0.000000 0.000880 0.000000
# 4 0.000000 0.000000 0.000000 0.035683 0.000000 0.009347
# 5 0.016510 0.002792 0.000880 0.000000 0.043286 0.000000
# 6 0.000000 0.000000 0.000000 0.009347 0.000000 0.057727
#
#
# Mechanical properties :
#
#
# Convention : Reuss Voigt Hill
#
# Bulk Modulus (GPa) = 25.92874 52.16137 39.04505
# Shear Modulus (GPa) = 18.07293 24.94843 21.51068
#
# Velocity S-wave (km/s) = 3.09160 3.63238 3.37284
# Velocity P-wave (km/s) = 5.14360 6.72147 5.98476
#
# Compressibility (1/GPa) = 0.03856725
#
# Stress axis : x y z
#
# Youngs Moduli (GPa) = 23.11292 36.03603 84.60102
#
# Poissons Ratio (x) = 0.47993 -0.13943
# Poissons Ratio (y) = 0.30782 0.88531
# Poissons Ratio (z) = -0.03809 0.37710
#
# Static dielectric constant tensor:
#      x y z
#    x 3.393110 0.000000 -0.072600 
#    y 0.000000 3.556990 0.000000 
#    z -0.072600 0.000000 3.608790 
# 
# 
# High freq. dielectric constant tensor:
#      x y z
#    x 1.726150 0.000000 -0.006730 
#    y 0.000000 1.719720 0.000000 
#    z -0.006730 0.000000 1.737800 
# 
# From -- ./inp_files/187475.got.cif
#   From: 2010.06.25/outbox.cif.g09.slc.cpg/sg12_94_cif.got.tgz:187475.got - 2010.06.28 00:19:55.
