data_PCOD8110854
_publ_section_title
;
Structure prediction by ZEFSAII (Michael W. Deem and Ramdas Pophale) SiO2 
 PCOD8110854
Probable space group: C 2/M
;
_chemical_formula_sum "Si O2"
_cell_formula_units_Z 28
_cell_length_a 8.847700
_cell_length_b 12.321722
_cell_length_c 12.442873
_cell_angle_alpha 90.000000
_cell_angle_beta 117.029858
_cell_angle_gamma 90.000000
_cell_volume 1208.336675
_symmetry_space_group_name_H-M "C 2/M"
_symmetry_group_IT_number 12
_symmetry_cell_setting 'monoclinic'
loop_
_space_group_symop_operation_xyz
x,y,z
-x,y,-z
-x,-y,-z
x,-y,z
1/2+x,1/2+y,z
1/2-x,1/2+y,-z
1/2-x,1/2-y,-z
1/2+x,1/2-y,z
loop_
_atom_site_type_symbol
_atom_site_label
_atom_site_fract_x
_atom_site_fract_y
_atom_site_fract_z
Si Si1 0.593675 0.283156 0.248151
Si Si2 0.260288 0.500000 0.025923
Si Si3 0.500000 0.822860 0.000000
Si Si4 0.125235 0.875858 0.640168
Si Si5 0.162598 0.000000 0.189029
O O1 0.699774 0.183883 0.333275
O O2 0.444499 0.308886 0.282108
O O3 0.710909 0.391360 0.270906
O O4 0.511483 0.254368 0.106859
O O5 0.170106 0.394675 0.047462
O O6 0.458015 0.500000 0.114534
O O7 0.234927 0.500000 0.889073
O O8 0.000000 0.871694 0.500000
O O9 0.163012 0.000000 0.685964
#
# Coordination Sequence:
#
# PCOD8110854 Si02
#       5
#     8   4   4   8   4
#     4  12  24  44  70 103 139 180 221 283 338 409
#     4  10  22  38  58  96 144 178 218 264 324 418
#     4  11  24  37  66 104 138 175 219 272 344 408
#     4  11  26  49  73  98 134 181 233 285 334 393
#     4  11  22  38  62  94 138 182 218 267 336 396
#
# _framework density 23.172350000000002
#
# number of rings (size 3 to 8) (size 9 to 14) (size 15 to 20)
#    0.000    0.857    1.429    6.000    4.000    3.429 
#    2.571    0.714    0.000    0.000    0.000    0.000 
#    0.000    0.000    0.000    0.000    0.000    0.000 
#
# Total GULP energy -173669.753665 kJ/mol
# GULP energy per Si atom -12404.982405 kJ/mol
# Density = 2.311961 g / cm^3
# Si number density = 23.172350 Si / 1000 Ang^3
#
#
#
# Elastic Constant Matrix: (Units=GPa)
#
#
# Indices 1 2 3 4 5 6 
#
# 1 83.2175 51.5548 11.0521 0.0000 -8.9537 0.0000
# 2 51.5548 167.5290 44.7113 0.0000 5.6202 0.0000
# 3 11.0521 44.7113 69.1117 0.0000 1.0296 0.0000
# 4 0.0000 0.0000 0.0000 40.9134 0.0000 -1.2316
# 5 -8.9537 5.6202 1.0296 0.0000 30.7094 0.0000
# 6 0.0000 0.0000 0.0000 -1.2316 0.0000 44.9375
#
#
#
# Elastic Compliance Matrix: (Units=1/GPa)
#
#
# Indices 1 2 3 4 5 6 
#
# 1 0.015756 -0.005245 0.000791 0.000000 0.005527 0.000000
# 2 -0.005245 0.009003 -0.004941 0.000000 -0.003011 0.000000
# 3 0.000791 -0.004941 0.017531 0.000000 0.000547 0.000000
# 4 0.000000 0.000000 0.000000 0.024462 0.000000 0.000670
# 5 0.005527 -0.003011 0.000547 0.000000 0.034708 0.000000
# 6 0.000000 0.000000 0.000000 0.000670 0.000000 0.022272
#
#
# Mechanical properties :
#
#
# Convention : Reuss Voigt Hill
#
# Bulk Modulus (GPa) = 42.55208 59.38830 50.97019
# Shear Modulus (GPa) = 33.25496 37.48139 35.36818
#
# Velocity S-wave (km/s) = 3.79240 4.02619 3.91104
# Velocity P-wave (km/s) = 6.13022 6.87736 6.51451
#
# Compressibility (1/GPa) = 0.02350061
#
# Stress axis : x y z
#
# Youngs Moduli (GPa) = 63.46851 111.07500 57.04197
#
# Poissons Ratio (x) = 0.58262 -0.04515
# Poissons Ratio (y) = 0.33291 0.28183
# Poissons Ratio (z) = -0.05023 0.54879
#
# Static dielectric constant tensor:
#      x y z
#    x 4.166200 0.000000 -0.263720 
#    y 0.000000 4.730020 0.000000 
#    z -0.263720 0.000000 3.855720 
# 
# 
# High freq. dielectric constant tensor:
#      x y z
#    x 1.915260 0.000000 -0.016250 
#    y 0.000000 1.942980 0.000000 
#    z -0.016250 0.000000 1.894720 
# 
# From -- ./inp_files/193060.got.cif
#   From: 2010.06.25/outbox.cif.g09.slc.cpg/sg12_97_cif.got.tgz:193060.got - 2010.06.28 00:19:55.
