data_PCOD8110910
_publ_section_title
;
Structure prediction by ZEFSAII (Michael W. Deem and Ramdas Pophale) SiO2 
 PCOD8110910
Probable space group: C 2/M
;
_chemical_formula_sum "Si O2"
_cell_formula_units_Z 56
_cell_length_a 15.041005
_cell_length_b 16.969174
_cell_length_c 20.513686
_cell_angle_alpha 90.000000
_cell_angle_beta 149.535162
_cell_angle_gamma 90.000000
_cell_volume 2654.589377
_symmetry_space_group_name_H-M "C 2/M"
_symmetry_group_IT_number 12
_symmetry_cell_setting 'monoclinic'
loop_
_space_group_symop_operation_xyz
x,y,z
-x,y,-z
-x,-y,-z
x,-y,z
1/2+x,1/2+y,z
1/2-x,1/2+y,-z
1/2-x,1/2-y,-z
1/2+x,1/2-y,z
loop_
_atom_site_type_symbol
_atom_site_label
_atom_site_fract_x
_atom_site_fract_y
_atom_site_fract_z
Si Si1 0.048907 0.196528 0.186227
Si Si2 0.567149 0.410085 0.612810
Si Si3 0.703267 0.087266 0.443275
Si Si4 0.821894 0.412302 0.422045
Si Si5 0.928184 0.699944 0.220539
Si Si6 0.180277 0.702015 0.154214
Si Si7 0.623189 0.592024 0.019103
O O1 0.182035 0.154843 0.319120
O O2 0.141659 0.230418 0.181389
O O3 0.941665 0.263577 0.156781
O O4 0.921458 0.129159 0.078937
O O5 0.500000 0.375226 0.500000
O O6 0.623801 0.500000 0.637177
O O7 0.411323 0.401300 0.566630
O O8 0.740548 0.369826 0.753218
O O9 0.646160 0.086370 0.481560
O O10 0.618540 0.166331 0.359472
O O11 0.652871 0.000000 0.381455
O O12 0.763780 0.500000 0.360839
O O13 0.000000 0.386640 0.500000
O O14 0.836248 0.766962 0.206222
O O15 0.818878 0.619439 0.156983
O O16 0.000000 0.679833 0.000000
O O17 0.611273 0.500000 0.005084
O O18 0.500000 0.622959 0.000000
#
# Coordination Sequence:
#
# PCOD8110910 Si02
#       7
#     8   8   8   8   8   8   8
#     4  12  23  40  63  91 132 167 213 265 327 390
#     4  10  23  45  68  90 123 170 222 272 318 384
#     4  10  22  41  63  93 125 165 219 269 324 389
#     4  10  22  38  60  91 128 167 213 267 323 390
#     4  12  23  40  66  94 133 168 209 272 331 387
#     4  12  25  42  64  97 135 170 218 269 334 395
#     4  11  23  42  66  91 124 172 216 262 324 389
#
# _framework density 21.095541000000001
#
# number of rings (size 3 to 8) (size 9 to 14) (size 15 to 20)
#    0.000    1.000    2.857    3.857    0.000    5.429 
#    0.000    1.429    0.000    0.000    0.000    0.000 
#    0.000    0.000    0.000    0.000    0.000    0.000 
#
# Total GULP energy -347018.077408 kJ/mol
# GULP energy per Si atom -12393.502765 kJ/mol
# Density = 2.104753 g / cm^3
# Si number density = 21.095541 Si / 1000 Ang^3
#
#
#
# Elastic Constant Matrix: (Units=GPa)
#
#
# Indices 1 2 3 4 5 6 
#
# 1 94.3413 29.6769 17.0039 -0.0006 -3.9843 -0.0004
# 2 29.6769 87.7787 55.7729 -0.0088 -5.6533 -0.0039
# 3 17.0039 55.7729 99.7512 -0.0099 -8.9166 -0.0108
# 4 -0.0006 -0.0088 -0.0099 43.3501 -0.0030 -16.9853
# 5 -3.9843 -5.6533 -8.9166 -0.0030 26.7177 -0.0041
# 6 -0.0004 -0.0039 -0.0108 -16.9853 -0.0041 8.4751
#
#
#
# Elastic Compliance Matrix: (Units=1/GPa)
#
#
# Indices 1 2 3 4 5 6 
#
# 1 0.011896 -0.004227 0.000427 -0.000003 0.001022 -0.000006
# 2 -0.004227 0.019177 -0.009993 0.000000 0.000092 -0.000004
# 3 0.000427 -0.009993 0.015829 0.000040 0.003232 0.000097
# 4 -0.000003 0.000000 0.000040 0.107422 0.000058 0.215289
# 5 0.001022 0.000092 0.003232 0.000058 0.038679 0.000138
# 6 -0.000006 -0.000004 0.000097 0.215289 0.000138 0.549465
#
#
# Mechanical properties :
#
#
# Convention : Reuss Voigt Hill
#
# Bulk Modulus (GPa) = 51.77563 54.08651 52.93107
# Shear Modulus (GPa) = 6.43921 27.66975 17.05448
#
# Velocity S-wave (km/s) = 1.74901 3.62559 2.84639
# Velocity P-wave (km/s) = 5.35494 6.57427 5.99568
#
# Compressibility (1/GPa) = 0.01931410
#
# Stress axis : x y z
#
# Youngs Moduli (GPa) = 84.06331 52.14545 63.17695
#
# Poissons Ratio (x) = 0.22044 -0.02699
# Poissons Ratio (y) = 0.35537 0.63136
# Poissons Ratio (z) = -0.03591 0.52111
#
# Static dielectric constant tensor:
#      x y z
#    x 3.912440 -0.000010 -0.014970 
#    y -0.000010 3.880060 -0.000010 
#    z -0.014970 -0.000010 3.779320 
# 
# 
# High freq. dielectric constant tensor:
#      x y z
#    x 1.837110 0.000000 0.002010 
#    y 0.000000 1.831600 0.000000 
#    z 0.002010 0.000000 1.817290 
# 
# From -- ./inp_files/311728.got.cif
#   From: 2010.06.25/outbox.cif.g09.slc.cpg/sg12_156_cif.got.tgz:311728.got - 2010.06.28 00:19:55.
