data_PCOD8110435
_publ_section_title
;
Structure prediction by ZEFSAII (Michael W. Deem and Ramdas Pophale) SiO2 
 PCOD8110435
Probable space group: C 2/M
;
_chemical_formula_sum "Si O2"
_cell_formula_units_Z 52
_cell_length_a 20.743416
_cell_length_b 20.646823
_cell_length_c 8.456573
_cell_angle_alpha 90.000000
_cell_angle_beta 135.615990
_cell_angle_gamma 90.000000
_cell_volume 2533.338546
_symmetry_space_group_name_H-M "C 2/M"
_symmetry_group_IT_number 12
_symmetry_cell_setting 'monoclinic'
loop_
_space_group_symop_operation_xyz
x,y,z
-x,y,-z
-x,-y,-z
x,-y,z
1/2+x,1/2+y,z
1/2-x,1/2+y,-z
1/2-x,1/2-y,-z
1/2+x,1/2-y,z
loop_
_atom_site_type_symbol
_atom_site_label
_atom_site_fract_x
_atom_site_fract_y
_atom_site_fract_z
Si Si1 0.690457 0.000000 0.360772
Si Si2 0.091681 0.825414 0.065076
Si Si3 0.696727 0.379269 0.536887
Si Si4 0.802246 0.282030 0.946523
Si Si5 0.160224 0.500000 0.637841
Si Si6 0.994955 0.924946 0.672373
Si Si7 0.034136 0.500000 0.874400
Si Si8 0.403567 0.100523 0.247317
O O1 0.726577 0.934605 0.343599
O O2 0.729941 0.000000 0.611624
O O3 0.575186 0.000000 0.129971
O O4 0.170933 0.849324 0.322430
O O5 0.135543 0.766677 0.045354
O O6 0.000000 0.802311 0.000000
O O7 0.065856 0.883321 0.900668
O O8 0.732687 0.321541 0.712125
O O9 0.608792 0.413742 0.456727
O O10 0.750000 0.250000 0.000000
O O11 0.872677 0.327918 0.159533
O O12 0.168215 0.563661 0.760683
O O13 0.068933 0.500000 0.369483
O O14 0.000000 0.902971 0.500000
O O15 0.022464 0.000000 0.742322
O O16 0.086858 0.562491 0.898521
O O17 0.500000 0.103129 0.500000
#
# Coordination Sequence:
#
# PCOD8110435 Si02
#       8
#     4   8   8   8   4   8   4   8
#     4  12  21  36  64  96 128 153 204 261 339 357
#     4  10  25  45  64  89 130 172 213 258 319 393
#     4  11  24  41  62  97 128 159 209 274 330 370
#     4  12  25  42  64  91 128 172 210 262 313 385
#     4   9  21  37  63  93 120 165 199 258 311 381
#     4  10  21  42  69  95 121 167 220 267 317 382
#     4   9  17  41  61  85 123 155 207 255 304 376
#     4   9  20  40  61  87 122 159 208 251 303 370
#
# _framework density 20.526273
#
# number of rings (size 3 to 8) (size 9 to 14) (size 15 to 20)
#    0.000    1.692    2.308    2.538    3.231    4.000 
#    5.538    0.000    0.000    0.000    0.000    0.000 
#    0.000    0.000    0.000    0.000    0.000    0.000 
#
# Total GULP energy -322197.828290 kJ/mol
# GULP energy per Si atom -12392.224165 kJ/mol
# Density = 2.047955 g / cm^3
# Si number density = 20.526273 Si / 1000 Ang^3
#
#
#
# Elastic Constant Matrix: (Units=GPa)
#
#
# Indices 1 2 3 4 5 6 
#
# 1 43.4679 35.9982 16.4130 0.0000 -23.2310 0.0000
# 2 35.9982 126.3662 45.7126 0.0000 -13.3515 0.0000
# 3 16.4130 45.7126 100.0099 0.0000 -18.8564 0.0000
# 4 0.0000 0.0000 0.0000 -74.7332 0.0000 -37.7660
# 5 -23.2310 -13.3515 -18.8564 0.0000 34.4752 0.0000
# 6 0.0000 0.0000 0.0000 -37.7660 0.0000 13.3543
#
#
#
# Elastic Compliance Matrix: (Units=1/GPa)
#
#
# Indices 1 2 3 4 5 6 
#
# 1 0.046523 -0.011288 0.002911 0.000000 0.028570 0.000000
# 2 -0.011288 0.012285 -0.004794 0.000000 -0.005471 0.000000
# 3 0.002911 -0.004794 0.013082 0.000000 0.007260 0.000000
# 4 0.000000 0.000000 0.000000 -0.005509 0.000000 -0.015578
# 5 0.028570 -0.005471 0.007260 0.000000 0.050111 0.000000
# 6 0.000000 0.000000 0.000000 -0.015578 0.000000 0.030827
#
#
# Mechanical properties :
#
#
# Convention : Reuss Voigt Hill
#
# Bulk Modulus (GPa) = 21.95467 51.78795 36.87131
# Shear Modulus (GPa) = 26.47687 6.06728 16.27207
#
# Velocity S-wave (km/s) = 3.59542 1.72113 2.81862
# Velocity P-wave (km/s) = 5.28726 5.40690 5.34741
#
# Compressibility (1/GPa) = 0.04554839
#
# Stress axis : x y z
#
# Youngs Moduli (GPa) = 21.49454 81.39739 76.44372
#
# Poissons Ratio (x) = 0.91878 -0.22253
# Poissons Ratio (y) = 0.24262 0.36650
# Poissons Ratio (z) = -0.06257 0.39025
#
# Static dielectric constant tensor:
#      x y z
#    x 3.887010 0.000000 -0.201350 
#    y 0.000000 3.653930 0.000000 
#    z -0.201350 0.000000 3.770940 
# 
# 
# High freq. dielectric constant tensor:
#      x y z
#    x 1.811700 0.000000 -0.015360 
#    y 0.000000 1.799790 0.000000 
#    z -0.015360 0.000000 1.823990 
# 
# From -- ./inp_files/88509.got.cif
#   From: 2010.06.25/outbox.cif.g09.slc.cpg/sg12_45_cif.got.tgz:88509.got - 2010.06.28 00:19:55.
