data_PCOD8110334
_publ_section_title
;
Structure prediction by ZEFSAII (Michael W. Deem and Ramdas Pophale) SiO2 
 PCOD8110334
Probable space group: C 2/M
;
_chemical_formula_sum "Si O2"
_cell_formula_units_Z 56
_cell_length_a 23.175488
_cell_length_b 14.195785
_cell_length_c 15.874844
_cell_angle_alpha 90.000000
_cell_angle_beta 32.342575
_cell_angle_gamma 90.000000
_cell_volume 2794.058869
_symmetry_space_group_name_H-M "C 2/M"
_symmetry_group_IT_number 12
_symmetry_cell_setting 'monoclinic'
loop_
_space_group_symop_operation_xyz
x,y,z
-x,y,-z
-x,-y,-z
x,-y,z
1/2+x,1/2+y,z
1/2-x,1/2+y,-z
1/2-x,1/2-y,-z
1/2+x,1/2-y,z
loop_
_atom_site_type_symbol
_atom_site_label
_atom_site_fract_x
_atom_site_fract_y
_atom_site_fract_z
Si Si1 0.503265 0.606710 0.241191
Si Si2 0.542395 0.891190 0.601799
Si Si3 0.062923 0.608709 0.768934
Si Si4 0.192225 0.259070 0.308151
Si Si5 0.779270 0.106125 0.593464
Si Si6 0.636682 0.748356 0.186804
Si Si7 0.939380 0.779382 0.988339
O O1 0.544557 0.500000 0.199863
O O2 0.374618 0.614020 0.408393
O O3 0.562398 0.667017 0.239874
O O4 0.524717 0.642119 0.121421
O O5 0.589466 0.878079 0.637679
O O6 0.617958 0.839199 0.441261
O O7 0.421660 0.849151 0.751400
O O8 0.535262 0.000000 0.584334
O O9 0.032453 0.500000 0.825946
O O10 0.169077 0.643277 0.687469
O O11 0.964361 0.674381 0.921420
O O12 0.187282 0.164141 0.366772
O O13 0.150364 0.229653 0.268386
O O14 0.313394 0.296208 0.155954
O O15 0.762314 0.000000 0.645200
O O16 0.750000 0.750000 0.000000
O O17 0.000000 0.798592 0.000000
#
# Coordination Sequence:
#
# PCOD8110334 Si02
#       7
#     8   8   8   8   8   8   8
#     4  11  25  45  65  92 132 174 215 262 324 390
#     4  11  25  44  69  98 129 170 217 268 322 381
#     4  10  21  41  68  98 129 169 219 266 325 386
#     4  12  24  40  66  97 131 166 217 269 316 386
#     4  10  22  40  67  97 128 168 216 271 324 380
#     4  12  24  45  67  92 129 170 218 262 319 380
#     4  12  24  40  67  97 134 172 208 268 328 382
#
# _framework density 20.042525000000001
#
# number of rings (size 3 to 8) (size 9 to 14) (size 15 to 20)
#    0.000    0.857    5.714    0.429    2.000    5.143 
#    0.000    1.429    0.000    0.000    0.000    0.000 
#    0.000    0.000    0.000    0.000    0.000    0.000 
#
# Total GULP energy -347299.104958 kJ/mol
# GULP energy per Si atom -12403.539463 kJ/mol
# Density = 1.999691 g / cm^3
# Si number density = 20.042525 Si / 1000 Ang^3
#
#
#
# Elastic Constant Matrix: (Units=GPa)
#
#
# Indices 1 2 3 4 5 6 
#
# 1 113.8854 46.8197 48.3060 0.0000 15.9126 0.0000
# 2 46.8197 107.5218 66.0773 0.0000 -0.3840 0.0000
# 3 48.3060 66.0773 123.2047 0.0000 1.3627 0.0000
# 4 0.0000 0.0000 0.0000 -5.8215 0.0000 -10.1925
# 5 15.9126 -0.3840 1.3627 0.0000 37.7044 0.0000
# 6 0.0000 0.0000 0.0000 -10.1925 0.0000 22.4165
#
#
#
# Elastic Compliance Matrix: (Units=1/GPa)
#
#
# Indices 1 2 3 4 5 6 
#
# 1 0.012146 -0.003602 -0.002774 0.000000 -0.005062 0.000000
# 2 -0.003602 0.014947 -0.006626 0.000000 0.001912 0.000000
# 3 -0.002774 -0.006626 0.012751 0.000000 0.000643 0.000000
# 4 0.000000 0.000000 0.000000 -0.095639 0.000000 -0.043486
# 5 -0.005062 0.001912 0.000643 0.000000 0.028655 0.000000
# 6 0.000000 0.000000 0.000000 -0.043486 0.000000 0.024837
#
#
# Mechanical properties :
#
#
# Convention : Reuss Voigt Hill
#
# Bulk Modulus (GPa) = 72.25312 74.11311 73.18312
# Shear Modulus (GPa) = 176.59395 23.08712 99.84054
#
# Velocity S-wave (km/s) = 9.39686 3.39766 7.06559
# Velocity P-wave (km/s) = 12.40414 7.24226 10.15660
#
# Compressibility (1/GPa) = 0.01384023
#
# Stress axis : x y z
#
# Youngs Moduli (GPa) = 82.33427 66.90128 78.42760
#
# Poissons Ratio (x) = 0.24097 0.21758
# Poissons Ratio (y) = 0.29656 0.51962
# Poissons Ratio (z) = 0.22842 0.44326
#
# Static dielectric constant tensor:
#      x y z
#    x 3.834830 0.000000 -0.046410 
#    y 0.000000 3.746530 0.000000 
#    z -0.046410 0.000000 3.882750 
# 
# 
# High freq. dielectric constant tensor:
#      x y z
#    x 1.793150 0.000000 0.002650 
#    y 0.000000 1.782220 0.000000 
#    z 0.002650 0.000000 1.793640 
# 
# From -- ./inp_files/240859.got.cif
#   From: 2010.06.25/outbox.cif.g09.slc.cpg/sg12_121_cif.got.tgz:240859.got - 2010.06.28 00:19:55.
