data_PCOD8110378
_publ_section_title
;
Structure prediction by ZEFSAII (Michael W. Deem and Ramdas Pophale) SiO2 
 PCOD8110378
Probable space group: C 2/M
;
_chemical_formula_sum "Si O2"
_cell_formula_units_Z 28
_cell_length_a 8.535396
_cell_length_b 21.990857
_cell_length_c 9.402655
_cell_angle_alpha 90.000000
_cell_angle_beta 49.916478
_cell_angle_gamma 90.000000
_cell_volume 1350.324938
_symmetry_space_group_name_H-M "C 2/M"
_symmetry_group_IT_number 12
_symmetry_cell_setting 'monoclinic'
loop_
_space_group_symop_operation_xyz
x,y,z
-x,y,-z
-x,-y,-z
x,-y,z
1/2+x,1/2+y,z
1/2-x,1/2+y,-z
1/2-x,1/2-y,-z
1/2+x,1/2-y,z
loop_
_atom_site_type_symbol
_atom_site_label
_atom_site_fract_x
_atom_site_fract_y
_atom_site_fract_z
Si Si1 0.837663 0.324388 0.324466
Si Si2 0.000000 0.126281 0.000000
Si Si3 0.466176 0.299497 0.739909
Si Si4 0.924797 0.430400 0.701320
O O1 0.663706 0.326727 0.546496
O O2 0.740088 0.311555 0.228027
O O3 0.006334 0.273029 0.261208
O O4 0.951446 0.389099 0.258441
O O5 0.935575 0.169406 0.908558
O O6 0.184333 0.082123 0.850309
O O7 0.970909 0.500000 0.713767
O O8 0.000000 0.414005 0.500000
#
# Coordination Sequence:
#
# PCOD8110378 Si02
#       4
#     8   4   8   8
#     4  10  21  42  62  95 130 170 200 262 320 381
#     4  12  23  42  68 100 119 168 214 268 302 384
#     4  10  22  37  68  96 130 159 212 260 323 369
#     4  11  24  43  65  91 129 172 211 259 313 373
#
# _framework density 20.735751
#
# number of rings (size 3 to 8) (size 9 to 14) (size 15 to 20)
#    0.000    1.429    2.857    2.143    4.000    5.714 
#    0.000    7.143    0.000    0.000    0.000    0.000 
#    0.000    0.000    0.000    0.000    0.000    0.000 
#
# Total GULP energy -173691.164680 kJ/mol
# GULP energy per Si atom -12406.511763 kJ/mol
# Density = 2.068856 g / cm^3
# Si number density = 20.735751 Si / 1000 Ang^3
#
#
#
# Elastic Constant Matrix: (Units=GPa)
#
#
# Indices 1 2 3 4 5 6 
#
# 1 158.8778 90.2888 55.3287 0.0000 5.8574 0.0000
# 2 90.2888 135.5953 35.3293 0.0000 -4.4440 0.0000
# 3 55.3287 35.3293 89.6239 0.0000 6.9941 0.0000
# 4 0.0000 0.0000 0.0000 10.9451 0.0000 -0.6500
# 5 5.8574 -4.4440 6.9941 0.0000 36.5901 0.0000
# 6 0.0000 0.0000 0.0000 -0.6500 0.0000 27.2654
#
#
#
# Elastic Compliance Matrix: (Units=1/GPa)
#
#
# Indices 1 2 3 4 5 6 
#
# 1 0.011723 -0.006707 -0.004450 0.000000 -0.001841 0.000000
# 2 -0.006707 0.012155 -0.000863 0.000000 0.002715 0.000000
# 3 -0.004450 -0.000863 0.014412 0.000000 -0.002147 0.000000
# 4 0.000000 0.000000 0.000000 0.091495 0.000000 0.002181
# 5 -0.001841 0.002715 -0.002147 0.000000 0.028365 0.000000
# 6 0.000000 0.000000 0.000000 0.002181 0.000000 0.036729
#
#
# Mechanical properties :
#
#
# Convention : Reuss Voigt Hill
#
# Bulk Modulus (GPa) = 70.16828 82.88784 76.52806
# Shear Modulus (GPa) = 22.35466 28.50347 25.42907
#
# Velocity S-wave (km/s) = 3.28696 3.71159 3.50571
# Velocity P-wave (km/s) = 6.95113 7.64382 7.30569
#
# Compressibility (1/GPa) = 0.01425145
#
# Stress axis : x y z
#
# Youngs Moduli (GPa) = 85.30130 82.27317 69.38504
#
# Poissons Ratio (x) = 0.55181 0.30874
# Poissons Ratio (y) = 0.57212 0.05985
# Poissons Ratio (z) = 0.37956 0.07097
#
# Static dielectric constant tensor:
#      x y z
#    x 3.685470 0.000000 -0.061310 
#    y 0.000000 3.586100 0.000000 
#    z -0.061310 0.000000 3.812640 
# 
# 
# High freq. dielectric constant tensor:
#      x y z
#    x 1.813030 0.000000 -0.008630 
#    y 0.000000 1.803140 0.000000 
#    z -0.008630 0.000000 1.822230 
# 
# From -- ./inp_files/37167.got.cif
#   From: 2010.06.25/outbox.cif.g09.slc.cpg/sg12_19_cif.got.tgz:37167.got - 2010.06.28 00:19:55.
