data_PCOD8110677
_publ_section_title
;
Structure prediction by ZEFSAII (Michael W. Deem and Ramdas Pophale) SiO2 
 PCOD8110677
Probable space group: C 2/M
;
_chemical_formula_sum "Si O2"
_cell_formula_units_Z 64
_cell_length_a 30.830631
_cell_length_b 9.683633
_cell_length_c 12.529576
_cell_angle_alpha 90.000000
_cell_angle_beta 109.922918
_cell_angle_gamma 90.000000
_cell_volume 3516.860475
_symmetry_space_group_name_H-M "C 2/M"
_symmetry_group_IT_number 12
_symmetry_cell_setting 'monoclinic'
loop_
_space_group_symop_operation_xyz
x,y,z
-x,y,-z
-x,-y,-z
x,-y,z
1/2+x,1/2+y,z
1/2-x,1/2+y,-z
1/2-x,1/2-y,-z
1/2+x,1/2-y,z
loop_
_atom_site_type_symbol
_atom_site_label
_atom_site_fract_x
_atom_site_fract_y
_atom_site_fract_z
Si Si1 0.875002 0.842222 0.073030
Si Si2 0.315086 0.840475 0.563100
Si Si3 0.404530 0.162878 0.520985
Si Si4 0.974650 0.841486 0.086901
Si Si5 0.598777 0.842149 0.713610
Si Si6 0.003102 0.657677 0.299469
Si Si7 0.226846 0.839831 0.073821
Si Si8 0.739155 0.340206 0.325794
O O1 0.919609 0.807904 0.036526
O O2 0.874702 0.747778 0.177388
O O3 0.877054 0.000000 0.113870
O O4 0.828266 0.813267 0.968689
O O5 0.367247 0.797027 0.579258
O O6 0.300808 0.749536 0.652450
O O7 0.285678 0.811804 0.431031
O O8 0.310771 0.000000 0.593034
O O9 0.388743 0.219820 0.392109
O O10 0.454625 0.219328 0.596318
O O11 0.407644 0.000000 0.508234
O O12 0.000474 0.747578 0.192314
O O13 0.982443 0.000000 0.125056
O O14 0.000000 0.803576 0.000000
O O15 0.543574 0.830455 0.673040
O O16 0.615222 0.000000 0.743802
O O17 0.013067 0.500000 0.274042
O O18 0.245992 0.797035 0.207267
O O19 0.237975 0.000000 0.059178
O O20 0.250000 0.750000 0.000000
O O21 0.724126 0.500000 0.318720
#
# Coordination Sequence:
#
# PCOD8110677 Si02
#       8
#     8   8   8   8   8   8   8   8
#     4   9  19  35  50  72 104 133 165 209 257 298
#     4   9  18  33  53  75  99 133 169 205 253 304
#     4   9  17  29  49  75 101 129 164 205 248 295
#     4   9  18  33  52  71  97 135 170 201 245 302
#     4   9  17  30  51  73  99 134 167 199 242 301
#     4   9  17  30  47  72 101 128 162 204 246 289
#     4  10  22  37  55  78 105 137 173 216 262 307
#     4   9  19  36  54  73 101 132 165 209 257 304
#
# _framework density 18.198049999999999
#
# number of rings (size 3 to 8) (size 9 to 14) (size 15 to 20)
#    0.000    2.875    0.000    0.375    1.750    3.750 
#    0.000    3.125    0.000    3.000    0.000    0.000 
#    0.000    0.000    0.000    0.000    0.000    0.000 
#
# Total GULP energy -396687.180531 kJ/mol
# GULP energy per Si atom -12396.474392 kJ/mol
# Density = 1.815663 g / cm^3
# Si number density = 18.198050 Si / 1000 Ang^3
#
#
#
# Elastic Constant Matrix: (Units=GPa)
#
#
# Indices 1 2 3 4 5 6 
#
# 1 58.7863 26.6568 36.5897 0.0000 -10.0821 0.0000
# 2 26.6568 49.0763 41.4587 0.0000 -13.4656 0.0000
# 3 36.5897 41.4587 95.8674 0.0000 -15.9592 0.0000
# 4 0.0000 0.0000 0.0000 8.9506 0.0000 0.3446
# 5 -10.0821 -13.4656 -15.9592 0.0000 28.0821 0.0000
# 6 0.0000 0.0000 0.0000 0.3446 0.0000 23.8261
#
#
#
# Elastic Compliance Matrix: (Units=1/GPa)
#
#
# Indices 1 2 3 4 5 6 
#
# 1 0.024431 -0.008132 -0.005519 0.000000 0.001736 0.000000
# 2 -0.008132 0.036659 -0.011387 0.000000 0.008188 0.000000
# 3 -0.005519 -0.011387 0.017918 0.000000 0.002741 0.000000
# 4 0.000000 0.000000 0.000000 0.111786 0.000000 -0.001617
# 5 0.001736 0.008188 0.002741 0.000000 0.041717 0.000000
# 6 0.000000 0.000000 0.000000 -0.001617 0.000000 0.041994
#
#
# Mechanical properties :
#
#
# Convention : Reuss Voigt Hill
#
# Bulk Modulus (GPa) = 34.56233 45.90449 40.23341
# Shear Modulus (GPa) = 14.95994 18.77341 16.86668
#
# Velocity S-wave (km/s) = 2.87027 3.21536 3.04771
# Velocity P-wave (km/s) = 5.47889 6.25016 5.87719
#
# Compressibility (1/GPa) = 0.02893323
#
# Stress axis : x y z
#
# Youngs Moduli (GPa) = 40.93186 27.27819 55.80873
#
# Poissons Ratio (x) = 0.22181 0.30801
# Poissons Ratio (y) = 0.33284 0.63550
# Poissons Ratio (z) = 0.22590 0.31062
#
# Static dielectric constant tensor:
#      x y z
#    x 3.462630 0.000000 0.031560 
#    y 0.000000 3.258330 0.000000 
#    z 0.031560 0.000000 3.353660 
# 
# 
# High freq. dielectric constant tensor:
#      x y z
#    x 1.710010 0.000000 0.001500 
#    y 0.000000 1.686870 0.000000 
#    z 0.001500 0.000000 1.700190 
# 
# From -- ./inp_files/188364.got.cif
#   From: 2010.06.25/outbox.cif.g09.slc.cpg/sg12_95_cif.got.tgz:188364.got - 2010.06.28 00:19:55.
