data_PCOD8110674
_publ_section_title
;
Structure prediction by ZEFSAII (Michael W. Deem and Ramdas Pophale) SiO2 
 PCOD8110674
Probable space group: C 2/M
;
_chemical_formula_sum "Si O2"
_cell_formula_units_Z 48
_cell_length_a 22.047340
_cell_length_b 16.952697
_cell_length_c 17.113754
_cell_angle_alpha 90.000000
_cell_angle_beta 155.351394
_cell_angle_gamma 90.000000
_cell_volume 2667.659962
_symmetry_space_group_name_H-M "C 2/M"
_symmetry_group_IT_number 12
_symmetry_cell_setting 'monoclinic'
loop_
_space_group_symop_operation_xyz
x,y,z
-x,y,-z
-x,-y,-z
x,-y,z
1/2+x,1/2+y,z
1/2-x,1/2+y,-z
1/2-x,1/2-y,-z
1/2+x,1/2-y,z
loop_
_atom_site_type_symbol
_atom_site_label
_atom_site_fract_x
_atom_site_fract_y
_atom_site_fract_z
Si Si1 0.098650 0.710695 0.045004
Si Si2 0.426235 0.906675 0.732947
Si Si3 0.408552 0.303591 0.469679
Si Si4 0.449822 0.181660 0.262050
Si Si5 0.397011 0.408940 0.600419
Si Si6 0.640993 0.321790 0.957549
O O1 0.243774 0.679985 0.254843
O O2 0.136014 0.787854 0.038784
O O3 0.000000 0.739794 0.000000
O O4 0.028712 0.639156 0.913871
O O5 0.468118 0.884841 0.692659
O O6 0.259927 0.879048 0.552511
O O7 0.446999 0.000000 0.769692
O O8 0.500000 0.320153 0.500000
O O9 0.443291 0.216240 0.545493
O O10 0.448749 0.367954 0.581521
O O11 0.402969 0.252206 0.151589
O O12 0.303248 0.145872 0.129407
O O13 0.389084 0.500000 0.573526
O O14 0.521194 0.390964 0.810400
#
# Coordination Sequence:
#
# PCOD8110674 Si02
#       6
#     8   8   8   8   8   8
#     4  11  21  34  57  85 108 142 178 223 274 317
#     4  10  22  37  54  79 112 148 181 216 264 324
#     4  11  21  36  56  82 112 139 177 228 274 317
#     4   9  19  35  55  76 105 143 183 223 261 316
#     4  10  22  37  54  79 112 147 181 218 264 323
#     4   9  19  35  54  78 105 140 186 223 259 316
#
# _framework density 17.993297999999999
#
# number of rings (size 3 to 8) (size 9 to 14) (size 15 to 20)
#    0.000    2.000    3.333    0.000    4.667    4.000 
#    0.000    0.000    0.000    2.000    0.000    0.000 
#    0.000    0.000    0.000    0.000    0.000    0.000 
#
# Total GULP energy -297536.610604 kJ/mol
# GULP energy per Si atom -12397.358775 kJ/mol
# Density = 1.795234 g / cm^3
# Si number density = 17.993298 Si / 1000 Ang^3
#
#
#
# Elastic Constant Matrix: (Units=GPa)
#
#
# Indices 1 2 3 4 5 6 
#
# 1 124.0932 37.6579 24.0678 -0.0009 17.0772 -0.0003
# 2 37.6579 43.3812 33.8473 -0.0002 -3.5882 -0.0001
# 3 24.0678 33.8473 88.1754 -0.0016 13.6599 -0.0007
# 4 -0.0009 -0.0002 -0.0016 25.5540 -0.0005 0.6594
# 5 17.0772 -3.5882 13.6599 -0.0005 24.3040 -0.0002
# 6 -0.0003 -0.0001 -0.0007 0.6594 -0.0002 24.4195
#
#
#
# Elastic Compliance Matrix: (Units=1/GPa)
#
#
# Indices 1 2 3 4 5 6 
#
# 1 0.014892 -0.018693 0.005651 0.000000 -0.016400 0.000000
# 2 -0.018693 0.060676 -0.023673 -0.000001 0.035398 0.000000
# 3 0.005651 -0.023673 0.021954 0.000001 -0.019805 0.000000
# 4 0.000000 -0.000001 0.000001 0.039160 0.000000 -0.001057
# 5 -0.016400 0.035398 -0.019805 0.000000 0.069026 0.000000
# 6 0.000000 0.000000 0.000000 -0.001057 0.000000 0.040979
#
#
# Mechanical properties :
#
#
# Convention : Reuss Voigt Hill
#
# Bulk Modulus (GPa) = 41.50582 49.64398 45.57490
# Shear Modulus (GPa) = 15.23703 25.52730 20.38216
#
# Velocity S-wave (km/s) = 2.91317 3.77066 3.36931
# Velocity P-wave (km/s) = 5.86795 6.82696 6.36554
#
# Compressibility (1/GPa) = 0.02409301
#
# Stress axis : x y z
#
# Youngs Moduli (GPa) = 67.15036 16.48086 45.55033
#
# Poissons Ratio (x) = 0.30808 -0.25742
# Poissons Ratio (y) = 1.25525 1.07831
# Poissons Ratio (z) = -0.37950 0.39015
#
# Static dielectric constant tensor:
#      x y z
#    x 3.518620 0.000000 0.065320 
#    y 0.000000 3.041120 0.000000 
#    z 0.065320 0.000000 3.590670 
# 
# 
# High freq. dielectric constant tensor:
#      x y z
#    x 1.706890 0.000000 0.011300 
#    y 0.000000 1.660750 0.000000 
#    z 0.011300 0.000000 1.706270 
# 
# From -- ./inp_files/61754.got.cif
#   From: 2010.06.25/outbox.cif.g09.slc.cpg/sg12_31_cif.got.tgz:61754.got - 2010.06.28 00:19:55.
