data_PCOD8110955
_publ_section_title
;
Structure prediction by ZEFSAII (Michael W. Deem and Ramdas Pophale) SiO2 
 PCOD8110955
Probable space group: C 2/M
;
_chemical_formula_sum "Si O2"
_cell_formula_units_Z 40
_cell_length_a 22.561494
_cell_length_b 17.739553
_cell_length_c 11.180587
_cell_angle_alpha 90.000000
_cell_angle_beta 153.762455
_cell_angle_gamma 90.000000
_cell_volume 1978.287811
_symmetry_space_group_name_H-M "C 2/M"
_symmetry_group_IT_number 12
_symmetry_cell_setting 'monoclinic'
loop_
_space_group_symop_operation_xyz
x,y,z
-x,y,-z
-x,-y,-z
x,-y,z
1/2+x,1/2+y,z
1/2-x,1/2+y,-z
1/2-x,1/2-y,-z
1/2+x,1/2-y,z
loop_
_atom_site_type_symbol
_atom_site_label
_atom_site_fract_x
_atom_site_fract_y
_atom_site_fract_z
Si Si1 0.001944 0.177156 0.632409
Si Si2 0.645358 0.086201 0.794947
Si Si3 0.290537 0.790983 0.908430
Si Si4 0.660084 0.414139 0.077901
Si Si5 0.352876 0.277300 0.785106
O O1 0.000000 0.136192 0.500000
O O2 0.136186 0.229832 0.874082
O O3 0.016844 0.114179 0.763603
O O4 0.866736 0.226353 0.403254
O O5 0.500000 0.119556 0.500000
O O6 0.700375 0.127828 0.012800
O O7 0.634744 0.000000 0.815935
O O8 0.735331 0.095288 0.840442
O O9 0.362223 0.784710 0.908532
O O10 0.650211 0.500000 0.106396
O O11 0.698288 0.358474 0.255880
O O12 0.250000 0.250000 0.500000
O O13 0.500000 0.287929 0.000000
#
# Coordination Sequence:
#
# PCOD8110955 Si02
#       5
#     8   8   8   8   8
#     4  11  21  34  59  96 124 160 190 243 316 370
#     4  10  22  38  62  96 127 158 192 246 326 382
#     4  11  23  38  63  89 127 157 204 258 305 362
#     4  10  23  41  64  91 125 159 201 255 311 370
#     4  11  25  43  62  88 117 165 217 253 293 351
#
# _framework density 20.219504000000001
#
# number of rings (size 3 to 8) (size 9 to 14) (size 15 to 20)
#    0.000    1.400    2.000    3.600   11.200    1.600 
#    0.000    1.000    0.000    1.200    0.000    0.000 
#    0.000    0.000    0.000    0.000    0.000    0.000 
#
# Total GULP energy -247862.598624 kJ/mol
# GULP energy per Si atom -12393.129931 kJ/mol
# Density = 2.017348 g / cm^3
# Si number density = 20.219504 Si / 1000 Ang^3
#
#
#
# Elastic Constant Matrix: (Units=GPa)
#
#
# Indices 1 2 3 4 5 6 
#
# 1 95.3338 59.8032 33.6156 0.0000 -13.3772 0.0000
# 2 59.8032 124.8829 59.8956 0.0000 -13.1088 0.0000
# 3 33.6156 59.8956 125.7827 0.0000 -3.2330 0.0000
# 4 0.0000 0.0000 0.0000 24.6844 0.0000 -7.2636
# 5 -13.3772 -13.1088 -3.2330 0.0000 42.2237 0.0000
# 6 0.0000 0.0000 0.0000 -7.2636 0.0000 34.8531
#
#
#
# Elastic Compliance Matrix: (Units=1/GPa)
#
#
# Indices 1 2 3 4 5 6 
#
# 1 0.015348 -0.006648 -0.000866 0.000000 0.002732 0.000000
# 2 -0.006648 0.013611 -0.004659 0.000000 0.001763 0.000000
# 3 -0.000866 -0.004659 0.010377 0.000000 -0.000926 0.000000
# 4 0.000000 0.000000 0.000000 0.043158 0.000000 0.008994
# 5 0.002732 0.001763 -0.000926 0.000000 0.025025 0.000000
# 6 0.000000 0.000000 0.000000 0.008994 0.000000 0.030566
#
#
# Mechanical properties :
#
#
# Convention : Reuss Voigt Hill
#
# Bulk Modulus (GPa) = 66.71380 72.51425 69.61402
# Shear Modulus (GPa) = 29.86360 33.19790 31.53075
#
# Velocity S-wave (km/s) = 3.84731 4.05640 3.95324
# Velocity P-wave (km/s) = 7.26650 7.60793 7.43918
#
# Compressibility (1/GPa) = 0.01498940
#
# Stress axis : x y z
#
# Youngs Moduli (GPa) = 65.15322 73.47230 96.37158
#
# Poissons Ratio (x) = 0.48843 0.08347
# Poissons Ratio (y) = 0.43312 0.44901
# Poissons Ratio (z) = 0.05643 0.34232
#
# Static dielectric constant tensor:
#      x y z
#    x 3.717600 0.000000 0.064290 
#    y 0.000000 3.723280 0.000000 
#    z 0.064290 0.000000 3.968990 
# 
# 
# High freq. dielectric constant tensor:
#      x y z
#    x 1.784880 0.000000 0.001830 
#    y 0.000000 1.772220 0.000000 
#    z 0.001830 0.000000 1.801330 
# 
# From -- ./inp_files/177981.got.cif
#   From: 2010.06.25/outbox.cif.g09.slc.cpg/sg12_89_cif.got.tgz:177981.got - 2010.06.28 00:19:55.
