data_PCOD8110748
_publ_section_title
;
Structure prediction by ZEFSAII (Michael W. Deem and Ramdas Pophale) SiO2 
 PCOD8110748
Probable space group: C 2/M
;
_chemical_formula_sum "Si O2"
_cell_formula_units_Z 56
_cell_length_a 26.460847
_cell_length_b 17.932542
_cell_length_c 8.323508
_cell_angle_alpha 90.000000
_cell_angle_beta 139.728234
_cell_angle_gamma 90.000000
_cell_volume 2553.069693
_symmetry_space_group_name_H-M "C 2/M"
_symmetry_group_IT_number 12
_symmetry_cell_setting 'monoclinic'
loop_
_space_group_symop_operation_xyz
x,y,z
-x,y,-z
-x,-y,-z
x,-y,z
1/2+x,1/2+y,z
1/2-x,1/2+y,-z
1/2-x,1/2-y,-z
1/2+x,1/2-y,z
loop_
_atom_site_type_symbol
_atom_site_label
_atom_site_fract_x
_atom_site_fract_y
_atom_site_fract_z
Si Si1 0.313108 0.132099 0.768333
Si Si2 0.341266 0.153154 0.488522
Si Si3 0.700812 0.728267 0.034617
Si Si4 0.946834 0.214618 0.732536
Si Si5 0.862959 0.915287 0.724159
Si Si6 0.916150 0.500000 0.017403
Si Si7 0.410281 0.000000 0.618807
Si Si8 0.057983 0.860373 0.766390
O O1 0.358900 0.158200 0.720481
O O2 0.306277 0.199119 0.873689
O O3 0.229525 0.099188 0.511325
O O4 0.369904 0.069733 0.982391
O O5 0.249107 0.164233 0.243395
O O6 0.386031 0.223866 0.519680
O O7 0.365187 0.075660 0.460299
O O8 0.750000 0.750000 0.000000
O O9 0.617800 0.688892 0.802713
O O10 0.906060 0.140053 0.705540
O O11 0.001505 0.197346 0.716519
O O12 0.000000 0.251527 0.000000
O O13 0.879749 0.000000 0.709401
O O14 0.896104 0.908413 0.987822
O O15 0.008064 0.500000 0.281137
O O16 0.913732 0.500000 0.818892
O O17 0.000000 0.905209 0.500000
#
# Coordination Sequence:
#
# PCOD8110748 Si02
#       8
#     8   8   8   8   8   4   4   8
#     4  11  20  38  67  99 126 169 214 271 324 394
#     4  11  21  39  65  96 130 167 218 264 328 400
#     4  12  25  42  67  91 127 174 225 272 324 396
#     4  10  22  37  62  95 127 167 215 270 326 391
#     4  11  22  41  69  96 129 168 219 275 331 394
#     4   9  20  36  61 105 135 159 207 269 340 399
#     4   9  22  34  63 103 138 163 200 275 342 395
#     4  11  25  42  61  92 131 170 219 274 334 388
#
# _framework density 21.934379
#
# number of rings (size 3 to 8) (size 9 to 14) (size 15 to 20)
#    0.000    1.286    3.571    3.000    6.000    2.857 
#    0.000    0.714    0.000    0.857    0.000    0.000 
#    0.000    0.000    0.000    0.000    0.000    0.000 
#
# Total GULP energy -346950.316132 kJ/mol
# GULP energy per Si atom -12391.082719 kJ/mol
# Density = 2.188446 g / cm^3
# Si number density = 21.934379 Si / 1000 Ang^3
#
#
#
# Elastic Constant Matrix: (Units=GPa)
#
#
# Indices 1 2 3 4 5 6 
#
# 1 99.1823 42.4032 18.5307 0.0000 29.2268 0.0000
# 2 42.4032 151.9810 48.0954 0.0000 26.8219 0.0000
# 3 18.5307 48.0954 73.4960 0.0000 23.9878 0.0000
# 4 0.0000 0.0000 0.0000 0.3834 0.0000 15.3734
# 5 29.2268 26.8219 23.9878 0.0000 28.0204 0.0000
# 6 0.0000 0.0000 0.0000 15.3734 0.0000 25.5302
#
#
#
# Elastic Compliance Matrix: (Units=1/GPa)
#
#
# Indices 1 2 3 4 5 6 
#
# 1 0.015332 -0.002347 0.002993 0.000000 -0.016308 0.000000
# 2 -0.002347 0.009102 -0.004607 0.000000 -0.002321 0.000000
# 3 0.002993 -0.004607 0.021435 0.000000 -0.017061 0.000000
# 4 0.000000 0.000000 0.000000 -0.112690 0.000000 0.067858
# 5 -0.016308 -0.002321 -0.017061 0.000000 0.069526 0.000000
# 6 0.000000 0.000000 0.000000 0.067858 0.000000 -0.001692
#
#
# Mechanical properties :
#
#
# Convention : Reuss Voigt Hill
#
# Bulk Modulus (GPa) = 26.35280 60.30200 43.32740
# Shear Modulus (GPa) = 231.64343 25.16214 128.40279
#
# Velocity S-wave (km/s) = 10.28770 3.39064 7.65941
# Velocity P-wave (km/s) = 12.37563 6.54830 9.90041
#
# Compressibility (1/GPa) = 0.03794663
#
# Stress axis : x y z
#
# Youngs Moduli (GPa) = 65.22238 109.86503 46.65234
#
# Poissons Ratio (x) = 0.25782 -0.13961
# Poissons Ratio (y) = 0.15306 0.21494
# Poissons Ratio (z) = -0.19518 0.50617
#
# Static dielectric constant tensor:
#      x y z
#    x 4.291440 0.000000 1.118390 
#    y 0.000000 4.578870 0.000000 
#    z 1.118390 0.000000 6.181040 
# 
# 
# High freq. dielectric constant tensor:
#      x y z
#    x 1.864140 0.000000 0.026940 
#    y 0.000000 1.852010 0.000000 
#    z 0.026940 0.000000 1.860320 
# 
# From -- ./inp_files/106067.got.cif
#   From: 2010.06.25/outbox.cif.g09.slc.cpg/sg12_54_cif.got.tgz:106067.got - 2010.06.28 00:19:55.
