data_PCOD8110175
_publ_section_title
;
Structure prediction by ZEFSAII (Michael W. Deem and Ramdas Pophale) SiO2 
 PCOD8110175
Probable space group: C 2/M
;
_chemical_formula_sum "Si O2"
_cell_formula_units_Z 56
_cell_length_a 19.419716
_cell_length_b 8.862677
_cell_length_c 28.921896
_cell_angle_alpha 90.000000
_cell_angle_beta 146.789911
_cell_angle_gamma 90.000000
_cell_volume 2726.375489
_symmetry_space_group_name_H-M "C 2/M"
_symmetry_group_IT_number 12
_symmetry_cell_setting 'monoclinic'
loop_
_space_group_symop_operation_xyz
x,y,z
-x,y,-z
-x,-y,-z
x,-y,z
1/2+x,1/2+y,z
1/2-x,1/2+y,-z
1/2-x,1/2-y,-z
1/2+x,1/2-y,z
loop_
_atom_site_type_symbol
_atom_site_label
_atom_site_fract_x
_atom_site_fract_y
_atom_site_fract_z
Si Si1 0.033212 0.826839 0.817131
Si Si2 0.922866 0.178363 0.502575
Si Si3 0.489803 0.178023 0.634659
Si Si4 0.234456 0.176480 0.179992
Si Si5 0.963163 0.676873 0.869808
Si Si6 0.337834 0.674792 0.626806
Si Si7 0.194234 0.322620 0.062117
O O1 0.174551 0.772635 0.886613
O O2 0.978352 0.718559 0.825108
O O3 0.953145 0.803821 0.726194
O O4 0.029697 0.000000 0.832054
O O5 0.782924 0.244261 0.419367
O O6 0.000000 0.222034 0.500000
O O7 0.993337 0.252129 0.585628
O O8 0.915993 0.000000 0.505570
O O9 0.619624 0.219538 0.733003
O O10 0.375162 0.249628 0.599097
O O11 0.469052 0.000000 0.619250
O O12 0.161807 0.242101 0.183022
O O13 0.175056 0.245501 0.100577
O O14 0.214159 0.000000 0.167266
O O15 0.944811 0.500000 0.864624
O O16 0.084173 0.733259 0.966523
O O17 0.306254 0.500000 0.600212
O O18 0.190060 0.500000 0.068260
#
# Coordination Sequence:
#
# PCOD8110175 Si02
#       7
#     8   8   8   8   8   8   8
#     4  10  22  40  63  91 125 164 208 256 310 367
#     4  11  26  45  67  97 130 163 201 250 305 367
#     4  11  24  43  67  94 125 164 210 255 304 368
#     4  11  24  40  62  92 125 164 210 260 310 365
#     4  11  24  38  60  90 126 168 209 259 313 367
#     4  11  23  42  69  95 125 166 206 254 308 365
#     4  10  21  41  63  89 123 164 212 258 310 370
#
# _framework density 20.540091
#
# number of rings (size 3 to 8) (size 9 to 14) (size 15 to 20)
#    0.000    1.286    1.429    3.429    2.000    7.429 
#    0.000    0.000    0.000    0.000    0.000    0.000 
#    0.000    0.000    0.000    0.000    0.000    0.000 
#
# Total GULP energy -347407.295803 kJ/mol
# GULP energy per Si atom -12407.403422 kJ/mol
# Density = 2.049334 g / cm^3
# Si number density = 20.540091 Si / 1000 Ang^3
#
#
#
# Elastic Constant Matrix: (Units=GPa)
#
#
# Indices 1 2 3 4 5 6 
#
# 1 143.6768 52.5648 31.5581 -0.0001 1.0306 0.0003
# 2 52.5648 70.2672 39.5098 -0.0003 3.1573 0.0009
# 3 31.5581 39.5098 65.8707 0.0000 -2.2272 0.0001
# 4 -0.0001 -0.0003 0.0000 31.8475 0.0000 -1.9547
# 5 1.0306 3.1573 -2.2272 0.0000 35.0635 -0.0001
# 6 0.0003 0.0009 0.0001 -1.9547 -0.0001 40.7739
#
#
#
# Elastic Compliance Matrix: (Units=1/GPa)
#
#
# Indices 1 2 3 4 5 6 
#
# 1 0.009595 -0.006961 -0.000411 0.000000 0.000319 0.000000
# 2 -0.006961 0.026793 -0.012838 0.000000 -0.003023 -0.000001
# 3 -0.000411 -0.012838 0.023168 0.000000 0.002640 0.000000
# 4 0.000000 0.000000 0.000000 0.031492 0.000000 0.001510
# 5 0.000319 -0.003023 0.002640 0.000000 0.028950 0.000000
# 6 0.000000 -0.000001 0.000000 0.001510 0.000000 0.024598
#
#
# Mechanical properties :
#
#
# Convention : Reuss Voigt Hill
#
# Bulk Modulus (GPa) = 52.25736 58.56445 55.41091
# Shear Modulus (GPa) = 26.12416 31.94912 29.03664
#
# Velocity S-wave (km/s) = 3.57019 3.94820 3.76394
# Velocity P-wave (km/s) = 6.51858 7.02556 6.77681
#
# Compressibility (1/GPa) = 0.01913606
#
# Stress axis : x y z
#
# Youngs Moduli (GPa) = 104.22474 37.32317 43.16355
#
# Poissons Ratio (x) = 0.25980 0.01773
# Poissons Ratio (y) = 0.72549 0.55414
# Poissons Ratio (z) = 0.04281 0.47916
#
# Static dielectric constant tensor:
#      x y z
#    x 3.777520 0.000000 0.090120 
#    y 0.000000 3.714630 0.000000 
#    z 0.090120 0.000000 3.806900 
# 
# 
# High freq. dielectric constant tensor:
#      x y z
#    x 1.814280 0.000000 0.002850 
#    y 0.000000 1.807910 0.000000 
#    z 0.002850 0.000000 1.813510 
# 
# From -- ./inp_files/363124.got.cif
#   From: 2010.06.25/outbox.cif.g09.slc.cpg/sg12_182_cif.got.tgz:363124.got - 2010.06.28 00:19:55.
