data_PCOD8110004
_publ_section_title
;
Structure prediction by ZEFSAII (Michael W. Deem and Ramdas Pophale) SiO2 
 PCOD8110004
Probable space group: C 2/M
;
_chemical_formula_sum "Si O2"
_cell_formula_units_Z 56
_cell_length_a 17.476990
_cell_length_b 23.108572
_cell_length_c 8.913165
_cell_angle_alpha 90.000000
_cell_angle_beta 49.110418
_cell_angle_gamma 90.000000
_cell_volume 2721.307976
_symmetry_space_group_name_H-M "C 2/M"
_symmetry_group_IT_number 12
_symmetry_cell_setting 'monoclinic'
loop_
_space_group_symop_operation_xyz
x,y,z
-x,y,-z
-x,-y,-z
x,-y,z
1/2+x,1/2+y,z
1/2-x,1/2+y,-z
1/2-x,1/2-y,-z
1/2+x,1/2-y,z
loop_
_atom_site_type_symbol
_atom_site_label
_atom_site_fract_x
_atom_site_fract_y
_atom_site_fract_z
Si Si1 0.107253 0.625939 0.923542
Si Si2 0.088358 0.756098 0.492884
Si Si3 0.562484 0.747123 0.056755
Si Si4 0.223483 0.566615 0.018623
Si Si5 0.401765 0.565520 0.552602
Si Si6 0.706122 0.645214 0.501104
Si Si7 0.755803 0.831368 0.202828
O O1 0.188986 0.616436 0.687210
O O2 0.116291 0.693819 0.942937
O O3 0.126613 0.588839 0.049410
O O4 0.000000 0.605057 0.000000
O O5 0.174192 0.800424 0.438128
O O6 0.149728 0.703928 0.332780
O O7 0.000000 0.782619 0.500000
O O8 0.023457 0.733915 0.715892
O O9 0.500000 0.718371 0.000000
O O10 0.651588 0.703387 0.996797
O O11 0.208577 0.500000 0.090529
O O12 0.240687 0.606999 0.141793
O O13 0.315474 0.572853 0.786661
O O14 0.500000 0.594402 0.500000
O O15 0.423386 0.500000 0.480074
O O16 0.379177 0.597184 0.424074
O O17 0.710944 0.660389 0.668225
#
# Coordination Sequence:
#
# PCOD8110004 Si02
#       7
#     8   8   8   8   8   8   8
#     4  10  21  40  66  89 123 164 209 255 308 368
#     4  12  25  38  60  91 127 161 208 251 314 377
#     4  11  22  38  62  92 131 166 199 252 319 379
#     4  10  24  42  63  91 124 166 216 260 307 366
#     4   9  20  40  62  87 121 163 214 261 302 363
#     4  11  22  38  61  90 126 160 207 251 311 377
#     4  12  24  40  61  94 133 165 202 260 316 373
#
# _framework density 20.578339
#
# number of rings (size 3 to 8) (size 9 to 14) (size 15 to 20)
#    0.000    1.286    2.857    3.429    6.000    2.000 
#    0.000    0.000    0.000   12.857    0.000    0.000 
#    0.000    0.000    0.000    0.000    0.000    0.000 
#
# Total GULP energy -347029.642061 kJ/mol
# GULP energy per Si atom -12393.915788 kJ/mol
# Density = 2.053150 g / cm^3
# Si number density = 20.578339 Si / 1000 Ang^3
#
#
#
# Elastic Constant Matrix: (Units=GPa)
#
#
# Indices 1 2 3 4 5 6 
#
# 1 135.5514 53.3926 20.9131 0.0000 -12.5700 0.0000
# 2 53.3926 106.6906 14.4237 0.0000 -1.5262 0.0000
# 3 20.9131 14.4237 46.6028 0.0000 -13.6993 0.0000
# 4 0.0000 0.0000 0.0000 -19.4684 0.0000 1.0542
# 5 -12.5700 -1.5262 -13.6993 0.0000 29.5649 0.0000
# 6 0.0000 0.0000 0.0000 1.0542 0.0000 35.6494
#
#
#
# Elastic Compliance Matrix: (Units=1/GPa)
#
#
# Indices 1 2 3 4 5 6 
#
# 1 0.009773 -0.004564 -0.002108 0.000000 0.002943 0.000000
# 2 -0.004564 0.011941 -0.002358 0.000000 -0.002417 0.000000
# 3 -0.002108 -0.002358 0.026435 0.000000 0.011231 0.000000
# 4 0.000000 0.000000 0.000000 -0.051283 0.000000 0.001517
# 5 0.002943 -0.002417 0.011231 0.000000 0.040154 0.000000
# 6 0.000000 0.000000 0.000000 0.001517 0.000000 0.028006
#
#
# Mechanical properties :
#
#
# Convention : Reuss Voigt Hill
#
# Bulk Modulus (GPa) = 33.23448 51.81151 42.52299
# Shear Modulus (GPa) = 53.69615 22.49021 38.09318
#
# Velocity S-wave (km/s) = 5.11372 3.30950 4.30714
# Velocity P-wave (km/s) = 7.14508 6.31158 6.74123
#
# Compressibility (1/GPa) = 0.03008923
#
# Stress axis : x y z
#
# Youngs Moduli (GPa) = 102.32245 83.74485 37.82821
#
# Poissons Ratio (x) = 0.38219 0.07975
# Poissons Ratio (y) = 0.46697 0.08921
# Poissons Ratio (z) = 0.21571 0.19749
#
# Static dielectric constant tensor:
#      x y z
#    x 4.044470 0.000000 -0.048330 
#    y 0.000000 3.681440 0.000000 
#    z -0.048330 0.000000 3.652520 
# 
# 
# High freq. dielectric constant tensor:
#      x y z
#    x 1.822800 0.000000 -0.011870 
#    y 0.000000 1.788740 0.000000 
#    z -0.011870 0.000000 1.794900 
# 
# From -- ./inp_files/79059.got.cif
#   From: 2010.06.25/outbox.cif.g09.slc.cpg/sg12_40_cif.got.tgz:79059.got - 2010.06.28 00:19:55.
