data_PCOD8110371
_publ_section_title
;
Structure prediction by ZEFSAII (Michael W. Deem and Ramdas Pophale) SiO2 
 PCOD8110371
Probable space group: C 2/M
;
_chemical_formula_sum "Si O2"
_cell_formula_units_Z 56
_cell_length_a 23.539010
_cell_length_b 17.049939
_cell_length_c 16.307125
_cell_angle_alpha 90.000000
_cell_angle_beta 23.046879
_cell_angle_gamma 90.000000
_cell_volume 2562.138513
_symmetry_space_group_name_H-M "C 2/M"
_symmetry_group_IT_number 12
_symmetry_cell_setting 'monoclinic'
loop_
_space_group_symop_operation_xyz
x,y,z
-x,y,-z
-x,-y,-z
x,-y,z
1/2+x,1/2+y,z
1/2-x,1/2+y,-z
1/2-x,1/2-y,-z
1/2+x,1/2-y,z
loop_
_atom_site_type_symbol
_atom_site_label
_atom_site_fract_x
_atom_site_fract_y
_atom_site_fract_z
Si Si1 0.732615 0.589880 0.567458
Si Si2 0.158257 0.086761 0.252995
Si Si3 0.843490 0.414581 0.247116
Si Si4 0.239821 0.289618 0.761328
Si Si5 0.751643 0.660307 0.971699
Si Si6 0.032549 0.196824 0.134734
Si Si7 0.436569 0.185555 0.404819
O O1 0.690798 0.500000 0.641620
O O2 0.846608 0.596538 0.340759
O O3 0.586048 0.635698 0.739212
O O4 0.812136 0.625308 0.541050
O O5 0.251186 0.154567 0.171564
O O6 0.000000 0.089968 0.500000
O O7 0.225666 0.000000 0.178079
O O8 0.157683 0.105650 0.157260
O O9 0.771973 0.500000 0.321726
O O10 0.754757 0.343360 0.326771
O O11 0.000000 0.411461 0.000000
O O12 0.375278 0.231843 0.565945
O O13 0.090574 0.242410 0.976525
O O14 0.922628 0.637258 0.749365
O O15 0.750000 0.750000 0.000000
O O16 0.673318 0.651961 0.987366
O O17 0.967467 0.255684 0.288490
#
# Coordination Sequence:
#
# PCOD8110371 Si02
#       7
#     8   8   8   8   8   8   8
#     4  11  25  45  65  91 132 173 217 274 325 383
#     4  11  23  37  62  99 133 167 207 266 335 393
#     4  10  22  37  59  93 130 165 203 262 333 391
#     4  12  23  37  68  91 130 164 214 270 319 384
#     4  10  21  42  61  91 135 171 211 256 307 396
#     4  11  23  42  66  96 130 172 222 261 323 387
#     4  11  23  41  65  95 128 171 222 261 324 389
#
# _framework density 21.856742000000001
#
# number of rings (size 3 to 8) (size 9 to 14) (size 15 to 20)
#    0.000    1.143    4.286    3.429    2.000    1.143 
#    0.000    1.429    0.000    0.000    0.000    3.000 
#    0.000    0.000    0.000    0.000    0.000    0.000 
#
# Total GULP energy -347048.368317 kJ/mol
# GULP energy per Si atom -12394.584583 kJ/mol
# Density = 2.180699 g / cm^3
# Si number density = 21.856742 Si / 1000 Ang^3
#
#
#
# Elastic Constant Matrix: (Units=GPa)
#
#
# Indices 1 2 3 4 5 6 
#
# 1 89.8058 47.1663 24.3731 0.0004 -25.1286 -0.0004
# 2 47.1663 112.6831 57.0065 0.0004 -5.6180 -0.0004
# 3 24.3731 57.0065 101.9877 0.0001 -8.1850 -0.0005
# 4 0.0004 0.0004 0.0001 16.5207 -0.0007 5.4642
# 5 -25.1286 -5.6180 -8.1850 -0.0007 43.3304 0.0005
# 6 -0.0004 -0.0004 -0.0005 5.4642 0.0005 28.9527
#
#
#
# Elastic Compliance Matrix: (Units=1/GPa)
#
#
# Indices 1 2 3 4 5 6 
#
# 1 0.017260 -0.007045 0.000551 0.000000 0.009200 0.000000
# 2 -0.007045 0.015253 -0.007119 0.000000 -0.003453 0.000000
# 3 0.000551 -0.007119 0.013814 0.000000 0.002006 0.000000
# 4 0.000000 0.000000 0.000000 0.064560 0.000001 -0.012184
# 5 0.009200 -0.003453 0.002006 0.000001 0.028345 -0.000001
# 6 0.000000 0.000000 0.000000 -0.012184 -0.000001 0.036839
#
#
# Mechanical properties :
#
#
# Convention : Reuss Voigt Hill
#
# Bulk Modulus (GPa) = 52.35339 62.39648 57.37493
# Shear Modulus (GPa) = 23.84796 29.48948 26.66872
#
# Velocity S-wave (km/s) = 3.30677 3.67715 3.49687
# Velocity P-wave (km/s) = 6.21165 6.82924 6.52775
#
# Compressibility (1/GPa) = 0.01910096
#
# Stress axis : x y z
#
# Youngs Moduli (GPa) = 57.93843 65.56277 72.39265
#
# Poissons Ratio (x) = 0.46187 -0.03991
# Poissons Ratio (y) = 0.40816 0.51537
# Poissons Ratio (z) = -0.03194 0.46674
#
# Static dielectric constant tensor:
#      x y z
#    x 4.137750 0.000000 -0.197630 
#    y 0.000000 4.198740 0.000000 
#    z -0.197630 0.000000 4.023290 
# 
# 
# High freq. dielectric constant tensor:
#      x y z
#    x 1.842560 0.000000 -0.001320 
#    y 0.000000 1.849970 0.000000 
#    z -0.001320 0.000000 1.859210 
# 
# From -- ./inp_files/293827.got.cif
#   From: 2010.06.25/outbox.cif.g09.slc.cpg/sg12_147_cif.got.tgz:293827.got - 2010.06.28 00:19:55.
