data_PCOD8110796
_publ_section_title
;
Structure prediction by ZEFSAII (Michael W. Deem and Ramdas Pophale) SiO2 
 PCOD8110796
Probable space group: C 2/M
;
_chemical_formula_sum "Si O2"
_cell_formula_units_Z 56
_cell_length_a 10.223792
_cell_length_b 23.806095
_cell_length_c 20.901514
_cell_angle_alpha 90.000000
_cell_angle_beta 145.267435
_cell_angle_gamma 90.000000
_cell_volume 2898.409466
_symmetry_space_group_name_H-M "C 2/M"
_symmetry_group_IT_number 12
_symmetry_cell_setting 'monoclinic'
loop_
_space_group_symop_operation_xyz
x,y,z
-x,y,-z
-x,-y,-z
x,-y,z
1/2+x,1/2+y,z
1/2-x,1/2+y,-z
1/2-x,1/2-y,-z
1/2+x,1/2-y,z
loop_
_atom_site_type_symbol
_atom_site_label
_atom_site_fract_x
_atom_site_fract_y
_atom_site_fract_z
Si Si1 0.492674 0.319495 0.069254
Si Si2 0.858226 0.891645 0.507840
Si Si3 0.271661 0.000000 0.326675
Si Si4 0.310325 0.500000 0.565126
Si Si5 0.902770 0.801660 0.311002
Si Si6 0.490622 0.186216 0.068618
Si Si7 0.787714 0.283915 0.370700
Si Si8 0.174715 0.382675 0.703633
O O1 0.527547 0.253037 0.087077
O O2 0.691775 0.351667 0.186484
O O3 0.500000 0.341203 0.000000
O O4 0.247026 0.335839 0.999190
O O5 0.916831 0.946045 0.573342
O O6 0.590892 0.886796 0.382624
O O7 0.000000 0.893900 0.500000
O O8 0.929615 0.838336 0.578314
O O9 0.538471 0.000000 0.450100
O O10 0.125313 0.000000 0.333745
O O11 0.214838 0.944224 0.262966
O O12 0.701477 0.838166 0.195860
O O13 0.781734 0.754284 0.305307
O O14 0.055323 0.772795 0.316770
O O15 0.500000 0.164202 0.000000
O O16 0.804089 0.348727 0.354804
O O17 0.000000 0.266853 0.500000
#
# Coordination Sequence:
#
# PCOD8110796 Si02
#       8
#     8   8   4   4   8   8   8   8
#     4  10  22  38  60  82 115 157 201 249 289 347
#     4  11  24  37  61  90 125 160 195 246 309 358
#     4   9  20  36  67  85 113 153 210 245 299 347
#     4   9  19  40  58  89 118 157 199 248 290 365
#     4  12  25  37  59  89 126 161 199 246 299 365
#     4  10  22  38  56  83 115 161 203 239 293 352
#     4  12  24  37  55  90 128 161 193 243 302 367
#     4  11  22  41  61  89 119 157 201 253 296 358
#
# _framework density 19.320943
#
# number of rings (size 3 to 8) (size 9 to 14) (size 15 to 20)
#    0.000    1.286    2.857    2.786   10.000    0.000 
#    0.000    0.357    0.000    0.857    0.000    3.000 
#    0.000    0.000    0.000    0.000    0.000    0.000 
#
# Total GULP energy -347281.668246 kJ/mol
# GULP energy per Si atom -12402.916723 kJ/mol
# Density = 1.927697 g / cm^3
# Si number density = 19.320943 Si / 1000 Ang^3
#
#
#
# Elastic Constant Matrix: (Units=GPa)
#
#
# Indices 1 2 3 4 5 6 
#
# 1 173.0641 37.8537 50.9299 0.0018 -6.3961 -0.0005
# 2 37.8537 81.1076 20.2980 0.0016 -6.1821 -0.0006
# 3 50.9299 20.2980 108.5225 0.0005 -3.3505 -0.0022
# 4 0.0018 0.0016 0.0005 2.5480 0.0019 4.6825
# 5 -6.3961 -6.1821 -3.3505 0.0019 30.8658 -0.0002
# 6 -0.0005 -0.0006 -0.0022 4.6825 -0.0002 14.1740
#
#
#
# Elastic Compliance Matrix: (Units=1/GPa)
#
#
# Indices 1 2 3 4 5 6 
#
# 1 0.007219 -0.002597 -0.002882 -0.000007 0.000663 0.000002
# 2 -0.002597 0.014039 -0.001341 -0.000022 0.002128 0.000008
# 3 -0.002882 -0.001341 0.010827 -0.000005 0.000310 0.000003
# 4 -0.000007 -0.000022 -0.000005 0.998897 -0.000070 -0.329997
# 5 0.000663 0.002128 0.000310 -0.000070 0.032996 0.000024
# 6 0.000002 0.000008 0.000003 -0.329997 0.000024 0.179570
#
#
# Mechanical properties :
#
#
# Convention : Reuss Voigt Hill
#
# Bulk Modulus (GPa) = 54.21451 64.53970 59.37711
# Shear Modulus (GPa) = 3.95777 26.42507 15.19142
#
# Velocity S-wave (km/s) = 1.43279 3.70224 2.80709
# Velocity P-wave (km/s) = 5.55500 7.19389 6.42690
#
# Compressibility (1/GPa) = 0.01844525
#
# Stress axis : x y z
#
# Youngs Moduli (GPa) = 138.52689 71.22805 92.35818
#
# Poissons Ratio (x) = 0.18501 0.26613
# Poissons Ratio (y) = 0.35981 0.12387
# Poissons Ratio (z) = 0.39917 0.09553
#
# Static dielectric constant tensor:
#      x y z
#    x 3.417360 0.000000 0.070810 
#    y 0.000000 3.447220 -0.000010 
#    z 0.070810 -0.000010 3.401320 
# 
# 
# High freq. dielectric constant tensor:
#      x y z
#    x 1.768970 0.000000 -0.007640 
#    y 0.000000 1.721640 0.000000 
#    z -0.007640 0.000000 1.747950 
# 
# From -- ./inp_files/259886.got.cif
#   From: 2010.06.25/outbox.cif.g09.slc.cpg/sg12_130_cif.got.tgz:259886.got - 2010.06.28 00:19:55.
