data_PCOD8110279
_publ_section_title
;
Structure prediction by ZEFSAII (Michael W. Deem and Ramdas Pophale) SiO2 
 PCOD8110279
Probable space group: C 2/M
;
_chemical_formula_sum "Si O2"
_cell_formula_units_Z 52
_cell_length_a 21.507995
_cell_length_b 14.670766
_cell_length_c 16.236188
_cell_angle_alpha 90.000000
_cell_angle_beta 153.141327
_cell_angle_gamma 90.000000
_cell_volume 2314.593319
_symmetry_space_group_name_H-M "C 2/M"
_symmetry_group_IT_number 12
_symmetry_cell_setting 'monoclinic'
loop_
_space_group_symop_operation_xyz
x,y,z
-x,y,-z
-x,-y,-z
x,-y,z
1/2+x,1/2+y,z
1/2-x,1/2+y,-z
1/2-x,1/2-y,-z
1/2+x,1/2-y,z
loop_
_atom_site_type_symbol
_atom_site_label
_atom_site_fract_x
_atom_site_fract_y
_atom_site_fract_z
Si Si1 0.341088 0.896539 0.289864
Si Si2 0.421212 0.393572 0.595809
Si Si3 0.699703 0.100619 0.468101
Si Si4 0.772927 0.270230 0.354229
Si Si5 0.739474 0.393221 0.992958
Si Si6 0.088045 0.397971 0.953410
Si Si7 0.000000 0.703348 0.000000
O O1 0.500000 0.896348 0.500000
O O2 0.270621 0.823647 0.265686
O O3 0.282111 0.000000 0.231092
O O4 0.310013 0.859550 0.161068
O O5 0.405563 0.500000 0.549695
O O6 0.337408 0.374271 0.580753
O O7 0.359296 0.325126 0.453210
O O8 0.579179 0.367653 0.799685
O O9 0.664487 0.169089 0.499402
O O10 0.573358 0.103105 0.256461
O O11 0.714925 0.000000 0.525300
O O12 0.610741 0.259275 0.184245
O O13 0.763918 0.500000 0.017250
O O14 0.820842 0.349246 0.010885
O O15 0.143698 0.500000 0.030485
O O16 0.101644 0.351355 0.058484
#
# Coordination Sequence:
#
# PCOD8110279 Si02
#       7
#     8   8   8   8   8   8   4
#     4  10  22  43  68  98 132 167 212 268 326 384
#     4  10  22  41  65  93 129 173 217 266 320 380
#     4  10  21  41  67  90 123 174 219 262 319 380
#     4  12  25  39  63  95 134 169 216 267 323 384
#     4   9  20  40  68  95 124 166 218 266 321 381
#     4  10  21  42  68  92 123 171 219 265 315 381
#     4  12  27  38  59  96 134 166 216 264 322 386
#
# _framework density 22.466149000000001
#
# number of rings (size 3 to 8) (size 9 to 14) (size 15 to 20)
#    0.000    1.692    1.538    2.077    2.154    4.308 
#    0.000    3.077    0.000    3.231    0.000    0.000 
#    0.000    0.000    0.000    0.000    0.000    0.000 
#
# Total GULP energy -322298.462901 kJ/mol
# GULP energy per Si atom -12396.094727 kJ/mol
# Density = 2.241502 g / cm^3
# Si number density = 22.466149 Si / 1000 Ang^3
#
#
#
# Elastic Constant Matrix: (Units=GPa)
#
#
# Indices 1 2 3 4 5 6 
#
# 1 139.5531 44.9811 37.4924 0.0000 2.7046 -0.0001
# 2 44.9811 89.4615 29.7981 0.0000 -7.8659 0.0000
# 3 37.4924 29.7981 99.2501 0.0001 11.4833 0.0000
# 4 0.0000 0.0000 0.0001 15.4857 0.0001 -7.6859
# 5 2.7046 -7.8659 11.4833 0.0001 36.2358 0.0000
# 6 -0.0001 0.0000 0.0000 -7.6859 0.0000 22.5098
#
#
#
# Elastic Compliance Matrix: (Units=1/GPa)
#
#
# Indices 1 2 3 4 5 6 
#
# 1 0.009011 -0.003892 -0.002138 0.000000 -0.000840 0.000000
# 2 -0.003892 0.014694 -0.003471 0.000000 0.004580 0.000000
# 3 -0.002138 -0.003471 0.012451 0.000000 -0.004540 0.000000
# 4 0.000000 0.000000 0.000000 0.077752 0.000000 0.026548
# 5 -0.000840 0.004580 -0.004540 0.000000 0.030093 0.000000
# 6 0.000000 0.000000 0.000000 0.026548 0.000000 0.053490
#
#
# Mechanical properties :
#
#
# Convention : Reuss Voigt Hill
#
# Bulk Modulus (GPa) = 58.30156 61.42311 59.86233
# Shear Modulus (GPa) = 22.50113 29.24580 25.87346
#
# Velocity S-wave (km/s) = 3.16817 3.61192 3.39730
# Velocity P-wave (km/s) = 6.27617 6.69285 6.48786
#
# Compressibility (1/GPa) = 0.01715220
#
# Stress axis : x y z
#
# Youngs Moduli (GPa) = 110.97468 68.05507 80.31699
#
# Poissons Ratio (x) = 0.26490 0.17173
# Poissons Ratio (y) = 0.43196 0.27879
# Poissons Ratio (z) = 0.23728 0.23623
#
# Static dielectric constant tensor:
#      x y z
#    x 3.984020 0.000000 0.027710 
#    y 0.000000 4.211210 0.000000 
#    z 0.027710 0.000000 3.842250 
# 
# 
# High freq. dielectric constant tensor:
#      x y z
#    x 1.878620 0.000000 0.003650 
#    y 0.000000 1.884060 0.000000 
#    z 0.003650 0.000000 1.885460 
# 
# From -- ./inp_files/234482.got.cif
#   From: 2010.06.25/outbox.cif.g09.slc.cpg/sg12_118_cif.got.tgz:234482.got - 2010.06.28 00:19:55.
