data_PCOD8110327
_publ_section_title
;
Structure prediction by ZEFSAII (Michael W. Deem and Ramdas Pophale) SiO2 
 PCOD8110327
Probable space group: C 2/M
;
_chemical_formula_sum "Si O2"
_cell_formula_units_Z 40
_cell_length_a 14.644907
_cell_length_b 17.439113
_cell_length_c 13.684648
_cell_angle_alpha 90.000000
_cell_angle_beta 149.603176
_cell_angle_gamma 90.000000
_cell_volume 1768.410565
_symmetry_space_group_name_H-M "C 2/M"
_symmetry_group_IT_number 12
_symmetry_cell_setting 'monoclinic'
loop_
_space_group_symop_operation_xyz
x,y,z
-x,y,-z
-x,-y,-z
x,-y,z
1/2+x,1/2+y,z
1/2-x,1/2+y,-z
1/2-x,1/2-y,-z
1/2+x,1/2-y,z
loop_
_atom_site_type_symbol
_atom_site_label
_atom_site_fract_x
_atom_site_fract_y
_atom_site_fract_z
Si Si1 0.081416 0.410596 0.175578
Si Si2 0.669562 0.161039 0.546013
Si Si3 0.726935 0.410981 0.951898
Si Si4 0.601101 0.668365 0.432763
Si Si5 0.701180 0.088448 0.769654
O O1 0.119126 0.500000 0.204186
O O2 0.274031 0.372115 0.372138
O O3 0.000000 0.378814 0.000000
O O4 0.936016 0.388631 0.124814
O O5 0.582449 0.244588 0.450633
O O6 0.816447 0.150919 0.597785
O O7 0.761930 0.146168 0.738199
O O8 0.509834 0.098553 0.396923
O O9 0.697152 0.500000 0.900628
O O10 0.600160 0.364824 0.759867
O O11 0.685099 0.392360 0.027016
O O12 0.733684 0.000000 0.769129
#
# Coordination Sequence:
#
# PCOD8110327 Si02
#       5
#     8   8   8   8   8
#     4  10  22  41  63  90 124 166 214 260 312 373
#     4  10  22  39  59  96 127 170 208 250 325 383
#     4  10  22  40  68  97 122 165 215 266 322 373
#     4  11  23  41  60  93 132 165 210 257 316 385
#     4  10  21  41  68  96 127 167 215 267 321 376
#
# _framework density 22.619181000000001
#
# number of rings (size 3 to 8) (size 9 to 14) (size 15 to 20)
#    0.000    1.800    2.000    1.800    0.000    8.000 
#    7.200    5.000    0.000    0.000    0.000    0.000 
#    0.000    0.000    0.000    0.000    0.000    0.000 
#
# Total GULP energy -247899.867097 kJ/mol
# GULP energy per Si atom -12394.993355 kJ/mol
# Density = 2.256770 g / cm^3
# Si number density = 22.619181 Si / 1000 Ang^3
#
#
#
# Elastic Constant Matrix: (Units=GPa)
#
#
# Indices 1 2 3 4 5 6 
#
# 1 78.0074 20.8625 -2.6767 0.0000 -28.5575 0.0000
# 2 20.8625 60.6318 19.0582 0.0000 -14.3437 0.0000
# 3 -2.6767 19.0582 93.7007 0.0000 -22.7561 0.0000
# 4 0.0000 0.0000 0.0000 17.5971 0.0001 -6.0688
# 5 -28.5575 -14.3437 -22.7561 0.0001 33.0297 0.0000
# 6 0.0000 0.0000 0.0000 -6.0688 0.0000 31.7896
#
#
#
# Elastic Compliance Matrix: (Units=1/GPa)
#
#
# Indices 1 2 3 4 5 6 
#
# 1 0.022418 -0.004662 0.006971 0.000000 0.022160 0.000000
# 2 -0.004662 0.019723 -0.003655 0.000000 0.002016 0.000000
# 3 0.006971 -0.003655 0.015244 0.000000 0.014942 0.000000
# 4 0.000000 0.000000 0.000000 0.060833 0.000000 0.011613
# 5 0.022160 0.002016 0.014942 0.000000 0.060605 0.000000
# 6 0.000000 0.000000 0.000000 0.011613 0.000000 0.033674
#
#
# Mechanical properties :
#
#
# Convention : Reuss Voigt Hill
#
# Bulk Modulus (GPa) = 18.28459 34.09198 26.18829
# Shear Modulus (GPa) = 21.42057 29.48967 25.45512
#
# Velocity S-wave (km/s) = 3.08069 3.61466 3.35830
# Velocity P-wave (km/s) = 4.55581 5.70315 5.16146
#
# Compressibility (1/GPa) = 0.05469086
#
# Stress axis : x y z
#
# Youngs Moduli (GPa) = 44.60695 50.70228 65.60142
#
# Poissons Ratio (x) = 0.23639 -0.45728
# Poissons Ratio (y) = 0.20797 0.23978
# Poissons Ratio (z) = -0.31094 0.18533
#
# Static dielectric constant tensor:
#      x y z
#    x 4.199000 0.000000 -0.315120 
#    y 0.000000 3.831270 0.000000 
#    z -0.315120 0.000000 3.971320 
# 
# 
# High freq. dielectric constant tensor:
#      x y z
#    x 1.895450 0.000000 -0.019630 
#    y 0.000000 1.876200 0.000000 
#    z -0.019630 0.000000 1.890110 
# 
# From -- ./inp_files/216944.got.cif
#   From: 2010.06.25/outbox.cif.g09.slc.cpg/sg12_109_cif.got.tgz:216944.got - 2010.06.28 00:19:55.
