data_PCOD8110354
_publ_section_title
;
Structure prediction by ZEFSAII (Michael W. Deem and Ramdas Pophale) SiO2 
 PCOD8110354
Probable space group: C 2/M
;
_chemical_formula_sum "Si O2"
_cell_formula_units_Z 32
_cell_length_a 12.712727
_cell_length_b 14.042118
_cell_length_c 8.726352
_cell_angle_alpha 90.000000
_cell_angle_beta 124.401076
_cell_angle_gamma 90.000000
_cell_volume 1285.322688
_symmetry_space_group_name_H-M "C 2/M"
_symmetry_group_IT_number 12
_symmetry_cell_setting 'monoclinic'
loop_
_space_group_symop_operation_xyz
x,y,z
-x,y,-z
-x,-y,-z
x,-y,z
1/2+x,1/2+y,z
1/2-x,1/2+y,-z
1/2-x,1/2-y,-z
1/2+x,1/2-y,z
loop_
_atom_site_type_symbol
_atom_site_label
_atom_site_fract_x
_atom_site_fract_y
_atom_site_fract_z
Si Si1 0.378134 0.390250 0.308515
Si Si2 0.533226 0.109474 0.698291
Si Si3 0.328860 0.607843 0.930625
Si Si4 0.835349 0.273259 0.714720
O O1 0.500000 0.348033 0.500000
O O2 0.357743 0.500000 0.335459
O O3 0.247859 0.337303 0.240470
O O4 0.406595 0.376037 0.151745
O O5 0.500000 0.144987 0.500000
O O6 0.681444 0.126219 0.847749
O O7 0.461713 0.171226 0.767444
O O8 0.491685 0.000000 0.684411
O O9 0.348672 0.500000 0.885822
O O10 0.378562 0.677223 0.838183
O O11 0.750000 0.250000 0.500000
#
# Coordination Sequence:
#
# PCOD8110354 Si02
#       4
#     8   8   8   8
#     4  10  24  47  71  99 139 183 231 289 348 409
#     4  10  21  41  70 103 140 179 228 286 342 406
#     4  10  23  46  73 102 140 184 231 285 344 411
#     4  12  24  39  71 104 139 178 231 282 348 412
#
# _framework density 24.896471999999999
#
# number of rings (size 3 to 8) (size 9 to 14) (size 15 to 20)
#    0.000    1.500    2.500    1.500    3.500    2.000 
#    4.500    3.750    0.000    5.250    0.000    0.000 
#    0.000    0.000    0.000    0.000    0.000    0.000 
#
# Total GULP energy -198505.547849 kJ/mol
# GULP energy per Si atom -12406.596741 kJ/mol
# Density = 2.483981 g / cm^3
# Si number density = 24.896472 Si / 1000 Ang^3
#
#
#
# Elastic Constant Matrix: (Units=GPa)
#
#
# Indices 1 2 3 4 5 6 
#
# 1 133.7626 76.0990 37.7929 0.0000 -16.3468 0.0000
# 2 76.0990 150.7266 57.5074 0.0000 -30.0433 0.0000
# 3 37.7929 57.5074 158.4216 0.0000 -2.8751 0.0000
# 4 0.0000 0.0000 0.0000 31.4978 0.0000 -27.1764
# 5 -16.3468 -30.0433 -2.8751 0.0000 32.3651 0.0000
# 6 0.0000 0.0000 0.0000 -27.1764 0.0000 32.5692
#
#
#
# Elastic Compliance Matrix: (Units=1/GPa)
#
#
# Indices 1 2 3 4 5 6 
#
# 1 0.010564 -0.004917 -0.000722 0.000000 0.000707 0.000000
# 2 -0.004917 0.011920 -0.003003 0.000000 0.008315 0.000000
# 3 -0.000722 -0.003003 0.007530 0.000000 -0.002484 0.000000
# 4 0.000000 0.000000 0.000000 0.113362 0.000000 0.094591
# 5 0.000707 0.008315 -0.002484 0.000000 0.038752 0.000000
# 6 0.000000 0.000000 0.000000 0.094591 0.000000 0.109633
#
#
# Mechanical properties :
#
#
# Convention : Reuss Voigt Hill
#
# Bulk Modulus (GPa) = 78.56280 87.30106 82.93193
# Shear Modulus (GPa) = 15.95974 37.38717 26.67345
#
# Velocity S-wave (km/s) = 2.53463 3.87939 3.27674
# Velocity P-wave (km/s) = 6.33957 7.43021 6.90645
#
# Compressibility (1/GPa) = 0.01272867
#
# Stress axis : x y z
#
# Youngs Moduli (GPa) = 94.66377 83.89195 132.80759
#
# Poissons Ratio (x) = 0.41248 0.09594
# Poissons Ratio (y) = 0.46545 0.39884
# Poissons Ratio (z) = 0.06839 0.25194
#
# Static dielectric constant tensor:
#      x y z
#    x 4.417270 0.000000 0.066160 
#    y 0.000000 4.746970 0.000000 
#    z 0.066160 0.000000 4.616370 
# 
# 
# High freq. dielectric constant tensor:
#      x y z
#    x 1.991680 0.000000 0.004230 
#    y 0.000000 2.006690 0.000000 
#    z 0.004230 0.000000 2.001120 
# 
# From -- ./inp_files/45400.got.cif
#   From: 2010.06.25/outbox.cif.g09.slc.cpg/sg12_23_cif.got.tgz:45400.got - 2010.06.28 00:19:55.
