data_PCOD8110400
_publ_section_title
;
Structure prediction by ZEFSAII (Michael W. Deem and Ramdas Pophale) SiO2 
 PCOD8110400
Probable space group: C 2/M
;
_chemical_formula_sum "Si O2"
_cell_formula_units_Z 44
_cell_length_a 9.564786
_cell_length_b 23.669505
_cell_length_c 13.037123
_cell_angle_alpha 90.000000
_cell_angle_beta 50.549002
_cell_angle_gamma 90.000000
_cell_volume 2279.072639
_symmetry_space_group_name_H-M "C 2/M"
_symmetry_group_IT_number 12
_symmetry_cell_setting 'monoclinic'
loop_
_space_group_symop_operation_xyz
x,y,z
-x,y,-z
-x,-y,-z
x,-y,z
1/2+x,1/2+y,z
1/2-x,1/2+y,-z
1/2-x,1/2-y,-z
1/2+x,1/2-y,z
loop_
_atom_site_type_symbol
_atom_site_label
_atom_site_fract_x
_atom_site_fract_y
_atom_site_fract_z
Si Si1 0.298468 0.191641 0.109730
Si Si2 0.951151 0.412177 0.769343
Si Si3 0.644571 0.000000 0.020820
Si Si4 0.690659 0.317643 0.932800
Si Si5 0.962967 0.000000 0.724771
Si Si6 0.847300 0.108780 0.650963
Si Si7 0.152814 0.500000 0.347605
O O1 0.310120 0.258343 0.129042
O O2 0.197656 0.158758 0.248155
O O3 0.500000 0.165973 0.000000
O O4 0.189146 0.187183 0.055853
O O5 0.881477 0.443395 0.903035
O O6 0.864694 0.350253 0.808957
O O7 0.873226 0.444027 0.707396
O O8 0.168853 0.408440 0.669237
O O9 0.500000 0.000000 0.000000
O O10 0.843483 0.000000 0.882320
O O11 0.500000 0.349224 0.000000
O O12 0.923897 0.945350 0.674419
O O13 0.163534 0.000000 0.674518
O O14 0.000000 0.130192 0.500000
O O15 0.000000 0.500000 0.500000
#
# Coordination Sequence:
#
# PCOD8110400 Si02
#       7
#     8   8   4   8   4   8   4
#     4  10  21  42  66  91 121 161 208 257 307 361
#     4  11  23  40  62  89 127 161 206 255 308 364
#     4  11  21  37  62  96 116 154 208 264 297 351
#     4  10  22  38  66  93 122 156 205 261 315 359
#     4  12  24  38  66  91 124 163 205 253 312 366
#     4  12  24  41  65  92 123 166 211 250 300 376
#     4  11  26  44  56  85 133 169 195 245 318 376
#
# _framework density 19.306097000000001
#
# number of rings (size 3 to 8) (size 9 to 14) (size 15 to 20)
#    0.000    1.091    3.636    3.000    5.091    0.727 
#    0.000    1.818    0.000    0.000    0.000    0.000 
#    0.000    0.000    0.000    0.000    0.000    0.000 
#
# Total GULP energy -272806.746717 kJ/mol
# GULP energy per Si atom -12400.306669 kJ/mol
# Density = 1.926216 g / cm^3
# Si number density = 19.306097 Si / 1000 Ang^3
#
#
#
# Elastic Constant Matrix: (Units=GPa)
#
#
# Indices 1 2 3 4 5 6 
#
# 1 150.8268 42.7653 47.4730 0.0000 -24.3451 0.0000
# 2 42.7653 103.4087 57.6769 0.0000 -1.2688 0.0000
# 3 47.4730 57.6769 149.1230 0.0000 -16.9209 0.0000
# 4 0.0000 0.0000 0.0000 0.2260 0.0000 -5.6270
# 5 -24.3451 -1.2688 -16.9209 0.0000 32.5790 0.0000
# 6 0.0000 0.0000 0.0000 -5.6270 0.0000 29.3145
#
#
#
# Elastic Compliance Matrix: (Units=1/GPa)
#
#
# Indices 1 2 3 4 5 6 
#
# 1 0.008738 -0.003014 -0.000944 0.000000 0.005922 0.000000
# 2 -0.003014 0.013510 -0.004741 0.000000 -0.004189 0.000000
# 3 -0.000944 -0.004741 0.009286 0.000000 0.003933 0.000000
# 4 0.000000 0.000000 0.000000 -1.170733 0.000000 -0.224726
# 5 0.005922 -0.004189 0.003933 0.000000 0.036999 0.000000
# 6 0.000000 0.000000 0.000000 -0.224726 0.000000 -0.009024
#
#
# Mechanical properties :
#
#
# Convention : Reuss Voigt Hill
#
# Bulk Modulus (GPa) = 70.74353 77.68765 74.21559
# Shear Modulus (GPa) = -4.59089 29.45345 12.43128
#
# Velocity S-wave (km/s) = -1.54373 3.91013 2.54028
# Velocity P-wave (km/s) = 5.79182 7.79185 6.86506
#
# Compressibility (1/GPa) = 0.01413557
#
# Stress axis : x y z
#
# Youngs Moduli (GPa) = 114.44602 74.01974 107.68566
#
# Poissons Ratio (x) = 0.22313 0.10163
# Poissons Ratio (y) = 0.34500 0.51053
# Poissons Ratio (z) = 0.10801 0.35092
#
# Static dielectric constant tensor:
#      x y z
#    x 3.513410 0.000000 -0.178440 
#    y 0.000000 3.696810 0.000000 
#    z -0.178440 0.000000 3.376480 
# 
# 
# High freq. dielectric constant tensor:
#      x y z
#    x 1.772430 0.000000 -0.004690 
#    y 0.000000 1.751370 0.000000 
#    z -0.004690 0.000000 1.738770 
# 
# From -- ./inp_files/124114.got.cif
#   From: 2010.06.25/outbox.cif.g09.slc.cpg/sg12_63_cif.got.tgz:124114.got - 2010.06.28 00:19:55.
