data_PCOD8110675
_publ_section_title
;
Structure prediction by ZEFSAII (Michael W. Deem and Ramdas Pophale) SiO2 
 PCOD8110675
Probable space group: C 2/M
;
_chemical_formula_sum "Si O2"
_cell_formula_units_Z 56
_cell_length_a 27.299060
_cell_length_b 17.417102
_cell_length_c 9.455007
_cell_angle_alpha 90.000000
_cell_angle_beta 37.078032
_cell_angle_gamma 90.000000
_cell_volume 2710.393002
_symmetry_space_group_name_H-M "C 2/M"
_symmetry_group_IT_number 12
_symmetry_cell_setting 'monoclinic'
loop_
_space_group_symop_operation_xyz
x,y,z
-x,y,-z
-x,-y,-z
x,-y,z
1/2+x,1/2+y,z
1/2-x,1/2+y,-z
1/2-x,1/2-y,-z
1/2+x,1/2-y,z
loop_
_atom_site_type_symbol
_atom_site_label
_atom_site_fract_x
_atom_site_fract_y
_atom_site_fract_z
Si Si1 0.755035 0.410833 0.497773
Si Si2 0.080507 0.680964 0.368979
Si Si3 0.474952 0.655671 0.409722
Si Si4 0.781420 0.340785 0.734736
Si Si5 0.210711 0.320445 0.844573
Si Si6 0.311418 0.412492 0.812700
Si Si7 0.931526 0.912126 0.043131
O O1 0.774844 0.500000 0.419013
O O2 0.784208 0.393503 0.589751
O O3 0.802801 0.351652 0.284010
O O4 0.659271 0.393347 0.695355
O O5 0.045384 0.755404 0.527755
O O6 0.138010 0.641435 0.355102
O O7 0.000000 0.633107 0.500000
O O8 0.128284 0.703212 0.114852
O O9 0.500000 0.618243 0.500000
O O10 0.396370 0.607700 0.542162
O O11 0.549177 0.644124 0.131090
O O12 0.772947 0.251585 0.709478
O O13 0.703721 0.362288 0.010694
O O14 0.244978 0.394284 0.847501
O O15 0.305162 0.500000 0.871894
O O16 0.936442 0.000000 0.981048
O O17 0.000000 0.893919 0.000000
#
# Coordination Sequence:
#
# PCOD8110675 Si02
#       7
#     8   8   8   8   8   8   8
#     4  11  24  40  63  92 124 165 207 249 306 368
#     4  10  22  40  63  89 120 156 206 259 312 360
#     4  11  20  34  55  86 126 158 196 240 295 363
#     4  11  21  40  60  90 124 160 206 261 297 358
#     4  11  21  41  61  87 123 162 204 252 299 362
#     4  11  20  34  60  87 120 164 204 247 298 356
#     4  10  22  37  54  87 133 168 193 230 293 377
#
# _framework density 20.661210000000001
#
# number of rings (size 3 to 8) (size 9 to 14) (size 15 to 20)
#    0.000    1.286    2.857    4.286    2.000    3.429 
#    0.000    0.714    0.000   16.286    0.000    0.000 
#    0.000    0.000    0.000    0.000    0.000    0.000 
#
# Total GULP energy -347052.345668 kJ/mol
# GULP energy per Si atom -12394.726631 kJ/mol
# Density = 2.061418 g / cm^3
# Si number density = 20.661210 Si / 1000 Ang^3
#
#
#
# Elastic Constant Matrix: (Units=GPa)
#
#
# Indices 1 2 3 4 5 6 
#
# 1 96.6216 11.8473 13.9380 0.0000 -2.3072 0.0000
# 2 11.8473 70.0671 14.9123 0.0000 3.8626 0.0000
# 3 13.9380 14.9123 50.4289 0.0000 11.1851 0.0000
# 4 0.0000 0.0000 0.0000 29.4874 0.0000 7.3658
# 5 -2.3072 3.8626 11.1851 0.0000 34.9536 0.0000
# 6 0.0000 0.0000 0.0000 7.3658 0.0000 28.2061
#
#
#
# Elastic Compliance Matrix: (Units=1/GPa)
#
#
# Indices 1 2 3 4 5 6 
#
# 1 0.010996 -0.001310 -0.003062 0.000000 0.001851 0.000000
# 2 -0.001310 0.015389 -0.004082 0.000000 -0.000481 0.000000
# 3 -0.003062 -0.004082 0.023496 0.000000 -0.007270 0.000000
# 4 0.000000 0.000000 0.000000 0.036279 0.000000 -0.009474
# 5 0.001851 -0.000481 -0.007270 0.000000 0.031111 0.000000
# 6 0.000000 0.000000 0.000000 -0.009474 0.000000 0.037927
#
#
# Mechanical properties :
#
#
# Convention : Reuss Voigt Hill
#
# Bulk Modulus (GPa) = 30.32806 33.16810 31.74808
# Shear Modulus (GPa) = 27.30789 30.29075 28.79932
#
# Velocity S-wave (km/s) = 3.63946 3.83308 3.73753
# Velocity P-wave (km/s) = 5.68960 5.97312 5.83308
#
# Compressibility (1/GPa) = 0.03297277
#
# Stress axis : x y z
#
# Youngs Moduli (GPa) = 90.94067 64.98256 42.56073
#
# Poissons Ratio (x) = 0.08510 0.13034
# Poissons Ratio (y) = 0.11909 0.17373
# Poissons Ratio (z) = 0.27850 0.26526
#
# Static dielectric constant tensor:
#      x y z
#    x 4.008240 0.000000 -0.136590 
#    y 0.000000 3.447070 0.000000 
#    z -0.136590 0.000000 3.918080 
# 
# 
# High freq. dielectric constant tensor:
#      x y z
#    x 1.810500 0.000000 0.006100 
#    y 0.000000 1.786850 0.000000 
#    z 0.006100 0.000000 1.801580 
# 
# From -- ./inp_files/75852.got.cif
#   From: 2010.06.25/outbox.cif.g09.slc.cpg/sg12_38_cif.got.tgz:75852.got - 2010.06.28 00:19:55.
