data_PCOD8110576
_publ_section_title
;
Structure prediction by ZEFSAII (Michael W. Deem and Ramdas Pophale) SiO2 
 PCOD8110576
Probable space group: C 2/M
;
_chemical_formula_sum "Si O2"
_cell_formula_units_Z 48
_cell_length_a 11.230772
_cell_length_b 16.904036
_cell_length_c 12.240594
_cell_angle_alpha 90.000000
_cell_angle_beta 64.693324
_cell_angle_gamma 90.000000
_cell_volume 2100.809516
_symmetry_space_group_name_H-M "C 2/M"
_symmetry_group_IT_number 12
_symmetry_cell_setting 'monoclinic'
loop_
_space_group_symop_operation_xyz
x,y,z
-x,y,-z
-x,-y,-z
x,-y,z
1/2+x,1/2+y,z
1/2-x,1/2+y,-z
1/2-x,1/2-y,-z
1/2+x,1/2-y,z
loop_
_atom_site_type_symbol
_atom_site_label
_atom_site_fract_x
_atom_site_fract_y
_atom_site_fract_z
Si Si1 0.146932 0.229151 0.443781
Si Si2 0.740150 0.906528 0.069838
Si Si3 0.974210 0.334608 0.137301
Si Si4 0.931454 0.092701 0.391608
Si Si5 0.661332 0.315296 0.768829
Si Si6 0.789671 0.906716 0.804039
O O1 0.250000 0.250000 0.500000
O O2 0.120816 0.134922 0.477356
O O3 0.213558 0.256829 0.304016
O O4 0.000000 0.269786 0.500000
O O5 0.589464 0.881365 0.154263
O O6 0.830554 0.858980 0.118767
O O7 0.757324 0.000000 0.080348
O O8 0.784154 0.878009 0.932419
O O9 0.965730 0.242972 0.178902
O O10 0.835272 0.377437 0.216746
O O11 0.000000 0.340871 0.000000
O O12 0.844572 0.117258 0.321053
O O13 0.078080 0.124994 0.305334
O O14 0.922462 0.000000 0.416391
O O15 0.791254 0.000000 0.804870
#
# Coordination Sequence:
#
# PCOD8110576 Si02
#       6
#     8   8   8   8   8   8
#     4  10  23  42  65  88 122 162 210 262 317 367
#     4  10  22  39  61  91 130 168 203 249 315 381
#     4  10  22  35  60  92 128 164 208 250 304 375
#     4  10  22  41  64  89 122 161 207 257 310 372
#     4  11  24  37  63  90 127 161 207 257 317 368
#     4   9  19  37  62  91 124 162 204 252 304 371
#
# _framework density 22.848334999999999
#
# number of rings (size 3 to 8) (size 9 to 14) (size 15 to 20)
#    0.000    2.000    0.000    2.000    9.333    3.667 
#    0.000    4.167    0.000    2.500    0.000    0.000 
#    0.000    0.000    0.000    0.000    0.000    0.000 
#
# Total GULP energy -297370.244849 kJ/mol
# GULP energy per Si atom -12390.426869 kJ/mol
# Density = 2.279633 g / cm^3
# Si number density = 22.848335 Si / 1000 Ang^3
#
#
#
# Elastic Constant Matrix: (Units=GPa)
#
#
# Indices 1 2 3 4 5 6 
#
# 1 81.5459 22.8920 28.6769 0.0000 -4.5604 0.0000
# 2 22.8920 86.5652 43.8933 0.0000 -12.4474 0.0000
# 3 28.6769 43.8933 72.3498 0.0000 -0.4988 0.0000
# 4 0.0000 0.0000 0.0000 38.3221 0.0000 0.6763
# 5 -4.5604 -12.4474 -0.4988 0.0000 35.8021 0.0000
# 6 0.0000 0.0000 0.0000 0.6763 0.0000 31.8230
#
#
#
# Elastic Compliance Matrix: (Units=1/GPa)
#
#
# Indices 1 2 3 4 5 6 
#
# 1 0.014418 -0.001037 -0.005076 0.000000 0.001405 0.000000
# 2 -0.001037 0.017991 -0.010462 0.000000 0.005977 0.000000
# 3 -0.005076 -0.010462 0.022154 0.000000 -0.003975 0.000000
# 4 0.000000 0.000000 0.000000 0.026104 0.000000 -0.000555
# 5 0.001405 0.005977 -0.003975 0.000000 0.030133 0.000000
# 6 0.000000 0.000000 0.000000 -0.000555 0.000000 0.031436
#
#
# Mechanical properties :
#
#
# Convention : Reuss Voigt Hill
#
# Bulk Modulus (GPa) = 46.70382 47.93171 47.31776
# Shear Modulus (GPa) = 27.39386 30.85600 29.12493
#
# Velocity S-wave (km/s) = 3.46633 3.67886 3.57418
# Velocity P-wave (km/s) = 6.04200 6.25053 6.14715
#
# Compressibility (1/GPa) = 0.02141152
#
# Stress axis : x y z
#
# Youngs Moduli (GPa) = 69.35906 55.58441 45.13945
#
# Poissons Ratio (x) = 0.05764 0.22912
# Poissons Ratio (y) = 0.07192 0.47227
# Poissons Ratio (z) = 0.35206 0.58155
#
# Static dielectric constant tensor:
#      x y z
#    x 4.434000 0.000000 -0.268100 
#    y 0.000000 4.063960 0.000000 
#    z -0.268100 0.000000 4.327920 
# 
# 
# High freq. dielectric constant tensor:
#      x y z
#    x 1.904680 0.000000 -0.001210 
#    y 0.000000 1.900020 0.000000 
#    z -0.001210 0.000000 1.907440 
# 
# From -- ./inp_files/204870.got.cif
#   From: 2010.06.25/outbox.cif.g09.slc.cpg/sg12_103_cif.got.tgz:204870.got - 2010.06.28 00:19:55.
