data_PCOD8110311
_publ_section_title
;
Structure prediction by ZEFSAII (Michael W. Deem and Ramdas Pophale) SiO2 
 PCOD8110311
Probable space group: C 2/M
;
_chemical_formula_sum "Si O2"
_cell_formula_units_Z 48
_cell_length_a 9.427706
_cell_length_b 27.517723
_cell_length_c 14.099779
_cell_angle_alpha 90.000000
_cell_angle_beta 42.329805
_cell_angle_gamma 90.000000
_cell_volume 2463.213869
_symmetry_space_group_name_H-M "C 2/M"
_symmetry_group_IT_number 12
_symmetry_cell_setting 'monoclinic'
loop_
_space_group_symop_operation_xyz
x,y,z
-x,y,-z
-x,-y,-z
x,-y,z
1/2+x,1/2+y,z
1/2-x,1/2+y,-z
1/2-x,1/2-y,-z
1/2+x,1/2-y,z
loop_
_atom_site_type_symbol
_atom_site_label
_atom_site_fract_x
_atom_site_fract_y
_atom_site_fract_z
Si Si1 0.327820 0.724992 0.162391
Si Si2 0.866875 0.621188 0.783926
Si Si3 0.187283 0.373819 0.472189
Si Si4 0.808832 0.605069 0.028264
Si Si5 0.619021 0.443859 0.766195
Si Si6 0.451351 0.307264 0.762273
O O1 0.217716 0.675200 0.187873
O O2 0.433527 0.722170 0.212069
O O3 0.160296 0.768710 0.250806
O O4 0.500000 0.739501 0.000000
O O5 0.897819 0.609733 0.878286
O O6 0.698095 0.584803 0.820146
O O7 0.096237 0.615080 0.621514
O O8 0.264316 0.423758 0.385160
O O9 0.378493 0.336015 0.385024
O O10 0.000000 0.350969 0.500000
O O11 0.630894 0.563631 0.120073
O O12 0.716377 0.656331 0.108206
O O13 0.000000 0.588186 0.000000
O O14 0.673814 0.500000 0.750691
#
# Coordination Sequence:
#
# PCOD8110311 Si02
#       6
#     8   8   8   8   8   8
#     4  12  21  36  59  88 119 159 207 247 294 347
#     4  11  21  39  63  88 122 155 200 255 291 354
#     4   9  19  40  59  87 124 152 200 249 297 352
#     4  11  23  40  60  88 124 157 199 247 300 351
#     4  10  21  41  68  92 118 154 196 248 306 360
#     4  11  23  37  58  85 121 165 200 246 292 356
#
# _framework density 19.486737000000002
#
# number of rings (size 3 to 8) (size 9 to 14) (size 15 to 20)
#    0.000    1.333    6.667    1.500    2.333    5.333 
#    0.000    3.333    0.000    1.000    0.000    0.000 
#    0.000    0.000    0.000    0.000    0.000    0.000 
#
# Total GULP energy -297672.121345 kJ/mol
# GULP energy per Si atom -12403.005056 kJ/mol
# Density = 1.944238 g / cm^3
# Si number density = 19.486737 Si / 1000 Ang^3
#
#
#
# Elastic Constant Matrix: (Units=GPa)
#
#
# Indices 1 2 3 4 5 6 
#
# 1 89.7765 26.3433 55.2103 0.0000 -7.7856 0.0000
# 2 26.3433 116.5772 32.9589 0.0000 -13.1828 0.0000
# 3 55.2103 32.9589 130.4506 0.0000 -6.3066 0.0000
# 4 0.0000 0.0000 0.0000 13.2798 0.0000 -7.2051
# 5 -7.7856 -13.1828 -6.3066 0.0000 15.1628 0.0000
# 6 0.0000 0.0000 0.0000 -7.2051 0.0000 19.8329
#
#
#
# Elastic Compliance Matrix: (Units=1/GPa)
#
#
# Indices 1 2 3 4 5 6 
#
# 1 0.015641 -0.001325 -0.006074 0.000000 0.004353 0.000000
# 2 -0.001325 0.010192 -0.001652 0.000000 0.007494 0.000000
# 3 -0.006074 -0.001652 0.010648 0.000000 -0.000127 0.000000
# 4 0.000000 0.000000 0.000000 0.093789 0.000000 0.034072
# 5 0.004353 0.007494 -0.000127 0.000000 0.074648 0.000000
# 6 0.000000 0.000000 0.000000 0.034072 0.000000 0.062799
#
#
# Mechanical properties :
#
#
# Convention : Reuss Voigt Hill
#
# Bulk Modulus (GPa) = 54.41337 62.86993 58.64165
# Shear Modulus (GPa) = 17.12651 24.47455 20.80053
#
# Velocity S-wave (km/s) = 2.96781 3.54780 3.27068
# Velocity P-wave (km/s) = 6.30300 7.00824 6.66495
#
# Compressibility (1/GPa) = 0.01837784
#
# Stress axis : x y z
#
# Youngs Moduli (GPa) = 63.93628 98.11773 93.91556
#
# Poissons Ratio (x) = 0.12998 0.57048
# Poissons Ratio (y) = 0.08470 0.15515
# Poissons Ratio (z) = 0.38837 0.16210
#
# Static dielectric constant tensor:
#      x y z
#    x 3.783320 0.000000 0.328970 
#    y 0.000000 3.371370 0.000000 
#    z 0.328970 0.000000 4.360150 
# 
# 
# High freq. dielectric constant tensor:
#      x y z
#    x 1.742040 0.000000 -0.007540 
#    y 0.000000 1.746060 0.000000 
#    z -0.007540 0.000000 1.771270 
# 
# From -- ./inp_files/200130.got.cif
#   From: 2010.06.25/outbox.cif.g09.slc.cpg/sg12_101_cif.got.tgz:200130.got - 2010.06.28 00:19:55.
