data_PCOD8110745
_publ_section_title
;
Structure prediction by ZEFSAII (Michael W. Deem and Ramdas Pophale) SiO2 
 PCOD8110745
Probable space group: C 2/M
;
_chemical_formula_sum "Si O2"
_cell_formula_units_Z 48
_cell_length_a 9.876996
_cell_length_b 17.465919
_cell_length_c 14.809282
_cell_angle_alpha 90.000000
_cell_angle_beta 107.086062
_cell_angle_gamma 90.000000
_cell_volume 2442.005639
_symmetry_space_group_name_H-M "C 2/M"
_symmetry_group_IT_number 12
_symmetry_cell_setting 'monoclinic'
loop_
_space_group_symop_operation_xyz
x,y,z
-x,y,-z
-x,-y,-z
x,-y,z
1/2+x,1/2+y,z
1/2-x,1/2+y,-z
1/2-x,1/2-y,-z
1/2+x,1/2-y,z
loop_
_atom_site_type_symbol
_atom_site_label
_atom_site_fract_x
_atom_site_fract_y
_atom_site_fract_z
Si Si1 0.415538 0.414746 0.819920
Si Si2 0.443758 0.625963 0.620948
Si Si3 0.032037 0.296532 0.400893
Si Si4 0.679725 0.810606 0.794421
Si Si5 0.027203 0.758630 0.108036
Si Si6 0.724080 0.585786 0.579677
O O1 0.456010 0.500000 0.861993
O O2 0.426828 0.411226 0.714619
O O3 0.252707 0.394762 0.816589
O O4 0.517114 0.348566 0.883003
O O5 0.397404 0.714982 0.609158
O O6 0.607710 0.620308 0.624404
O O7 0.341027 0.580996 0.533434
O O8 0.136592 0.362801 0.388711
O O9 0.000000 0.303878 0.500000
O O10 0.885401 0.303105 0.317754
O O11 0.807005 0.748277 0.832871
O O12 0.562506 0.798973 0.848155
O O13 0.000000 0.735732 0.000000
O O14 0.766022 0.500000 0.617648
#
# Coordination Sequence:
#
# PCOD8110745 Si02
#       6
#     8   8   8   8   8   8
#     4  10  22  37  62  90 121 155 196 256 310 359
#     4  11  21  37  60  84 124 165 212 245 301 362
#     4  12  23  36  62  90 122 164 209 246 300 363
#     4  10  23  39  64  93 126 157 209 251 303 364
#     4  10  22  41  68  93 120 161 207 256 306 366
#     4  11  24  37  57  86 125 166 209 255 300 353
#
# _framework density 19.655974000000001
#
# number of rings (size 3 to 8) (size 9 to 14) (size 15 to 20)
#    1.000    0.333    3.333    4.000    4.667    1.333 
#    0.000    0.000    0.000    1.500    0.000    0.000 
#    0.000    0.000    0.000    0.000    0.000    0.000 
#
# Total GULP energy -297448.876921 kJ/mol
# GULP energy per Si atom -12393.703205 kJ/mol
# Density = 1.961124 g / cm^3
# Si number density = 19.655974 Si / 1000 Ang^3
#
#
#
# Elastic Constant Matrix: (Units=GPa)
#
#
# Indices 1 2 3 4 5 6 
#
# 1 91.6474 16.6841 28.2890 0.0000 6.6175 0.0000
# 2 16.6841 99.7983 3.5188 0.0000 -4.7735 0.0000
# 3 28.2890 3.5188 79.5456 0.0000 2.8045 0.0000
# 4 0.0000 0.0000 0.0000 6.1987 0.0000 5.7749
# 5 6.6175 -4.7735 2.8045 0.0000 23.9654 0.0000
# 6 0.0000 0.0000 0.0000 5.7749 0.0000 27.5091
#
#
#
# Elastic Compliance Matrix: (Units=1/GPa)
#
#
# Indices 1 2 3 4 5 6 
#
# 1 0.012907 -0.002170 -0.004371 0.000000 -0.003485 0.000000
# 2 -0.002170 0.010503 0.000213 0.000000 0.002666 0.000000
# 3 -0.004371 0.000213 0.014131 0.000000 -0.000404 0.000000
# 4 0.000000 0.000000 0.000000 0.200544 0.000000 -0.042099
# 5 -0.003485 0.002666 -0.000404 0.000000 0.043267 0.000000
# 6 0.000000 0.000000 0.000000 -0.042099 0.000000 0.045189
#
#
# Mechanical properties :
#
#
# Convention : Reuss Voigt Hill
#
# Bulk Modulus (GPa) = 40.18615 40.88611 40.53613
# Shear Modulus (GPa) = 14.38872 26.36794 20.37833
#
# Velocity S-wave (km/s) = 2.70854 3.66658 3.22335
# Velocity P-wave (km/s) = 5.50188 6.22665 5.87545
#
# Compressibility (1/GPa) = 0.02488419
#
# Stress axis : x y z
#
# Youngs Moduli (GPa) = 77.47454 95.21019 70.76711
#
# Poissons Ratio (x) = 0.20664 0.30935
# Poissons Ratio (y) = 0.16815 -0.01509
# Poissons Ratio (z) = 0.33868 -0.02030
#
# Static dielectric constant tensor:
#      x y z
#    x 3.470480 0.000000 -0.034170 
#    y 0.000000 3.539710 0.000000 
#    z -0.034170 0.000000 3.455610 
# 
# 
# High freq. dielectric constant tensor:
#      x y z
#    x 1.757810 0.000000 -0.008760 
#    y 0.000000 1.750160 0.000000 
#    z -0.008760 0.000000 1.758150 
# 
# From -- ./inp_files/195977.got.cif
#   From: 2010.06.25/outbox.cif.g09.slc.cpg/sg12_98_cif.got.tgz:195977.got - 2010.06.28 00:19:55.
