data_PCOD8110185
_publ_section_title
;
Structure prediction by ZEFSAII (Michael W. Deem and Ramdas Pophale) SiO2 
 PCOD8110185
Probable space group: C 2/M
;
_chemical_formula_sum "Si O2"
_cell_formula_units_Z 64
_cell_length_a 15.910970
_cell_length_b 23.356821
_cell_length_c 8.007665
_cell_angle_alpha 90.000000
_cell_angle_beta 77.922059
_cell_angle_gamma 90.000000
_cell_volume 2910.011362
_symmetry_space_group_name_H-M "C 2/M"
_symmetry_group_IT_number 12
_symmetry_cell_setting 'monoclinic'
loop_
_space_group_symop_operation_xyz
x,y,z
-x,y,-z
-x,-y,-z
x,-y,z
1/2+x,1/2+y,z
1/2-x,1/2+y,-z
1/2-x,1/2-y,-z
1/2+x,1/2-y,z
loop_
_atom_site_type_symbol
_atom_site_label
_atom_site_fract_x
_atom_site_fract_y
_atom_site_fract_z
Si Si1 0.757329 0.384953 0.473990
Si Si2 0.320334 0.434306 0.818640
Si Si3 0.155583 0.249479 0.970549
Si Si4 0.122341 0.204594 0.623156
Si Si5 0.461096 0.653612 0.840861
Si Si6 0.433391 0.824304 0.398057
Si Si7 0.936514 0.359102 0.903407
Si Si8 0.794251 0.433203 0.813318
O O1 0.733017 0.426234 0.330519
O O2 0.694867 0.330028 0.493316
O O3 0.855328 0.367652 0.403575
O O4 0.748232 0.415395 0.659084
O O5 0.348442 0.500000 0.819411
O O6 0.405778 0.396481 0.780740
O O7 0.265477 0.416717 0.004831
O O8 0.094393 0.211149 0.112493
O O9 0.127132 0.315694 0.975142
O O10 0.250000 0.250000 0.000000
O O11 0.159675 0.223589 0.785182
O O12 0.100969 0.262093 0.527629
O O13 0.037377 0.166080 0.678863
O O14 0.500000 0.631943 0.000000
O O15 0.500000 0.851856 0.500000
O O16 0.492715 0.817436 0.211066
O O17 0.884429 0.399991 0.799834
O O18 0.000000 0.395911 0.000000
O O19 0.815057 0.500000 0.800891
#
# Coordination Sequence:
#
# PCOD8110185 Si02
#       8
#     8   8   8   8   8   8   8   8
#     4  12  26  46  70 103 139 181 238 283 346 409
#     4  11  26  47  74 101 134 186 238 289 343 402
#     4  11  21  35  67  99 135 181 221 273 348 414
#     4  11  24  40  64 102 141 184 217 279 351 417
#     4  10  21  41  64 102 141 178 229 282 344 412
#     4  12  25  41  63 101 143 179 217 279 348 418
#     4  12  21  42  66  95 137 177 223 281 341 407
#     4  11  25  48  71  96 134 182 234 287 339 399
#
# _framework density 21.993041999999999
#
# number of rings (size 3 to 8) (size 9 to 14) (size 15 to 20)
#    0.000    0.750    3.750    4.875    3.500    0.500 
#    0.000    3.750    0.000    0.000    0.000    0.000 
#    0.000    0.000    0.000    0.000    0.000    0.000 
#
# Total GULP energy -396757.589156 kJ/mol
# GULP energy per Si atom -12398.674661 kJ/mol
# Density = 2.194298 g / cm^3
# Si number density = 21.993042 Si / 1000 Ang^3
#
#
#
# Elastic Constant Matrix: (Units=GPa)
#
#
# Indices 1 2 3 4 5 6 
#
# 1 139.0275 40.1943 34.6104 0.0000 18.2288 0.0000
# 2 40.1943 90.9094 17.7664 0.0000 10.0478 0.0000
# 3 34.6104 17.7664 90.9017 0.0000 16.5495 0.0000
# 4 0.0000 0.0000 0.0000 28.4590 0.0000 9.8634
# 5 18.2288 10.0478 16.5495 0.0000 36.9516 0.0000
# 6 0.0000 0.0000 0.0000 9.8634 0.0000 25.1197
#
#
#
# Elastic Compliance Matrix: (Units=1/GPa)
#
#
# Indices 1 2 3 4 5 6 
#
# 1 0.009052 -0.003264 -0.002349 0.000000 -0.002526 0.000000
# 2 -0.003264 0.012796 -0.000999 0.000000 -0.001422 0.000000
# 3 -0.002349 -0.000999 0.012880 0.000000 -0.004338 0.000000
# 4 0.000000 0.000000 0.000000 0.040673 0.000000 -0.015971
# 5 -0.002526 -0.001422 -0.004338 0.000000 0.030638 0.000000
# 6 0.000000 0.000000 0.000000 -0.015971 0.000000 0.046080
#
#
# Mechanical properties :
#
#
# Convention : Reuss Voigt Hill
#
# Bulk Modulus (GPa) = 46.50309 56.22009 51.36159
# Shear Modulus (GPa) = 28.98340 33.32391 31.15365
#
# Velocity S-wave (km/s) = 3.63415 3.89678 3.76776
# Velocity P-wave (km/s) = 6.22895 6.77235 6.50632
#
# Compressibility (1/GPa) = 0.02150395
#
# Stress axis : x y z
#
# Youngs Moduli (GPa) = 110.46698 78.15208 77.63791
#
# Poissons Ratio (x) = 0.25510 0.18236
# Poissons Ratio (y) = 0.36058 0.07758
# Poissons Ratio (z) = 0.25947 0.07809
#
# Static dielectric constant tensor:
#      x y z
#    x 4.102370 0.000000 0.125800 
#    y 0.000000 3.807700 0.000000 
#    z 0.125800 0.000000 4.135150 
# 
# 
# High freq. dielectric constant tensor:
#      x y z
#    x 1.882300 0.000000 0.009930 
#    y 0.000000 1.842290 0.000000 
#    z 0.009930 0.000000 1.870920 
# 
# From -- ./inp_files/65870.got.cif
#   From: 2010.06.25/outbox.cif.g09.slc.cpg/sg12_33_cif.got.tgz:65870.got - 2010.06.28 00:19:55.
