data_PCOD8110734
_publ_section_title
;
Structure prediction by ZEFSAII (Michael W. Deem and Ramdas Pophale) SiO2 
 PCOD8110734
Probable space group: C 2/M
;
_chemical_formula_sum "Si O2"
_cell_formula_units_Z 56
_cell_length_a 14.206230
_cell_length_b 17.346482
_cell_length_c 17.164985
_cell_angle_alpha 90.000000
_cell_angle_beta 41.306564
_cell_angle_gamma 90.000000
_cell_volume 2792.128106
_symmetry_space_group_name_H-M "C 2/M"
_symmetry_group_IT_number 12
_symmetry_cell_setting 'monoclinic'
loop_
_space_group_symop_operation_xyz
x,y,z
-x,y,-z
-x,-y,-z
x,-y,z
1/2+x,1/2+y,z
1/2-x,1/2+y,-z
1/2-x,1/2-y,-z
1/2+x,1/2-y,z
loop_
_atom_site_type_symbol
_atom_site_label
_atom_site_fract_x
_atom_site_fract_y
_atom_site_fract_z
Si Si1 0.431472 0.909244 0.224865
Si Si2 0.358544 0.589548 0.046395
Si Si3 0.321547 0.186761 0.735183
Si Si4 0.334170 0.915984 0.586530
Si Si5 0.355360 0.822205 0.426807
Si Si6 0.656051 0.835554 0.871222
Si Si7 0.232536 0.340161 0.991493
O O1 0.354268 0.861032 0.341751
O O2 0.347955 0.900486 0.193851
O O3 0.585695 0.872841 0.116680
O O4 0.440079 0.000000 0.240723
O O5 0.337527 0.500000 0.073101
O O6 0.221283 0.633201 0.165830
O O7 0.360982 0.612968 0.953681
O O8 0.500000 0.620406 0.000000
O O9 0.273374 0.143575 0.686741
O O10 0.488335 0.205640 0.641882
O O11 0.230127 0.263227 0.786086
O O12 0.500000 0.924441 0.500000
O O13 0.301259 0.887341 0.520009
O O14 0.261115 0.000000 0.642211
O O15 0.250000 0.750000 0.500000
O O16 0.500000 0.812394 0.000000
O O17 0.747343 0.859855 0.890592
O O18 0.250000 0.250000 0.000000
#
# Coordination Sequence:
#
# PCOD8110734 Si02
#       7
#     8   8   8   8   8   8   8
#     4  11  23  39  64  92 123 167 211 254 308 370
#     4  11  23  37  60  92 129 164 200 250 313 377
#     4  11  20  38  60  83 122 160 199 253 316 366
#     4   9  19  34  57  83 112 150 197 255 312 363
#     4  11  22  38  60  92 118 154 211 262 311 368
#     4  10  22  37  61  91 119 160 203 249 292 365
#     4  11  21  37  59  92 128 167 205 253 300 365
#
# _framework density 20.056387000000001
#
# number of rings (size 3 to 8) (size 9 to 14) (size 15 to 20)
#    0.000    1.429    2.857    2.571    2.000    4.286 
#    2.571    0.000    0.000    2.571    0.000    0.000 
#    0.000    0.000    0.000    0.000    0.000    0.000 
#
# Total GULP energy -347064.610669 kJ/mol
# GULP energy per Si atom -12395.164667 kJ/mol
# Density = 2.001074 g / cm^3
# Si number density = 20.056387 Si / 1000 Ang^3
#
#
#
# Elastic Constant Matrix: (Units=GPa)
#
#
# Indices 1 2 3 4 5 6 
#
# 1 136.4529 47.6509 43.5436 -0.0002 28.2757 0.0001
# 2 47.6509 122.4504 55.7168 -0.0002 1.8875 0.0001
# 3 43.5436 55.7168 78.4476 -0.0009 17.6261 0.0005
# 4 -0.0002 -0.0002 -0.0009 18.2857 0.0004 16.7041
# 5 28.2757 1.8875 17.6261 0.0004 35.4651 -0.0002
# 6 0.0001 0.0001 0.0005 16.7041 -0.0002 10.8449
#
#
#
# Elastic Compliance Matrix: (Units=1/GPa)
#
#
# Indices 1 2 3 4 5 6 
#
# 1 0.010551 -0.003056 -0.002063 -0.000001 -0.007224 0.000001
# 2 -0.003056 0.013497 -0.009316 0.000002 0.006348 -0.000003
# 3 -0.002063 -0.009316 0.022546 -0.000005 -0.009065 0.000007
# 4 -0.000001 0.000002 -0.000005 -0.134355 0.000006 0.206943
# 5 -0.007224 0.006348 -0.009065 0.000006 0.038124 -0.000008
# 6 0.000001 -0.000003 0.000007 0.206943 -0.000008 -0.226538
#
#
# Mechanical properties :
#
#
# Convention : Reuss Voigt Hill
#
# Bulk Modulus (GPa) = 56.42119 70.13037 63.27578
# Shear Modulus (GPa) = -20.71273 25.61513 2.45120
#
# Velocity S-wave (km/s) = -3.21709 3.57761 1.10671
# Velocity P-wave (km/s) = 3.79378 7.21860 5.76633
#
# Compressibility (1/GPa) = 0.01772384
#
# Stress axis : x y z
#
# Youngs Moduli (GPa) = 94.77817 74.09113 44.35390
#
# Poissons Ratio (x) = 0.22641 0.09150
# Poissons Ratio (y) = 0.28963 0.41321
# Poissons Ratio (z) = 0.19552 0.69025
#
# Static dielectric constant tensor:
#      x y z
#    x 4.063860 0.000000 0.305680 
#    y 0.000000 3.711710 0.000000 
#    z 0.305680 0.000000 3.628990 
# 
# 
# High freq. dielectric constant tensor:
#      x y z
#    x 1.792460 0.000000 0.024270 
#    y 0.000000 1.780840 0.000000 
#    z 0.024270 0.000000 1.765050 
# 
# From -- ./inp_files/271411.got.cif
#   From: 2010.06.25/outbox.cif.g09.slc.cpg/sg12_136_cif.got.tgz:271411.got - 2010.06.28 00:19:55.
