data_PCOD8110612
_publ_section_title
;
Structure prediction by ZEFSAII (Michael W. Deem and Ramdas Pophale) SiO2 
 PCOD8110612
Probable space group: C 2/M
;
_chemical_formula_sum "Si O2"
_cell_formula_units_Z 48
_cell_length_a 27.575730
_cell_length_b 12.803295
_cell_length_c 13.384405
_cell_angle_alpha 90.000000
_cell_angle_beta 30.054800
_cell_angle_gamma 90.000000
_cell_volume 2366.663453
_symmetry_space_group_name_H-M "C 2/M"
_symmetry_group_IT_number 12
_symmetry_cell_setting 'monoclinic'
loop_
_space_group_symop_operation_xyz
x,y,z
-x,y,-z
-x,-y,-z
x,-y,z
1/2+x,1/2+y,z
1/2-x,1/2+y,-z
1/2-x,1/2-y,-z
1/2+x,1/2-y,z
loop_
_atom_site_type_symbol
_atom_site_label
_atom_site_fract_x
_atom_site_fract_y
_atom_site_fract_z
Si Si1 0.617692 0.729241 0.613757
Si Si2 0.652168 0.000000 0.271595
Si Si3 0.094605 0.000000 0.707716
Si Si4 0.588959 0.808630 0.050005
Si Si5 0.384932 0.116501 0.206876
Si Si6 0.950476 0.500000 0.742502
Si Si7 0.874261 0.000000 0.113672
Si Si8 0.748449 0.333152 0.779875
O O1 0.645821 0.606646 0.576095
O O2 0.501311 0.735000 0.816187
O O3 0.653661 0.800348 0.643119
O O4 0.663431 0.774115 0.431164
O O5 0.549645 0.000000 0.507208
O O6 0.639205 0.000000 0.175082
O O7 0.711229 0.898194 0.199112
O O8 0.109032 0.000000 0.799231
O O9 0.982028 0.000000 0.873927
O O10 0.549704 0.901717 0.185840
O O11 0.645893 0.846652 0.848599
O O12 0.671071 0.747128 0.965534
O O13 0.343026 0.000000 0.305782
O O14 0.500000 0.110344 0.000000
O O15 0.812132 0.100171 0.192447
#
# Coordination Sequence:
#
# PCOD8110612 Si02
#       8
#     8   4   4   8   8   4   4   8
#     4  11  23  37  59  88 130 168 205 250 293 359
#     4  10  24  42  67  95 114 153 206 263 322 373
#     4  11  22  39  54  83 129 171 203 238 298 353
#     4  11  21  38  62  92 120 163 201 254 310 361
#     4   9  19  32  54  87 123 162 205 243 294 348
#     4  11  22  43  68  90 121 150 203 271 317 365
#     4  10  22  36  56  83 120 166 210 244 279 361
#     4  11  23  40  62  91 121 161 210 248 310 366
#
# _framework density 20.281718000000001
#
# number of rings (size 3 to 8) (size 9 to 14) (size 15 to 20)
#    0.000    1.500    4.167    1.000    8.167    4.000 
#    0.000    0.000    0.000    0.000    0.000    2.333 
#    0.000    0.000    0.000    0.000    0.000    0.000 
#
# Total GULP energy -297563.597404 kJ/mol
# GULP energy per Si atom -12398.483225 kJ/mol
# Density = 2.023556 g / cm^3
# Si number density = 20.281718 Si / 1000 Ang^3
#
#
#
# Elastic Constant Matrix: (Units=GPa)
#
#
# Indices 1 2 3 4 5 6 
#
# 1 71.0554 14.7413 -7.6007 0.0000 -7.0484 0.0000
# 2 14.7413 128.4714 6.4382 0.0000 -2.9333 0.0000
# 3 -7.6007 6.4382 26.0130 0.0000 -6.2558 0.0000
# 4 0.0000 0.0000 0.0000 10.8880 0.0000 -23.3783
# 5 -7.0484 -2.9333 -6.2558 0.0000 23.0359 0.0000
# 6 0.0000 0.0000 0.0000 -23.3783 0.0000 12.5765
#
#
#
# Elastic Compliance Matrix: (Units=1/GPa)
#
#
# Indices 1 2 3 4 5 6 
#
# 1 0.015837 -0.002005 0.006663 0.000000 0.006400 0.000000
# 2 -0.002005 0.008141 -0.002674 0.000000 -0.000303 0.000000
# 3 0.006663 -0.002674 0.044356 0.000000 0.013744 0.000000
# 4 0.000000 0.000000 0.000000 -0.030704 0.000000 -0.057075
# 5 0.006400 -0.000303 0.013744 0.000000 0.049063 0.000000
# 6 0.000000 0.000000 0.000000 -0.057075 0.000000 -0.026582
#
#
# Mechanical properties :
#
#
# Convention : Reuss Voigt Hill
#
# Bulk Modulus (GPa) = 13.83081 28.07748 20.95415
# Shear Modulus (GPa) = 62.31008 23.43081 42.87045
#
# Velocity S-wave (km/s) = 5.54878 3.40261 4.60254
# Velocity P-wave (km/s) = 6.91998 5.41394 6.21277
#
# Compressibility (1/GPa) = 0.07230233
#
# Stress axis : x y z
#
# Youngs Moduli (GPa) = 63.14323 122.83567 22.54485
#
# Poissons Ratio (x) = 0.24628 -0.15021
# Poissons Ratio (y) = 0.12660 0.06027
# Poissons Ratio (z) = -0.42070 0.32841
#
# Static dielectric constant tensor:
#      x y z
#    x 3.611970 0.000000 -0.229660 
#    y 0.000000 3.975080 0.000000 
#    z -0.229660 0.000000 3.510760 
# 
# 
# High freq. dielectric constant tensor:
#      x y z
#    x 1.764130 0.000000 -0.026010 
#    y 0.000000 1.807940 0.000000 
#    z -0.026010 0.000000 1.785320 
# 
# From -- ./inp_files/212723.got.cif
#   From: 2010.06.25/outbox.cif.g09.slc.cpg/sg12_107_cif.got.tgz:212723.got - 2010.06.28 00:19:55.
