data_PCOD8110372
_publ_section_title
;
Structure prediction by ZEFSAII (Michael W. Deem and Ramdas Pophale) SiO2 
 PCOD8110372
Probable space group: C 2/M
;
_chemical_formula_sum "Si O2"
_cell_formula_units_Z 44
_cell_length_a 19.730415
_cell_length_b 21.288177
_cell_length_c 6.609211
_cell_angle_alpha 90.000000
_cell_angle_beta 50.017995
_cell_angle_gamma 90.000000
_cell_volume 2127.123436
_symmetry_space_group_name_H-M "C 2/M"
_symmetry_group_IT_number 12
_symmetry_cell_setting 'monoclinic'
loop_
_space_group_symop_operation_xyz
x,y,z
-x,y,-z
-x,-y,-z
x,-y,z
1/2+x,1/2+y,z
1/2-x,1/2+y,-z
1/2-x,1/2-y,-z
1/2+x,1/2-y,z
loop_
_atom_site_type_symbol
_atom_site_label
_atom_site_fract_x
_atom_site_fract_y
_atom_site_fract_z
Si Si1 0.569639 0.427955 0.535695
Si Si2 0.704218 0.834917 0.474042
Si Si3 0.102341 0.643125 0.283477
Si Si4 0.634640 0.745118 0.936291
Si Si5 0.500000 0.657457 0.000000
Si Si6 0.737034 0.071894 0.757631
O O1 0.500000 0.403844 0.500000
O O2 0.546872 0.500000 0.631298
O O3 0.563457 0.386824 0.748809
O O4 0.673586 0.420732 0.275488
O O5 0.640082 0.865879 0.434672
O O6 0.644338 0.788599 0.721356
O O7 0.777663 0.796621 0.206695
O O8 0.747829 0.888026 0.531488
O O9 0.000000 0.625822 0.500000
O O10 0.117280 0.713891 0.170694
O O11 0.151301 0.593666 0.045107
O O12 0.552248 0.699867 0.059394
O O13 0.723807 0.000000 0.718313
#
# Coordination Sequence:
#
# PCOD8110372 Si02
#       6
#     8   8   8   8   4   8
#     4  10  23  40  60  91 128 161 202 251 302 370
#     4  10  21  42  62  85 124 164 203 257 311 364
#     4  11  24  41  62  91 123 163 210 260 309 363
#     4  10  22  37  60  91 123 159 206 251 305 372
#     4  12  21  36  64  94 119 164 198 248 310 376
#     4  10  23  43  65  92 124 162 209 257 307 367
#
# _framework density 20.685213000000001
#
# number of rings (size 3 to 8) (size 9 to 14) (size 15 to 20)
#    0.000    1.636    1.818    1.909    2.545    5.455 
#    0.000    0.909    0.000    0.000    0.000    0.000 
#    0.000    0.000    0.000    0.000    0.000    0.000 
#
# Total GULP energy -272804.995203 kJ/mol
# GULP energy per Si atom -12400.227055 kJ/mol
# Density = 2.063813 g / cm^3
# Si number density = 20.685213 Si / 1000 Ang^3
#
#
#
# Elastic Constant Matrix: (Units=GPa)
#
#
# Indices 1 2 3 4 5 6 
#
# 1 122.5994 35.0271 49.3667 0.0000 -0.0311 0.0000
# 2 35.0271 96.3928 34.1257 0.0000 -4.2206 0.0000
# 3 49.3667 34.1257 79.4823 0.0000 -19.0053 0.0000
# 4 0.0000 0.0000 0.0000 37.4945 0.0000 -26.2778
# 5 -0.0311 -4.2206 -19.0053 0.0000 32.6482 0.0000
# 6 0.0000 0.0000 0.0000 -26.2778 0.0000 65.6302
#
#
#
# Elastic Compliance Matrix: (Units=1/GPa)
#
#
# Indices 1 2 3 4 5 6 
#
# 1 0.011740 -0.001761 -0.007653 0.000000 -0.004671 0.000000
# 2 -0.001761 0.012581 -0.004553 0.000000 -0.001026 0.000000
# 3 -0.007653 -0.004553 0.022243 0.000000 0.012352 0.000000
# 4 0.000000 0.000000 0.000000 0.037074 0.000000 0.014844
# 5 -0.004671 -0.001026 0.012352 0.000000 0.037683 0.000000
# 6 0.000000 0.000000 0.000000 0.014844 0.000000 0.021180
#
#
# Mechanical properties :
#
#
# Convention : Reuss Voigt Hill
#
# Bulk Modulus (GPa) = 53.67580 59.50149 56.58865
# Shear Modulus (GPa) = 28.30526 39.15157 33.72841
#
# Velocity S-wave (km/s) = 3.70318 4.35527 4.04240
# Velocity P-wave (km/s) = 6.65507 7.35655 7.01458
#
# Compressibility (1/GPa) = 0.01863037
#
# Stress axis : x y z
#
# Youngs Moduli (GPa) = 85.17791 79.48331 44.95834
#
# Poissons Ratio (x) = 0.14001 0.34404
# Poissons Ratio (y) = 0.15004 0.20469
# Poissons Ratio (z) = 0.65183 0.36188
#
# Static dielectric constant tensor:
#      x y z
#    x 3.729750 0.000000 -0.139260 
#    y 0.000000 3.758240 0.000000 
#    z -0.139260 0.000000 3.562040 
# 
# 
# High freq. dielectric constant tensor:
#      x y z
#    x 1.814260 0.000000 -0.009080 
#    y 0.000000 1.808970 0.000000 
#    z -0.009080 0.000000 1.799600 
# 
# From -- ./inp_files/16821.got.cif
#   From: 2010.06.25/outbox.cif.g09.slc.cpg/sg12_9_cif.got.tgz:16821.got - 2010.06.28 00:19:55.
