data_PCOD8110120
_publ_section_title
;
Structure prediction by ZEFSAII (Michael W. Deem and Ramdas Pophale) SiO2 
 PCOD8110120
Probable space group: C 2/M
;
_chemical_formula_sum "Si O2"
_cell_formula_units_Z 64
_cell_length_a 18.727517
_cell_length_b 14.182204
_cell_length_c 20.205993
_cell_angle_alpha 90.000000
_cell_angle_beta 34.248671
_cell_angle_gamma 90.000000
_cell_volume 3020.280106
_symmetry_space_group_name_H-M "C 2/M"
_symmetry_group_IT_number 12
_symmetry_cell_setting 'monoclinic'
loop_
_space_group_symop_operation_xyz
x,y,z
-x,y,-z
-x,-y,-z
x,-y,z
1/2+x,1/2+y,z
1/2-x,1/2+y,-z
1/2-x,1/2-y,-z
1/2+x,1/2-y,z
loop_
_atom_site_type_symbol
_atom_site_label
_atom_site_fract_x
_atom_site_fract_y
_atom_site_fract_z
Si Si1 0.712859 0.892336 0.490413
Si Si2 0.252186 0.733408 0.835207
Si Si3 0.016632 0.734710 0.562184
Si Si4 0.304456 0.394418 0.022810
Si Si5 0.611327 0.796725 0.814613
Si Si6 0.652577 0.890625 0.012236
Si Si7 0.415287 0.395037 0.229022
Si Si8 0.210386 0.110116 0.424875
O O1 0.605909 0.836133 0.533402
O O2 0.850685 0.882767 0.350258
O O3 0.727460 0.853564 0.553913
O O4 0.666498 0.000000 0.527643
O O5 0.383361 0.757976 0.700475
O O6 0.199475 0.826985 0.911263
O O7 0.149391 0.694787 0.861651
O O8 0.265447 0.648957 0.878771
O O9 0.077846 0.838268 0.513252
O O10 0.000000 0.696987 0.500000
O O11 0.292856 0.500000 0.059900
O O12 0.189226 0.373617 0.060534
O O13 0.433371 0.383257 0.881463
O O14 0.639437 0.687310 0.775500
O O15 0.694152 0.867344 0.707280
O O16 0.466797 0.825579 0.913921
O O17 0.626138 0.000000 0.017830
O O18 0.381696 0.500000 0.226221
O O19 0.180855 0.000000 0.450723
#
# Coordination Sequence:
#
# PCOD8110120 Si02
#       8
#     8   8   8   8   8   8   8   8
#     4  10  23  42  70 100 129 174 221 269 329 391
#     4  12  26  42  67  97 131 176 219 266 335 387
#     4  12  25  45  65  98 134 173 219 273 333 386
#     4  10  24  44  68 101 132 166 217 276 333 388
#     4  12  24  44  67  95 134 175 219 271 324 391
#     4  11  26  44  67  98 132 174 222 272 324 386
#     4  10  21  40  69  99 131 166 213 272 330 386
#     4  11  25  43  66  97 131 175 223 268 323 389
#
# _framework density 21.190086999999998
#
# number of rings (size 3 to 8) (size 9 to 14) (size 15 to 20)
#    0.000    1.000    3.750    1.500    3.500    3.500 
#    0.000    1.250    0.000    0.000    0.000    0.000 
#    0.000    0.000    0.000    0.000    0.000    0.000 
#
# Total GULP energy -396826.644583 kJ/mol
# GULP energy per Si atom -12400.832643 kJ/mol
# Density = 2.114186 g / cm^3
# Si number density = 21.190087 Si / 1000 Ang^3
#
#
#
# Elastic Constant Matrix: (Units=GPa)
#
#
# Indices 1 2 3 4 5 6 
#
# 1 104.0263 28.4992 36.2187 -0.0001 12.0903 0.0003
# 2 28.4992 83.9484 25.4452 -0.0001 12.4495 0.0003
# 3 36.2187 25.4452 104.7917 -0.0003 3.1721 0.0006
# 4 -0.0001 -0.0001 -0.0003 30.5007 0.0001 0.2226
# 5 12.0903 12.4495 3.1721 0.0001 35.9853 -0.0002
# 6 0.0003 0.0003 0.0006 0.2226 -0.0002 27.3925
#
#
#
# Elastic Compliance Matrix: (Units=1/GPa)
#
#
# Indices 1 2 3 4 5 6 
#
# 1 0.011817 -0.002576 -0.003374 0.000000 -0.002781 0.000000
# 2 -0.002576 0.014081 -0.002414 0.000000 -0.003793 0.000000
# 3 -0.003374 -0.002414 0.011266 0.000000 0.000976 0.000000
# 4 0.000000 0.000000 0.000000 0.032788 0.000000 -0.000266
# 5 -0.002781 -0.003793 0.000976 0.000000 0.029950 0.000000
# 6 0.000000 0.000000 0.000000 -0.000266 0.000000 0.036509
#
#
# Mechanical properties :
#
#
# Convention : Reuss Voigt Hill
#
# Bulk Modulus (GPa) = 48.93762 52.56584 50.75173
# Shear Modulus (GPa) = 31.25968 32.28259 31.77113
#
# Velocity S-wave (km/s) = 3.84500 3.90741 3.87633
# Velocity P-wave (km/s) = 6.54651 6.72442 6.63606
#
# Compressibility (1/GPa) = 0.02043418
#
# Stress axis : x y z
#
# Youngs Moduli (GPa) = 84.62438 71.01840 88.76574
#
# Poissons Ratio (x) = 0.18297 0.29954
# Poissons Ratio (y) = 0.21802 0.21426
# Poissons Ratio (z) = 0.28556 0.17142
#
# Static dielectric constant tensor:
#      x y z
#    x 3.767690 0.000000 0.085000 
#    y 0.000000 4.003420 0.000000 
#    z 0.085000 0.000000 4.003090 
# 
# 
# High freq. dielectric constant tensor:
#      x y z
#    x 1.822780 0.000000 0.003640 
#    y 0.000000 1.844670 0.000000 
#    z 0.003640 0.000000 1.839050 
# 
# From -- ./inp_files/278131.got.cif
#   From: 2010.06.25/outbox.cif.g09.slc.cpg/sg12_140_cif.got.tgz:278131.got - 2010.06.28 00:19:55.
