data_PCOD8110508
_publ_section_title
;
Structure prediction by ZEFSAII (Michael W. Deem and Ramdas Pophale) SiO2 
 PCOD8110508
Probable space group: C 2/M
;
_chemical_formula_sum "Si O2"
_cell_formula_units_Z 44
_cell_length_a 25.693139
_cell_length_b 11.716861
_cell_length_c 16.389850
_cell_angle_alpha 90.000000
_cell_angle_beta 24.728249
_cell_angle_gamma 90.000000
_cell_volume 2063.986305
_symmetry_space_group_name_H-M "C 2/M"
_symmetry_group_IT_number 12
_symmetry_cell_setting 'monoclinic'
loop_
_space_group_symop_operation_xyz
x,y,z
-x,y,-z
-x,-y,-z
x,-y,z
1/2+x,1/2+y,z
1/2-x,1/2+y,-z
1/2-x,1/2-y,-z
1/2+x,1/2-y,z
loop_
_atom_site_type_symbol
_atom_site_label
_atom_site_fract_x
_atom_site_fract_y
_atom_site_fract_z
Si Si1 0.234188 0.629766 0.073729
Si Si2 0.883215 0.262962 0.350809
Si Si3 0.684251 0.000000 0.783486
Si Si4 0.823681 0.221415 0.616163
Si Si5 0.000000 0.297966 0.500000
Si Si6 0.419762 0.000000 0.235753
Si Si7 0.116361 0.128617 0.978642
O O1 0.245930 0.500000 0.014441
O O2 0.099451 0.625716 0.309205
O O3 0.250000 0.750000 0.000000
O O4 0.342633 0.638053 0.985816
O O5 0.750000 0.250000 0.500000
O O6 0.888688 0.224637 0.436190
O O7 0.916792 0.395004 0.300969
O O8 0.985767 0.193827 0.152881
O O9 0.749283 0.106076 0.732415
O O10 0.692565 0.000000 0.671960
O O11 0.542639 0.000000 0.008602
O O12 0.928559 0.219577 0.536416
O O13 0.724665 0.323597 0.766011
O O14 0.093175 0.000000 0.983812
#
# Coordination Sequence:
#
# PCOD8110508 Si02
#       7
#     8   8   4   8   4   4   8
#     4  10  21  44  68  94 130 176 224 277 335 394
#     4  12  25  42  68  98 128 171 225 271 334 397
#     4  11  22  45  70  91 142 178 210 280 339 394
#     4  11  24  44  67  97 132 176 220 271 334 394
#     4  10  23  45  66 100 131 180 223 270 329 408
#     4  11  24  44  68  97 133 178 223 272 335 398
#     4  10  24  44  63  92 134 171 213 271 332 395
#
# _framework density 21.317971
#
# number of rings (size 3 to 8) (size 9 to 14) (size 15 to 20)
#    0.000    1.273    3.636    1.364    3.818    1.818 
#   13.091    0.909    0.000    0.000    0.000    0.000 
#    0.000    0.000    0.000    0.000    0.000    0.000 
#
# Total GULP energy -272644.030649 kJ/mol
# GULP energy per Si atom -12392.910484 kJ/mol
# Density = 2.126945 g / cm^3
# Si number density = 21.317971 Si / 1000 Ang^3
#
#
#
# Elastic Constant Matrix: (Units=GPa)
#
#
# Indices 1 2 3 4 5 6 
#
# 1 79.7892 15.6935 20.8360 0.0000 -15.9895 0.0000
# 2 15.6935 157.8449 27.8285 0.0000 -8.2089 0.0000
# 3 20.8360 27.8285 95.7203 0.0000 -14.0581 0.0000
# 4 0.0000 0.0000 0.0000 29.3230 0.0000 3.5674
# 5 -15.9895 -8.2089 -14.0581 0.0000 35.7330 0.0000
# 6 0.0000 0.0000 0.0000 3.5674 0.0000 30.5404
#
#
#
# Elastic Compliance Matrix: (Units=1/GPa)
#
#
# Indices 1 2 3 4 5 6 
#
# 1 0.014316 -0.000772 -0.002098 0.000000 0.005403 0.000000
# 2 -0.000772 0.006742 -0.001714 0.000000 0.000529 0.000000
# 3 -0.002098 -0.001714 0.011894 0.000000 0.003347 0.000000
# 4 0.000000 0.000000 0.000000 0.034595 0.000000 -0.004041
# 5 0.005403 0.000529 0.003347 0.000000 0.031841 0.000000
# 6 0.000000 0.000000 0.000000 -0.004041 0.000000 0.033216
#
#
# Mechanical properties :
#
#
# Convention : Reuss Voigt Hill
#
# Bulk Modulus (GPa) = 42.04930 51.34115 46.69523
# Shear Modulus (GPa) = 33.40036 37.05237 35.22636
#
# Velocity S-wave (km/s) = 3.96254 4.17355 4.06941
# Velocity P-wave (km/s) = 6.37991 6.88190 6.63565
#
# Compressibility (1/GPa) = 0.02378161
#
# Stress axis : x y z
#
# Youngs Moduli (GPa) = 69.85406 148.32713 84.07828
#
# Poissons Ratio (x) = 0.11457 0.17640
# Poissons Ratio (y) = 0.05396 0.14413
# Poissons Ratio (z) = 0.14656 0.25427
#
# Static dielectric constant tensor:
#      x y z
#    x 3.703930 0.000000 -0.034850 
#    y 0.000000 4.055970 0.000000 
#    z -0.034850 0.000000 4.010910 
# 
# 
# High freq. dielectric constant tensor:
#      x y z
#    x 1.824910 0.000000 -0.014050 
#    y 0.000000 1.845210 0.000000 
#    z -0.014050 0.000000 1.843680 
# 
# From -- ./inp_files/296411.got.cif
#   From: 2010.06.25/outbox.cif.g09.slc.cpg/sg12_149_cif.got.tgz:296411.got - 2010.06.28 00:19:55.
