data_PCOD8110290
_publ_section_title
;
Structure prediction by ZEFSAII (Michael W. Deem and Ramdas Pophale) SiO2 
 PCOD8110290
Probable space group: C 2/M
;
_chemical_formula_sum "Si O2"
_cell_formula_units_Z 56
_cell_length_a 16.521201
_cell_length_b 21.795686
_cell_length_c 10.256596
_cell_angle_alpha 90.000000
_cell_angle_beta 131.844920
_cell_angle_gamma 90.000000
_cell_volume 2751.340883
_symmetry_space_group_name_H-M "C 2/M"
_symmetry_group_IT_number 12
_symmetry_cell_setting 'monoclinic'
loop_
_space_group_symop_operation_xyz
x,y,z
-x,y,-z
-x,-y,-z
x,-y,z
1/2+x,1/2+y,z
1/2-x,1/2+y,-z
1/2-x,1/2-y,-z
1/2+x,1/2-y,z
loop_
_atom_site_type_symbol
_atom_site_label
_atom_site_fract_x
_atom_site_fract_y
_atom_site_fract_z
Si Si1 0.368438 0.742094 0.565957
Si Si2 0.549372 0.430929 0.423932
Si Si3 0.421526 0.068578 0.794899
Si Si4 0.766913 0.138044 0.297373
Si Si5 0.254670 0.178177 0.016974
Si Si6 0.475730 0.655030 0.122586
Si Si7 0.508232 0.140518 0.652542
O O1 0.250000 0.750000 0.500000
O O2 0.344280 0.694594 0.423072
O O3 0.456425 0.715693 0.763809
O O4 0.420626 0.804055 0.566830
O O5 0.500000 0.398024 0.500000
O O6 0.509273 0.500000 0.370362
O O7 0.676947 0.424889 0.591572
O O8 0.516039 0.400785 0.253182
O O9 0.346690 0.128070 0.750170
O O10 0.484003 0.087584 0.730713
O O11 0.369700 0.000000 0.716695
O O12 0.500000 0.061834 0.000000
O O13 0.752771 0.142363 0.127829
O O14 0.153828 0.160636 0.000964
O O15 0.250000 0.250000 0.000000
O O16 0.368282 0.162352 0.203564
O O17 0.500000 0.639053 0.000000
O O18 0.500000 0.111363 0.500000
#
# Coordination Sequence:
#
# PCOD8110290 Si02
#       7
#     8   8   8   8   8   8   8
#     4  11  24  39  65  96 134 175 220 269 331 404
#     4  10  21  41  67  93 127 169 220 276 323 382
#     4  11  24  44  68  95 128 175 233 281 321 390
#     4  11  22  40  67  96 129 172 226 268 329 396
#     4  12  24  41  64  94 137 175 216 268 333 404
#     4  11  26  41  63  99 136 173 220 269 337 405
#     4  12  26  42  66 100 138 175 221 277 347 401
#
# _framework density 20.35371
#
# number of rings (size 3 to 8) (size 9 to 14) (size 15 to 20)
#    0.000    0.857    5.714    1.286    4.000    1.143 
#    0.000    0.714    0.000    0.000    0.000    0.000 
#    0.000    0.000    0.000    0.000    0.000    0.000 
#
# Total GULP energy -346940.258166 kJ/mol
# GULP energy per Si atom -12390.723506 kJ/mol
# Density = 2.030738 g / cm^3
# Si number density = 20.353710 Si / 1000 Ang^3
#
#
#
# Elastic Constant Matrix: (Units=GPa)
#
#
# Indices 1 2 3 4 5 6 
#
# 1 145.2256 33.7203 63.1960 0.0000 -7.4807 0.0000
# 2 33.7203 85.5589 36.8682 0.0000 -10.7269 0.0000
# 3 63.1960 36.8682 119.9654 0.0000 -18.6019 0.0000
# 4 0.0000 0.0000 0.0000 -156.9568 0.0000 64.8722
# 5 -7.4807 -10.7269 -18.6019 0.0000 48.9929 0.0000
# 6 0.0000 0.0000 0.0000 64.8722 0.0000 4.5265
#
#
#
# Elastic Compliance Matrix: (Units=1/GPa)
#
#
# Indices 1 2 3 4 5 6 
#
# 1 0.009179 -0.001813 -0.004380 0.000000 -0.000659 0.000000
# 2 -0.001813 0.013929 -0.003077 0.000000 0.001605 0.000000
# 3 -0.004380 -0.003077 0.012093 0.000000 0.003249 0.000000
# 4 0.000000 0.000000 0.000000 -0.000920 0.000000 0.013188
# 5 -0.000659 0.001605 0.003249 0.000000 0.021895 0.000000
# 6 0.000000 0.000000 0.000000 0.013188 0.000000 0.031909
#
#
# Mechanical properties :
#
#
# Convention : Reuss Voigt Hill
#
# Bulk Modulus (GPa) = 60.02122 68.70210 64.36166
# Shear Modulus (GPa) = 44.57151 -6.22312 19.17419
#
# Velocity S-wave (km/s) = 4.68466 -1.75046 3.07261
# Velocity P-wave (km/s) = 7.66906 5.45361 6.65418
#
# Compressibility (1/GPa) = 0.01666077
#
# Stress axis : x y z
#
# Youngs Moduli (GPa) = 108.94498 71.79065 82.69437
#
# Poissons Ratio (x) = 0.13013 0.36223
# Poissons Ratio (y) = 0.19747 0.25446
# Poissons Ratio (z) = 0.47722 0.22091
#
# Static dielectric constant tensor:
#      x y z
#    x 3.032150 0.000000 -0.136340 
#    y 0.000000 3.720920 0.000000 
#    z -0.136340 0.000000 3.644650 
# 
# 
# High freq. dielectric constant tensor:
#      x y z
#    x 1.809690 0.000000 0.006230 
#    y 0.000000 1.783050 0.000000 
#    z 0.006230 0.000000 1.800980 
# 
# From -- ./inp_files/79146.got.cif
#   From: 2010.06.25/outbox.cif.g09.slc.cpg/sg12_40_cif.got.tgz:79146.got - 2010.06.28 00:19:55.
