data_PCOD8110686
_publ_section_title
;
Structure prediction by ZEFSAII (Michael W. Deem and Ramdas Pophale) SiO2 
 PCOD8110686
Probable space group: C 2/M
;
_chemical_formula_sum "Si O2"
_cell_formula_units_Z 48
_cell_length_a 12.732521
_cell_length_b 20.761489
_cell_length_c 15.051987
_cell_angle_alpha 90.000000
_cell_angle_beta 141.928678
_cell_angle_gamma 90.000000
_cell_volume 2453.577477
_symmetry_space_group_name_H-M "C 2/M"
_symmetry_group_IT_number 12
_symmetry_cell_setting 'monoclinic'
loop_
_space_group_symop_operation_xyz
x,y,z
-x,y,-z
-x,-y,-z
x,-y,z
1/2+x,1/2+y,z
1/2-x,1/2+y,-z
1/2-x,1/2-y,-z
1/2+x,1/2-y,z
loop_
_atom_site_type_symbol
_atom_site_label
_atom_site_fract_x
_atom_site_fract_y
_atom_site_fract_z
Si Si1 0.321450 0.428594 0.427387
Si Si2 0.162719 0.335804 0.878862
Si Si3 0.112254 0.294427 0.655196
Si Si4 0.999579 0.426815 0.098090
Si Si5 0.510835 0.288843 0.164047
Si Si6 0.886465 0.192882 0.580723
O O1 0.500000 0.422690 0.500000
O O2 0.299253 0.500000 0.457089
O O3 0.300093 0.371228 0.484050
O O4 0.188557 0.419055 0.260400
O O5 0.094718 0.339054 0.731740
O O6 0.131196 0.399317 0.915604
O O7 0.056027 0.282355 0.860604
O O8 0.365999 0.324093 0.010027
O O9 0.310793 0.285558 0.767812
O O10 0.000000 0.325864 0.500000
O O11 0.038752 0.222260 0.622389
O O12 0.940296 0.500000 0.047170
O O13 0.000000 0.393700 0.000000
O O14 0.538366 0.327423 0.274083
O O15 0.750000 0.250000 0.500000
#
# Coordination Sequence:
#
# PCOD8110686 Si02
#       6
#     8   8   8   8   8   8
#     4  10  22  37  58  88 124 158 199 249 304 369
#     4  10  23  38  58  85 119 156 200 248 296 363
#     4  11  21  35  59  87 119 157 193 250 300 361
#     4  10  23  41  61  86 117 158 198 244 306 366
#     4  10  22  37  55  88 119 157 197 245 308 349
#     4  11  21  35  59  90 119 163 205 248 309 362
#
# _framework density 19.563271
#
# number of rings (size 3 to 8) (size 9 to 14) (size 15 to 20)
#    0.000    1.667    1.667    3.000    4.667    2.667 
#    0.000    0.000    0.000    3.500    0.000    0.000 
#    0.000    0.000    0.000    0.000    0.000    0.000 
#
# Total GULP energy -297460.095157 kJ/mol
# GULP energy per Si atom -12394.170632 kJ/mol
# Density = 1.951874 g / cm^3
# Si number density = 19.563271 Si / 1000 Ang^3
#
#
#
# Elastic Constant Matrix: (Units=GPa)
#
#
# Indices 1 2 3 4 5 6 
#
# 1 115.6325 44.4012 62.5527 0.0000 4.4384 0.0000
# 2 44.4012 95.6996 51.1413 0.0000 -9.9700 0.0000
# 3 62.5527 51.1413 127.6609 0.0000 -7.5238 0.0000
# 4 0.0000 0.0000 0.0000 25.6053 0.0000 -2.6373
# 5 4.4384 -9.9700 -7.5238 0.0000 52.1395 0.0000
# 6 0.0000 0.0000 0.0000 -2.6373 0.0000 32.4522
#
#
#
# Elastic Compliance Matrix: (Units=1/GPa)
#
#
# Indices 1 2 3 4 5 6 
#
# 1 0.012807 -0.003524 -0.005010 0.000000 -0.002487 0.000000
# 2 -0.003524 0.014433 -0.003908 0.000000 0.002496 0.000000
# 3 -0.005010 -0.003908 0.011936 0.000000 0.001402 0.000000
# 4 0.000000 0.000000 0.000000 0.039384 0.000000 0.003201
# 5 -0.002487 0.002496 0.001402 0.000000 0.020071 0.000000
# 6 0.000000 0.000000 0.000000 0.003201 0.000000 0.031075
#
#
# Mechanical properties :
#
#
# Convention : Reuss Voigt Hill
#
# Bulk Modulus (GPa) = 69.96910 72.79817 71.38364
# Shear Modulus (GPa) = 31.37679 34.09925 32.73802
#
# Velocity S-wave (km/s) = 4.00917 4.17948 4.09521
# Velocity P-wave (km/s) = 7.56799 7.78352 7.67651
#
# Compressibility (1/GPa) = 0.01429202
#
# Stress axis : x y z
#
# Youngs Moduli (GPa) = 78.08275 69.28712 83.77680
#
# Poissons Ratio (x) = 0.24414 0.41975
# Poissons Ratio (y) = 0.27513 0.32741
# Poissons Ratio (z) = 0.39122 0.27079
#
# Static dielectric constant tensor:
#      x y z
#    x 3.578490 0.000000 -0.145080 
#    y 0.000000 3.463810 0.000000 
#    z -0.145080 0.000000 4.720980 
# 
# 
# High freq. dielectric constant tensor:
#      x y z
#    x 1.760750 0.000000 0.001670 
#    y 0.000000 1.719530 0.000000 
#    z 0.001670 0.000000 1.788340 
# 
# From -- ./inp_files/208019.got.cif
#   From: 2010.06.25/outbox.cif.g09.slc.cpg/sg12_105_cif.got.tgz:208019.got - 2010.06.28 00:19:55.
