data_PCOD8110255
_publ_section_title
;
Structure prediction by ZEFSAII (Michael W. Deem and Ramdas Pophale) SiO2 
 PCOD8110255
Probable space group: C 2/M
;
_chemical_formula_sum "Si O2"
_cell_formula_units_Z 48
_cell_length_a 9.330945
_cell_length_b 18.633987
_cell_length_c 16.702535
_cell_angle_alpha 90.000000
_cell_angle_beta 125.567513
_cell_angle_gamma 90.000000
_cell_volume 2362.296279
_symmetry_space_group_name_H-M "C 2/M"
_symmetry_group_IT_number 12
_symmetry_cell_setting 'monoclinic'
loop_
_space_group_symop_operation_xyz
x,y,z
-x,y,-z
-x,-y,-z
x,-y,z
1/2+x,1/2+y,z
1/2-x,1/2+y,-z
1/2-x,1/2-y,-z
1/2+x,1/2-y,z
loop_
_atom_site_type_symbol
_atom_site_label
_atom_site_fract_x
_atom_site_fract_y
_atom_site_fract_z
Si Si1 0.807053 0.176832 0.974558
Si Si2 0.308156 0.674475 0.260958
Si Si3 0.465273 0.919676 0.574875
Si Si4 0.705262 0.080156 0.080958
Si Si5 0.445894 0.579741 0.565103
Si Si6 0.462532 0.822573 0.251150
O O1 0.668534 0.152089 0.861602
O O2 0.750000 0.250000 0.000000
O O3 0.811796 0.112915 0.040611
O O4 0.000000 0.188097 0.000000
O O5 0.219881 0.632507 0.160343
O O6 0.479352 0.629433 0.341364
O O7 0.385482 0.748842 0.257683
O O8 0.161798 0.684900 0.282772
O O9 0.500000 0.881996 0.500000
O O10 0.259317 0.925350 0.507293
O O11 0.541654 0.876928 0.675381
O O12 0.549285 0.000000 0.605543
O O13 0.781170 0.000000 0.121999
O O14 0.500000 0.074902 0.000000
O O15 0.500000 0.616463 0.500000
O O16 0.529125 0.500000 0.601837
#
# Coordination Sequence:
#
# PCOD8110255 Si02
#       6
#     8   8   8   8   8   8
#     4  12  24  44  70  97 139 179 219 273 333 397
#     4  12  25  41  65  99 131 173 220 273 329 403
#     4  10  24  45  67  95 133 174 219 276 336 391
#     4  11  24  43  68  98 130 172 224 276 333 397
#     4  10  21  41  66  91 125 170 217 268 321 382
#     4  12  26  41  68  97 130 177 219 270 336 394
#
# _framework density 20.319210999999999
#
# number of rings (size 3 to 8) (size 9 to 14) (size 15 to 20)
#    0.000    0.833    5.000    2.000    2.333    3.000 
#    0.000    1.667    0.000    0.000    0.000    0.000 
#    0.000    0.000    0.000    0.000    0.000    0.000 
#
# Total GULP energy -297501.308916 kJ/mol
# GULP energy per Si atom -12395.887871 kJ/mol
# Density = 2.027296 g / cm^3
# Si number density = 20.319211 Si / 1000 Ang^3
#
#
#
# Elastic Constant Matrix: (Units=GPa)
#
#
# Indices 1 2 3 4 5 6 
#
# 1 103.4749 42.3680 21.8352 0.0000 -20.3964 0.0000
# 2 42.3680 122.6444 49.6755 0.0000 -15.1278 0.0000
# 3 21.8352 49.6755 108.6418 0.0000 -17.1364 0.0000
# 4 0.0000 0.0000 0.0000 43.5635 0.0000 -3.1174
# 5 -20.3964 -15.1278 -17.1364 0.0000 36.5972 0.0000
# 6 0.0000 0.0000 0.0000 -3.1174 0.0000 34.6144
#
#
#
# Elastic Compliance Matrix: (Units=1/GPa)
#
#
# Indices 1 2 3 4 5 6 
#
# 1 0.012164 -0.003554 0.000019 0.000000 0.005319 0.000000
# 2 -0.003554 0.011205 -0.004309 0.000000 0.000633 0.000000
# 3 0.000019 -0.004309 0.011760 0.000000 0.003736 0.000000
# 4 0.000000 0.000000 0.000000 0.023104 0.000000 0.002081
# 5 0.005319 0.000633 0.003736 0.000000 0.032300 0.000000
# 6 0.000000 0.000000 0.000000 0.002081 0.000000 0.029077
#
#
# Mechanical properties :
#
#
# Convention : Reuss Voigt Hill
#
# Bulk Modulus (GPa) = 51.43634 62.50205 56.96919
# Shear Modulus (GPa) = 35.26647 37.68051 36.47349
#
# Velocity S-wave (km/s) = 4.17060 4.31098 4.24137
# Velocity P-wave (km/s) = 6.96857 7.45696 7.21690
#
# Compressibility (1/GPa) = 0.01944151
#
# Stress axis : x y z
#
# Youngs Moduli (GPa) = 82.21219 89.24767 85.03152
#
# Poissons Ratio (x) = 0.31716 -0.00163
# Poissons Ratio (y) = 0.29215 0.36641
# Poissons Ratio (z) = -0.00158 0.38458
#
# Static dielectric constant tensor:
#      x y z
#    x 3.732990 0.000000 -0.108690 
#    y 0.000000 4.027470 0.000000 
#    z -0.108690 0.000000 4.085510 
# 
# 
# High freq. dielectric constant tensor:
#      x y z
#    x 1.803930 0.000000 -0.008930 
#    y 0.000000 1.793100 0.000000 
#    z -0.008930 0.000000 1.803280 
# 
# From -- ./inp_files/256741.got.cif
#   From: 2010.06.25/outbox.cif.g09.slc.cpg/sg12_129_cif.got.tgz:256741.got - 2010.06.28 00:19:55.
