data_PCOD8110878
_publ_section_title
;
Structure prediction by ZEFSAII (Michael W. Deem and Ramdas Pophale) SiO2 
 PCOD8110878
Probable space group: C 2/M
;
_chemical_formula_sum "Si O2"
_cell_formula_units_Z 48
_cell_length_a 7.262197
_cell_length_b 21.094906
_cell_length_c 18.558934
_cell_angle_alpha 90.000000
_cell_angle_beta 50.732177
_cell_angle_gamma 90.000000
_cell_volume 2201.149059
_symmetry_space_group_name_H-M "C 2/M"
_symmetry_group_IT_number 12
_symmetry_cell_setting 'monoclinic'
loop_
_space_group_symop_operation_xyz
x,y,z
-x,y,-z
-x,-y,-z
x,-y,z
1/2+x,1/2+y,z
1/2-x,1/2+y,-z
1/2-x,1/2-y,-z
1/2+x,1/2-y,z
loop_
_atom_site_type_symbol
_atom_site_label
_atom_site_fract_x
_atom_site_fract_y
_atom_site_fract_z
Si Si1 0.582842 0.072811 0.610779
Si Si2 0.930363 0.120212 0.293640
Si Si3 0.154689 0.190520 0.116734
Si Si4 0.251424 0.821780 0.527608
Si Si5 0.636718 0.170991 0.077951
Si Si6 0.583375 0.070790 0.777482
O O1 0.310746 0.079526 0.650177
O O2 0.766657 0.123643 0.529493
O O3 0.604649 0.088962 0.689021
O O4 0.662353 0.000000 0.574335
O O5 0.938161 0.167765 0.361213
O O6 0.942084 0.160397 0.216229
O O7 0.161400 0.076311 0.245932
O O8 0.398373 0.168116 0.090803
O O9 0.145209 0.266294 0.124432
O O10 0.143846 0.169068 0.034339
O O11 0.500000 0.836310 0.500000
O O12 0.250000 0.750000 0.500000
O O13 0.627068 0.112186 0.134563
O O14 0.490500 0.000000 0.809350
#
# Coordination Sequence:
#
# PCOD8110878 Si02
#       6
#     8   8   8   8   8   8
#     4  10  23  41  59  84 116 153 194 234 284 341
#     4  10  22  38  60  83 113 151 192 236 282 338
#     4   9  19  34  56  86 109 151 184 234 290 329
#     4  10  24  38  59  88 117 150 190 241 288 332
#     4   9  19  35  55  84 116 143 190 231 283 340
#     4  10  22  38  60  85 114 153 188 232 282 336
#
# _framework density 21.806791
#
# number of rings (size 3 to 8) (size 9 to 14) (size 15 to 20)
#    0.000    2.333    0.000    0.500    7.000    6.333 
#    0.000    9.167    0.000    2.000    0.000    0.000 
#    0.000    0.000    0.000    0.000    0.000    0.000 
#
# Total GULP energy -297426.414619 kJ/mol
# GULP energy per Si atom -12392.767276 kJ/mol
# Density = 2.175716 g / cm^3
# Si number density = 21.806791 Si / 1000 Ang^3
#
#
#
# Elastic Constant Matrix: (Units=GPa)
#
#
# Indices 1 2 3 4 5 6 
#
# 1 30.5768 7.5877 9.7977 0.0000 11.1707 0.0000
# 2 7.5877 145.7885 90.4226 0.0000 22.1312 0.0000
# 3 9.7977 90.4226 145.3353 0.0000 20.7655 0.0000
# 4 0.0000 0.0000 0.0000 57.1776 0.0000 -0.4253
# 5 11.1707 22.1312 20.7655 0.0000 30.4852 0.0000
# 6 0.0000 0.0000 0.0000 -0.4253 0.0000 26.1232
#
#
#
# Elastic Compliance Matrix: (Units=1/GPa)
#
#
# Indices 1 2 3 4 5 6 
#
# 1 0.037864 0.000779 -0.001079 0.000000 -0.013705 0.000000
# 2 0.000779 0.011584 -0.006666 0.000000 -0.004154 0.000000
# 3 -0.001079 -0.006666 0.011469 0.000000 -0.002578 0.000000
# 4 0.000000 0.000000 0.000000 0.017491 0.000000 0.000285
# 5 -0.013705 -0.004154 -0.002578 0.000000 0.042596 0.000000
# 6 0.000000 0.000000 0.000000 0.000285 0.000000 0.038285
#
#
# Mechanical properties :
#
#
# Convention : Reuss Voigt Hill
#
# Bulk Modulus (GPa) = 21.28358 59.70184 40.49271
# Shear Modulus (GPa) = 26.47146 37.01671 31.74409
#
# Velocity S-wave (km/s) = 3.48790 4.12453 3.81950
# Velocity P-wave (km/s) = 5.09920 7.07950 6.16933
#
# Compressibility (1/GPa) = 0.04698457
#
# Stress axis : x y z
#
# Youngs Moduli (GPa) = 26.41045 86.32751 87.19124
#
# Poissons Ratio (x) = -0.06726 0.09409
# Poissons Ratio (y) = -0.02058 0.58122
# Poissons Ratio (z) = 0.02850 0.57546
#
# Static dielectric constant tensor:
#      x y z
#    x 3.830750 0.000000 0.399820 
#    y 0.000000 3.593120 0.000000 
#    z 0.399820 0.000000 5.341940 
# 
# 
# High freq. dielectric constant tensor:
#      x y z
#    x 1.853260 0.000000 0.015070 
#    y 0.000000 1.845000 0.000000 
#    z 0.015070 0.000000 1.864090 
# 
# From -- ./inp_files/257900.got.cif
#   From: 2010.06.25/outbox.cif.g09.slc.cpg/sg12_129_cif.got.tgz:257900.got - 2010.06.28 00:19:55.
