data_PCOD8110220
_publ_section_title
;
Structure prediction by ZEFSAII (Michael W. Deem and Ramdas Pophale) SiO2 
 PCOD8110220
Probable space group: C 2/M
;
_chemical_formula_sum "Si O2"
_cell_formula_units_Z 56
_cell_length_a 16.207076
_cell_length_b 9.450021
_cell_length_c 26.289936
_cell_angle_alpha 90.000000
_cell_angle_beta 39.934298
_cell_angle_gamma 90.000000
_cell_volume 2584.641230
_symmetry_space_group_name_H-M "C 2/M"
_symmetry_group_IT_number 12
_symmetry_cell_setting 'monoclinic'
loop_
_space_group_symop_operation_xyz
x,y,z
-x,y,-z
-x,-y,-z
x,-y,z
1/2+x,1/2+y,z
1/2-x,1/2+y,-z
1/2-x,1/2-y,-z
1/2+x,1/2-y,z
loop_
_atom_site_type_symbol
_atom_site_label
_atom_site_fract_x
_atom_site_fract_y
_atom_site_fract_z
Si Si1 0.021963 0.838850 0.388645
Si Si2 0.294282 0.163009 0.640249
Si Si3 0.233318 0.846931 0.439062
Si Si4 0.605912 0.335924 0.172678
Si Si5 0.421934 0.661467 0.173623
Si Si6 0.119032 0.334837 0.909784
Si Si7 0.982162 0.655356 0.698136
O O1 0.082456 0.761815 0.408435
O O2 0.086216 0.759047 0.309767
O O3 0.867276 0.824112 0.467257
O O4 0.067116 0.000000 0.362889
O O5 0.254425 0.211905 0.603267
O O6 0.181684 0.191695 0.733622
O O7 0.335605 0.000000 0.620186
O O8 0.376714 0.863989 0.392247
O O9 0.197040 0.000000 0.429691
O O10 0.574395 0.500000 0.200976
O O11 0.562560 0.308318 0.134133
O O12 0.753942 0.299501 0.116571
O O13 0.518084 0.230457 0.247164
O O14 0.416334 0.500000 0.157460
O O15 0.390314 0.756603 0.139823
O O16 0.111223 0.500000 0.901141
O O17 0.000000 0.283822 0.000000
O O18 0.914536 0.500000 0.732819
#
# Coordination Sequence:
#
# PCOD8110220 Si02
#       7
#     8   8   8   8   8   8   8
#     4  11  23  37  54  78 114 158 199 246 310 363
#     4  11  22  37  58  84 114 149 199 251 296 353
#     4  10  22  38  55  79 113 153 197 248 303 361
#     4  10  21  41  65  89 123 166 202 243 305 368
#     4  10  22  40  63  91 123 161 202 245 299 362
#     4  10  23  42  65  95 127 158 197 243 295 362
#     4  11  22  37  58  85 114 148 202 254 295 354
#
# _framework density 21.666450000000001
#
# number of rings (size 3 to 8) (size 9 to 14) (size 15 to 20)
#    0.000    1.571    1.429    3.000    0.000    8.857 
#    0.000    0.000    0.000    0.000    0.000    0.000 
#    0.000    0.000    0.000    0.000    0.000    0.000 
#
# Total GULP energy -346917.814065 kJ/mol
# GULP energy per Si atom -12389.921931 kJ/mol
# Density = 2.161714 g / cm^3
# Si number density = 21.666450 Si / 1000 Ang^3
#
#
#
# Elastic Constant Matrix: (Units=GPa)
#
#
# Indices 1 2 3 4 5 6 
#
# 1 86.4228 36.3061 13.1116 0.0000 -4.0707 0.0000
# 2 36.3061 131.9599 36.3933 0.0000 9.0363 0.0000
# 3 13.1116 36.3933 50.6481 0.0000 1.8363 0.0000
# 4 0.0000 0.0000 0.0000 24.7286 0.0000 5.0327
# 5 -4.0707 9.0363 1.8363 0.0000 31.2535 0.0000
# 6 0.0000 0.0000 0.0000 5.0327 0.0000 31.7789
#
#
#
# Elastic Compliance Matrix: (Units=1/GPa)
#
#
# Indices 1 2 3 4 5 6 
#
# 1 0.013366 -0.003603 -0.000974 0.000000 0.002840 0.000000
# 2 -0.003603 0.010596 -0.006567 0.000000 -0.003147 0.000000
# 3 -0.000974 -0.006567 0.024703 0.000000 0.000320 0.000000
# 4 0.000000 0.000000 0.000000 0.041786 0.000000 -0.006617
# 5 0.002840 -0.003147 0.000320 0.000000 0.033257 0.000000
# 6 0.000000 0.000000 0.000000 -0.006617 0.000000 0.032515
#
#
# Mechanical properties :
#
#
# Convention : Reuss Voigt Hill
#
# Bulk Modulus (GPa) = 37.91158 48.96142 43.43650
# Shear Modulus (GPa) = 26.69442 29.76686 28.23064
#
# Velocity S-wave (km/s) = 3.51388 3.71059 3.61358
# Velocity P-wave (km/s) = 5.83086 6.40351 6.12388
#
# Compressibility (1/GPa) = 0.02637717
#
# Stress axis : x y z
#
# Youngs Moduli (GPa) = 74.81495 94.37491 40.48047
#
# Poissons Ratio (x) = 0.34006 0.03943
# Poissons Ratio (y) = 0.26958 0.26583
# Poissons Ratio (z) = 0.07287 0.61975
#
# Static dielectric constant tensor:
#      x y z
#    x 3.975730 0.000000 -0.182770 
#    y 0.000000 4.062600 0.000000 
#    z -0.182770 0.000000 3.646340 
# 
# 
# High freq. dielectric constant tensor:
#      x y z
#    x 1.855220 0.000000 -0.008810 
#    y 0.000000 1.860730 0.000000 
#    z -0.008810 0.000000 1.824540 
# 
# From -- ./inp_files/314418.got.cif
#   From: 2010.06.25/outbox.cif.g09.slc.cpg/sg12_158_cif.got.tgz:314418.got - 2010.06.28 00:19:55.
