data_PCOD8110642
_publ_section_title
;
Structure prediction by ZEFSAII (Michael W. Deem and Ramdas Pophale) SiO2 
 PCOD8110642
Probable space group: C 2/M
;
_chemical_formula_sum "Si O2"
_cell_formula_units_Z 56
_cell_length_a 22.736718
_cell_length_b 24.597397
_cell_length_c 5.066972
_cell_angle_alpha 90.000000
_cell_angle_beta 112.813163
_cell_angle_gamma 90.000000
_cell_volume 2612.100797
_symmetry_space_group_name_H-M "C 2/M"
_symmetry_group_IT_number 12
_symmetry_cell_setting 'monoclinic'
loop_
_space_group_symop_operation_xyz
x,y,z
-x,y,-z
-x,-y,-z
x,-y,z
1/2+x,1/2+y,z
1/2-x,1/2+y,-z
1/2-x,1/2-y,-z
1/2+x,1/2-y,z
loop_
_atom_site_type_symbol
_atom_site_label
_atom_site_fract_x
_atom_site_fract_y
_atom_site_fract_z
Si Si1 0.341263 0.621259 0.230801
Si Si2 0.044339 0.315218 0.327480
Si Si3 0.165543 0.379195 0.551787
Si Si4 0.458537 0.358510 0.172144
Si Si5 0.781095 0.436975 0.854158
Si Si6 0.620525 0.286611 0.313023
Si Si7 0.739095 0.707565 0.212064
O O1 0.402648 0.599036 0.168575
O O2 0.295526 0.574581 0.269036
O O3 0.372109 0.658315 0.510320
O O4 0.299294 0.656095 0.960193
O O5 0.090107 0.368198 0.393302
O O6 0.086358 0.260252 0.419382
O O7 0.000000 0.320212 0.500000
O O8 0.000000 0.315039 0.000000
O O9 0.191535 0.421686 0.383526
O O10 0.196810 0.319421 0.563702
O O11 0.179424 0.402604 0.865203
O O12 0.500000 0.342664 0.500000
O O13 0.500000 0.382940 0.000000
O O14 0.423989 0.302273 0.015916
O O15 0.792283 0.500000 0.925917
O O16 0.693132 0.266458 0.360363
O O17 0.750000 0.750000 0.000000
#
# Coordination Sequence:
#
# PCOD8110642 Si02
#       7
#     8   8   8   8   8   8   8
#     4  10  22  37  60  94 129 165 214 277 323 380
#     4  12  29  41  62  94 140 185 218 255 306 394
#     4  11  24  46  67  97 136 170 216 274 341 389
#     4  11  22  36  56  84 128 182 222 251 290 368
#     4  11  24  46  76 101 122 159 221 292 358 395
#     4  11  23  37  60  93 136 180 221 256 306 385
#     4  10  22  36  61  94 134 177 209 260 327 399
#
# _framework density 21.438682
#
# number of rings (size 3 to 8) (size 9 to 14) (size 15 to 20)
#    0.000    1.143    2.857    2.571   12.000    1.143 
#    0.000    0.000    0.000    9.429    0.000    0.000 
#    0.000    0.000    0.000    0.000    0.000    0.000 
#
# Total GULP energy -347082.649175 kJ/mol
# GULP energy per Si atom -12395.808899 kJ/mol
# Density = 2.138989 g / cm^3
# Si number density = 21.438682 Si / 1000 Ang^3
#
#
#
# Elastic Constant Matrix: (Units=GPa)
#
#
# Indices 1 2 3 4 5 6 
#
# 1 174.4508 35.1410 35.2185 0.0000 -7.9259 0.0000
# 2 35.1410 74.5503 14.5572 0.0000 4.9580 0.0000
# 3 35.2185 14.5572 66.0048 0.0000 -5.1499 0.0000
# 4 0.0000 0.0000 0.0000 20.8711 0.0000 -3.4366
# 5 -7.9259 4.9580 -5.1499 0.0000 37.0738 0.0000
# 6 0.0000 0.0000 0.0000 -3.4366 0.0000 20.8471
#
#
#
# Elastic Compliance Matrix: (Units=1/GPa)
#
#
# Indices 1 2 3 4 5 6 
#
# 1 0.006964 -0.002796 -0.002986 0.000000 0.001448 0.000000
# 2 -0.002796 0.015342 -0.002121 0.000000 -0.002944 0.000000
# 3 -0.002986 -0.002121 0.017372 0.000000 0.002058 0.000000
# 4 0.000000 0.000000 0.000000 0.049250 0.000000 0.008119
# 5 0.001448 -0.002944 0.002058 0.000000 0.027962 0.000000
# 6 0.000000 0.000000 0.000000 0.008119 0.000000 0.049307
#
#
# Mechanical properties :
#
#
# Convention : Reuss Voigt Hill
#
# Bulk Modulus (GPa) = 41.89202 53.87101 47.88151
# Shear Modulus (GPa) = 26.32113 31.09768 28.70941
#
# Velocity S-wave (km/s) = 3.50771 3.81273 3.66340
# Velocity P-wave (km/s) = 5.99902 6.67570 6.34639
#
# Compressibility (1/GPa) = 0.02387089
#
# Stress axis : x y z
#
# Youngs Moduli (GPa) = 143.59291 65.18173 57.56281
#
# Poissons Ratio (x) = 0.18224 0.17190
# Poissons Ratio (y) = 0.40147 0.12212
# Poissons Ratio (z) = 0.42881 0.13828
#
# Static dielectric constant tensor:
#      x y z
#    x 4.633200 0.000000 0.145800 
#    y 0.000000 3.385150 0.000000 
#    z 0.145800 0.000000 3.986780 
# 
# 
# High freq. dielectric constant tensor:
#      x y z
#    x 1.871110 0.000000 0.002340 
#    y 0.000000 1.780620 0.000000 
#    z 0.002340 0.000000 1.860250 
# 
# From -- ./inp_files/26126.got.cif
#   From: 2010.06.25/outbox.cif.g09.slc.cpg/sg12_14_cif.got.tgz:26126.got - 2010.06.28 00:19:55.
