data_PCOD8110271
_publ_section_title
;
Structure prediction by ZEFSAII (Michael W. Deem and Ramdas Pophale) SiO2 
 PCOD8110271
Probable space group: C 2/M
;
_chemical_formula_sum "Si O2"
_cell_formula_units_Z 48
_cell_length_a 16.640155
_cell_length_b 27.940083
_cell_length_c 9.720567
_cell_angle_alpha 90.000000
_cell_angle_beta 148.400277
_cell_angle_gamma 90.000000
_cell_volume 2368.060807
_symmetry_space_group_name_H-M "C 2/M"
_symmetry_group_IT_number 12
_symmetry_cell_setting 'monoclinic'
loop_
_space_group_symop_operation_xyz
x,y,z
-x,y,-z
-x,-y,-z
x,-y,z
1/2+x,1/2+y,z
1/2-x,1/2+y,-z
1/2-x,1/2-y,-z
1/2+x,1/2-y,z
loop_
_atom_site_type_symbol
_atom_site_label
_atom_site_fract_x
_atom_site_fract_y
_atom_site_fract_z
Si Si1 0.161565 0.869258 0.562999
Si Si2 0.684509 0.625877 0.906988
Si Si3 0.176964 0.717734 0.778712
Si Si4 0.181167 0.269324 0.262046
Si Si5 0.664305 0.055268 0.692338
Si Si6 0.655041 0.444297 0.308236
O O1 0.216572 0.886562 0.794061
O O2 0.259059 0.822759 0.671641
O O3 0.184186 0.911253 0.483889
O O4 0.984837 0.853465 0.314917
O O5 0.805470 0.663080 0.148134
O O6 0.702801 0.577244 0.018792
O O7 0.267752 0.729993 0.773614
O O8 0.000000 0.730345 0.500000
O O9 0.250000 0.750000 0.000000
O O10 0.250000 0.250000 0.500000
O O11 0.000000 0.271481 0.000000
O O12 0.500000 0.076633 0.500000
O O13 0.701354 0.064876 0.585553
O O14 0.670865 0.000000 0.735964
O O15 0.648205 0.500000 0.344563
O O16 0.500000 0.430372 0.000000
#
# Coordination Sequence:
#
# PCOD8110271 Si02
#       6
#     8   8   8   8   8   8
#     4  11  24  40  64  98 132 168 223 276 329 395
#     4  11  23  40  65  95 129 173 221 272 330 395
#     4  12  24  45  69  91 128 176 221 268 327 398
#     4  12  27  43  65  98 134 171 220 277 331 392
#     4  10  22  41  66  95 128 168 218 268 326 401
#     4  10  21  41  66  95 131 173 220 273 335 400
#
# _framework density 20.269749999999998
#
# number of rings (size 3 to 8) (size 9 to 14) (size 15 to 20)
#    0.000    1.000    3.333    3.500    2.333    2.667 
#    0.000    1.667    0.000    3.500    0.000    0.000 
#    0.000    0.000    0.000    0.000    0.000    0.000 
#
# Total GULP energy -297591.667629 kJ/mol
# GULP energy per Si atom -12399.652818 kJ/mol
# Density = 2.022362 g / cm^3
# Si number density = 20.269750 Si / 1000 Ang^3
#
#
#
# Elastic Constant Matrix: (Units=GPa)
#
#
# Indices 1 2 3 4 5 6 
#
# 1 147.9615 57.7073 71.1427 0.0000 -10.3590 0.0000
# 2 57.7073 89.6526 54.1266 0.0000 -17.2543 0.0000
# 3 71.1427 54.1266 132.8951 0.0000 -4.9237 0.0000
# 4 0.0000 0.0000 0.0000 166.0342 0.0000 19.0358
# 5 -10.3590 -17.2543 -4.9237 0.0000 48.8693 0.0000
# 6 0.0000 0.0000 0.0000 19.0358 0.0000 43.8608
#
#
#
# Elastic Compliance Matrix: (Units=1/GPa)
#
#
# Indices 1 2 3 4 5 6 
#
# 1 0.010243 -0.004289 -0.003726 0.000000 0.000281 0.000000
# 2 -0.004289 0.017712 -0.004737 0.000000 0.004867 0.000000
# 3 -0.003726 -0.004737 0.011400 0.000000 -0.001314 0.000000
# 4 0.000000 0.000000 0.000000 0.006338 0.000000 -0.002751
# 5 0.000281 0.004867 -0.001314 0.000000 0.022108 0.000000
# 6 0.000000 0.000000 0.000000 -0.002751 0.000000 0.023993
#
#
# Mechanical properties :
#
#
# Convention : Reuss Voigt Hill
#
# Bulk Modulus (GPa) = 72.20393 81.82918 77.01656
# Shear Modulus (GPa) = 41.01197 64.25505 52.63351
#
# Velocity S-wave (km/s) = 4.50300 5.63638 5.10126
# Velocity P-wave (km/s) = 7.92053 9.10034 8.53086
#
# Compressibility (1/GPa) = 0.01384966
#
# Stress axis : x y z
#
# Youngs Moduli (GPa) = 97.63210 56.45914 87.71948
#
# Poissons Ratio (x) = 0.24218 0.32682
# Poissons Ratio (y) = 0.41878 0.41555
# Poissons Ratio (z) = 0.36375 0.26746
#
# Static dielectric constant tensor:
#      x y z
#    x 4.074760 0.000000 -0.055670 
#    y 0.000000 3.875760 0.000000 
#    z -0.055670 0.000000 3.873830 
# 
# 
# High freq. dielectric constant tensor:
#      x y z
#    x 1.808490 0.000000 -0.001590 
#    y 0.000000 1.794300 0.000000 
#    z -0.001590 0.000000 1.793650 
# 
# From -- ./inp_files/67413.got.cif
#   From: 2010.06.25/outbox.cif.g09.slc.cpg/sg12_34_cif.got.tgz:67413.got - 2010.06.28 00:19:55.
