data_PCOD8110198
_publ_section_title
;
Structure prediction by ZEFSAII (Michael W. Deem and Ramdas Pophale) SiO2 
 PCOD8110198
Probable space group: C 2/M
;
_chemical_formula_sum "Si O2"
_cell_formula_units_Z 56
_cell_length_a 19.458784
_cell_length_b 8.654660
_cell_length_c 16.749847
_cell_angle_alpha 90.000000
_cell_angle_beta 73.180906
_cell_angle_gamma 90.000000
_cell_volume 2700.161460
_symmetry_space_group_name_H-M "C 2/M"
_symmetry_group_IT_number 12
_symmetry_cell_setting 'monoclinic'
loop_
_space_group_symop_operation_xyz
x,y,z
-x,y,-z
-x,-y,-z
x,-y,z
1/2+x,1/2+y,z
1/2-x,1/2+y,-z
1/2-x,1/2-y,-z
1/2+x,1/2-y,z
loop_
_atom_site_type_symbol
_atom_site_label
_atom_site_fract_x
_atom_site_fract_y
_atom_site_fract_z
Si Si1 0.295670 0.822375 0.142299
Si Si2 0.640658 0.178208 0.433638
Si Si3 0.550387 0.178425 0.309465
Si Si4 0.095067 0.178346 0.610529
Si Si5 0.421306 0.318070 0.005948
Si Si6 0.216588 0.321397 0.670096
Si Si7 0.858827 0.181577 0.859618
O O1 0.275354 0.780581 0.239694
O O2 0.226484 0.783556 0.110980
O O3 0.317583 0.000000 0.126471
O O4 0.364491 0.724482 0.093196
O O5 0.583262 0.213902 0.384725
O O6 0.603935 0.215776 0.529847
O O7 0.709429 0.286405 0.399636
O O8 0.664986 0.000000 0.423661
O O9 0.480144 0.282523 0.322318
O O10 0.607050 0.222976 0.223282
O O11 0.529353 0.000000 0.307311
O O12 0.155659 0.213080 0.654830
O O13 0.097932 0.000000 0.584805
O O14 0.427345 0.500000 0.999568
O O15 0.393145 0.255660 0.930254
O O16 0.500000 0.247441 0.000000
O O17 0.196766 0.500000 0.662847
O O18 0.872793 0.000000 0.841395
#
# Coordination Sequence:
#
# PCOD8110198 Si02
#       7
#     8   8   8   8   8   8   8
#     4  10  22  40  64  91 122 163 209 255 303 365
#     4  11  23  42  65  92 125 163 210 260 313 372
#     4  11  24  41  64  94 126 163 209 260 312 370
#     4  12  26  41  62  90 126 169 210 259 316 370
#     4  10  23  40  62  94 129 162 201 253 309 368
#     4  11  23  41  64  92 127 164 210 261 312 370
#     4  10  21  41  64  90 125 166 210 252 305 370
#
# _framework density 20.739501000000001
#
# number of rings (size 3 to 8) (size 9 to 14) (size 15 to 20)
#    0.000    1.286    1.429    3.857    2.000    6.000 
#    0.000    0.000    0.000    0.000    0.000    0.000 
#    0.000    0.000    0.000    0.000    0.000    0.000 
#
# Total GULP energy -347392.053269 kJ/mol
# GULP energy per Si atom -12406.859045 kJ/mol
# Density = 2.069230 g / cm^3
# Si number density = 20.739501 Si / 1000 Ang^3
#
#
#
# Elastic Constant Matrix: (Units=GPa)
#
#
# Indices 1 2 3 4 5 6 
#
# 1 114.7113 34.5661 36.2604 0.0000 -10.3505 0.0000
# 2 34.5661 51.9298 17.7006 0.0000 3.6496 0.0000
# 3 36.2604 17.7006 76.5178 0.0000 -2.3532 0.0000
# 4 0.0000 0.0000 0.0000 31.4063 0.0000 -5.9240
# 5 -10.3505 3.6496 -2.3532 0.0000 31.1855 0.0000
# 6 0.0000 0.0000 0.0000 -5.9240 0.0000 29.8931
#
#
#
# Elastic Compliance Matrix: (Units=1/GPa)
#
#
# Indices 1 2 3 4 5 6 
#
# 1 0.012678 -0.007355 -0.004160 0.000000 0.004755 0.000000
# 2 -0.007355 0.025422 -0.002568 0.000000 -0.005610 0.000000
# 3 -0.004160 -0.002568 0.015637 0.000000 0.000100 0.000000
# 4 0.000000 0.000000 0.000000 0.033077 0.000000 0.006555
# 5 0.004755 -0.005610 0.000100 0.000000 0.034308 0.000000
# 6 0.000000 0.000000 0.000000 0.006555 0.000000 0.034752
#
#
# Mechanical properties :
#
#
# Convention : Reuss Voigt Hill
#
# Bulk Modulus (GPa) = 39.10657 46.69034 42.89846
# Shear Modulus (GPa) = 25.96536 28.80575 27.38555
#
# Velocity S-wave (km/s) = 3.54217 3.73088 3.63775
# Velocity P-wave (km/s) = 5.96877 6.41256 6.19464
#
# Compressibility (1/GPa) = 0.02557115
#
# Stress axis : x y z
#
# Youngs Moduli (GPa) = 78.87766 39.33599 63.94923
#
# Poissons Ratio (x) = 0.28931 0.26604
# Poissons Ratio (y) = 0.58014 0.16422
# Poissons Ratio (z) = 0.32815 0.10101
#
# Static dielectric constant tensor:
#      x y z
#    x 3.950140 0.000000 0.123570 
#    y 0.000000 3.615330 0.000000 
#    z 0.123570 0.000000 3.698930 
# 
# 
# High freq. dielectric constant tensor:
#      x y z
#    x 1.825320 0.000000 0.001150 
#    y 0.000000 1.806540 0.000000 
#    z 0.001150 0.000000 1.815820 
# 
# From -- ./inp_files/275180.got.cif
#   From: 2010.06.25/outbox.cif.g09.slc.cpg/sg12_138_cif.got.tgz:275180.got - 2010.06.28 00:19:55.
