data_PCOD8110373
_publ_section_title
;
Structure prediction by ZEFSAII (Michael W. Deem and Ramdas Pophale) SiO2 
 PCOD8110373
Probable space group: C 2/M
;
_chemical_formula_sum "Si O2"
_cell_formula_units_Z 64
_cell_length_a 14.647175
_cell_length_b 26.995383
_cell_length_c 12.485505
_cell_angle_alpha 90.000000
_cell_angle_beta 38.720633
_cell_angle_gamma 90.000000
_cell_volume 3088.113242
_symmetry_space_group_name_H-M "C 2/M"
_symmetry_group_IT_number 12
_symmetry_cell_setting 'monoclinic'
loop_
_space_group_symop_operation_xyz
x,y,z
-x,y,-z
-x,-y,-z
x,-y,z
1/2+x,1/2+y,z
1/2-x,1/2+y,-z
1/2-x,1/2-y,-z
1/2+x,1/2-y,z
loop_
_atom_site_type_symbol
_atom_site_label
_atom_site_fract_x
_atom_site_fract_y
_atom_site_fract_z
Si Si1 0.130075 0.886314 0.305539
Si Si2 0.133391 0.556776 0.799946
Si Si3 0.722434 0.058046 0.172561
Si Si4 0.649140 0.699721 0.927337
Si Si5 0.492692 0.120809 0.262922
Si Si6 0.126637 0.689958 0.971225
Si Si7 0.276735 0.869985 0.646015
Si Si8 0.540967 0.613596 0.152247
O O1 0.214787 0.933382 0.277754
O O2 0.240387 0.841025 0.196569
O O3 0.061860 0.902513 0.255157
O O4 0.000000 0.868588 0.500000
O O5 0.128557 0.500000 0.767490
O O6 0.121833 0.592104 0.707667
O O7 0.000000 0.570408 0.000000
O O8 0.618791 0.081937 0.177151
O O9 0.686035 0.080009 0.322792
O O10 0.696509 0.000000 0.199475
O O11 0.890092 0.071204 0.987688
O O12 0.688430 0.754474 0.932069
O O13 0.769110 0.676029 0.736684
O O14 0.500000 0.699843 0.000000
O O15 0.630911 0.664540 0.047804
O O16 0.407255 0.141170 0.444590
O O17 0.564672 0.168266 0.139323
O O18 0.000000 0.689809 0.000000
O O19 0.128191 0.878861 0.717236
#
# Coordination Sequence:
#
# PCOD8110373 Si02
#       8
#     8   8   8   8   8   8   8   8
#     4  12  23  39  59  90 125 160 204 259 299 359
#     4  11  22  40  63  88 124 167 207 250 305 368
#     4  11  23  41  65  91 123 164 209 254 309 369
#     4   8  19  41  64  87 121 162 204 251 309 368
#     4  12  21  40  65  93 125 161 205 258 312 363
#     4  11  21  42  65  88 121 167 205 250 311 371
#     4  10  23  41  63  93 129 156 205 263 307 360
#     4  10  21  42  62  86 125 168 200 250 308 367
#
# _framework density 20.724627999999999
#
# number of rings (size 3 to 8) (size 9 to 14) (size 15 to 20)
#    0.000    1.375    3.750    2.625    0.000    4.750 
#    2.250    3.125    0.000    0.000    0.000    0.000 
#    0.000    0.000    0.000    0.000    0.000    0.000 
#
# Total GULP energy -396880.503326 kJ/mol
# GULP energy per Si atom -12402.515729 kJ/mol
# Density = 2.067746 g / cm^3
# Si number density = 20.724628 Si / 1000 Ang^3
#
#
#
# Elastic Constant Matrix: (Units=GPa)
#
#
# Indices 1 2 3 4 5 6 
#
# 1 70.5634 28.3091 20.7437 0.0000 4.0008 0.0000
# 2 28.3091 143.8756 54.4171 0.0000 8.5485 0.0000
# 3 20.7437 54.4171 145.4774 0.0000 8.6396 0.0000
# 4 0.0000 0.0000 0.0000 15.1887 0.0000 0.7432
# 5 4.0008 8.5485 8.6396 0.0000 31.5908 0.0000
# 6 0.0000 0.0000 0.0000 0.7432 0.0000 26.5639
#
#
#
# Elastic Compliance Matrix: (Units=1/GPa)
#
#
# Indices 1 2 3 4 5 6 
#
# 1 0.015608 -0.002556 -0.001213 0.000000 -0.000953 0.000000
# 2 -0.002556 0.008574 -0.002769 0.000000 -0.001239 0.000000
# 3 -0.001213 -0.002769 0.008162 0.000000 -0.001329 0.000000
# 4 0.000000 0.000000 0.000000 0.065928 0.000000 -0.001845
# 5 -0.000953 -0.001239 -0.001329 0.000000 0.032474 0.000000
# 6 0.000000 0.000000 0.000000 -0.001845 0.000000 0.037697
#
#
# Mechanical properties :
#
#
# Convention : Reuss Voigt Hill
#
# Bulk Modulus (GPa) = 51.89967 62.98403 57.44185
# Shear Modulus (GPa) = 26.60404 31.76511 29.18458
#
# Velocity S-wave (km/s) = 3.58675 3.91925 3.75668
# Velocity P-wave (km/s) = 6.49999 7.13706 6.82596
#
# Compressibility (1/GPa) = 0.01926795
#
# Stress axis : x y z
#
# Youngs Moduli (GPa) = 64.07160 116.62725 122.52361
#
# Poissons Ratio (x) = 0.29805 0.14862
# Poissons Ratio (y) = 0.16374 0.33931
# Poissons Ratio (z) = 0.07772 0.32298
#
# Static dielectric constant tensor:
#      x y z
#    x 3.902860 0.000000 0.007430 
#    y 0.000000 3.839220 0.000000 
#    z 0.007430 0.000000 3.686280 
# 
# 
# High freq. dielectric constant tensor:
#      x y z
#    x 1.826890 0.000000 0.001810 
#    y 0.000000 1.796740 0.000000 
#    z 0.001810 0.000000 1.805970 
# 
# From -- ./inp_files/149758.got.cif
#   From: 2010.06.25/outbox.cif.g09.slc.cpg/sg12_75_cif.got.tgz:149758.got - 2010.06.28 00:19:55.
