data_PCOD8110525
_publ_section_title
;
Structure prediction by ZEFSAII (Michael W. Deem and Ramdas Pophale) SiO2 
 PCOD8110525
Probable space group: C 2/M
;
_chemical_formula_sum "Si O2"
_cell_formula_units_Z 56
_cell_length_a 9.744257
_cell_length_b 26.338486
_cell_length_c 14.744036
_cell_angle_alpha 90.000000
_cell_angle_beta 121.260793
_cell_angle_gamma 90.000000
_cell_volume 3234.652366
_symmetry_space_group_name_H-M "C 2/M"
_symmetry_group_IT_number 12
_symmetry_cell_setting 'monoclinic'
loop_
_space_group_symop_operation_xyz
x,y,z
-x,y,-z
-x,-y,-z
x,-y,z
1/2+x,1/2+y,z
1/2-x,1/2+y,-z
1/2-x,1/2-y,-z
1/2+x,1/2-y,z
loop_
_atom_site_type_symbol
_atom_site_label
_atom_site_fract_x
_atom_site_fract_y
_atom_site_fract_z
Si Si1 0.299248 0.942325 0.828023
Si Si2 0.964624 0.707566 0.763134
Si Si3 0.951107 0.192272 0.119243
Si Si4 0.275035 0.348836 0.893625
Si Si5 0.646817 0.657245 0.721520
Si Si6 0.327256 0.943037 0.048075
Si Si7 0.068048 0.764411 0.427979
O O1 0.184106 0.903355 0.732134
O O2 0.485377 0.929873 0.873340
O O3 0.257086 0.000000 0.783220
O O4 0.272035 0.935863 0.925709
O O5 0.995704 0.749602 0.850742
O O6 0.785782 0.686858 0.714830
O O7 0.000138 0.730836 0.676791
O O8 0.089407 0.661895 0.812121
O O9 0.112230 0.158710 0.155663
O O10 0.857137 0.172008 0.174455
O O11 0.834445 0.189143 0.993069
O O12 0.284585 0.407064 0.929220
O O13 0.482016 0.676412 0.614197
O O14 0.293886 0.000000 0.069207
O O15 0.250000 0.750000 0.500000
O O16 0.000000 0.746754 0.500000
#
# Coordination Sequence:
#
# PCOD8110525 Si02
#       7
#     8   8   8   8   8   8   8
#     4   9  17  32  53  80 107 141 187 228 260 309
#     4  11  22  35  55  76 104 145 184 219 263 327
#     4  10  22  32  45  77 115 147 177 220 262 319
#     4  11  20  34  48  75 113 148 183 217 265 310
#     4  11  20  35  57  80 103 143 185 220 272 318
#     4   9  17  31  52  75 107 150 190 221 258 306
#     4  11  23  40  56  80 107 137 177 226 277 333
#
# _framework density 17.312525000000001
#
# number of rings (size 3 to 8) (size 9 to 14) (size 15 to 20)
#    0.000    1.714    4.286    3.000    2.000    1.714 
#    0.000    2.143    0.000    0.429    0.000    0.000 
#    0.000    2.857    0.000    0.000    0.000    0.000 
#
# Total GULP energy -346965.166911 kJ/mol
# GULP energy per Si atom -12391.613104 kJ/mol
# Density = 1.727312 g / cm^3
# Si number density = 17.312525 Si / 1000 Ang^3
#
#
#
# Elastic Constant Matrix: (Units=GPa)
#
#
# Indices 1 2 3 4 5 6 
#
# 1 83.5927 30.0130 27.5028 0.0000 -6.4484 0.0000
# 2 30.0130 110.7745 37.1050 0.0000 4.9189 0.0000
# 3 27.5028 37.1050 67.5823 0.0000 4.9832 0.0000
# 4 0.0000 0.0000 0.0000 24.8133 0.0000 4.2285
# 5 -6.4484 4.9189 4.9832 0.0000 32.3491 0.0000
# 6 0.0000 0.0000 0.0000 4.2285 0.0000 20.5389
#
#
#
# Elastic Compliance Matrix: (Units=1/GPa)
#
#
# Indices 1 2 3 4 5 6 
#
# 1 0.014816 -0.002543 -0.004936 0.000000 0.004100 0.000000
# 2 -0.002543 0.011516 -0.005180 0.000000 -0.001460 0.000000
# 3 -0.004936 -0.005180 0.019890 0.000000 -0.003260 0.000000
# 4 0.000000 0.000000 0.000000 0.041766 0.000000 -0.008599
# 5 0.004100 -0.001460 -0.003260 0.000000 0.032454 0.000000
# 6 0.000000 0.000000 0.000000 -0.008599 0.000000 0.050458
#
#
# Mechanical properties :
#
#
# Convention : Reuss Voigt Hill
#
# Bulk Modulus (GPa) = 47.83685 50.13236 48.98461
# Shear Modulus (GPa) = 24.60784 26.69550 25.65167
#
# Velocity S-wave (km/s) = 3.77422 3.93106 3.85344
# Velocity P-wave (km/s) = 6.83259 7.04446 6.93934
#
# Compressibility (1/GPa) = 0.02090439
#
# Stress axis : x y z
#
# Youngs Moduli (GPa) = 67.49474 86.83270 50.27692
#
# Poissons Ratio (x) = 0.22082 0.24814
# Poissons Ratio (y) = 0.17164 0.26045
# Poissons Ratio (z) = 0.33312 0.44982
#
# Static dielectric constant tensor:
#      x y z
#    x 3.224480 0.000000 0.018250 
#    y 0.000000 3.237220 0.000000 
#    z 0.018250 0.000000 3.127490 
# 
# 
# High freq. dielectric constant tensor:
#      x y z
#    x 1.675870 0.000000 -0.000390 
#    y 0.000000 1.658870 0.000000 
#    z -0.000390 0.000000 1.638570 
# 
# From -- ./inp_files/199690.got.cif
#   From: 2010.06.25/outbox.cif.g09.slc.cpg/sg12_100_cif.got.tgz:199690.got - 2010.06.28 00:19:55.
