data_PCOD8110815
_publ_section_title
;
Structure prediction by ZEFSAII (Michael W. Deem and Ramdas Pophale) SiO2 
 PCOD8110815
Probable space group: C 2/M
;
_chemical_formula_sum "Si O2"
_cell_formula_units_Z 64
_cell_length_a 29.815255
_cell_length_b 14.432011
_cell_length_c 21.834233
_cell_angle_alpha 90.000000
_cell_angle_beta 20.473193
_cell_angle_gamma 90.000000
_cell_volume 3286.130161
_symmetry_space_group_name_H-M "C 2/M"
_symmetry_group_IT_number 12
_symmetry_cell_setting 'monoclinic'
loop_
_space_group_symop_operation_xyz
x,y,z
-x,y,-z
-x,-y,-z
x,-y,z
1/2+x,1/2+y,z
1/2-x,1/2+y,-z
1/2-x,1/2-y,-z
1/2+x,1/2-y,z
loop_
_atom_site_type_symbol
_atom_site_label
_atom_site_fract_x
_atom_site_fract_y
_atom_site_fract_z
Si Si1 0.247851 0.101542 0.933706
Si Si2 0.053480 0.897711 0.076515
Si Si3 0.389100 0.753910 0.346645
Si Si4 0.551246 0.109579 0.827584
Si Si5 0.330098 0.238258 0.136986
Si Si6 0.618239 0.748228 0.306613
Si Si7 0.698360 0.684398 0.424318
Si Si8 0.940226 0.105252 0.718658
O O1 0.359815 0.174402 0.774553
O O2 0.303317 0.000000 0.881948
O O3 0.175930 0.087819 0.961873
O O4 0.152691 0.142084 0.107813
O O5 0.949207 0.844068 0.250085
O O6 0.002798 0.000000 0.120572
O O7 0.090430 0.834627 0.970250
O O8 0.250000 0.750000 0.500000
O O9 0.457623 0.843541 0.229091
O O10 0.376753 0.758321 0.436027
O O11 0.683537 0.133570 0.692959
O O12 0.535269 0.000000 0.842161
O O13 0.428534 0.152068 0.019936
O O14 0.243422 0.226537 0.187245
O O15 0.244197 0.242945 0.307355
O O16 0.500000 0.780565 0.500000
O O17 0.584024 0.655531 0.314321
O O18 0.590910 0.610193 0.542782
O O19 0.904906 0.000000 0.751773
#
# Coordination Sequence:
#
# PCOD8110815 Si02
#       8
#     8   8   8   8   8   8   8   8
#     4   9  19  36  60  85 108 146 200 241 282 337
#     4   9  17  34  58  81 108 146 190 237 287 337
#     4   9  19  33  56  83 110 140 182 239 283 329
#     4  10  22  39  59  84 114 153 191 234 288 340
#     4  10  22  38  57  84 118 153 193 233 290 344
#     4  11  22  39  58  83 120 157 185 239 294 339
#     4  11  20  37  60  85 115 150 194 241 280 337
#     4  11  22  36  58  88 117 153 196 235 280 345
#
# _framework density 19.475795999999999
#
# number of rings (size 3 to 8) (size 9 to 14) (size 15 to 20)
#    0.000    2.000    2.500    1.125    0.000    4.500 
#    0.000    0.625    0.000    9.750    0.000    0.000 
#    0.000    0.000    0.000    0.000    0.000    0.000 
#
# Total GULP energy -396526.838020 kJ/mol
# GULP energy per Si atom -12391.463688 kJ/mol
# Density = 1.943147 g / cm^3
# Si number density = 19.475796 Si / 1000 Ang^3
#
#
#
# Elastic Constant Matrix: (Units=GPa)
#
#
# Indices 1 2 3 4 5 6 
#
# 1 66.4812 48.9315 40.5034 -0.0002 11.4027 0.0001
# 2 48.9315 117.3832 53.8424 -0.0001 13.9043 0.0000
# 3 40.5034 53.8424 127.3545 -0.0003 23.6297 0.0001
# 4 -0.0002 -0.0001 -0.0003 18.3627 0.0001 -0.4013
# 5 11.4027 13.9043 23.6297 0.0001 41.6941 0.0000
# 6 0.0001 0.0000 0.0001 -0.4013 0.0000 19.4276
#
#
#
# Elastic Compliance Matrix: (Units=1/GPa)
#
#
# Indices 1 2 3 4 5 6 
#
# 1 0.023403 -0.007800 -0.003845 0.000000 -0.001620 0.000000
# 2 -0.007800 0.013214 -0.003000 0.000000 -0.000574 0.000000
# 3 -0.003845 -0.003000 0.011133 0.000000 -0.004258 0.000000
# 4 0.000000 0.000000 0.000000 0.054483 0.000000 0.001125
# 5 -0.001620 -0.000574 -0.004258 0.000000 0.027032 0.000000
# 6 0.000000 0.000000 0.000000 0.001125 0.000000 0.051496
#
#
# Mechanical properties :
#
#
# Convention : Reuss Voigt Hill
#
# Bulk Modulus (GPa) = 54.16635 66.41928 60.29281
# Shear Modulus (GPa) = 23.12625 27.09299 25.10962
#
# Velocity S-wave (km/s) = 3.44966 3.73381 3.59454
# Velocity P-wave (km/s) = 6.61357 7.26402 6.94641
#
# Compressibility (1/GPa) = 0.01846165
#
# Stress axis : x y z
#
# Youngs Moduli (GPa) = 42.72904 75.67448 89.82315
#
# Poissons Ratio (x) = 0.59028 0.34534
# Poissons Ratio (y) = 0.33330 0.26943
# Poissons Ratio (z) = 0.16428 0.22699
#
# Static dielectric constant tensor:
#      x y z
#    x 4.590070 0.000020 1.044280 
#    y 0.000020 4.140150 0.000020 
#    z 1.044280 0.000020 4.466910 
# 
# 
# High freq. dielectric constant tensor:
#      x y z
#    x 1.741990 0.000000 0.010110 
#    y 0.000000 1.743430 0.000000 
#    z 0.010110 0.000000 1.771740 
# 
# From -- ./inp_files/330348.got.cif
#   From: 2010.06.25/outbox.cif.g09.slc.cpg/sg12_166_cif.got.tgz:330348.got - 2010.06.28 00:19:55.
