data_PCOD8110919
_publ_section_title
;
Structure prediction by ZEFSAII (Michael W. Deem and Ramdas Pophale) SiO2 
 PCOD8110919
Probable space group: C 2/M
;
_chemical_formula_sum "Si O2"
_cell_formula_units_Z 32
_cell_length_a 16.846995
_cell_length_b 19.967531
_cell_length_c 5.055079
_cell_angle_alpha 90.000000
_cell_angle_beta 58.635822
_cell_angle_gamma 90.000000
_cell_volume 1452.010502
_symmetry_space_group_name_H-M "C 2/M"
_symmetry_group_IT_number 12
_symmetry_cell_setting 'monoclinic'
loop_
_space_group_symop_operation_xyz
x,y,z
-x,y,-z
-x,-y,-z
x,-y,z
1/2+x,1/2+y,z
1/2-x,1/2+y,-z
1/2-x,1/2-y,-z
1/2+x,1/2-y,z
loop_
_atom_site_type_symbol
_atom_site_label
_atom_site_fract_x
_atom_site_fract_y
_atom_site_fract_z
Si Si1 0.941478 0.322923 0.367606
Si Si2 0.240657 0.852453 0.614937
Si Si3 0.646998 0.689726 0.268142
Si Si4 0.423480 0.424237 0.920702
O O1 0.849778 0.366732 0.466873
O O2 0.916573 0.250187 0.526983
O O3 0.000000 0.359473 0.500000
O O4 0.000000 0.314116 0.000000
O O5 0.225119 0.824795 0.350439
O O6 0.179032 0.919542 0.763522
O O7 0.203985 0.796651 0.894661
O O8 0.579700 0.624537 0.331924
O O9 0.442871 0.500000 0.794623
O O10 0.500000 0.399162 0.000000
#
# Coordination Sequence:
#
# PCOD8110919 Si02
#       4
#     8   8   8   8
#     4  12  24  37  63  93 128 165 207 256 312 374
#     4  10  22  40  62  90 127 163 207 257 311 369
#     4  10  22  38  61  88 128 162 204 256 309 371
#     4   9  22  41  67  94 123 163 211 257 309 372
#
# _framework density 22.038409000000001
#
# number of rings (size 3 to 8) (size 9 to 14) (size 15 to 20)
#    1.500    0.250    0.000    4.500    3.500    1.000 
#    0.000    2.500    0.000    2.250    0.000    0.000 
#    0.000    0.000    0.000    0.000    0.000    0.000 
#
# Total GULP energy -198221.689456 kJ/mol
# GULP energy per Si atom -12388.855591 kJ/mol
# Density = 2.198825 g / cm^3
# Si number density = 22.038409 Si / 1000 Ang^3
#
#
#
# Elastic Constant Matrix: (Units=GPa)
#
#
# Indices 1 2 3 4 5 6 
#
# 1 217.7898 32.4633 64.6359 0.0000 -2.1776 0.0000
# 2 32.4633 36.5410 16.5221 0.0000 1.3448 0.0000
# 3 64.6359 16.5221 123.5062 0.0000 0.8164 0.0000
# 4 0.0000 0.0000 0.0000 -3.3080 0.0000 -3.6917
# 5 -2.1776 1.3448 0.8164 0.0000 48.1758 0.0000
# 6 0.0000 0.0000 0.0000 -3.6917 0.0000 15.6952
#
#
#
# Elastic Compliance Matrix: (Units=1/GPa)
#
#
# Indices 1 2 3 4 5 6 
#
# 1 0.005981 -0.004165 -0.002576 0.000000 0.000430 0.000000
# 2 -0.004165 0.032055 -0.002102 0.000000 -0.001047 0.000000
# 3 -0.002576 -0.002102 0.009727 0.000000 -0.000223 0.000000
# 4 0.000000 0.000000 0.000000 -0.239446 0.000000 -0.056320
# 5 0.000430 -0.001047 -0.000223 0.000000 0.020810 0.000000
# 6 0.000000 0.000000 0.000000 -0.056320 0.000000 0.050467
#
#
# Mechanical properties :
#
#
# Convention : Reuss Voigt Hill
#
# Bulk Modulus (GPa) = 33.24554 67.23108 50.23831
# Shear Modulus (GPa) = -53.94101 29.72698 -12.10702
#
# Velocity S-wave (km/s) = -4.95268 3.67668 -2.34639
# Velocity P-wave (km/s) = 4.19373 6.97112 3.93759
#
# Compressibility (1/GPa) = 0.03007922
#
# Stress axis : x y z
#
# Youngs Moduli (GPa) = 167.19161 31.19598 102.80194
#
# Poissons Ratio (x) = 0.12993 0.26480
# Poissons Ratio (y) = 0.69633 0.21606
# Poissons Ratio (z) = 0.43066 0.06556
#
# Static dielectric constant tensor:
#      x y z
#    x 4.421090 0.000000 0.016830 
#    y 0.000000 3.382940 0.000000 
#    z 0.016830 0.000000 3.953970 
# 
# 
# High freq. dielectric constant tensor:
#      x y z
#    x 1.897130 0.000000 0.002530 
#    y 0.000000 1.797770 0.000000 
#    z 0.002530 0.000000 1.881790 
# 
# From -- ./inp_files/11082.got.cif
#   From: 2010.06.25/outbox.cif.g09.slc.cpg/sg12_6_cif.got.tgz:11082.got - 2010.06.28 00:19:55.
