data_PCOD8110606
_publ_section_title
;
Structure prediction by ZEFSAII (Michael W. Deem and Ramdas Pophale) SiO2 
 PCOD8110606
Probable space group: C 2/M
;
_chemical_formula_sum "Si O2"
_cell_formula_units_Z 48
_cell_length_a 14.026196
_cell_length_b 26.104503
_cell_length_c 11.120154
_cell_angle_alpha 90.000000
_cell_angle_beta 33.089227
_cell_angle_gamma 90.000000
_cell_volume 2222.872646
_symmetry_space_group_name_H-M "C 2/M"
_symmetry_group_IT_number 12
_symmetry_cell_setting 'monoclinic'
loop_
_space_group_symop_operation_xyz
x,y,z
-x,y,-z
-x,-y,-z
x,-y,z
1/2+x,1/2+y,z
1/2-x,1/2+y,-z
1/2-x,1/2-y,-z
1/2+x,1/2-y,z
loop_
_atom_site_type_symbol
_atom_site_label
_atom_site_fract_x
_atom_site_fract_y
_atom_site_fract_z
Si Si1 0.147220 0.775848 0.745803
Si Si2 0.930085 0.389058 0.705636
Si Si3 0.196904 0.181528 0.319845
Si Si4 0.240592 0.122403 0.509398
Si Si5 0.440178 0.560285 0.928757
Si Si6 0.387946 0.208759 0.888591
O O1 0.299361 0.741301 0.643964
O O2 0.217053 0.829406 0.624018
O O3 0.068298 0.739053 0.723642
O O4 0.000000 0.788341 0.000000
O O5 0.901178 0.328974 0.761567
O O6 0.000000 0.398195 0.500000
O O7 0.082346 0.407501 0.637651
O O8 0.751240 0.420391 0.906237
O O9 0.267003 0.142445 0.346623
O O10 0.000000 0.166093 0.500000
O O11 0.324185 0.175355 0.070746
O O12 0.075430 0.085087 0.692009
O O13 0.444275 0.500000 0.907726
O O14 0.500000 0.576137 0.000000
O O15 0.250000 0.250000 0.000000
#
# Coordination Sequence:
#
# PCOD8110606 Si02
#       6
#     8   8   8   8   8   8
#     4  10  22  36  55  90 136 171 215 258 309 376
#     4  12  26  40  68  96 127 172 221 272 334 398
#     4  11  23  38  61  91 136 185 219 262 316 381
#     4  12  24  42  66  99 131 176 224 270 330 397
#     4  11  25  47  68  97 133 163 215 291 352 407
#     4  11  24  39  58  92 137 182 221 261 311 384
#
# _framework density 21.593679999999999
#
# number of rings (size 3 to 8) (size 9 to 14) (size 15 to 20)
#    0.000    0.833    3.333    4.000    7.000    1.000 
#    0.000    0.000    0.000    4.500    0.000    5.833 
#    0.000    0.000    0.000    0.000    0.000    0.000 
#
# Total GULP energy -297579.850649 kJ/mol
# GULP energy per Si atom -12399.160444 kJ/mol
# Density = 2.154453 g / cm^3
# Si number density = 21.593680 Si / 1000 Ang^3
#
#
#
# Elastic Constant Matrix: (Units=GPa)
#
#
# Indices 1 2 3 4 5 6 
#
# 1 110.1735 27.5600 42.9860 0.0001 -20.3479 -0.0001
# 2 27.5600 78.0251 31.8133 0.0000 -12.4220 0.0001
# 3 42.9860 31.8133 85.5831 -0.0008 -28.4275 -0.0012
# 4 0.0001 0.0000 -0.0008 19.7200 0.0000 -5.4503
# 5 -20.3479 -12.4220 -28.4275 0.0000 38.9155 0.0004
# 6 -0.0001 0.0001 -0.0012 -5.4503 0.0004 22.3589
#
#
#
# Elastic Compliance Matrix: (Units=1/GPa)
#
#
# Indices 1 2 3 4 5 6 
#
# 1 0.011705 -0.001984 -0.004382 0.000000 0.002286 0.000000
# 2 -0.001984 0.015469 -0.004566 0.000000 0.000565 0.000000
# 3 -0.004382 -0.004566 0.018931 0.000001 0.010080 0.000001
# 4 0.000000 0.000000 0.000001 0.054373 0.000000 0.013254
# 5 0.002286 0.000565 0.010080 0.000000 0.034436 0.000000
# 6 0.000000 0.000000 0.000001 0.013254 0.000000 0.047956
#
#
# Mechanical properties :
#
#
# Convention : Reuss Voigt Hill
#
# Bulk Modulus (GPa) = 41.25323 53.16669 47.20996
# Shear Modulus (GPa) = 23.49470 27.62705 25.56087
#
# Velocity S-wave (km/s) = 3.30212 3.58076 3.44426
# Velocity P-wave (km/s) = 5.80383 6.46302 6.14227
#
# Compressibility (1/GPa) = 0.02424053
#
# Stress axis : x y z
#
# Youngs Moduli (GPa) = 85.43501 64.64647 52.82252
#
# Poissons Ratio (x) = 0.12823 0.23149
# Poissons Ratio (y) = 0.16947 0.24119
# Poissons Ratio (z) = 0.37441 0.29518
#
# Static dielectric constant tensor:
#      x y z
#    x 4.512420 0.000020 0.253320 
#    y 0.000020 3.488750 0.000010 
#    z 0.253320 0.000010 4.562290 
# 
# 
# High freq. dielectric constant tensor:
#      x y z
#    x 1.857780 0.000000 -0.012110 
#    y 0.000000 1.803540 0.000000 
#    z -0.012110 0.000000 1.869420 
# 
# From -- ./inp_files/149645.got.cif
#   From: 2010.06.25/outbox.cif.g09.slc.cpg/sg12_75_cif.got.tgz:149645.got - 2010.06.28 00:19:55.
