data_PCOD8110281
_publ_section_title
;
Structure prediction by ZEFSAII (Michael W. Deem and Ramdas Pophale) SiO2 
 PCOD8110281
Probable space group: C 2/M
;
_chemical_formula_sum "Si O2"
_cell_formula_units_Z 56
_cell_length_a 18.237890
_cell_length_b 27.214895
_cell_length_c 12.880714
_cell_angle_alpha 90.000000
_cell_angle_beta 25.034572
_cell_angle_gamma 90.000000
_cell_volume 2705.396851
_symmetry_space_group_name_H-M "C 2/M"
_symmetry_group_IT_number 12
_symmetry_cell_setting 'monoclinic'
loop_
_space_group_symop_operation_xyz
x,y,z
-x,y,-z
-x,-y,-z
x,-y,z
1/2+x,1/2+y,z
1/2-x,1/2+y,-z
1/2-x,1/2-y,-z
1/2+x,1/2-y,z
loop_
_atom_site_type_symbol
_atom_site_label
_atom_site_fract_x
_atom_site_fract_y
_atom_site_fract_z
Si Si1 0.192420 0.128829 0.789326
Si Si2 0.158467 0.344423 0.725722
Si Si3 0.121458 0.552101 0.744973
Si Si4 0.930571 0.302974 0.377827
Si Si5 0.982086 0.799793 0.403066
Si Si6 0.005515 0.555412 0.667712
Si Si7 0.743153 0.134967 0.057390
O O1 0.246970 0.180311 0.663271
O O2 0.328011 0.085029 0.590863
O O3 0.184994 0.141873 0.919952
O O4 0.000000 0.113327 0.000000
O O5 0.239173 0.398164 0.589988
O O6 0.090118 0.311436 0.718418
O O7 0.288075 0.316222 0.632592
O O8 0.000000 0.358756 0.000000
O O9 0.229226 0.500000 0.602643
O O10 0.002678 0.555578 0.795592
O O11 0.000000 0.549995 0.000000
O O12 0.000651 0.248117 0.306969
O O13 0.067044 0.336685 0.260992
O O14 0.000000 0.785190 0.500000
O O15 0.113243 0.843640 0.205711
O O16 0.014567 0.500000 0.611374
O O17 0.816949 0.578362 0.879857
#
# Coordination Sequence:
#
# PCOD8110281 Si02
#       7
#     8   8   8   8   8   8   8
#     4  11  23  39  62  92 129 165 207 264 316 374
#     4  11  22  39  65  92 124 162 212 259 310 378
#     4   9  18  35  65  93 120 157 204 251 307 371
#     4  11  22  43  62  88 123 170 214 258 316 376
#     4  12  26  40  62  92 125 166 212 265 319 375
#     4  10  21  41  67  91 123 168 210 255 320 386
#     4  11  23  40  62  89 126 163 208 264 314 375
#
# _framework density 20.699366000000001
#
# number of rings (size 3 to 8) (size 9 to 14) (size 15 to 20)
#    0.000    1.286    2.857    5.143    2.000    3.143 
#    0.000    0.714    0.000    0.857    0.000    0.000 
#    0.000    0.000    0.000    0.000    0.000    0.000 
#
# Total GULP energy -346868.032175 kJ/mol
# GULP energy per Si atom -12388.144006 kJ/mol
# Density = 2.065225 g / cm^3
# Si number density = 20.699366 Si / 1000 Ang^3
#
#
#
# Elastic Constant Matrix: (Units=GPa)
#
#
# Indices 1 2 3 4 5 6 
#
# 1 124.3032 49.0418 27.2557 0.0155 -2.9709 -0.0008
# 2 49.0418 107.3787 35.3981 0.0234 -10.4093 -0.0020
# 3 27.2557 35.3981 71.2728 -0.0065 -2.6599 -0.0051
# 4 0.0155 0.0234 -0.0065 23.0988 0.0067 -1.0004
# 5 -2.9709 -10.4093 -2.6599 0.0067 32.7088 -0.0014
# 6 -0.0008 -0.0020 -0.0051 -1.0004 -0.0014 24.0185
#
#
#
# Elastic Compliance Matrix: (Units=1/GPa)
#
#
# Indices 1 2 3 4 5 6 
#
# 1 0.010024 -0.004016 -0.001858 -0.000003 -0.000519 -0.000001
# 2 -0.004016 0.013068 -0.004828 -0.000013 0.003402 0.000000
# 3 -0.001858 -0.004828 0.017127 0.000011 -0.000312 0.000004
# 4 -0.000003 -0.000013 0.000011 0.043371 -0.000012 0.001806
# 5 -0.000519 0.003402 -0.000312 -0.000012 0.031583 0.000002
# 6 -0.000001 0.000000 0.000004 0.001806 0.000002 0.041710
#
#
# Mechanical properties :
#
#
# Convention : Reuss Voigt Hill
#
# Bulk Modulus (GPa) = 53.14637 58.48290 55.81464
# Shear Modulus (GPa) = 27.09159 28.71580 27.90369
#
# Velocity S-wave (km/s) = 3.62168 3.72866 3.67556
# Velocity P-wave (km/s) = 6.57418 6.84485 6.71088
#
# Compressibility (1/GPa) = 0.01881596
#
# Stress axis : x y z
#
# Youngs Moduli (GPa) = 99.75710 76.52130 58.38638
#
# Poissons Ratio (x) = 0.30731 0.10850
# Poissons Ratio (y) = 0.40062 0.28187
# Poissons Ratio (z) = 0.18537 0.36942
#
# Static dielectric constant tensor:
#      x y z
#    x 3.881410 -0.000190 -0.009180 
#    y -0.000190 4.606050 0.000040 
#    z -0.009180 0.000040 3.327350 
# 
# 
# High freq. dielectric constant tensor:
#      x y z
#    x 1.826430 -0.000020 0.009700 
#    y -0.000020 1.823880 0.000020 
#    z 0.009700 0.000020 1.778910 
# 
# From -- ./inp_files/150394.got.cif
#   From: 2010.06.25/outbox.cif.g09.slc.cpg/sg12_76_cif.got.tgz:150394.got - 2010.06.28 00:19:55.
