data_PCOD8110610
_publ_section_title
;
Structure prediction by ZEFSAII (Michael W. Deem and Ramdas Pophale) SiO2 
 PCOD8110610
Probable space group: C 2/M
;
_chemical_formula_sum "Si O2"
_cell_formula_units_Z 48
_cell_length_a 12.827387
_cell_length_b 23.612301
_cell_length_c 8.162688
_cell_angle_alpha 90.000000
_cell_angle_beta 101.330291
_cell_angle_gamma 90.000000
_cell_volume 2424.164818
_symmetry_space_group_name_H-M "C 2/M"
_symmetry_group_IT_number 12
_symmetry_cell_setting 'monoclinic'
loop_
_space_group_symop_operation_xyz
x,y,z
-x,y,-z
-x,-y,-z
x,-y,z
1/2+x,1/2+y,z
1/2-x,1/2+y,-z
1/2-x,1/2-y,-z
1/2+x,1/2-y,z
loop_
_atom_site_type_symbol
_atom_site_label
_atom_site_fract_x
_atom_site_fract_y
_atom_site_fract_z
Si Si1 0.116664 0.392150 0.952922
Si Si2 0.625595 0.230878 0.867300
Si Si3 0.723087 0.883767 0.306135
Si Si4 0.644403 0.000000 0.403449
Si Si5 0.377292 0.234472 0.766556
Si Si6 0.625104 0.297306 0.549913
Si Si7 0.919565 0.500000 0.248570
O O1 0.137681 0.336483 0.851301
O O2 0.132956 0.444511 0.840090
O O3 0.212432 0.399836 0.112536
O O4 0.000000 0.388918 0.000000
O O5 0.501541 0.246292 0.823572
O O6 0.675874 0.262418 0.722514
O O7 0.672250 0.248274 0.064687
O O8 0.706954 0.941229 0.403205
O O9 0.640101 0.830735 0.301044
O O10 0.838187 0.861648 0.402853
O O11 0.545792 0.000000 0.245127
O O12 0.597416 0.000000 0.566873
O O13 0.328831 0.274681 0.609074
O O14 0.500000 0.293093 0.500000
#
# Coordination Sequence:
#
# PCOD8110610 Si02
#       7
#     8   8   8   4   8   8   4
#     4  11  18  34  56  79 117 146 179 220 274 332
#     4   9  17  33  53  82 108 151 179 216 277 328
#     4  11  21  37  55  81 108 150 180 228 278 326
#     4  11  23  36  56  81 116 140 187 224 279 335
#     4   9  17  33  55  79 114 141 178 229 274 322
#     4  10  22  36  56  80 113 147 191 228 271 324
#     4  11  22  35  56  86 110 150 175 224 277 348
#
# _framework density 19.800632
#
# number of rings (size 3 to 8) (size 9 to 14) (size 15 to 20)
#    0.000    1.833    5.000    1.250    2.333    2.667 
#    3.000    0.417    0.000    0.000    0.000    1.167 
#    0.000    0.000    0.000    0.000    0.000    0.000 
#
# Total GULP energy -297327.908582 kJ/mol
# GULP energy per Si atom -12388.662858 kJ/mol
# Density = 1.975557 g / cm^3
# Si number density = 19.800632 Si / 1000 Ang^3
#
#
#
# Elastic Constant Matrix: (Units=GPa)
#
#
# Indices 1 2 3 4 5 6 
#
# 1 24.4112 26.0047 47.5882 0.0000 -8.8213 0.0000
# 2 26.0047 144.4477 70.8835 0.0000 -11.5248 0.0000
# 3 47.5882 70.8835 141.0777 0.0000 8.2934 0.0000
# 4 0.0000 0.0000 0.0000 14.6843 0.0000 -18.2676
# 5 -8.8213 -11.5248 8.2934 0.0000 29.4281 0.0000
# 6 0.0000 0.0000 0.0000 -18.2676 0.0000 -1.6184
#
#
#
# Elastic Compliance Matrix: (Units=1/GPa)
#
#
# Indices 1 2 3 4 5 6 
#
# 1 0.284258 0.011916 -0.108961 0.000000 0.120582 0.000000
# 2 0.011916 0.010467 -0.009893 0.000000 0.010459 0.000000
# 3 -0.108961 -0.009893 0.051820 0.000000 -0.051140 0.000000
# 4 0.000000 0.000000 0.000000 0.004527 0.000000 -0.051102
# 5 0.120582 0.010459 -0.051140 0.000000 0.088635 0.000000
# 6 0.000000 0.000000 0.000000 -0.051102 0.000000 -0.041078
#
#
# Mechanical properties :
#
#
# Convention : Reuss Voigt Hill
#
# Bulk Modulus (GPa) = 7.53763 66.54328 37.04045
# Shear Modulus (GPa) = 7.61347 19.52947 13.57147
#
# Velocity S-wave (km/s) = 1.96301 3.14396 2.62087
# Velocity P-wave (km/s) = 2.99214 6.84536 5.28260
#
# Compressibility (1/GPa) = 0.13266774
#
# Stress axis : x y z
#
# Youngs Moduli (GPa) = 3.51793 95.53704 19.29745
#
# Poissons Ratio (x) = -1.13840 2.10268
# Poissons Ratio (y) = -0.04192 0.19092
# Poissons Ratio (z) = 0.38332 0.94519
#
# Static dielectric constant tensor:
#      x y z
#    x 3.425660 0.000000 0.102170 
#    y 0.000000 3.574660 0.000000 
#    z 0.102170 0.000000 4.227510 
# 
# 
# High freq. dielectric constant tensor:
#      x y z
#    x 1.749780 0.000000 0.015870 
#    y 0.000000 1.753820 0.000000 
#    z 0.015870 0.000000 1.801970 
# 
# From -- ./inp_files/63646.got.cif
#   From: 2010.06.25/outbox.cif.g09.slc.cpg/sg12_32_cif.got.tgz:63646.got - 2010.06.28 00:19:55.
