data_PCOD8110922
_publ_section_title
;
Structure prediction by ZEFSAII (Michael W. Deem and Ramdas Pophale) SiO2 
 PCOD8110922
Probable space group: C 2/M
;
_chemical_formula_sum "Si O2"
_cell_formula_units_Z 40
_cell_length_a 14.748632
_cell_length_b 16.573617
_cell_length_c 10.270786
_cell_angle_alpha 90.000000
_cell_angle_beta 127.129278
_cell_angle_gamma 90.000000
_cell_volume 2001.617938
_symmetry_space_group_name_H-M "C 2/M"
_symmetry_group_IT_number 12
_symmetry_cell_setting 'monoclinic'
loop_
_space_group_symop_operation_xyz
x,y,z
-x,y,-z
-x,-y,-z
x,-y,z
1/2+x,1/2+y,z
1/2-x,1/2+y,-z
1/2-x,1/2-y,-z
1/2+x,1/2-y,z
loop_
_atom_site_type_symbol
_atom_site_label
_atom_site_fract_x
_atom_site_fract_y
_atom_site_fract_z
Si Si1 0.555921 0.361908 0.919245
Si Si2 0.799941 0.594965 0.737782
Si Si3 0.003976 0.696053 0.216547
Si Si4 0.072774 0.162875 0.435446
Si Si5 0.297502 0.907971 0.037761
O O1 0.551228 0.264313 0.925010
O O2 0.484481 0.390367 0.729993
O O3 0.500000 0.400208 0.000000
O O4 0.685167 0.390687 0.023158
O O5 0.808378 0.500000 0.717325
O O6 0.917078 0.636335 0.797210
O O7 0.700731 0.634106 0.566043
O O8 0.776585 0.613542 0.868449
O O9 0.070653 0.741944 0.392201
O O10 0.899762 0.644855 0.185644
O O11 0.000000 0.146978 0.500000
O O12 0.333764 0.000000 0.085259
#
# Coordination Sequence:
#
# PCOD8110922 Si02
#       5
#     8   8   8   8   8
#     4  10  22  38  65  87 120 161 203 246 293 355
#     4  11  21  38  63  92 122 156 199 249 299 353
#     4  10  22  38  61  89 122 154 203 241 299 351
#     4  10  22  40  63  89 120 160 203 245 297 352
#     4  11  22  38  63  91 122 157 200 249 298 354
#
# _framework density 19.983834999999999
#
# number of rings (size 3 to 8) (size 9 to 14) (size 15 to 20)
#    1.200    0.400    2.000    3.600    0.000    4.800 
#    0.000    0.000    0.000    1.200    0.000    0.000 
#    0.000    0.000    0.000    0.000    0.000    0.000 
#
# Total GULP energy -247920.560598 kJ/mol
# GULP energy per Si atom -12396.028030 kJ/mol
# Density = 1.993835 g / cm^3
# Si number density = 19.983835 Si / 1000 Ang^3
#
#
#
# Elastic Constant Matrix: (Units=GPa)
#
#
# Indices 1 2 3 4 5 6 
#
# 1 116.3945 8.3629 28.2858 0.0000 -6.7784 0.0000
# 2 8.3629 72.6098 34.5644 0.0000 2.2495 0.0000
# 3 28.2858 34.5644 53.6051 0.0000 -3.2334 0.0000
# 4 0.0000 0.0000 0.0000 10.2551 0.0000 -6.9773
# 5 -6.7784 2.2495 -3.2334 0.0000 35.9822 0.0000
# 6 0.0000 0.0000 0.0000 -6.9773 0.0000 6.0237
#
#
#
# Elastic Compliance Matrix: (Units=1/GPa)
#
#
# Indices 1 2 3 4 5 6 
#
# 1 0.010098 0.001878 -0.006467 0.000000 0.001204 0.000000
# 2 0.001878 0.020430 -0.014298 0.000000 -0.002208 0.000000
# 3 -0.006467 -0.014298 0.031437 0.000000 0.002501 0.000000
# 4 0.000000 0.000000 0.000000 0.460146 0.000000 0.532988
# 5 0.001204 -0.002208 0.002501 0.000000 0.028381 0.000000
# 6 0.000000 0.000000 0.000000 0.532988 0.000000 0.783371
#
#
# Mechanical properties :
#
#
# Convention : Reuss Voigt Hill
#
# Bulk Modulus (GPa) = 41.33443 42.78173 42.05808
# Shear Modulus (GPa) = 3.62397 21.87863 12.75130
#
# Velocity S-wave (km/s) = 1.34811 3.31239 2.52877
# Velocity P-wave (km/s) = 4.81165 6.00699 5.44224
#
# Compressibility (1/GPa) = 0.02419291
#
# Stress axis : x y z
#
# Youngs Moduli (GPa) = 99.02766 48.94655 31.80948
#
# Poissons Ratio (x) = -0.09192 0.20571
# Poissons Ratio (y) = -0.18598 0.45480
# Poissons Ratio (z) = 0.64040 0.69982
#
# Static dielectric constant tensor:
#      x y z
#    x 3.518880 0.000000 0.086230 
#    y 0.000000 3.533990 0.000000 
#    z 0.086230 0.000000 3.503660 
# 
# 
# High freq. dielectric constant tensor:
#      x y z
#    x 1.784940 0.000000 0.010570 
#    y 0.000000 1.774780 0.000000 
#    z 0.010570 0.000000 1.763840 
# 
# From -- ./inp_files/143350.got.cif
#   From: 2010.06.25/outbox.cif.g09.slc.cpg/sg12_72_cif.got.tgz:143350.got - 2010.06.28 00:19:55.
