data_PCOD8110849
_publ_section_title
;
Structure prediction by ZEFSAII (Michael W. Deem and Ramdas Pophale) SiO2 
 PCOD8110849
Probable space group: C 2/M
;
_chemical_formula_sum "Si O2"
_cell_formula_units_Z 48
_cell_length_a 28.648880
_cell_length_b 14.782628
_cell_length_c 12.540086
_cell_angle_alpha 90.000000
_cell_angle_beta 25.730937
_cell_angle_gamma 90.000000
_cell_volume 2305.659523
_symmetry_space_group_name_H-M "C 2/M"
_symmetry_group_IT_number 12
_symmetry_cell_setting 'monoclinic'
loop_
_space_group_symop_operation_xyz
x,y,z
-x,y,-z
-x,-y,-z
x,-y,z
1/2+x,1/2+y,z
1/2-x,1/2+y,-z
1/2-x,1/2-y,-z
1/2+x,1/2-y,z
loop_
_atom_site_type_symbol
_atom_site_label
_atom_site_fract_x
_atom_site_fract_y
_atom_site_fract_z
Si Si1 0.683592 0.316140 0.560439
Si Si2 0.130454 0.343894 0.981709
Si Si3 0.219799 0.829838 0.141774
Si Si4 0.035367 0.190337 0.688865
Si Si5 0.577419 0.500000 0.084274
Si Si6 0.125553 0.000000 0.219668
Si Si7 0.193648 0.000000 0.635201
Si Si8 0.424697 0.000000 0.051990
O O1 0.750000 0.250000 0.500000
O O2 0.760192 0.341351 0.307240
O O3 0.579835 0.274889 0.713448
O O4 0.639451 0.406636 0.708181
O O5 0.174375 0.364993 0.010501
O O6 0.057979 0.416748 0.066478
O O7 0.069559 0.249367 0.117058
O O8 0.123253 0.794339 0.415837
O O9 0.180258 0.912236 0.153482
O O10 0.250000 0.750000 0.000000
O O11 0.001691 0.085596 0.763352
O O12 0.643704 0.500000 0.056502
O O13 0.676024 0.500000 0.797950
O O14 0.000000 0.000000 0.500000
O O15 0.313462 0.000000 0.344390
O O16 0.500000 0.000000 0.000000
#
# Coordination Sequence:
#
# PCOD8110849 Si02
#       8
#     8   8   8   8   4   4   4   4
#     4  10  22  38  58  88 127 167 207 261 322 389
#     4  10  23  40  63  91 124 173 221 260 332 403
#     4  11  24  43  68  98 135 173 223 287 342 397
#     4  11  23  40  65  95 132 170 221 272 333 403
#     4  12  23  39  67  99 124 162 221 281 337 393
#     4  12  23  44  74  94 130 178 226 278 344 397
#     4  10  23  39  60  91 129 158 220 270 326 381
#     4  10  23  44  65  86 131 184 217 268 330 406
#
# _framework density 20.818339000000002
#
# number of rings (size 3 to 8) (size 9 to 14) (size 15 to 20)
#    0.000    1.333    1.667    3.000    4.667    6.667 
#    0.000    0.000    0.000    2.000    0.000    0.000 
#    0.000    0.000    0.000    0.000    0.000    0.000 
#
# Total GULP energy -297324.295113 kJ/mol
# GULP energy per Si atom -12388.512296 kJ/mol
# Density = 2.077096 g / cm^3
# Si number density = 20.818339 Si / 1000 Ang^3
#
#
#
# Elastic Constant Matrix: (Units=GPa)
#
#
# Indices 1 2 3 4 5 6 
#
# 1 202.3611 75.8146 41.8704 0.0000 -1.1791 0.0000
# 2 75.8146 136.0339 41.7086 0.0000 1.4233 0.0000
# 3 41.8704 41.7086 61.7021 0.0000 16.1898 0.0000
# 4 0.0000 0.0000 0.0000 29.5262 0.0000 0.1278
# 5 -1.1791 1.4233 16.1898 0.0000 36.1713 0.0000
# 6 0.0000 0.0000 0.0000 0.1278 0.0000 36.8024
#
#
#
# Elastic Compliance Matrix: (Units=1/GPa)
#
#
# Indices 1 2 3 4 5 6 
#
# 1 0.006624 -0.002768 -0.003069 0.000000 0.001699 0.000000
# 2 -0.002768 0.010681 -0.005900 0.000000 0.002130 0.000000
# 3 -0.003069 -0.005900 0.025203 0.000000 -0.011148 0.000000
# 4 0.000000 0.000000 0.000000 0.033869 0.000000 -0.000118
# 5 0.001699 0.002130 -0.011148 0.000000 0.032608 0.000000
# 6 0.000000 0.000000 0.000000 -0.000118 0.000000 0.027173
#
#
# Mechanical properties :
#
#
# Convention : Reuss Voigt Hill
#
# Bulk Modulus (GPa) = 52.54261 79.87602 66.20931
# Shear Modulus (GPa) = 30.12481 36.54688 33.33585
#
# Velocity S-wave (km/s) = 3.80811 4.19443 4.00593
# Velocity P-wave (km/s) = 6.68050 7.86823 7.29857
#
# Compressibility (1/GPa) = 0.01903217
#
# Stress axis : x y z
#
# Youngs Moduli (GPa) = 150.97194 93.62696 39.67747
#
# Poissons Ratio (x) = 0.25919 0.12178
# Poissons Ratio (y) = 0.41793 0.23411
# Poissons Ratio (z) = 0.46337 0.55242
#
# Static dielectric constant tensor:
#      x y z
#    x 4.320740 0.000000 0.119830 
#    y 0.000000 3.633460 0.000000 
#    z 0.119830 0.000000 3.636130 
# 
# 
# High freq. dielectric constant tensor:
#      x y z
#    x 1.840280 0.000000 0.003630 
#    y 0.000000 1.813900 0.000000 
#    z 0.003630 0.000000 1.803150 
# 
# From -- ./inp_files/183724.got.cif
#   From: 2010.06.25/outbox.cif.g09.slc.cpg/sg12_92_cif.got.tgz:183724.got - 2010.06.28 00:19:55.
