data_PCOD8110740
_publ_section_title
;
Structure prediction by ZEFSAII (Michael W. Deem and Ramdas Pophale) SiO2 
 PCOD8110740
Probable space group: C 2/M
;
_chemical_formula_sum "Si O2"
_cell_formula_units_Z 48
_cell_length_a 26.149543
_cell_length_b 10.447546
_cell_length_c 24.180773
_cell_angle_alpha 90.000000
_cell_angle_beta 158.647749
_cell_angle_gamma 90.000000
_cell_volume 2405.304886
_symmetry_space_group_name_H-M "C 2/M"
_symmetry_group_IT_number 12
_symmetry_cell_setting 'monoclinic'
loop_
_space_group_symop_operation_xyz
x,y,z
-x,y,-z
-x,-y,-z
x,-y,z
1/2+x,1/2+y,z
1/2-x,1/2+y,-z
1/2-x,1/2-y,-z
1/2+x,1/2-y,z
loop_
_atom_site_type_symbol
_atom_site_label
_atom_site_fract_x
_atom_site_fract_y
_atom_site_fract_z
Si Si1 0.500000 0.787559 0.500000
Si Si2 0.791171 0.500000 0.265078
Si Si3 0.786907 0.354244 0.584237
Si Si4 0.428824 0.500000 0.051654
Si Si5 0.247733 0.500000 0.647638
Si Si6 0.075949 0.238080 0.879781
Si Si7 0.870177 0.145162 0.182030
Si Si8 0.590943 0.258012 0.477079
O O1 0.388899 0.875416 0.354347
O O2 0.421818 0.705831 0.469773
O O3 0.731895 0.500000 0.266756
O O4 0.652596 0.500000 0.088231
O O5 0.784798 0.500000 0.558015
O O6 0.750000 0.250000 0.500000
O O7 0.685897 0.354248 0.536439
O O8 0.941392 0.319723 0.762808
O O9 0.596980 0.500000 0.220046
O O10 0.381855 0.627379 0.035384
O O11 0.158901 0.619686 0.537069
O O12 0.046353 0.174757 0.790416
O O13 0.205535 0.335000 0.007591
O O14 0.934005 0.236942 0.293711
O O15 0.897515 0.000000 0.227318
#
# Coordination Sequence:
#
# PCOD8110740 Si02
#       8
#     4   4   8   4   4   8   8   8
#     4   9  20  40  59 100 124 174 224 276 316 392
#     4   9  19  36  60  92 138 161 220 270 328 376
#     4  12  26  42  64  93 130 179 219 271 329 390
#     4  12  20  37  62  97 127 174 204 271 335 381
#     4  10  22  37  62 101 126 166 221 275 320 387
#     4  11  24  38  61  89 129 165 212 261 324 397
#     4  11  23  41  58  88 124 166 213 266 317 391
#     4  11  22  39  68  89 132 168 215 276 322 380
#
# _framework density 19.955891000000001
#
# number of rings (size 3 to 8) (size 9 to 14) (size 15 to 20)
#    0.000    1.167    4.167    2.750    2.333    0.667 
#    1.500    1.667    0.000    0.000    0.000    4.667 
#    0.000    0.000    0.000    0.000    0.000    0.000 
#
# Total GULP energy -297527.582291 kJ/mol
# GULP energy per Si atom -12396.982595 kJ/mol
# Density = 1.991047 g / cm^3
# Si number density = 19.955891 Si / 1000 Ang^3
#
#
#
# Elastic Constant Matrix: (Units=GPa)
#
#
# Indices 1 2 3 4 5 6 
#
# 1 108.8936 34.8550 34.2453 0.0000 0.7610 0.0000
# 2 34.8550 107.7087 43.2118 0.0004 -11.4471 0.0001
# 3 34.2453 43.2118 103.2774 0.0003 -6.8462 0.0002
# 4 0.0000 0.0004 0.0003 24.0509 0.0002 -0.6374
# 5 0.7610 -11.4471 -6.8462 0.0002 34.1878 0.0000
# 6 0.0000 0.0001 0.0002 -0.6374 0.0000 25.9658
#
#
#
# Elastic Compliance Matrix: (Units=1/GPa)
#
#
# Indices 1 2 3 4 5 6 
#
# 1 0.010860 -0.002645 -0.002604 0.000000 -0.001649 0.000000
# 2 -0.002645 0.012080 -0.003958 0.000000 0.003311 0.000000
# 3 -0.002604 -0.003958 0.012281 0.000000 0.001192 0.000000
# 4 0.000000 0.000000 0.000000 0.041606 0.000000 0.001021
# 5 -0.001649 0.003311 0.001192 0.000000 0.030634 0.000000
# 6 0.000000 0.000000 0.000000 0.001021 0.000000 0.038537
#
#
# Mechanical properties :
#
#
# Convention : Reuss Voigt Hill
#
# Bulk Modulus (GPa) = 59.49496 60.50043 59.99769
# Shear Modulus (GPa) = 29.40930 30.67872 30.04401
#
# Velocity S-wave (km/s) = 3.84306 3.92513 3.88431
# Velocity P-wave (km/s) = 7.04061 7.13618 7.08856
#
# Compressibility (1/GPa) = 0.01680815
#
# Stress axis : x y z
#
# Youngs Moduli (GPa) = 92.07875 82.78159 81.42667
#
# Poissons Ratio (x) = 0.21896 0.21201
# Poissons Ratio (y) = 0.24356 0.32227
# Poissons Ratio (z) = 0.23974 0.32763
#
# Static dielectric constant tensor:
#      x y z
#    x 3.753760 0.000000 0.139910 
#    y 0.000000 3.456260 0.000000 
#    z 0.139910 0.000000 3.594910 
# 
# 
# High freq. dielectric constant tensor:
#      x y z
#    x 1.781180 0.000000 0.013110 
#    y 0.000000 1.762150 0.000000 
#    z 0.013110 0.000000 1.785960 
# 
# From -- ./inp_files/351964.got.cif
#   From: 2010.06.25/outbox.cif.g09.slc.cpg/sg12_176_cif.got.tgz:351964.got - 2010.06.28 00:19:55.
