data_PCOD8110506
_publ_section_title
;
Structure prediction by ZEFSAII (Michael W. Deem and Ramdas Pophale) SiO2 
 PCOD8110506
Probable space group: C 2/M
;
_chemical_formula_sum "Si O2"
_cell_formula_units_Z 64
_cell_length_a 8.384325
_cell_length_b 27.925494
_cell_length_c 17.571479
_cell_angle_alpha 90.000000
_cell_angle_beta 132.953287
_cell_angle_gamma 90.000000
_cell_volume 3011.165766
_symmetry_space_group_name_H-M "C 2/M"
_symmetry_group_IT_number 12
_symmetry_cell_setting 'monoclinic'
loop_
_space_group_symop_operation_xyz
x,y,z
-x,y,-z
-x,-y,-z
x,-y,z
1/2+x,1/2+y,z
1/2-x,1/2+y,-z
1/2-x,1/2-y,-z
1/2+x,1/2-y,z
loop_
_atom_site_type_symbol
_atom_site_label
_atom_site_fract_x
_atom_site_fract_y
_atom_site_fract_z
Si Si1 0.372523 0.297701 0.255737
Si Si2 0.441445 0.799384 0.191292
Si Si3 0.276337 0.445185 0.392333
Si Si4 0.327327 0.696969 0.513732
Si Si5 0.137932 0.635211 0.969002
Si Si6 0.547049 0.132173 0.668611
Si Si7 0.671376 0.945400 0.186306
Si Si8 0.960827 0.115626 0.188597
O O1 0.358424 0.250741 0.197801
O O2 0.196924 0.290725 0.264833
O O3 0.583563 0.312937 0.372644
O O4 0.323078 0.342814 0.186964
O O5 0.343810 0.817064 0.078207
O O6 0.398644 0.842155 0.235020
O O7 0.500000 0.423463 0.500000
O O8 0.251725 0.500000 0.409209
O O9 0.281157 0.437928 0.303906
O O10 0.068794 0.418535 0.359036
O O11 0.500000 0.689712 0.500000
O O12 0.250000 0.750000 0.500000
O O13 0.109654 0.665405 0.432795
O O14 0.035190 0.589721 0.890902
O O15 0.386263 0.621339 0.075850
O O16 0.000000 0.646043 0.000000
O O17 0.783942 0.121000 0.710493
O O18 0.865603 0.934318 0.189609
O O19 0.591781 0.000000 0.148846
#
# Coordination Sequence:
#
# PCOD8110506 Si02
#       8
#     8   8   8   8   8   8   8   8
#     4  12  23  42  62  93 131 172 219 272 316 394
#     4  12  23  42  67  91 130 174 228 264 329 383
#     4  10  22  42  68  96 126 167 213 259 328 402
#     4  12  25  40  65  92 126 171 220 271 323 386
#     4  10  21  44  67  94 129 168 221 275 318 396
#     4  12  24  40  65  95 133 174 208 278 325 384
#     4  10  21  44  75  99 127 170 220 273 332 398
#     4  11  26  41  61  97 135 165 217 272 330 381
#
# _framework density 21.254225999999999
#
# number of rings (size 3 to 8) (size 9 to 14) (size 15 to 20)
#    0.000    0.875    6.250    1.125    3.500    3.750 
#    0.000    0.000    0.000    3.750    0.000    0.000 
#    0.000    0.000    0.000    0.000    0.000    0.000 
#
# Total GULP energy -396512.553663 kJ/mol
# GULP energy per Si atom -12391.017302 kJ/mol
# Density = 2.120585 g / cm^3
# Si number density = 21.254226 Si / 1000 Ang^3
#
#
#
# Elastic Constant Matrix: (Units=GPa)
#
#
# Indices 1 2 3 4 5 6 
#
# 1 46.7837 18.4744 12.9755 0.0000 6.6026 0.0000
# 2 18.4744 79.7868 41.2232 0.0000 -7.7196 0.0000
# 3 12.9755 41.2232 133.3751 0.0000 -4.7420 0.0000
# 4 0.0000 0.0000 0.0000 12.4366 0.0000 10.8806
# 5 6.6026 -7.7196 -4.7420 0.0000 36.0081 0.0000
# 6 0.0000 0.0000 0.0000 10.8806 0.0000 17.4159
#
#
#
# Elastic Compliance Matrix: (Units=1/GPa)
#
#
# Indices 1 2 3 4 5 6 
#
# 1 0.024756 -0.005892 -0.000797 0.000000 -0.005908 0.000000
# 2 -0.005892 0.016564 -0.004402 0.000000 0.004052 0.000000
# 3 -0.000797 -0.004402 0.008949 0.000000 0.000381 0.000000
# 4 0.000000 0.000000 0.000000 0.177335 0.000000 -0.110790
# 5 -0.005908 0.004052 0.000381 0.000000 0.029774 0.000000
# 6 0.000000 0.000000 0.000000 -0.110790 0.000000 0.126634
#
#
# Mechanical properties :
#
#
# Convention : Reuss Voigt Hill
#
# Bulk Modulus (GPa) = 35.60390 45.03241 40.31816
# Shear Modulus (GPa) = 12.03200 25.65697 18.84448
#
# Velocity S-wave (km/s) = 2.38186 3.47817 2.98085
# Velocity P-wave (km/s) = 4.93479 6.11259 5.55499
#
# Compressibility (1/GPa) = 0.02808681
#
# Stress axis : x y z
#
# Youngs Moduli (GPa) = 40.39346 60.37117 111.73868
#
# Poissons Ratio (x) = 0.35570 0.08911
# Poissons Ratio (y) = 0.23799 0.49192
# Poissons Ratio (z) = 0.03221 0.26578
#
# Static dielectric constant tensor:
#      x y z
#    x 3.698700 0.000000 -0.102840 
#    y 0.000000 4.268780 0.000000 
#    z -0.102840 0.000000 4.190500 
# 
# 
# High freq. dielectric constant tensor:
#      x y z
#    x 1.812600 0.000000 -0.005590 
#    y 0.000000 1.830870 0.000000 
#    z -0.005590 0.000000 1.854830 
# 
# From -- ./inp_files/260398.got.cif
#   From: 2010.06.25/outbox.cif.g09.slc.cpg/sg12_131_cif.got.tgz:260398.got - 2010.06.28 00:19:55.
