data_PCOD8110381
_publ_section_title
;
Structure prediction by ZEFSAII (Michael W. Deem and Ramdas Pophale) SiO2 
 PCOD8110381
Probable space group: C 2/M
;
_chemical_formula_sum "Si O2"
_cell_formula_units_Z 48
_cell_length_a 9.057974
_cell_length_b 28.491074
_cell_length_c 14.146739
_cell_angle_alpha 90.000000
_cell_angle_beta 38.516910
_cell_angle_gamma 90.000000
_cell_volume 2273.562454
_symmetry_space_group_name_H-M "C 2/M"
_symmetry_group_IT_number 12
_symmetry_cell_setting 'monoclinic'
loop_
_space_group_symop_operation_xyz
x,y,z
-x,y,-z
-x,-y,-z
x,-y,z
1/2+x,1/2+y,z
1/2-x,1/2+y,-z
1/2-x,1/2-y,-z
1/2+x,1/2-y,z
loop_
_atom_site_type_symbol
_atom_site_label
_atom_site_fract_x
_atom_site_fract_y
_atom_site_fract_z
Si Si1 0.025928 0.113277 0.716602
Si Si2 0.057349 0.204072 0.815492
Si Si3 0.574296 0.553279 0.861829
Si Si4 0.883503 0.701009 0.829944
Si Si5 0.261358 0.377692 0.666691
Si Si6 0.367979 0.053686 0.418139
O O1 0.107430 0.164391 0.711946
O O2 0.939759 0.082975 0.849499
O O3 0.244388 0.087190 0.556533
O O4 0.801295 0.117485 0.758994
O O5 0.270030 0.205677 0.783567
O O6 0.044979 0.253622 0.768312
O O7 0.810051 0.194217 0.991541
O O8 0.483689 0.500000 0.901247
O O9 0.853217 0.557372 0.705534
O O10 0.500000 0.575074 0.000000
O O11 0.045180 0.655543 0.750397
O O12 0.500000 0.356833 0.500000
O O13 0.202858 0.428797 0.651300
O O14 0.282127 0.000000 0.473818
#
# Coordination Sequence:
#
# PCOD8110381 Si02
#       6
#     8   8   8   8   8   8
#     4  11  22  36  61  94 122 163 211 250 315 374
#     4  10  22  38  67  94 122 169 205 260 314 372
#     4  10  22  39  60  89 125 164 213 264 314 372
#     4  10  21  42  63  92 131 161 211 257 313 375
#     4  10  23  40  61  92 126 168 207 258 311 373
#     4  10  22  42  64  88 125 170 212 262 316 373
#
# _framework density 21.112241999999998
#
# number of rings (size 3 to 8) (size 9 to 14) (size 15 to 20)
#    0.000    1.833    0.000    3.000    4.667    8.333 
#    0.000    9.167    0.000    3.000    0.000    0.000 
#    0.000    0.000    0.000    0.000    0.000    0.000 
#
# Total GULP energy -297669.365629 kJ/mol
# GULP energy per Si atom -12402.890235 kJ/mol
# Density = 2.106419 g / cm^3
# Si number density = 21.112242 Si / 1000 Ang^3
#
#
#
# Elastic Constant Matrix: (Units=GPa)
#
#
# Indices 1 2 3 4 5 6 
#
# 1 164.0153 70.4244 38.9672 0.0000 18.9623 0.0000
# 2 70.4244 135.6418 49.9642 0.0000 9.9937 0.0000
# 3 38.9672 49.9642 52.4292 0.0000 4.7534 0.0000
# 4 0.0000 0.0000 0.0000 30.8891 0.0000 11.7535
# 5 18.9623 9.9937 4.7534 0.0000 36.8061 0.0000
# 6 0.0000 0.0000 0.0000 11.7535 0.0000 37.1893
#
#
#
# Elastic Compliance Matrix: (Units=1/GPa)
#
#
# Indices 1 2 3 4 5 6 
#
# 1 0.008510 -0.003022 -0.003159 0.000000 -0.003156 0.000000
# 2 -0.003022 0.012541 -0.009650 0.000000 -0.000602 0.000000
# 3 -0.003159 -0.009650 0.030590 0.000000 0.000297 0.000000
# 4 0.000000 0.000000 0.000000 0.036799 0.000000 -0.011630
# 5 -0.003156 -0.000602 0.000297 0.000000 0.028920 0.000000
# 6 0.000000 0.000000 0.000000 -0.011630 0.000000 0.030565
#
#
# Mechanical properties :
#
#
# Convention : Reuss Voigt Hill
#
# Bulk Modulus (GPa) = 50.05278 74.53309 62.29293
# Shear Modulus (GPa) = 26.84610 33.82561 30.33586
#
# Velocity S-wave (km/s) = 3.56980 4.00707 3.79474
# Velocity P-wave (km/s) = 6.38363 7.53583 6.98353
#
# Compressibility (1/GPa) = 0.01997891
#
# Stress axis : x y z
#
# Youngs Moduli (GPa) = 117.50903 79.74156 32.69014
#
# Poissons Ratio (x) = 0.24101 0.10325
# Poissons Ratio (y) = 0.35516 0.31546
# Poissons Ratio (z) = 0.37116 0.76951
#
# Static dielectric constant tensor:
#      x y z
#    x 4.036320 0.000000 0.160980 
#    y 0.000000 3.942880 0.000000 
#    z 0.160980 0.000000 3.678070 
# 
# 
# High freq. dielectric constant tensor:
#      x y z
#    x 1.840650 0.000000 0.009160 
#    y 0.000000 1.834890 0.000000 
#    z 0.009160 0.000000 1.811510 
# 
# From -- ./inp_files/200149.got.cif
#   From: 2010.06.25/outbox.cif.g09.slc.cpg/sg12_101_cif.got.tgz:200149.got - 2010.06.28 00:19:55.
