data_PCOD8110801
_publ_section_title
;
Structure prediction by ZEFSAII (Michael W. Deem and Ramdas Pophale) SiO2 
 PCOD8110801
Probable space group: C 2/M
;
_chemical_formula_sum "Si O2"
_cell_formula_units_Z 64
_cell_length_a 23.647118
_cell_length_b 14.485239
_cell_length_c 16.038645
_cell_angle_alpha 90.000000
_cell_angle_beta 34.955364
_cell_angle_gamma 90.000000
_cell_volume 3147.598043
_symmetry_space_group_name_H-M "C 2/M"
_symmetry_group_IT_number 12
_symmetry_cell_setting 'monoclinic'
loop_
_space_group_symop_operation_xyz
x,y,z
-x,y,-z
-x,-y,-z
x,-y,z
1/2+x,1/2+y,z
1/2-x,1/2+y,-z
1/2-x,1/2-y,-z
1/2+x,1/2-y,z
loop_
_atom_site_type_symbol
_atom_site_label
_atom_site_fract_x
_atom_site_fract_y
_atom_site_fract_z
Si Si1 0.034991 0.774485 0.161364
Si Si2 0.224664 0.601944 0.549563
Si Si3 0.158249 0.222643 0.712240
Si Si4 0.031370 0.400065 0.684961
Si Si5 0.788088 0.775337 0.167994
Si Si6 0.399826 0.892393 0.577330
Si Si7 0.994671 0.107113 0.641602
Si Si8 0.159280 0.107468 0.311757
O O1 0.003450 0.845315 0.270905
O O2 0.951656 0.768043 0.190931
O O3 0.048860 0.674567 0.188935
O O4 0.137968 0.802922 0.995582
O O5 0.261166 0.500000 0.538354
O O6 0.224638 0.684008 0.618177
O O7 0.292087 0.633802 0.390920
O O8 0.112471 0.590018 0.657876
O O9 0.155210 0.204676 0.814265
O O10 0.979312 0.500000 0.732579
O O11 0.088403 0.366692 0.533507
O O12 0.691064 0.837196 0.273848
O O13 0.758691 0.667627 0.195988
O O14 0.500000 0.859597 0.500000
O O15 0.379264 0.000000 0.616946
O O16 0.895675 0.128490 0.709180
O O17 0.089112 0.138101 0.473182
O O18 0.002515 0.000000 0.650672
O O19 0.188097 0.000000 0.283318
#
# Coordination Sequence:
#
# PCOD8110801 Si02
#       8
#     8   8   8   8   8   8   8   8
#     4  11  24  38  58  88 128 164 196 236 310 362
#     4   9  18  35  60  85 110 148 201 252 289 330
#     4  10  22  38  56  88 123 159 200 246 293 358
#     4   9  18  37  60  82 114 151 196 247 285 339
#     4  12  24  38  61  89 127 160 198 245 300 372
#     4  10  22  40  62  86 112 152 202 248 295 349
#     4   9  20  41  63  87 119 154 201 254 300 356
#     4   9  21  40  64  89 116 155 204 256 300 349
#
# _framework density 20.332964
#
# number of rings (size 3 to 8) (size 9 to 14) (size 15 to 20)
#    0.000    2.125    1.250    1.875    7.000    2.500 
#    0.000    0.000    0.000    6.000    0.000    0.000 
#    0.000    0.000    0.000    0.000    0.000    0.000 
#
# Total GULP energy -396720.022810 kJ/mol
# GULP energy per Si atom -12397.500713 kJ/mol
# Density = 2.028669 g / cm^3
# Si number density = 20.332964 Si / 1000 Ang^3
#
#
#
# Elastic Constant Matrix: (Units=GPa)
#
#
# Indices 1 2 3 4 5 6 
#
# 1 63.7846 24.0162 26.4673 0.0000 -4.8690 0.0000
# 2 24.0162 88.9154 41.4969 0.0000 -2.9257 0.0000
# 3 26.4673 41.4969 95.4828 0.0000 -0.8290 0.0000
# 4 0.0000 0.0000 0.0000 15.2803 0.0000 1.0098
# 5 -4.8690 -2.9257 -0.8290 0.0000 19.2942 0.0000
# 6 0.0000 0.0000 0.0000 1.0098 0.0000 15.1922
#
#
#
# Elastic Compliance Matrix: (Units=1/GPa)
#
#
# Indices 1 2 3 4 5 6 
#
# 1 0.018753 -0.003163 -0.003788 0.000000 0.004090 0.000000
# 2 -0.003163 0.014710 -0.005506 0.000000 0.001196 0.000000
# 3 -0.003788 -0.005506 0.013906 0.000000 -0.001193 0.000000
# 4 0.000000 0.000000 0.000000 0.065732 0.000000 -0.004369
# 5 0.004090 0.001196 -0.001193 0.000000 0.052991 0.000000
# 6 0.000000 0.000000 0.000000 -0.004369 0.000000 0.066113
#
#
# Mechanical properties :
#
#
# Convention : Reuss Voigt Hill
#
# Bulk Modulus (GPa) = 44.53378 48.01597 46.27487
# Shear Modulus (GPa) = 18.89620 20.36684 19.63152
#
# Velocity S-wave (km/s) = 3.05181 3.16834 3.11062
# Velocity P-wave (km/s) = 5.86241 6.08692 5.97572
#
# Compressibility (1/GPa) = 0.02245487
#
# Stress axis : x y z
#
# Youngs Moduli (GPa) = 53.32582 67.98181 71.91327
#
# Poissons Ratio (x) = 0.21500 0.27242
# Poissons Ratio (y) = 0.16865 0.39594
# Poissons Ratio (z) = 0.20201 0.37430
#
# Static dielectric constant tensor:
#      x y z
#    x 3.598580 0.000000 0.103410 
#    y 0.000000 3.959370 0.000000 
#    z 0.103410 0.000000 3.367030 
# 
# 
# High freq. dielectric constant tensor:
#      x y z
#    x 1.790920 0.000000 0.007590 
#    y 0.000000 1.804630 0.000000 
#    z 0.007590 0.000000 1.764840 
# 
# From -- ./inp_files/240654.got.cif
#   From: 2010.06.25/outbox.cif.g09.slc.cpg/sg12_121_cif.got.tgz:240654.got - 2010.06.28 00:19:55.
