data_PCOD8110316
_publ_section_title
;
Structure prediction by ZEFSAII (Michael W. Deem and Ramdas Pophale) SiO2 
 PCOD8110316
Probable space group: C 2/M
;
_chemical_formula_sum "Si O2"
_cell_formula_units_Z 40
_cell_length_a 9.848077
_cell_length_b 13.945665
_cell_length_c 13.169854
_cell_angle_alpha 90.000000
_cell_angle_beta 81.853464
_cell_angle_gamma 90.000000
_cell_volume 1790.469177
_symmetry_space_group_name_H-M "C 2/M"
_symmetry_group_IT_number 12
_symmetry_cell_setting 'monoclinic'
loop_
_space_group_symop_operation_xyz
x,y,z
-x,y,-z
-x,-y,-z
x,-y,z
1/2+x,1/2+y,z
1/2-x,1/2+y,-z
1/2-x,1/2-y,-z
1/2+x,1/2-y,z
loop_
_atom_site_type_symbol
_atom_site_label
_atom_site_fract_x
_atom_site_fract_y
_atom_site_fract_z
Si Si1 0.596570 0.104152 0.839578
Si Si2 0.431133 0.688763 0.108086
Si Si3 0.132876 0.737215 0.431297
Si Si4 0.816620 0.606482 0.757933
Si Si5 0.896034 0.890976 0.724261
O O1 0.583619 0.196859 0.912666
O O2 0.474010 0.107732 0.772581
O O3 0.734950 0.111687 0.761510
O O4 0.593199 0.000000 0.898610
O O5 0.279267 0.646625 0.140972
O O6 0.524569 0.665873 0.195520
O O7 0.500000 0.642791 0.000000
O O8 0.250000 0.750000 0.500000
O O9 0.200668 0.668780 0.340531
O O10 0.082299 0.836655 0.384591
O O11 0.000000 0.690914 0.500000
O O12 0.765862 0.500000 0.737475
O O13 0.951075 0.000000 0.710920
#
# Coordination Sequence:
#
# PCOD8110316 Si02
#       5
#     8   8   8   8   8
#     4  10  21  41  68  93 131 175 216 266 325 385
#     4  12  24  43  69  97 134 180 223 267 329 395
#     4  12  24  41  71  98 130 171 221 272 336 397
#     4  11  24  44  67  97 135 171 219 276 328 391
#     4  11  24  44  67  98 138 174 220 276 327 390
#
# _framework density 22.340513999999999
#
# number of rings (size 3 to 8) (size 9 to 14) (size 15 to 20)
#    0.000    0.800    4.000    3.000    0.000    6.800 
#    0.000    4.000    0.000    0.000    0.000    0.000 
#    0.000    0.000    0.000    0.000    0.000    0.000 
#
# Total GULP energy -247963.025299 kJ/mol
# GULP energy per Si atom -12398.151265 kJ/mol
# Density = 2.228967 g / cm^3
# Si number density = 22.340514 Si / 1000 Ang^3
#
#
#
# Elastic Constant Matrix: (Units=GPa)
#
#
# Indices 1 2 3 4 5 6 
#
# 1 101.5660 4.7528 6.7390 0.0000 -11.8254 0.0000
# 2 4.7528 160.0756 20.8529 0.0000 -8.8543 0.0000
# 3 6.7390 20.8529 84.9191 0.0000 -18.5127 0.0000
# 4 0.0000 0.0000 0.0000 9.4464 0.0000 -4.9008
# 5 -11.8254 -8.8543 -18.5127 0.0000 30.9948 0.0000
# 6 0.0000 0.0000 0.0000 -4.9008 0.0000 29.9637
#
#
#
# Elastic Compliance Matrix: (Units=1/GPa)
#
#
# Indices 1 2 3 4 5 6 
#
# 1 0.010305 -0.000096 0.000066 0.000000 0.003943 0.000000
# 2 -0.000096 0.006483 -0.001367 0.000000 0.000999 0.000000
# 3 0.000066 -0.001367 0.013827 0.000000 0.007893 0.000000
# 4 0.000000 0.000000 0.000000 0.115676 0.000000 0.018919
# 5 0.003943 0.000999 0.007893 0.000000 0.038768 0.000000
# 6 0.000000 0.000000 0.000000 0.018919 0.000000 0.036468
#
#
# Mechanical properties :
#
#
# Convention : Reuss Voigt Hill
#
# Bulk Modulus (GPa) = 35.94471 45.69447 40.81959
# Shear Modulus (GPa) = 21.40453 35.02871 28.21662
#
# Velocity S-wave (km/s) = 3.09868 3.96402 3.55776
# Velocity P-wave (km/s) = 5.37837 6.43812 5.93196
#
# Compressibility (1/GPa) = 0.02782051
#
# Stress axis : x y z
#
# Youngs Moduli (GPa) = 97.03931 154.24500 72.32187
#
# Poissons Ratio (x) = 0.01487 -0.00474
# Poissons Ratio (y) = 0.00935 0.09883
# Poissons Ratio (z) = -0.00636 0.21079
#
# Static dielectric constant tensor:
#      x y z
#    x 3.679980 0.000000 0.144410 
#    y 0.000000 4.637170 0.000000 
#    z 0.144410 0.000000 3.406060 
# 
# 
# High freq. dielectric constant tensor:
#      x y z
#    x 1.897890 0.000000 -0.015410 
#    y 0.000000 1.893140 0.000000 
#    z -0.015410 0.000000 1.859770 
# 
# From -- ./inp_files/194449.got.cif
#   From: 2010.06.25/outbox.cif.g09.slc.cpg/sg12_98_cif.got.tgz:194449.got - 2010.06.28 00:19:55.
