data_PCOD8110643
_publ_section_title
;
Structure prediction by ZEFSAII (Michael W. Deem and Ramdas Pophale) SiO2 
 PCOD8110643
Probable space group: C 2/M
;
_chemical_formula_sum "Si O2"
_cell_formula_units_Z 56
_cell_length_a 13.951466
_cell_length_b 25.837224
_cell_length_c 9.168774
_cell_angle_alpha 90.000000
_cell_angle_beta 119.706984
_cell_angle_gamma 90.000000
_cell_volume 2870.663886
_symmetry_space_group_name_H-M "C 2/M"
_symmetry_group_IT_number 12
_symmetry_cell_setting 'monoclinic'
loop_
_space_group_symop_operation_xyz
x,y,z
-x,y,-z
-x,-y,-z
x,-y,z
1/2+x,1/2+y,z
1/2-x,1/2+y,-z
1/2-x,1/2-y,-z
1/2+x,1/2-y,z
loop_
_atom_site_type_symbol
_atom_site_label
_atom_site_fract_x
_atom_site_fract_y
_atom_site_fract_z
Si Si1 0.757492 0.723441 0.351159
Si Si2 0.399034 0.137109 0.536266
Si Si3 0.733091 0.439391 0.521800
Si Si4 0.152166 0.775182 0.832334
Si Si5 0.955747 0.722284 0.821119
Si Si6 0.395462 0.618255 0.325413
Si Si7 0.521981 0.559889 0.176877
O O1 0.750000 0.750000 0.500000
O O2 0.788449 0.662651 0.380392
O O3 0.855581 0.747682 0.330565
O O4 0.642051 0.740198 0.192975
O O5 0.500000 0.127113 0.500000
O O6 0.353826 0.083149 0.567282
O O7 0.433497 0.177130 0.688774
O O8 0.747661 0.500000 0.566440
O O9 0.691755 0.410982 0.637106
O O10 0.647047 0.430144 0.324841
O O11 0.167766 0.835758 0.807572
O O12 0.036311 0.765652 0.819765
O O13 0.250000 0.750000 0.000000
O O14 0.000000 0.693936 0.000000
O O15 0.500000 0.638294 0.500000
O O16 0.436158 0.580090 0.231040
O O17 0.495696 0.500000 0.145874
O O18 0.500000 0.585249 0.000000
#
# Coordination Sequence:
#
# PCOD8110643 Si02
#       7
#     8   8   8   8   8   8   8
#     4  10  22  37  57  81 117 158 202 234 292 358
#     4  11  23  40  62  85 117 162 205 259 307 358
#     4  10  22  41  65  91 118 159 211 256 307 371
#     4  12  24  37  55  91 124 161 199 244 294 363
#     4  11  23  39  59  85 126 165 200 247 298 365
#     4  10  22  36  62  89 126 164 204 241 305 372
#     4   9  19  38  63  94 127 154 195 259 318 361
#
# _framework density 19.507683
#
# number of rings (size 3 to 8) (size 9 to 14) (size 15 to 20)
#    0.000    1.571    2.857    2.143    8.000    3.714 
#    0.000    0.000    0.000    0.429    0.000    0.000 
#    0.000    0.000    0.000    0.000    0.000    0.000 
#
# Total GULP energy -346872.028260 kJ/mol
# GULP energy per Si atom -12388.286724 kJ/mol
# Density = 1.946328 g / cm^3
# Si number density = 19.507683 Si / 1000 Ang^3
#
#
#
# Elastic Constant Matrix: (Units=GPa)
#
#
# Indices 1 2 3 4 5 6 
#
# 1 128.9398 59.6211 45.8533 0.0000 -12.9249 0.0000
# 2 59.6211 114.2657 42.6249 0.0000 1.5892 0.0000
# 3 45.8533 42.6249 96.7722 0.0000 -12.1312 0.0000
# 4 0.0000 0.0000 0.0000 24.0696 0.0000 -3.0680
# 5 -12.9249 1.5892 -12.1312 0.0000 28.0398 0.0000
# 6 0.0000 0.0000 0.0000 -3.0680 0.0000 36.5137
#
#
#
# Elastic Compliance Matrix: (Units=1/GPa)
#
#
# Indices 1 2 3 4 5 6 
#
# 1 0.011486 -0.005064 -0.002656 0.000000 0.004432 0.000000
# 2 -0.005064 0.012907 -0.003881 0.000000 -0.004745 0.000000
# 3 -0.002656 -0.003881 0.013931 0.000000 0.005023 0.000000
# 4 0.000000 0.000000 0.000000 0.041996 0.000000 0.003529
# 5 0.004432 -0.004745 0.005023 0.000000 0.040149 0.000000
# 6 0.000000 0.000000 0.000000 0.003529 0.000000 0.027683
#
#
# Mechanical properties :
#
#
# Convention : Reuss Voigt Hill
#
# Bulk Modulus (GPa) = 66.12520 70.68625 68.40573
# Shear Modulus (GPa) = 28.34552 30.51652 29.43102
#
# Velocity S-wave (km/s) = 3.81602 3.95946 3.88840
# Velocity P-wave (km/s) = 7.30661 7.56418 7.43651
#
# Compressibility (1/GPa) = 0.01512283
#
# Stress axis : x y z
#
# Youngs Moduli (GPa) = 87.06275 77.47538 71.78186
#
# Poissons Ratio (x) = 0.39232 0.19067
# Poissons Ratio (y) = 0.44087 0.27856
# Poissons Ratio (z) = 0.23126 0.30065
#
# Static dielectric constant tensor:
#      x y z
#    x 3.969610 0.000000 0.069360 
#    y 0.000000 3.446290 0.000000 
#    z 0.069360 0.000000 4.037390 
# 
# 
# High freq. dielectric constant tensor:
#      x y z
#    x 1.771440 0.000000 -0.019970 
#    y 0.000000 1.742990 0.000000 
#    z -0.019970 0.000000 1.759540 
# 
# From -- ./inp_files/65946.got.cif
#   From: 2010.06.25/outbox.cif.g09.slc.cpg/sg12_33_cif.got.tgz:65946.got - 2010.06.28 00:19:55.
