data_PCOD8110248
_publ_section_title
;
Structure prediction by ZEFSAII (Michael W. Deem and Ramdas Pophale) SiO2 
 PCOD8110248
Probable space group: C 2/M
;
_chemical_formula_sum "Si O2"
_cell_formula_units_Z 64
_cell_length_a 30.341109
_cell_length_b 8.774414
_cell_length_c 22.630762
_cell_angle_alpha 90.000000
_cell_angle_beta 148.408845
_cell_angle_gamma 90.000000
_cell_volume 3156.162519
_symmetry_space_group_name_H-M "C 2/M"
_symmetry_group_IT_number 12
_symmetry_cell_setting 'monoclinic'
loop_
_space_group_symop_operation_xyz
x,y,z
-x,y,-z
-x,-y,-z
x,-y,z
1/2+x,1/2+y,z
1/2-x,1/2+y,-z
1/2-x,1/2-y,-z
1/2+x,1/2-y,z
loop_
_atom_site_type_symbol
_atom_site_label
_atom_site_fract_x
_atom_site_fract_y
_atom_site_fract_z
Si Si1 0.364558 0.319551 0.001712
Si Si2 0.679471 0.179117 0.766570
Si Si3 0.491236 0.679141 0.747790
Si Si4 0.921906 0.175514 0.944104
Si Si5 0.470801 0.324803 0.341609
Si Si6 0.283171 0.674664 0.689817
Si Si7 0.829491 0.679841 0.623307
Si Si8 0.357640 0.676372 0.401848
O O1 0.363565 0.500000 0.994567
O O2 0.420500 0.268750 0.121453
O O3 0.267870 0.263679 0.895857
O O4 0.406420 0.248136 0.990241
O O5 0.607785 0.220357 0.731477
O O6 0.663294 0.259704 0.686048
O O7 0.680123 0.000000 0.755154
O O8 0.475196 0.500000 0.738555
O O9 0.496056 0.723894 0.684834
O O10 0.414971 0.768255 0.690122
O O11 0.837282 0.192621 0.810537
O O12 0.946489 0.000000 0.982073
O O13 0.000000 0.257265 0.000000
O O14 0.441027 0.500000 0.307100
O O15 0.543816 0.299222 0.473005
O O16 0.274204 0.500000 0.659378
O O17 0.328705 0.767275 0.690159
O O18 0.191913 0.740353 0.601753
O O19 0.822816 0.500000 0.612489
O O20 0.750000 0.750000 0.500000
O O21 0.332884 0.500000 0.375642
#
# Coordination Sequence:
#
# PCOD8110248 Si02
#       8
#     8   8   8   8   8   8   8   8
#     4   9  18  35  59  89 121 156 202 249 299 364
#     4  11  22  38  61  89 119 156 204 255 305 367
#     4  10  21  41  66  88 119 163 206 250 304 366
#     4   9  16  29  54  85 115 150 194 238 285 351
#     4  10  23  40  59  86 117 155 201 251 312 372
#     4  11  21  36  61  90 121 158 200 244 299 362
#     4  12  25  41  61  89 125 162 206 253 301 358
#     4  11  22  38  59  86 125 161 198 255 314 367
#
# _framework density 20.27779
#
# number of rings (size 3 to 8) (size 9 to 14) (size 15 to 20)
#    0.000    1.625    1.250    4.125    0.000    6.500 
#    0.000    1.250    0.000    1.500    0.000    0.000 
#    0.000    0.000    0.000    0.000    0.000    0.000 
#
# Total GULP energy -396856.535049 kJ/mol
# GULP energy per Si atom -12401.766720 kJ/mol
# Density = 2.023164 g / cm^3
# Si number density = 20.277790 Si / 1000 Ang^3
#
#
#
# Elastic Constant Matrix: (Units=GPa)
#
#
# Indices 1 2 3 4 5 6 
#
# 1 102.3769 38.7093 41.7765 0.0000 10.0807 0.0000
# 2 38.7093 83.8344 47.8555 0.0000 3.2951 0.0000
# 3 41.7765 47.8555 115.7580 0.0000 8.2018 0.0000
# 4 0.0000 0.0000 0.0000 21.5143 0.0000 2.9877
# 5 10.0807 3.2951 8.2018 0.0000 37.8981 0.0000
# 6 0.0000 0.0000 0.0000 2.9877 0.0000 35.3448
#
#
#
# Elastic Compliance Matrix: (Units=1/GPa)
#
#
# Indices 1 2 3 4 5 6 
#
# 1 0.012698 -0.004254 -0.002652 0.000000 -0.002434 0.000000
# 2 -0.004254 0.017038 -0.005569 0.000000 0.000855 0.000000
# 3 -0.002652 -0.005569 0.011998 0.000000 -0.001407 0.000000
# 4 0.000000 0.000000 0.000000 0.047033 0.000000 -0.003976
# 5 -0.002434 0.000855 -0.001407 0.000000 0.027264 0.000000
# 6 0.000000 0.000000 0.000000 -0.003976 0.000000 0.028629
#
#
# Mechanical properties :
#
#
# Convention : Reuss Voigt Hill
#
# Bulk Modulus (GPa) = 59.57880 62.07244 60.82562
# Shear Modulus (GPa) = 28.53842 30.52666 29.53254
#
# Velocity S-wave (km/s) = 3.75557 3.88419 3.82042
# Velocity P-wave (km/s) = 6.94628 7.12695 7.03719
#
# Compressibility (1/GPa) = 0.01678449
#
# Stress axis : x y z
#
# Youngs Moduli (GPa) = 78.75328 58.69323 83.34974
#
# Poissons Ratio (x) = 0.24967 0.22101
# Poissons Ratio (y) = 0.33500 0.46418
# Poissons Ratio (z) = 0.20882 0.32686
#
# Static dielectric constant tensor:
#      x y z
#    x 3.824220 0.000000 0.032740 
#    y 0.000000 3.537420 0.000000 
#    z 0.032740 0.000000 3.881870 
# 
# 
# High freq. dielectric constant tensor:
#      x y z
#    x 1.803130 0.000000 0.003360 
#    y 0.000000 1.765720 0.000000 
#    z 0.003360 0.000000 1.803660 
# 
# From -- ./inp_files/249867.got.cif
#   From: 2010.06.25/outbox.cif.g09.slc.cpg/sg12_125_cif.got.tgz:249867.got - 2010.06.28 00:19:55.
