data_PCOD8110386
_publ_section_title
;
Structure prediction by ZEFSAII (Michael W. Deem and Ramdas Pophale) SiO2 
 PCOD8110386
Probable space group: C 2/M
;
_chemical_formula_sum "Si O2"
_cell_formula_units_Z 56
_cell_length_a 31.520927
_cell_length_b 11.616877
_cell_length_c 8.279089
_cell_angle_alpha 90.000000
_cell_angle_beta 115.605151
_cell_angle_gamma 90.000000
_cell_volume 2733.871576
_symmetry_space_group_name_H-M "C 2/M"
_symmetry_group_IT_number 12
_symmetry_cell_setting 'monoclinic'
loop_
_space_group_symop_operation_xyz
x,y,z
-x,y,-z
-x,-y,-z
x,-y,z
1/2+x,1/2+y,z
1/2-x,1/2+y,-z
1/2-x,1/2-y,-z
1/2+x,1/2-y,z
loop_
_atom_site_type_symbol
_atom_site_label
_atom_site_fract_x
_atom_site_fract_y
_atom_site_fract_z
Si Si1 0.424723 0.000000 0.459910
Si Si2 0.748917 0.130593 0.106011
Si Si3 0.451480 0.775952 0.974367
Si Si4 0.380914 0.813186 0.583980
Si Si5 0.201701 0.282332 0.331984
Si Si6 0.131209 0.864035 0.022961
Si Si7 0.353775 0.373651 0.311821
Si Si8 0.473216 0.000000 0.214194
O O1 0.391320 0.105628 0.450594
O O2 0.432961 0.000000 0.283605
O O3 0.474515 0.000000 0.630961
O O4 0.711559 0.139632 0.190492
O O5 0.799430 0.125525 0.272728
O O6 0.740895 0.000000 0.009175
O O7 0.750000 0.250000 0.000000
O O8 0.423862 0.823785 0.775770
O O9 0.419971 0.685090 0.018275
O O10 0.500000 0.713853 0.000000
O O11 0.465773 0.885886 0.100878
O O12 0.331983 0.846894 0.594012
O O13 0.380303 0.688502 0.500743
O O14 0.250000 0.250000 0.500000
O O15 0.171559 0.173594 0.216352
O O16 0.129588 0.000000 0.027006
O O17 0.142401 0.818275 0.860980
O O18 0.376207 0.500000 0.343473
#
# Coordination Sequence:
#
# PCOD8110386 Si02
#       8
#     4   8   8   8   8   8   8   4
#     4  11  23  40  67  98 129 168 217 272 330 406
#     4  11  23  43  66  94 129 180 229 280 338 406
#     4  11  22  41  66  93 129 166 212 270 330 400
#     4  11  23  39  62  98 128 164 219 267 332 389
#     4  11  23  40  63  95 133 175 222 274 331 397
#     4  10  23  42  66  91 128 172 216 267 330 395
#     4  10  21  42  64  87 127 171 217 269 330 394
#     4  11  22  43  70  91 130 177 210 267 346 402
#
# _framework density 20.483771000000001
#
# number of rings (size 3 to 8) (size 9 to 14) (size 15 to 20)
#    0.000    1.286    4.286    1.500    1.000    3.143 
#    2.571    0.000    0.000    1.714    0.000    0.000 
#    0.000    0.000    0.000    0.000    0.000    0.000 
#
# Total GULP energy -346885.290794 kJ/mol
# GULP energy per Si atom -12388.760386 kJ/mol
# Density = 2.043715 g / cm^3
# Si number density = 20.483771 Si / 1000 Ang^3
#
#
#
# Elastic Constant Matrix: (Units=GPa)
#
#
# Indices 1 2 3 4 5 6 
#
# 1 160.5726 40.2657 39.3142 0.0000 -4.8981 0.0000
# 2 40.2657 101.4535 28.2672 0.0000 -7.4150 0.0000
# 3 39.3142 28.2672 76.2945 0.0000 -2.2369 0.0000
# 4 0.0000 0.0000 0.0000 15.0498 0.0000 5.8220
# 5 -4.8981 -7.4150 -2.2369 0.0000 35.5413 0.0000
# 6 0.0000 0.0000 0.0000 5.8220 0.0000 21.1555
#
#
#
# Elastic Compliance Matrix: (Units=1/GPa)
#
#
# Indices 1 2 3 4 5 6 
#
# 1 0.007521 -0.002095 -0.003088 0.000000 0.000405 0.000000
# 2 -0.002095 0.011725 -0.003207 0.000000 0.001956 0.000000
# 3 -0.003088 -0.003207 0.015884 0.000000 -0.000095 0.000000
# 4 0.000000 0.000000 0.000000 0.074363 0.000000 -0.020465
# 5 0.000405 0.001956 -0.000095 0.000000 0.028594 0.000000
# 6 0.000000 0.000000 0.000000 -0.020465 0.000000 0.052901
#
#
# Mechanical properties :
#
#
# Convention : Reuss Voigt Hill
#
# Bulk Modulus (GPa) = 54.49592 61.55721 58.02657
# Shear Modulus (GPa) = 23.37715 29.71421 26.54568
#
# Velocity S-wave (km/s) = 3.38191 3.81284 3.60382
# Velocity P-wave (km/s) = 6.47394 7.03566 6.76064
#
# Compressibility (1/GPa) = 0.01835000
#
# Stress axis : x y z
#
# Youngs Moduli (GPa) = 132.95308 85.28926 62.95826
#
# Poissons Ratio (x) = 0.17871 0.19439
# Poissons Ratio (y) = 0.27858 0.20191
# Poissons Ratio (z) = 0.41050 0.27352
#
# Static dielectric constant tensor:
#      x y z
#    x 4.141150 0.000000 -0.200170 
#    y 0.000000 3.783490 0.000000 
#    z -0.200170 0.000000 3.634110 
# 
# 
# High freq. dielectric constant tensor:
#      x y z
#    x 1.820990 0.000000 -0.011330 
#    y 0.000000 1.790990 0.000000 
#    z -0.011330 0.000000 1.793830 
# 
# From -- ./inp_files/110598.got.cif
#   From: 2010.06.25/outbox.cif.g09.slc.cpg/sg12_56_cif.got.tgz:110598.got - 2010.06.28 00:19:55.
