data_PCOD8110770
_publ_section_title
;
Structure prediction by ZEFSAII (Michael W. Deem and Ramdas Pophale) SiO2 
 PCOD8110770
Probable space group: C 2/M
;
_chemical_formula_sum "Si O2"
_cell_formula_units_Z 48
_cell_length_a 22.580312
_cell_length_b 9.590280
_cell_length_c 12.298462
_cell_angle_alpha 90.000000
_cell_angle_beta 106.638278
_cell_angle_gamma 90.000000
_cell_volume 2551.744263
_symmetry_space_group_name_H-M "C 2/M"
_symmetry_group_IT_number 12
_symmetry_cell_setting 'monoclinic'
loop_
_space_group_symop_operation_xyz
x,y,z
-x,y,-z
-x,-y,-z
x,-y,z
1/2+x,1/2+y,z
1/2-x,1/2+y,-z
1/2-x,1/2-y,-z
1/2+x,1/2-y,z
loop_
_atom_site_type_symbol
_atom_site_label
_atom_site_fract_x
_atom_site_fract_y
_atom_site_fract_z
Si Si1 0.503697 0.338306 0.692662
Si Si2 0.664630 0.159523 0.250920
Si Si3 0.135738 0.162948 0.435632
Si Si4 0.761109 0.165392 0.116614
Si Si5 0.476231 0.158907 0.872255
Si Si6 0.368140 0.335379 0.328431
O O1 0.510076 0.500000 0.724172
O O2 0.437767 0.304890 0.604532
O O3 0.512236 0.254671 0.807583
O O4 0.560473 0.288375 0.646648
O O5 0.673357 0.251887 0.364186
O O6 0.709390 0.206890 0.177653
O O7 0.596659 0.181968 0.169060
O O8 0.677909 0.000000 0.291181
O O9 0.157343 0.215053 0.566871
O O10 0.148516 0.000000 0.421894
O O11 0.825699 0.215460 0.205550
O O12 0.759976 0.000000 0.090310
O O13 0.750000 0.250000 0.000000
O O14 0.494344 0.000000 0.857113
O O15 0.500000 0.208994 0.000000
O O16 0.364620 0.500000 0.330600
#
# Coordination Sequence:
#
# PCOD8110770 Si02
#       6
#     8   8   8   8   8   8
#     4   9  17  30  50  77 103 128 162 205 250 297
#     4   9  19  35  51  71 102 134 166 209 254 292
#     4   9  17  32  55  79 102 130 166 205 250 303
#     4  10  22  38  54  73 101 136 171 209 250 295
#     4   9  18  31  48  69  97 135 170 203 247 295
#     4   9  18  33  53  77 104 134 165 205 255 297
#
# _framework density 18.810661
#
# number of rings (size 3 to 8) (size 9 to 14) (size 15 to 20)
#    0.000    2.833    0.000    0.500    2.333    3.667 
#    0.000    1.667    0.000    4.000    0.000    0.000 
#    0.000    0.000    0.000    0.000    0.000    0.000 
#
# Total GULP energy -297475.150757 kJ/mol
# GULP energy per Si atom -12394.797948 kJ/mol
# Density = 1.876785 g / cm^3
# Si number density = 18.810661 Si / 1000 Ang^3
#
#
#
# Elastic Constant Matrix: (Units=GPa)
#
#
# Indices 1 2 3 4 5 6 
#
# 1 68.8887 30.5354 45.8757 0.0000 -22.9454 0.0000
# 2 30.5354 49.2009 54.6730 0.0000 -12.2656 0.0000
# 3 45.8757 54.6730 149.6719 0.0000 -15.8614 0.0000
# 4 0.0000 0.0000 0.0000 32.6699 0.0000 -5.5875
# 5 -22.9454 -12.2656 -15.8614 0.0000 26.5996 0.0000
# 6 0.0000 0.0000 0.0000 -5.5875 0.0000 20.6119
#
#
#
# Elastic Compliance Matrix: (Units=1/GPa)
#
#
# Indices 1 2 3 4 5 6 
#
# 1 0.025833 -0.008515 -0.003055 0.000000 0.016536 0.000000
# 2 -0.008515 0.039106 -0.011253 0.000000 0.003977 0.000000
# 3 -0.003055 -0.011253 0.011634 0.000000 -0.000887 0.000000
# 4 0.000000 0.000000 0.000000 0.032097 0.000000 0.008701
# 5 0.016536 0.003977 -0.000887 0.000000 0.053163 0.000000
# 6 0.000000 0.000000 0.000000 0.008701 0.000000 0.050874
#
#
# Mechanical properties :
#
#
# Convention : Reuss Voigt Hill
#
# Bulk Modulus (GPa) = 32.33573 58.88108 45.60840
# Shear Modulus (GPa) = 18.61056 25.08812 21.84934
#
# Velocity S-wave (km/s) = 3.14883 3.65597 3.41184
# Velocity P-wave (km/s) = 5.51793 7.01366 6.31027
#
# Compressibility (1/GPa) = 0.03092555
#
# Stress axis : x y z
#
# Youngs Moduli (GPa) = 38.71039 25.57148 85.95195
#
# Poissons Ratio (x) = 0.21775 0.26259
# Poissons Ratio (y) = 0.32963 0.96725
# Poissons Ratio (z) = 0.11826 0.28777
#
# Static dielectric constant tensor:
#      x y z
#    x 3.707810 0.000000 -0.043980 
#    y 0.000000 3.265590 0.000000 
#    z -0.043980 0.000000 3.705520 
# 
# 
# High freq. dielectric constant tensor:
#      x y z
#    x 1.732490 0.000000 -0.001130 
#    y 0.000000 1.702410 0.000000 
#    z -0.001130 0.000000 1.738470 
# 
# From -- ./inp_files/172411.got.cif
#   From: 2010.06.25/outbox.cif.g09.slc.cpg/sg12_87_cif.got.tgz:172411.got - 2010.06.28 00:19:55.
