data_PCOD8110902
_publ_section_title
;
Structure prediction by ZEFSAII (Michael W. Deem and Ramdas Pophale) SiO2 
 PCOD8110902
Probable space group: C 2/M
;
_chemical_formula_sum "Si O2"
_cell_formula_units_Z 56
_cell_length_a 23.016857
_cell_length_b 13.754283
_cell_length_c 9.862782
_cell_angle_alpha 90.000000
_cell_angle_beta 61.023218
_cell_angle_gamma 90.000000
_cell_volume 2731.493516
_symmetry_space_group_name_H-M "C 2/M"
_symmetry_group_IT_number 12
_symmetry_cell_setting 'monoclinic'
loop_
_space_group_symop_operation_xyz
x,y,z
-x,y,-z
-x,-y,-z
x,-y,z
1/2+x,1/2+y,z
1/2-x,1/2+y,-z
1/2-x,1/2-y,-z
1/2+x,1/2-y,z
loop_
_atom_site_type_symbol
_atom_site_label
_atom_site_fract_x
_atom_site_fract_y
_atom_site_fract_z
Si Si1 0.000164 0.227566 0.161082
Si Si2 0.984235 0.392392 0.373525
Si Si3 0.651158 0.700169 0.625436
Si Si4 0.299182 0.390093 0.698516
Si Si5 0.725042 0.699671 0.810943
Si Si6 0.828819 0.606285 0.528558
Si Si7 0.874359 0.111724 0.876965
O O1 0.055387 0.153457 0.152616
O O2 0.014279 0.331720 0.214580
O O3 0.928176 0.193084 0.291116
O O4 0.000000 0.239799 0.000000
O O5 0.016288 0.500000 0.327083
O O6 0.905967 0.400323 0.463139
O O7 0.000000 0.342333 0.500000
O O8 0.675965 0.627315 0.481969
O O9 0.676324 0.668246 0.743258
O O10 0.683122 0.808428 0.567922
O O11 0.271000 0.500000 0.742567
O O12 0.240313 0.314822 0.802465
O O13 0.362330 0.377021 0.729142
O O14 0.793134 0.639025 0.709434
O O15 0.688250 0.668298 0.988323
O O16 0.802227 0.500000 0.509883
O O17 0.873019 0.000000 0.924537
#
# Coordination Sequence:
#
# PCOD8110902 Si02
#       7
#     8   8   8   8   8   8   8
#     4  11  23  41  61  87 125 164 205 250 307 356
#     4   9  20  38  63  92 120 155 202 248 297 358
#     4  10  22  38  60  90 119 157 200 247 298 359
#     4  10  23  41  62  91 121 153 202 256 308 364
#     4  11  21  39  62  88 122 157 196 243 305 362
#     4   9  18  33  57  86 116 151 192 238 289 347
#     4  11  25  42  61  88 123 162 204 253 303 365
#
# _framework density 20.501605999999999
#
# number of rings (size 3 to 8) (size 9 to 14) (size 15 to 20)
#    0.000    1.857    1.429    2.571    6.000    4.000 
#    0.000    2.143    0.000    0.000    0.000    0.000 
#    0.000    0.000    0.000    0.000    0.000    0.000 
#
# Total GULP energy -347064.384588 kJ/mol
# GULP energy per Si atom -12395.156592 kJ/mol
# Density = 2.045494 g / cm^3
# Si number density = 20.501606 Si / 1000 Ang^3
#
#
#
# Elastic Constant Matrix: (Units=GPa)
#
#
# Indices 1 2 3 4 5 6 
#
# 1 54.4477 44.9455 27.3095 0.0000 15.9026 0.0000
# 2 44.9455 136.0654 46.4558 0.0000 -3.3612 0.0000
# 3 27.3095 46.4558 65.6244 0.0000 2.3370 0.0000
# 4 0.0000 0.0000 0.0000 11.3378 0.0000 9.6075
# 5 15.9026 -3.3612 2.3370 0.0000 40.9081 0.0000
# 6 0.0000 0.0000 0.0000 9.6075 0.0000 19.0587
#
#
#
# Elastic Compliance Matrix: (Units=1/GPa)
#
#
# Indices 1 2 3 4 5 6 
#
# 1 0.033028 -0.008839 -0.007019 0.000000 -0.013164 0.000000
# 2 -0.008839 0.012115 -0.005067 0.000000 0.004721 0.000000
# 3 -0.007019 -0.005067 0.021707 0.000000 0.001072 0.000000
# 4 0.000000 0.000000 0.000000 0.153974 0.000000 -0.077619
# 5 -0.013164 0.004721 0.001072 0.000000 0.029889 0.000000
# 6 0.000000 0.000000 0.000000 -0.077619 0.000000 0.091597
#
#
# Mechanical properties :
#
#
# Convention : Reuss Voigt Hill
#
# Bulk Modulus (GPa) = 39.99532 54.83989 47.41760
# Shear Modulus (GPa) = 12.73907 23.42268 18.08088
#
# Velocity S-wave (km/s) = 2.49543 3.38373 2.97294
# Velocity P-wave (km/s) = 5.27766 6.48639 5.91299
#
# Compressibility (1/GPa) = 0.02500292
#
# Stress axis : x y z
#
# Youngs Moduli (GPa) = 30.27765 82.53922 46.06711
#
# Poissons Ratio (x) = 0.72954 0.32333
# Poissons Ratio (y) = 0.26761 0.23340
# Poissons Ratio (z) = 0.21251 0.41819
#
# Static dielectric constant tensor:
#      x y z
#    x 3.764580 0.000000 0.031150 
#    y 0.000000 4.275120 0.000000 
#    z 0.031150 0.000000 3.675160 
# 
# 
# High freq. dielectric constant tensor:
#      x y z
#    x 1.805640 0.000000 0.005330 
#    y 0.000000 1.804110 0.000000 
#    z 0.005330 0.000000 1.791990 
# 
# From -- ./inp_files/96794.got.cif
#   From: 2010.06.25/outbox.cif.g09.slc.cpg/sg12_49_cif.got.tgz:96794.got - 2010.06.28 00:19:55.
