data_PCOD8110518
_publ_section_title
;
Structure prediction by ZEFSAII (Michael W. Deem and Ramdas Pophale) SiO2 
 PCOD8110518
Probable space group: C 2/M
;
_chemical_formula_sum "Si O2"
_cell_formula_units_Z 40
_cell_length_a 13.956404
_cell_length_b 23.456109
_cell_length_c 5.337291
_cell_angle_alpha 90.000000
_cell_angle_beta 78.711878
_cell_angle_gamma 90.000000
_cell_volume 1713.431503
_symmetry_space_group_name_H-M "C 2/M"
_symmetry_group_IT_number 12
_symmetry_cell_setting 'monoclinic'
loop_
_space_group_symop_operation_xyz
x,y,z
-x,y,-z
-x,-y,-z
x,-y,z
1/2+x,1/2+y,z
1/2-x,1/2+y,-z
1/2-x,1/2-y,-z
1/2+x,1/2-y,z
loop_
_atom_site_type_symbol
_atom_site_label
_atom_site_fract_x
_atom_site_fract_y
_atom_site_fract_z
Si Si1 0.593537 0.880341 0.288615
Si Si2 0.860593 0.500000 0.892994
Si Si3 0.308881 0.797291 0.118306
Si Si4 0.706735 0.621363 0.508681
Si Si5 0.238147 0.000000 0.455296
Si Si6 0.937534 0.788190 0.281733
O O1 0.500000 0.863756 0.500000
O O2 0.574933 0.942312 0.169382
O O3 0.691294 0.883269 0.400241
O O4 0.607177 0.830103 0.079733
O O5 0.779405 0.500000 0.716943
O O6 0.819381 0.500000 0.195966
O O7 0.227278 0.842197 0.248408
O O8 0.362467 0.765328 0.322867
O O9 0.250000 0.750000 0.000000
O O10 0.672690 0.557149 0.455392
O O11 0.621625 0.652283 0.706143
O O12 0.000000 0.785132 0.500000
O O13 0.000000 0.784984 0.000000
#
# Coordination Sequence:
#
# PCOD8110518 Si02
#       6
#     8   4   8   8   4   8
#     4  11  25  42  72 106 145 191 238 297 358 438
#     4  10  21  46  66 105 142 185 235 291 360 433
#     4  12  25  44  72 102 148 192 245 294 364 430
#     4  11  25  47  70 106 142 187 244 299 365 430
#     4  10  22  44  79  99 138 189 235 302 361 426
#     4  12  29  46  73 106 147 194 244 303 365 427
#
# _framework density 23.344967
#
# number of rings (size 3 to 8) (size 9 to 14) (size 15 to 20)
#    0.000    0.800    4.000    2.100    5.600    0.000 
#    0.000    3.000    0.000    0.000    0.000    0.700 
#    0.000    0.000    0.000    0.000    0.000    0.000 
#
# Total GULP energy -247979.399728 kJ/mol
# GULP energy per Si atom -12398.969986 kJ/mol
# Density = 2.329183 g / cm^3
# Si number density = 23.344967 Si / 1000 Ang^3
#
#
#
# Elastic Constant Matrix: (Units=GPa)
#
#
# Indices 1 2 3 4 5 6 
#
# 1 79.3475 46.9242 22.7788 0.0000 9.1981 0.0000
# 2 46.9242 219.8899 44.4594 0.0000 -2.3276 0.0000
# 3 22.7788 44.4594 92.9064 0.0000 3.1104 0.0000
# 4 0.0000 0.0000 0.0000 49.7999 0.0000 -4.1965
# 5 9.1981 -2.3276 3.1104 0.0000 31.6959 0.0000
# 6 0.0000 0.0000 0.0000 -4.1965 0.0000 16.6858
#
#
#
# Elastic Compliance Matrix: (Units=1/GPa)
#
#
# Indices 1 2 3 4 5 6 
#
# 1 0.015483 -0.002894 -0.002261 0.000000 -0.004484 0.000000
# 2 -0.002894 0.005588 -0.002013 0.000000 0.001448 0.000000
# 3 -0.002261 -0.002013 0.012304 0.000000 -0.000699 0.000000
# 4 0.000000 0.000000 0.000000 0.020515 0.000000 0.005160
# 5 -0.004484 0.001448 -0.000699 0.000000 0.033026 0.000000
# 6 0.000000 0.000000 0.000000 0.005160 0.000000 0.061229
#
#
# Mechanical properties :
#
#
# Convention : Reuss Voigt Hill
#
# Bulk Modulus (GPa) = 52.52334 68.94096 60.73215
# Shear Modulus (GPa) = 29.61588 38.16839 33.89214
#
# Velocity S-wave (km/s) = 3.56563 4.04787 3.81438
# Velocity P-wave (km/s) = 6.28485 7.17234 6.74321
#
# Compressibility (1/GPa) = 0.01903916
#
# Stress axis : x y z
#
# Youngs Moduli (GPa) = 64.58544 178.96504 81.27136
#
# Poissons Ratio (x) = 0.51800 0.18375
# Poissons Ratio (y) = 0.18694 0.16358
# Poissons Ratio (z) = 0.14603 0.36021
#
# Static dielectric constant tensor:
#      x y z
#    x 3.882030 0.000000 -0.253720 
#    y 0.000000 5.340590 0.000000 
#    z -0.253720 0.000000 4.021150 
# 
# 
# High freq. dielectric constant tensor:
#      x y z
#    x 1.891040 0.000000 0.005070 
#    y 0.000000 1.954930 0.000000 
#    z 0.005070 0.000000 1.928620 
# 
# From -- ./inp_files/11541.got.cif
#   From: 2010.06.25/outbox.cif.g09.slc.cpg/sg12_6_cif.got.tgz:11541.got - 2010.06.28 00:19:55.
