data_PCOD8110522
_publ_section_title
;
Structure prediction by ZEFSAII (Michael W. Deem and Ramdas Pophale) SiO2 
 PCOD8110522
Probable space group: C 2/M
;
_chemical_formula_sum "Si O2"
_cell_formula_units_Z 44
_cell_length_a 23.550938
_cell_length_b 12.255083
_cell_length_c 9.471644
_cell_angle_alpha 90.000000
_cell_angle_beta 76.117597
_cell_angle_gamma 90.000000
_cell_volume 2653.842978
_symmetry_space_group_name_H-M "C 2/M"
_symmetry_group_IT_number 12
_symmetry_cell_setting 'monoclinic'
loop_
_space_group_symop_operation_xyz
x,y,z
-x,y,-z
-x,-y,-z
x,-y,z
1/2+x,1/2+y,z
1/2-x,1/2+y,-z
1/2-x,1/2-y,-z
1/2+x,1/2-y,z
loop_
_atom_site_type_symbol
_atom_site_label
_atom_site_fract_x
_atom_site_fract_y
_atom_site_fract_z
Si Si1 0.773427 0.624268 0.847975
Si Si2 0.057050 0.000000 0.717490
Si Si3 0.565907 0.323440 0.945838
Si Si4 0.729115 0.702249 0.366235
Si Si5 0.425046 0.500000 0.826142
Si Si6 0.145640 0.000000 0.412592
Si Si7 0.179410 0.291931 0.907870
O O1 0.766733 0.500000 0.801149
O O2 0.800384 0.697924 0.705119
O O3 0.709165 0.673304 0.926172
O O4 0.815320 0.629592 0.959719
O O5 0.072487 0.106250 0.800112
O O6 0.092019 0.000000 0.551798
O O7 0.988969 0.000000 0.717143
O O8 0.611272 0.223174 0.910176
O O9 0.500000 0.277489 0.000000
O O10 0.582042 0.393426 0.073780
O O11 0.750000 0.750000 0.500000
O O12 0.683200 0.607223 0.419956
O O13 0.785551 0.655969 0.245950
O O14 0.376059 0.500000 0.735138
#
# Coordination Sequence:
#
# PCOD8110522 Si02
#       7
#     8   4   8   8   4   4   8
#     4   9  20  33  50  69 101 134 167 210 251 287
#     4   9  19  31  47  75 103 140 151 203 254 313
#     4   9  17  31  50  71 100 132 166 204 251 303
#     4  10  22  31  47  77  98 138 166 197 264 297
#     4   9  19  29  49  75  99 130 172 189 258 309
#     4  12  21  32  52  70 115 130 164 209 245 305
#     4   9  19  31  48  75  96 128 177 196 255 298
#
# _framework density 16.579730000000001
#
# number of rings (size 3 to 8) (size 9 to 14) (size 15 to 20)
#    1.091    1.455    0.000    3.545    5.091    0.000 
#    0.000    0.000    0.000    0.545    0.000    0.000 
#    0.000    7.636    0.000    0.000    0.000    0.000 
#
# Total GULP energy -272651.496412 kJ/mol
# GULP energy per Si atom -12393.249837 kJ/mol
# Density = 1.654199 g / cm^3
# Si number density = 16.579730 Si / 1000 Ang^3
#
#
#
# Elastic Constant Matrix: (Units=GPa)
#
#
# Indices 1 2 3 4 5 6 
#
# 1 71.2698 10.6090 14.8476 0.0000 2.2573 0.0000
# 2 10.6090 63.8970 12.3687 0.0000 -0.8952 0.0000
# 3 14.8476 12.3687 89.0812 0.0000 8.7472 0.0000
# 4 0.0000 0.0000 0.0000 13.2321 0.0000 2.3283
# 5 2.2573 -0.8952 8.7472 0.0000 30.0687 0.0000
# 6 0.0000 0.0000 0.0000 2.3283 0.0000 22.3247
#
#
#
# Elastic Compliance Matrix: (Units=1/GPa)
#
#
# Indices 1 2 3 4 5 6 
#
# 1 0.014797 -0.002053 -0.002127 0.000000 -0.000553 0.000000
# 2 -0.002053 0.016407 -0.002058 0.000000 0.001241 0.000000
# 3 -0.002127 -0.002058 0.012205 0.000000 -0.003452 0.000000
# 4 0.000000 0.000000 0.000000 0.076986 0.000000 -0.008029
# 5 -0.000553 0.001241 -0.003452 0.000000 0.034340 0.000000
# 6 0.000000 0.000000 0.000000 -0.008029 0.000000 0.045631
#
#
# Mechanical properties :
#
#
# Convention : Reuss Voigt Hill
#
# Bulk Modulus (GPa) = 32.32708 33.32207 32.82458
# Shear Modulus (GPa) = 22.40617 25.55328 23.97973
#
# Velocity S-wave (km/s) = 3.68015 3.93012 3.80719
# Velocity P-wave (km/s) = 6.13175 6.38249 6.25837
#
# Compressibility (1/GPa) = 0.03093381
#
# Stress axis : x y z
#
# Youngs Moduli (GPa) = 67.57940 60.95056 81.93416
#
# Poissons Ratio (x) = 0.12512 0.17427
# Poissons Ratio (y) = 0.13873 0.16860
# Poissons Ratio (z) = 0.14374 0.12542
#
# Static dielectric constant tensor:
#      x y z
#    x 3.034330 0.000000 0.014690 
#    y 0.000000 2.837570 0.000000 
#    z 0.014690 0.000000 3.067190 
# 
# 
# High freq. dielectric constant tensor:
#      x y z
#    x 1.626350 0.000000 0.006860 
#    y 0.000000 1.604680 0.000000 
#    z 0.006860 0.000000 1.643550 
# 
# From -- ./inp_files/84088.got.cif
#   From: 2010.06.25/outbox.cif.g09.slc.cpg/sg12_43_cif.got.tgz:84088.got - 2010.06.28 00:19:55.
