data_PCOD8110024
_publ_section_title
;
Structure prediction by ZEFSAII (Michael W. Deem and Ramdas Pophale) SiO2 
 PCOD8110024
Probable space group: C 2/M
;
_chemical_formula_sum "Si O2"
_cell_formula_units_Z 48
_cell_length_a 19.011598
_cell_length_b 21.610205
_cell_length_c 8.140112
_cell_angle_alpha 90.000000
_cell_angle_beta 136.285305
_cell_angle_gamma 90.000000
_cell_volume 2311.152244
_symmetry_space_group_name_H-M "C 2/M"
_symmetry_group_IT_number 12
_symmetry_cell_setting 'monoclinic'
loop_
_space_group_symop_operation_xyz
x,y,z
-x,y,-z
-x,-y,-z
x,-y,z
1/2+x,1/2+y,z
1/2-x,1/2+y,-z
1/2-x,1/2-y,-z
1/2+x,1/2-y,z
loop_
_atom_site_type_symbol
_atom_site_label
_atom_site_fract_x
_atom_site_fract_y
_atom_site_fract_z
Si Si1 0.281154 0.930147 0.714953
Si Si2 0.020408 0.780235 0.210315
Si Si3 0.691567 0.702562 0.011909
Si Si4 0.897788 0.119601 0.401702
Si Si5 0.011589 0.432175 0.822731
Si Si6 0.151242 0.339706 0.452626
O O1 0.170710 0.928604 0.613752
O O2 0.291350 0.876968 0.594909
O O3 0.294983 0.000000 0.664327
O O4 0.368246 0.918295 0.001956
O O5 0.077107 0.823769 0.434718
O O6 0.090307 0.720639 0.288321
O O7 0.000000 0.813699 0.000000
O O8 0.910218 0.762646 0.098036
O O9 0.761085 0.679894 0.277117
O O10 0.750000 0.750000 0.000000
O O11 0.665110 0.642802 0.860455
O O12 0.000000 0.087972 0.500000
O O13 0.982512 0.500000 0.706518
O O14 0.934676 0.383749 0.607450
O O15 0.000000 0.427540 0.000000
#
# Coordination Sequence:
#
# PCOD8110024 Si02
#       6
#     8   8   8   8   8   8
#     4  10  21  40  66  93 121 163 216 262 305 359
#     4  11  23  37  60  92 123 158 209 260 308 369
#     4  11  24  39  56  89 132 167 204 243 311 387
#     4  10  23  42  59  86 130 166 203 257 312 371
#     4   8  16  32  55  88 121 150 198 255 299 346
#     4  11  21  35  64  91 125 163 203 257 310 373
#
# _framework density 20.768861000000001
#
# number of rings (size 3 to 8) (size 9 to 14) (size 15 to 20)
#    0.000    1.833    1.667    4.000    4.667    1.667 
#    0.000    1.667    0.000   12.500    0.000    0.000 
#    0.000    0.000    0.000    0.000    0.000    0.000 
#
# Total GULP energy -297399.026535 kJ/mol
# GULP energy per Si atom -12391.626106 kJ/mol
# Density = 2.072159 g / cm^3
# Si number density = 20.768861 Si / 1000 Ang^3
#
#
#
# Elastic Constant Matrix: (Units=GPa)
#
#
# Indices 1 2 3 4 5 6 
#
# 1 120.7513 31.5135 35.3013 0.0000 25.3559 0.0000
# 2 31.5135 66.6040 33.9691 0.0000 11.5283 0.0000
# 3 35.3013 33.9691 111.3375 0.0000 14.4670 0.0000
# 4 0.0000 0.0000 0.0000 19.8800 0.0000 6.1542
# 5 25.3559 11.5283 14.4670 0.0000 34.2834 0.0000
# 6 0.0000 0.0000 0.0000 6.1542 0.0000 27.1839
#
#
#
# Elastic Compliance Matrix: (Units=1/GPa)
#
#
# Indices 1 2 3 4 5 6 
#
# 1 0.010934 -0.003236 -0.001661 0.000000 -0.006298 0.000000
# 2 -0.003236 0.019247 -0.004567 0.000000 -0.002152 0.000000
# 3 -0.001661 -0.004567 0.011154 0.000000 -0.001943 0.000000
# 4 0.000000 0.000000 0.000000 0.054093 0.000000 -0.012246
# 5 -0.006298 -0.002152 -0.001943 0.000000 0.035370 0.000000
# 6 0.000000 0.000000 0.000000 -0.012246 0.000000 0.039559
#
#
# Mechanical properties :
#
#
# Convention : Reuss Voigt Hill
#
# Bulk Modulus (GPa) = 44.62866 55.58450 50.10658
# Shear Modulus (GPa) = 25.41258 29.46339 27.43799
#
# Velocity S-wave (km/s) = 3.50178 3.77056 3.63865
# Velocity P-wave (km/s) = 6.15507 6.76592 6.46771
#
# Compressibility (1/GPa) = 0.02240713
#
# Stress axis : x y z
#
# Youngs Moduli (GPa) = 91.45701 51.95697 89.65332
#
# Poissons Ratio (x) = 0.16814 0.14893
# Poissons Ratio (y) = 0.29597 0.40940
# Poissons Ratio (z) = 0.15193 0.23726
#
# Static dielectric constant tensor:
#      x y z
#    x 4.001330 0.000000 0.426260 
#    y 0.000000 4.293270 0.000000 
#    z 0.426260 0.000000 3.779450 
# 
# 
# High freq. dielectric constant tensor:
#      x y z
#    x 1.814430 0.000000 0.027470 
#    y 0.000000 1.792560 0.000000 
#    z 0.027470 0.000000 1.814730 
# 
# From -- ./inp_files/89714.got.cif
#   From: 2010.06.25/outbox.cif.g09.slc.cpg/sg12_45_cif.got.tgz:89714.got - 2010.06.28 00:19:55.
