data_PCOD8110147
_publ_section_title
;
Structure prediction by ZEFSAII (Michael W. Deem and Ramdas Pophale) SiO2 
 PCOD8110147
Probable space group: C 2/M
;
_chemical_formula_sum "Si O2"
_cell_formula_units_Z 40
_cell_length_a 30.094947
_cell_length_b 12.040886
_cell_length_c 18.538789
_cell_angle_alpha 90.000000
_cell_angle_beta 163.536092
_cell_angle_gamma 90.000000
_cell_volume 1903.928164
_symmetry_space_group_name_H-M "C 2/M"
_symmetry_group_IT_number 12
_symmetry_cell_setting 'monoclinic'
loop_
_space_group_symop_operation_xyz
x,y,z
-x,y,-z
-x,-y,-z
x,-y,z
1/2+x,1/2+y,z
1/2-x,1/2+y,-z
1/2-x,1/2-y,-z
1/2+x,1/2-y,z
loop_
_atom_site_type_symbol
_atom_site_label
_atom_site_fract_x
_atom_site_fract_y
_atom_site_fract_z
Si Si1 0.706820 0.279462 0.658942
Si Si2 0.478079 0.123143 0.383923
Si Si3 0.736593 0.123093 0.402552
Si Si4 0.660290 0.500000 0.664339
Si Si5 0.020143 0.185993 0.109362
Si Si6 0.799253 0.000000 0.102526
O O1 0.557143 0.211155 0.453737
O O2 0.681776 0.313051 0.536774
O O3 0.738766 0.389341 0.755408
O O4 0.857708 0.199694 0.899439
O O5 0.500000 0.167561 0.500000
O O6 0.558000 0.000000 0.502413
O O7 0.294329 0.109036 0.073805
O O8 0.865195 0.111363 0.665327
O O9 0.587552 0.189696 0.200456
O O10 0.682031 0.000000 0.295167
O O11 0.478160 0.500000 0.354884
O O12 0.694589 0.500000 0.801960
O O13 0.000000 0.126933 0.000000
#
# Coordination Sequence:
#
# PCOD8110147 Si02
#       6
#     8   8   8   4   8   4
#     4  11  23  38  63  94 121 161 208 251 307 369
#     4   9  22  45  65  87 121 173 207 256 308 363
#     4  10  21  41  61  90 125 164 199 251 311 364
#     4  11  24  38  59  98 120 162 204 260 319 364
#     4   9  22  39  60  90 123 160 203 250 305 365
#     4   9  23  44  58  88 125 162 210 251 323 362
#
# _framework density 21.009195999999999
#
# number of rings (size 3 to 8) (size 9 to 14) (size 15 to 20)
#    0.600    1.600    1.000    0.000    7.000    4.800 
#    0.000    8.000    0.000    0.000    0.000    0.000 
#    0.000    0.000    0.000    0.000    0.000    0.000 
#
# Total GULP energy -247902.477716 kJ/mol
# GULP energy per Si atom -12395.123886 kJ/mol
# Density = 2.096138 g / cm^3
# Si number density = 21.009196 Si / 1000 Ang^3
#
#
#
# Elastic Constant Matrix: (Units=GPa)
#
#
# Indices 1 2 3 4 5 6 
#
# 1 84.3349 14.9806 26.9324 0.0000 -1.0456 0.0000
# 2 14.9806 66.4332 -8.7381 0.0000 6.2296 0.0000
# 3 26.9324 -8.7381 90.8226 0.0000 -11.1126 0.0000
# 4 0.0000 0.0000 0.0000 -3.2835 0.0000 -10.7618
# 5 -1.0456 6.2296 -11.1126 0.0000 33.8462 0.0000
# 6 0.0000 0.0000 0.0000 -10.7618 0.0000 16.3728
#
#
#
# Elastic Compliance Matrix: (Units=1/GPa)
#
#
# Indices 1 2 3 4 5 6 
#
# 1 0.013963 -0.003711 -0.004544 0.000000 -0.000377 0.000000
# 2 -0.003711 0.016425 0.002393 0.000000 -0.002352 0.000000
# 3 -0.004544 0.002393 0.013041 0.000000 0.003701 0.000000
# 4 0.000000 0.000000 0.000000 -0.096551 0.000000 -0.063463
# 5 -0.000377 -0.002352 0.003701 0.000000 0.031182 0.000000
# 6 0.000000 0.000000 0.000000 -0.063463 0.000000 0.019363
#
#
# Mechanical properties :
#
#
# Convention : Reuss Voigt Hill
#
# Bulk Modulus (GPa) = 31.54063 34.21562 32.87813
# Shear Modulus (GPa) = 253.61426 23.28147 138.44786
#
# Velocity S-wave (km/s) = 10.99900 3.33251 8.12661
# Velocity P-wave (km/s) = 13.27965 5.57932 10.18524
#
# Compressibility (1/GPa) = 0.03170514
#
# Stress axis : x y z
#
# Youngs Moduli (GPa) = 71.61757 60.88346 76.68164
#
# Poissons Ratio (x) = 0.22593 0.34843
# Poissons Ratio (y) = 0.26577 -0.18349
# Poissons Ratio (z) = 0.32542 -0.14569
#
# Static dielectric constant tensor:
#      x y z
#    x 3.797770 0.000000 -0.139360 
#    y 0.000000 3.525820 0.000000 
#    z -0.139360 0.000000 3.750850 
# 
# 
# High freq. dielectric constant tensor:
#      x y z
#    x 1.823500 0.000000 -0.011540 
#    y 0.000000 1.813090 0.000000 
#    z -0.011540 0.000000 1.818780 
# 
# From -- ./inp_files/296354.got.cif
#   From: 2010.06.25/outbox.cif.g09.slc.cpg/sg12_149_cif.got.tgz:296354.got - 2010.06.28 00:19:55.
