data_PCOD8110241
_publ_section_title
;
Structure prediction by ZEFSAII (Michael W. Deem and Ramdas Pophale) SiO2 
 PCOD8110241
Probable space group: C 2/M
;
_chemical_formula_sum "Si O2"
_cell_formula_units_Z 48
_cell_length_a 18.423393
_cell_length_b 17.748798
_cell_length_c 14.683724
_cell_angle_alpha 90.000000
_cell_angle_beta 150.571921
_cell_angle_gamma 90.000000
_cell_volume 2359.112403
_symmetry_space_group_name_H-M "C 2/M"
_symmetry_group_IT_number 12
_symmetry_cell_setting 'monoclinic'
loop_
_space_group_symop_operation_xyz
x,y,z
-x,y,-z
-x,-y,-z
x,-y,z
1/2+x,1/2+y,z
1/2-x,1/2+y,-z
1/2-x,1/2-y,-z
1/2+x,1/2-y,z
loop_
_atom_site_type_symbol
_atom_site_label
_atom_site_fract_x
_atom_site_fract_y
_atom_site_fract_z
Si Si1 0.093475 0.415680 0.189418
Si Si2 0.384473 0.808283 0.448686
Si Si3 0.348600 0.417408 0.885707
Si Si4 0.871071 0.850629 0.106444
Si Si5 0.948966 0.679299 0.186254
Si Si6 0.911828 0.133613 0.492828
O O1 0.056763 0.500000 0.183748
O O2 0.265715 0.413909 0.351696
O O3 0.045662 0.355517 0.211920
O O4 0.000000 0.394063 0.000000
O O5 0.500000 0.833992 0.500000
O O6 0.237215 0.852696 0.262709
O O7 0.446465 0.832455 0.613253
O O8 0.358310 0.719045 0.417469
O O9 0.269571 0.500000 0.795099
O O10 0.500000 0.423929 0.000000
O O11 0.379851 0.399105 0.025143
O O12 0.911651 0.765554 0.123471
O O13 0.984808 0.878693 0.306778
O O14 0.707639 0.861122 0.969768
O O15 0.000000 0.104465 0.500000
#
# Coordination Sequence:
#
# PCOD8110241 Si02
#       6
#     8   8   8   8   8   8
#     4  11  26  42  61  93 125 166 212 258 321 374
#     4  10  21  41  65  96 121 162 216 250 309 376
#     4  11  26  41  60  94 132 169 205 253 321 384
#     4  10  22  41  65  96 124 164 214 256 316 370
#     4  10  22  40  67  94 123 164 213 264 306 371
#     4  10  23  41  68  95 123 164 212 266 314 369
#
# _framework density 20.346634000000002
#
# number of rings (size 3 to 8) (size 9 to 14) (size 15 to 20)
#    0.000    1.667    1.667    1.000    9.333    4.000 
#    0.000    0.000    0.000    0.000    0.000    0.000 
#    0.000    0.000    0.000    0.000    0.000    0.000 
#
# Total GULP energy -297594.255528 kJ/mol
# GULP energy per Si atom -12399.760647 kJ/mol
# Density = 2.030032 g / cm^3
# Si number density = 20.346634 Si / 1000 Ang^3
#
#
#
# Elastic Constant Matrix: (Units=GPa)
#
#
# Indices 1 2 3 4 5 6 
#
# 1 122.5863 31.1348 40.9085 0.0000 1.4826 0.0000
# 2 31.1348 52.7316 32.8369 0.0000 -8.5263 0.0000
# 3 40.9085 32.8369 99.0513 0.0000 -5.9860 0.0000
# 4 0.0000 0.0000 0.0000 31.2084 0.0000 -11.7083
# 5 1.4826 -8.5263 -5.9860 0.0000 25.4223 0.0000
# 6 0.0000 0.0000 0.0000 -11.7083 0.0000 42.0066
#
#
#
# Elastic Compliance Matrix: (Units=1/GPa)
#
#
# Indices 1 2 3 4 5 6 
#
# 1 0.010369 -0.004806 -0.002864 0.000000 -0.002891 0.000000
# 2 -0.004806 0.027142 -0.006539 0.000000 0.007844 0.000000
# 3 -0.002864 -0.006539 0.013516 0.000000 0.001156 0.000000
# 4 0.000000 0.000000 0.000000 0.035785 0.000000 0.009974
# 5 -0.002891 0.007844 0.001156 0.000000 0.042407 0.000000
# 6 0.000000 0.000000 0.000000 0.009974 0.000000 0.026586
#
#
# Mechanical properties :
#
#
# Convention : Reuss Voigt Hill
#
# Bulk Modulus (GPa) = 44.23005 53.79218 49.01111
# Shear Modulus (GPa) = 26.07442 31.02671 28.55057
#
# Velocity S-wave (km/s) = 3.58370 3.90924 3.75001
# Velocity P-wave (km/s) = 6.23774 6.84628 6.54908
#
# Compressibility (1/GPa) = 0.02260907
#
# Stress axis : x y z
#
# Youngs Moduli (GPa) = 96.44259 36.84332 73.98572
#
# Poissons Ratio (x) = 0.17708 0.21187
# Poissons Ratio (y) = 0.46354 0.48378
# Poissons Ratio (z) = 0.27618 0.24091
#
# Static dielectric constant tensor:
#      x y z
#    x 3.650650 0.000000 0.010540 
#    y 0.000000 3.661770 0.000000 
#    z 0.010540 0.000000 3.712310 
# 
# 
# High freq. dielectric constant tensor:
#      x y z
#    x 1.803850 0.000000 -0.003920 
#    y 0.000000 1.788760 0.000000 
#    z -0.003920 0.000000 1.806560 
# 
# From -- ./inp_files/75062.got.cif
#   From: 2010.06.25/outbox.cif.g09.slc.cpg/sg12_38_cif.got.tgz:75062.got - 2010.06.28 00:19:55.
