data_PCOD8110321
_publ_section_title
;
Structure prediction by ZEFSAII (Michael W. Deem and Ramdas Pophale) SiO2 
 PCOD8110321
Probable space group: C 2/M
;
_chemical_formula_sum "Si O2"
_cell_formula_units_Z 48
_cell_length_a 19.423778
_cell_length_b 18.783488
_cell_length_c 9.108752
_cell_angle_alpha 90.000000
_cell_angle_beta 135.736348
_cell_angle_gamma 90.000000
_cell_volume 2319.530316
_symmetry_space_group_name_H-M "C 2/M"
_symmetry_group_IT_number 12
_symmetry_cell_setting 'monoclinic'
loop_
_space_group_symop_operation_xyz
x,y,z
-x,y,-z
-x,-y,-z
x,-y,z
1/2+x,1/2+y,z
1/2-x,1/2+y,-z
1/2-x,1/2-y,-z
1/2+x,1/2-y,z
loop_
_atom_site_type_symbol
_atom_site_label
_atom_site_fract_x
_atom_site_fract_y
_atom_site_fract_z
Si Si1 0.716424 0.580144 0.647149
Si Si2 0.050318 0.683030 0.431302
Si Si3 0.086984 0.581168 0.235323
Si Si4 0.567363 0.278139 0.957870
Si Si5 0.992572 0.923437 0.815794
Si Si6 0.768025 0.773340 0.193411
O O1 0.717141 0.500000 0.717530
O O2 0.808571 0.590105 0.681425
O O3 0.619573 0.592671 0.401609
O O4 0.723886 0.640441 0.784508
O O5 0.094559 0.619265 0.403600
O O6 0.131935 0.741154 0.592912
O O7 0.000000 0.650668 0.500000
O O8 0.965071 0.721415 0.211080
O O9 0.059790 0.500000 0.227025
O O10 0.000000 0.614519 0.000000
O O11 0.561067 0.357016 0.873297
O O12 0.500000 0.274994 0.000000
O O13 0.680639 0.257833 0.164282
O O14 0.026994 0.000000 0.799035
O O15 0.000000 0.930481 0.000000
O O16 0.750000 0.750000 0.000000
#
# Coordination Sequence:
#
# PCOD8110321 Si02
#       6
#     8   8   8   8   8   8
#     4  10  21  41  68  95 125 167 216 264 324 388
#     4  12  24  40  62  91 131 172 216 266 323 383
#     4  10  23  42  65  93 126 166 218 272 323 382
#     4  11  23  40  64  94 124 168 217 269 326 383
#     4   9  19  36  60  92 126 156 200 265 325 378
#     4  12  25  41  63  93 134 170 211 270 325 385
#
# _framework density 20.693843999999999
#
# number of rings (size 3 to 8) (size 9 to 14) (size 15 to 20)
#    0.000    1.333    3.333    2.500    4.667    1.667 
#    0.000    1.667    0.000    3.000    0.000    0.000 
#    0.000    0.000    0.000    0.000    0.000    0.000 
#
# Total GULP energy -297512.978695 kJ/mol
# GULP energy per Si atom -12396.374112 kJ/mol
# Density = 2.064674 g / cm^3
# Si number density = 20.693844 Si / 1000 Ang^3
#
#
#
# Elastic Constant Matrix: (Units=GPa)
#
#
# Indices 1 2 3 4 5 6 
#
# 1 75.7749 41.6839 28.6284 0.0000 -6.4382 0.0000
# 2 41.6839 146.9966 47.5841 0.0000 -11.3082 0.0000
# 3 28.6284 47.5841 79.9282 0.0000 1.3998 0.0000
# 4 0.0000 0.0000 0.0000 10.2293 0.0000 2.1447
# 5 -6.4382 -11.3082 1.3998 0.0000 36.1069 0.0000
# 6 0.0000 0.0000 0.0000 2.1447 0.0000 19.5898
#
#
#
# Elastic Compliance Matrix: (Units=1/GPa)
#
#
# Indices 1 2 3 4 5 6 
#
# 1 0.016710 -0.003253 -0.004086 0.000000 0.002119 0.000000
# 2 -0.003253 0.009361 -0.004452 0.000000 0.002524 0.000000
# 3 -0.004086 -0.004452 0.016673 0.000000 -0.002769 0.000000
# 4 0.000000 0.000000 0.000000 0.100056 0.000000 -0.010954
# 5 0.002119 0.002524 -0.002769 0.000000 0.028971 0.000000
# 6 0.000000 0.000000 0.000000 -0.010954 0.000000 0.052246
#
#
# Mechanical properties :
#
#
# Convention : Reuss Voigt Hill
#
# Bulk Modulus (GPa) = 52.18299 59.83250 56.00774
# Shear Modulus (GPa) = 19.68614 25.50541 22.59577
#
# Velocity S-wave (km/s) = 3.08767 3.51452 3.30799
# Velocity P-wave (km/s) = 6.16304 6.74130 6.45864
#
# Compressibility (1/GPa) = 0.01916333
#
# Stress axis : x y z
#
# Youngs Moduli (GPa) = 59.84410 106.83119 59.97564
#
# Poissons Ratio (x) = 0.34751 0.24504
# Poissons Ratio (y) = 0.19467 0.26700
# Poissons Ratio (z) = 0.24451 0.47559
#
# Static dielectric constant tensor:
#      x y z
#    x 3.605360 0.000000 0.182230 
#    y 0.000000 4.501990 0.000000 
#    z 0.182230 0.000000 3.930820 
# 
# 
# High freq. dielectric constant tensor:
#      x y z
#    x 1.787970 0.000000 0.015990 
#    y 0.000000 1.828130 0.000000 
#    z 0.015990 0.000000 1.813950 
# 
# From -- ./inp_files/77284.got.cif
#   From: 2010.06.25/outbox.cif.g09.slc.cpg/sg12_39_cif.got.tgz:77284.got - 2010.06.28 00:19:55.
