data_PCOD8110524
_publ_section_title
;
Structure prediction by ZEFSAII (Michael W. Deem and Ramdas Pophale) SiO2 
 PCOD8110524
Probable space group: C 2/M
;
_chemical_formula_sum "Si O2"
_cell_formula_units_Z 56
_cell_length_a 9.780473
_cell_length_b 26.518349
_cell_length_c 14.810828
_cell_angle_alpha 90.000000
_cell_angle_beta 121.151726
_cell_angle_gamma 90.000000
_cell_volume 3287.442548
_symmetry_space_group_name_H-M "C 2/M"
_symmetry_group_IT_number 12
_symmetry_cell_setting 'monoclinic'
loop_
_space_group_symop_operation_xyz
x,y,z
-x,y,-z
-x,-y,-z
x,-y,z
1/2+x,1/2+y,z
1/2-x,1/2+y,-z
1/2-x,1/2-y,-z
1/2+x,1/2-y,z
loop_
_atom_site_type_symbol
_atom_site_label
_atom_site_fract_x
_atom_site_fract_y
_atom_site_fract_z
Si Si1 0.056753 0.943120 0.165767
Si Si2 0.252869 0.056852 0.053959
Si Si3 0.334032 0.211119 0.238752
Si Si4 0.052350 0.347008 0.887290
Si Si5 0.235280 0.307920 0.113580
Si Si6 0.419348 0.276965 0.567271
Si Si7 0.079750 0.155045 0.271489
O O1 0.173537 0.930294 0.122835
O O2 0.093100 0.905241 0.261183
O O3 0.085472 0.000000 0.210538
O O4 0.875901 0.936621 0.069554
O O5 0.398524 0.094614 0.085238
O O6 0.320628 0.000000 0.077229
O O7 0.422152 0.170752 0.205818
O O8 0.228859 0.250128 0.144378
O O9 0.470240 0.239241 0.340121
O O10 0.222045 0.182705 0.269583
O O11 0.866870 0.342087 0.851072
O O12 0.158858 0.311275 0.988380
O O13 0.415055 0.327294 0.170666
O O14 0.500000 0.290434 0.500000
O O15 0.250000 0.250000 0.500000
O O16 0.406598 0.329736 0.618390
#
# Coordination Sequence:
#
# PCOD8110524 Si02
#       7
#     8   8   8   8   8   8   8
#     4   9  17  32  53  80 105 137 186 224 254 308
#     4   9  17  31  52  75 106 146 184 220 254 300
#     4  11  22  35  55  76 104 144 184 212 259 324
#     4  11  20  34  48  75 113 148 177 216 259 310
#     4  10  22  32  45  77 115 147 176 212 258 317
#     4  11  23  40  56  80 108 136 177 225 273 328
#     4  11  20  35  57  80 102 142 181 221 271 312
#
# _framework density 17.034517999999998
#
# number of rings (size 3 to 8) (size 9 to 14) (size 15 to 20)
#    0.000    1.714    4.286    3.000    2.000    1.714 
#    0.000    2.143    0.000    0.429    0.000    3.000 
#    0.000    0.000    0.000    0.000    0.000    0.000 
#
# Total GULP energy -347186.049057 kJ/mol
# GULP energy per Si atom -12399.501752 kJ/mol
# Density = 1.699575 g / cm^3
# Si number density = 17.034518 Si / 1000 Ang^3
#
#
#
# Elastic Constant Matrix: (Units=GPa)
#
#
# Indices 1 2 3 4 5 6 
#
# 1 88.8414 30.8346 30.4428 0.0000 -9.3384 0.0000
# 2 30.8346 113.2727 38.9203 0.0000 -10.1914 0.0000
# 3 30.4428 38.9203 76.0736 0.0000 -12.5418 0.0000
# 4 0.0000 0.0000 0.0000 22.2278 0.0000 -1.9262
# 5 -9.3384 -10.1914 -12.5418 0.0000 27.4986 0.0000
# 6 0.0000 0.0000 0.0000 -1.9262 0.0000 20.1353
#
#
#
# Elastic Compliance Matrix: (Units=1/GPa)
#
#
# Indices 1 2 3 4 5 6 
#
# 1 0.013583 -0.002140 -0.004013 0.000000 0.001989 0.000000
# 2 -0.002140 0.011113 -0.004617 0.000000 0.001286 0.000000
# 3 -0.004013 -0.004617 0.017957 0.000000 0.005116 0.000000
# 4 0.000000 0.000000 0.000000 0.045365 0.000000 0.004340
# 5 0.001989 0.001286 0.005116 0.000000 0.039851 0.000000
# 6 0.000000 0.000000 0.000000 0.004340 0.000000 0.050079
#
#
# Mechanical properties :
#
#
# Convention : Reuss Voigt Hill
#
# Bulk Modulus (GPa) = 47.36441 53.17590 50.27016
# Shear Modulus (GPa) = 24.21021 25.83834 25.02428
#
# Velocity S-wave (km/s) = 3.77403 3.89887 3.83696
# Velocity P-wave (km/s) = 6.84517 7.18001 7.01459
#
# Compressibility (1/GPa) = 0.02111290
#
# Stress axis : x y z
#
# Youngs Moduli (GPa) = 73.62247 89.98563 55.68965
#
# Poissons Ratio (x) = 0.19254 0.22347
# Poissons Ratio (y) = 0.15753 0.25713
# Poissons Ratio (z) = 0.29544 0.41548
#
# Static dielectric constant tensor:
#      x y z
#    x 3.264130 0.000000 -0.081330 
#    y 0.000000 3.244810 0.000000 
#    z -0.081330 0.000000 3.042620 
# 
# 
# High freq. dielectric constant tensor:
#      x y z
#    x 1.667480 0.000000 -0.004000 
#    y 0.000000 1.650580 0.000000 
#    z -0.004000 0.000000 1.627930 
# 
# From -- ./inp_files/199939.got.cif
#   From: 2010.06.25/outbox.cif.g09.slc.cpg/sg12_100_cif.got.tgz:199939.got - 2010.06.28 00:19:55.
