data_PCOD8110409
_publ_section_title
;
Structure prediction by ZEFSAII (Michael W. Deem and Ramdas Pophale) SiO2 
 PCOD8110409
Probable space group: C 2/M
;
_chemical_formula_sum "Si O2"
_cell_formula_units_Z 56
_cell_length_a 9.766302
_cell_length_b 20.301605
_cell_length_c 14.099400
_cell_angle_alpha 90.000000
_cell_angle_beta 78.387743
_cell_angle_gamma 90.000000
_cell_volume 2738.292754
_symmetry_space_group_name_H-M "C 2/M"
_symmetry_group_IT_number 12
_symmetry_cell_setting 'monoclinic'
loop_
_space_group_symop_operation_xyz
x,y,z
-x,y,-z
-x,-y,-z
x,-y,z
1/2+x,1/2+y,z
1/2-x,1/2+y,-z
1/2-x,1/2-y,-z
1/2+x,1/2-y,z
loop_
_atom_site_type_symbol
_atom_site_label
_atom_site_fract_x
_atom_site_fract_y
_atom_site_fract_z
Si Si1 0.762402 0.812070 0.802475
Si Si2 0.187330 0.500000 0.385644
Si Si3 0.374468 0.619389 0.392398
Si Si4 0.075722 0.192966 0.792136
Si Si5 0.879810 0.500000 0.385584
Si Si6 0.341617 0.076026 0.047333
Si Si7 0.866758 0.926891 0.084553
Si Si8 0.313990 0.617330 0.612185
O O1 0.656672 0.751827 0.832553
O O2 0.706111 0.878088 0.859545
O O3 0.777150 0.822858 0.687371
O O4 0.911442 0.792091 0.826125
O O5 0.278747 0.564940 0.354136
O O6 0.142828 0.500000 0.500137
O O7 0.046813 0.500000 0.339866
O O8 0.380625 0.683972 0.324409
O O9 0.311320 0.641241 0.502999
O O10 0.531081 0.589755 0.384162
O O11 0.113959 0.123686 0.833670
O O12 0.804638 0.563197 0.351433
O O13 0.312858 0.000000 0.080951
O O14 0.500000 0.089396 0.000000
O O15 0.262274 0.094983 0.962266
O O16 0.841656 0.000000 0.131932
O O17 0.000000 0.927833 0.000000
#
# Coordination Sequence:
#
# PCOD8110409 Si02
#       8
#     8   4   8   8   4   8   8   8
#     4  11  25  41  61  91 124 163 205 249 303 364
#     4   9  17  31  53  85 119 149 197 253 304 349
#     4   9  19  37  58  85 121 162 210 247 290 360
#     4  11  25  40  61  92 123 163 206 249 304 359
#     4   9  17  31  53  85 117 153 195 250 310 346
#     4  10  23  44  67  94 122 155 199 251 307 364
#     4  10  21  42  67  91 119 156 200 249 303 362
#     4   9  19  37  59  84 120 166 205 247 297 354
#
# _framework density 20.450699
#
# number of rings (size 3 to 8) (size 9 to 14) (size 15 to 20)
#    0.000    2.143    1.429    0.429    4.000    4.571 
#    0.000    0.000    0.000    0.000    0.000    0.000 
#    0.000    0.000    0.000    0.000    0.000    0.000 
#
# Total GULP energy -347138.706555 kJ/mol
# GULP energy per Si atom -12397.810948 kJ/mol
# Density = 2.040415 g / cm^3
# Si number density = 20.450699 Si / 1000 Ang^3
#
#
#
# Elastic Constant Matrix: (Units=GPa)
#
#
# Indices 1 2 3 4 5 6 
#
# 1 145.1321 51.9227 33.3749 0.0000 12.8735 0.0000
# 2 51.9227 100.8938 43.7458 0.0000 5.3693 0.0000
# 3 33.3749 43.7458 71.1819 0.0000 4.6343 0.0000
# 4 0.0000 0.0000 0.0000 21.6871 0.0000 4.1820
# 5 12.8735 5.3693 4.6343 0.0000 24.5845 0.0000
# 6 0.0000 0.0000 0.0000 4.1820 0.0000 32.4119
#
#
#
# Elastic Compliance Matrix: (Units=1/GPa)
#
#
# Indices 1 2 3 4 5 6 
#
# 1 0.008903 -0.003658 -0.001696 0.000000 -0.003544 0.000000
# 2 -0.003658 0.015063 -0.007545 0.000000 0.000048 0.000000
# 3 -0.001696 -0.007545 0.019555 0.000000 -0.001151 0.000000
# 4 0.000000 0.000000 0.000000 0.047287 0.000000 -0.006101
# 5 -0.003544 0.000048 -0.001151 0.000000 0.042738 0.000000
# 6 0.000000 0.000000 0.000000 -0.006101 0.000000 0.031640
#
#
# Mechanical properties :
#
#
# Convention : Reuss Voigt Hill
#
# Bulk Modulus (GPa) = 56.42084 63.92162 60.17123
# Shear Modulus (GPa) = 25.39469 28.28101 26.83785
#
# Velocity S-wave (km/s) = 3.52767 3.72275 3.62653
# Velocity P-wave (km/s) = 6.65141 7.05711 6.85726
#
# Compressibility (1/GPa) = 0.01772395
#
# Stress axis : x y z
#
# Youngs Moduli (GPa) = 112.31855 66.38881 51.13696
#
# Poissons Ratio (x) = 0.24286 0.08671
# Poissons Ratio (y) = 0.41087 0.38583
# Poissons Ratio (z) = 0.19045 0.50090
#
# Static dielectric constant tensor:
#      x y z
#    x 4.029320 0.000000 0.056080 
#    y 0.000000 3.436020 0.000000 
#    z 0.056080 0.000000 3.514050 
# 
# 
# High freq. dielectric constant tensor:
#      x y z
#    x 1.812200 0.000000 0.004890 
#    y 0.000000 1.775910 0.000000 
#    z 0.004890 0.000000 1.795540 
# 
# From -- ./inp_files/197567.got.cif
#   From: 2010.06.25/outbox.cif.g09.slc.cpg/sg12_99_cif.got.tgz:197567.got - 2010.06.28 00:19:55.
