data_PCOD8110596
_publ_section_title
;
Structure prediction by ZEFSAII (Michael W. Deem and Ramdas Pophale) SiO2 
 PCOD8110596
Probable space group: C 2/M
;
_chemical_formula_sum "Si O2"
_cell_formula_units_Z 48
_cell_length_a 23.899500
_cell_length_b 10.451673
_cell_length_c 17.465996
_cell_angle_alpha 90.000000
_cell_angle_beta 36.313594
_cell_angle_gamma 90.000000
_cell_volume 2583.685202
_symmetry_space_group_name_H-M "C 2/M"
_symmetry_group_IT_number 12
_symmetry_cell_setting 'monoclinic'
loop_
_space_group_symop_operation_xyz
x,y,z
-x,y,-z
-x,-y,-z
x,-y,z
1/2+x,1/2+y,z
1/2-x,1/2+y,-z
1/2-x,1/2-y,-z
1/2+x,1/2-y,z
loop_
_atom_site_type_symbol
_atom_site_label
_atom_site_fract_x
_atom_site_fract_y
_atom_site_fract_z
Si Si1 0.220786 0.357547 0.303705
Si Si2 0.076488 0.226016 0.356190
Si Si3 0.979230 0.853088 0.242491
Si Si4 0.827775 0.859266 0.900422
Si Si5 0.939477 0.361327 0.403663
Si Si6 0.081838 0.847837 0.856956
O O1 0.236127 0.500000 0.252453
O O2 0.169782 0.271621 0.296903
O O3 0.319852 0.292714 0.218737
O O4 0.162111 0.366006 0.445949
O O5 0.117067 0.139819 0.242282
O O6 0.019771 0.343473 0.380289
O O7 0.000000 0.158923 0.500000
O O8 0.093346 0.841550 0.120354
O O9 0.933676 0.756788 0.352918
O O10 0.940280 0.804298 0.204633
O O11 0.948634 0.000000 0.293830
O O12 0.780116 0.000000 0.960871
O O13 0.750000 0.750000 0.000000
O O14 0.959329 0.500000 0.342171
O O15 0.084389 0.000000 0.857527
O O16 0.000000 0.790471 0.000000
#
# Coordination Sequence:
#
# PCOD8110596 Si02
#       6
#     8   8   8   8   8   8
#     4   9  17  29  50  78 105 134 174 215 255 306
#     4   9  18  33  54  80 109 139 175 219 266 312
#     4   9  19  35  52  74 103 134 172 215 258 307
#     4  10  22  36  54  81 109 141 177 218 267 317
#     4   9  17  31  52  80 107 133 166 211 265 311
#     4   9  18  31  49  72  98 134 177 218 252 296
#
# _framework density 18.578115
#
# number of rings (size 3 to 8) (size 9 to 14) (size 15 to 20)
#    0.000    2.833    0.000    0.500    2.333    6.333 
#    0.000    2.500    0.000    1.500    0.000    0.000 
#    0.000    0.000    0.000    0.000    0.000    0.000 
#
# Total GULP energy -297343.639745 kJ/mol
# GULP energy per Si atom -12389.318323 kJ/mol
# Density = 1.853583 g / cm^3
# Si number density = 18.578115 Si / 1000 Ang^3
#
#
#
# Elastic Constant Matrix: (Units=GPa)
#
#
# Indices 1 2 3 4 5 6 
#
# 1 145.1699 28.8252 48.1147 0.0000 -12.3928 0.0000
# 2 28.8252 77.1624 32.4528 0.0001 -2.5164 0.0000
# 3 48.1147 32.4528 82.3661 0.0000 -9.0022 0.0000
# 4 0.0000 0.0001 0.0000 22.0717 0.0000 -1.9066
# 5 -12.3928 -2.5164 -9.0022 0.0000 31.0703 0.0000
# 6 0.0000 0.0000 0.0000 -1.9066 0.0000 12.2610
#
#
#
# Elastic Compliance Matrix: (Units=1/GPa)
#
#
# Indices 1 2 3 4 5 6 
#
# 1 0.008789 -0.001381 -0.004357 0.000000 0.002131 0.000000
# 2 -0.001381 0.015759 -0.005497 0.000000 -0.000867 0.000000
# 3 -0.004357 -0.005497 0.017157 0.000000 0.002788 0.000000
# 4 0.000000 0.000000 0.000000 0.045924 0.000000 0.007141
# 5 0.002131 -0.000867 0.002788 0.000000 0.033773 0.000000
# 6 0.000000 0.000000 0.000000 0.007141 0.000000 0.082670
#
#
# Mechanical properties :
#
#
# Convention : Reuss Voigt Hill
#
# Bulk Modulus (GPa) = 51.99094 58.16487 55.07791
# Shear Modulus (GPa) = 21.46354 26.10098 23.78226
#
# Velocity S-wave (km/s) = 3.40268 3.75231 3.58176
# Velocity P-wave (km/s) = 6.59420 7.08162 6.84225
#
# Compressibility (1/GPa) = 0.01923412
#
# Stress axis : x y z
#
# Youngs Moduli (GPa) = 113.78244 63.45422 58.28651
#
# Poissons Ratio (x) = 0.08765 0.25394
# Poissons Ratio (y) = 0.15716 0.32041
# Poissons Ratio (z) = 0.49573 0.34882
#
# Static dielectric constant tensor:
#      x y z
#    x 3.556220 0.000000 -0.053970 
#    y 0.000000 3.168370 0.000000 
#    z -0.053970 0.000000 3.412730 
# 
# 
# High freq. dielectric constant tensor:
#      x y z
#    x 1.726890 0.000000 -0.003730 
#    y 0.000000 1.687590 0.000000 
#    z -0.003730 0.000000 1.714630 
# 
# From -- ./inp_files/232796.got.cif
#   From: 2010.06.25/outbox.cif.g09.slc.cpg/sg12_117_cif.got.tgz:232796.got - 2010.06.28 00:19:55.
