data_PCOD8110467
_publ_section_title
;
Structure prediction by ZEFSAII (Michael W. Deem and Ramdas Pophale) SiO2 
 PCOD8110467
Probable space group: C 2/M
;
_chemical_formula_sum "Si O2"
_cell_formula_units_Z 40
_cell_length_a 9.106220
_cell_length_b 25.115663
_cell_length_c 8.863619
_cell_angle_alpha 90.000000
_cell_angle_beta 71.419855
_cell_angle_gamma 90.000000
_cell_volume 1921.527984
_symmetry_space_group_name_H-M "C 2/M"
_symmetry_group_IT_number 12
_symmetry_cell_setting 'monoclinic'
loop_
_space_group_symop_operation_xyz
x,y,z
-x,y,-z
-x,-y,-z
x,-y,z
1/2+x,1/2+y,z
1/2-x,1/2+y,-z
1/2-x,1/2-y,-z
1/2+x,1/2-y,z
loop_
_atom_site_type_symbol
_atom_site_label
_atom_site_fract_x
_atom_site_fract_y
_atom_site_fract_z
Si Si1 0.397698 0.683429 0.406807
Si Si2 0.569756 0.800448 0.630275
Si Si3 0.037106 0.399248 0.162299
Si Si4 0.883966 0.500000 0.183969
Si Si5 0.622819 0.404507 0.828242
Si Si6 0.480865 0.500000 0.687308
O O1 0.500000 0.653086 0.500000
O O2 0.478721 0.738830 0.324300
O O3 0.252318 0.697235 0.557721
O O4 0.362870 0.649520 0.271142
O O5 0.500000 0.823392 0.500000
O O6 0.506242 0.839621 0.777817
O O7 0.212442 0.415494 0.147214
O O8 0.926053 0.446417 0.266584
O O9 0.000000 0.399744 0.000000
O O10 0.700559 0.500000 0.205593
O O11 0.000000 0.500000 0.000000
O O12 0.568471 0.449917 0.731198
O O13 0.500000 0.396598 0.000000
O O14 0.500000 0.500000 0.500000
#
# Coordination Sequence:
#
# PCOD8110467 Si02
#       6
#     8   8   8   4   8   4
#     4  10  23  40  67  94 131 171 216 272 329 378
#     4  10  21  43  64  94 130 171 220 272 319 387
#     4  11  24  42  67  93 130 175 218 264 324 393
#     4  10  23  44  66  93 128 173 209 263 327 386
#     4  12  25  44  66  98 134 172 215 271 329 392
#     4  12  28  46  71 103 133 169 221 273 334 392
#
# _framework density 20.816766000000001
#
# number of rings (size 3 to 8) (size 9 to 14) (size 15 to 20)
#    0.000    1.200    2.000    3.900    8.400    0.800 
#    0.000    3.500    0.000    0.000    0.000    0.000 
#    0.000    0.000    0.000    0.000    0.000    0.000 
#
# Total GULP energy -247791.317783 kJ/mol
# GULP energy per Si atom -12389.565889 kJ/mol
# Density = 2.076939 g / cm^3
# Si number density = 20.816766 Si / 1000 Ang^3
#
#
#
# Elastic Constant Matrix: (Units=GPa)
#
#
# Indices 1 2 3 4 5 6 
#
# 1 161.2360 49.6294 46.8425 0.0000 19.8015 0.0000
# 2 49.6294 117.4518 41.7466 0.0000 6.9139 0.0000
# 3 46.8425 41.7466 90.9606 0.0000 13.9077 0.0000
# 4 0.0000 0.0000 0.0000 26.3449 0.0000 5.3347
# 5 19.8015 6.9139 13.9077 0.0000 35.5575 0.0000
# 6 0.0000 0.0000 0.0000 5.3347 0.0000 32.4320
#
#
#
# Elastic Compliance Matrix: (Units=1/GPa)
#
#
# Indices 1 2 3 4 5 6 
#
# 1 0.008039 -0.002284 -0.002632 0.000000 -0.003003 0.000000
# 2 -0.002284 0.010824 -0.003897 0.000000 0.000692 0.000000
# 3 -0.002632 -0.003897 0.014675 0.000000 -0.003516 0.000000
# 4 0.000000 0.000000 0.000000 0.039266 0.000000 -0.006459
# 5 -0.003003 0.000692 -0.003516 0.000000 0.031037 0.000000
# 6 0.000000 0.000000 0.000000 -0.006459 0.000000 0.031896
#
#
# Mechanical properties :
#
#
# Convention : Reuss Voigt Hill
#
# Bulk Modulus (GPa) = 62.85007 71.78730 67.31868
# Shear Modulus (GPa) = 31.51244 34.29553 32.90398
#
# Velocity S-wave (km/s) = 3.89498 4.06334 3.98005
# Velocity P-wave (km/s) = 7.10531 7.52160 7.31642
#
# Compressibility (1/GPa) = 0.01591088
#
# Stress axis : x y z
#
# Youngs Moduli (GPa) = 124.39748 92.38881 68.14100
#
# Poissons Ratio (x) = 0.21106 0.17936
# Poissons Ratio (y) = 0.28418 0.26554
# Poissons Ratio (z) = 0.32743 0.36004
#
# Static dielectric constant tensor:
#      x y z
#    x 3.941750 0.000000 0.231080 
#    y 0.000000 4.413390 0.000000 
#    z 0.231080 0.000000 3.345490 
# 
# 
# High freq. dielectric constant tensor:
#      x y z
#    x 1.837850 0.000000 0.014270 
#    y 0.000000 1.833690 0.000000 
#    z 0.014270 0.000000 1.787980 
# 
# From -- ./inp_files/39252.got.cif
#   From: 2010.06.25/outbox.cif.g09.slc.cpg/sg12_20_cif.got.tgz:39252.got - 2010.06.28 00:19:55.
