data_PCOD8110207
_publ_section_title
;
Structure prediction by ZEFSAII (Michael W. Deem and Ramdas Pophale) SiO2 
 PCOD8110207
Probable space group: C 2/M
;
_chemical_formula_sum "Si O2"
_cell_formula_units_Z 48
_cell_length_a 19.832600
_cell_length_b 7.785654
_cell_length_c 30.236964
_cell_angle_alpha 90.000000
_cell_angle_beta 149.980432
_cell_angle_gamma 90.000000
_cell_volume 2335.821980
_symmetry_space_group_name_H-M "C 2/M"
_symmetry_group_IT_number 12
_symmetry_cell_setting 'monoclinic'
loop_
_space_group_symop_operation_xyz
x,y,z
-x,y,-z
-x,-y,-z
x,-y,z
1/2+x,1/2+y,z
1/2-x,1/2+y,-z
1/2-x,1/2-y,-z
1/2+x,1/2-y,z
loop_
_atom_site_type_symbol
_atom_site_label
_atom_site_fract_x
_atom_site_fract_y
_atom_site_fract_z
Si Si1 0.183839 0.000000 0.062811
Si Si2 0.294721 0.803521 0.587871
Si Si3 0.128630 0.000000 0.132198
Si Si4 0.037833 0.694820 0.399203
Si Si5 0.750296 0.689611 0.744918
Si Si6 0.689260 0.301867 0.918807
Si Si7 0.622590 0.697319 0.270111
O O1 0.254707 0.174214 0.086652
O O2 0.195536 0.000000 0.122162
O O3 0.031618 0.000000 0.959817
O O4 0.152974 0.704379 0.502445
O O5 0.402457 0.732739 0.613204
O O6 0.356419 0.787389 0.671205
O O7 0.265384 0.000000 0.559549
O O8 0.172359 0.829134 0.182213
O O9 0.986846 0.500000 0.365249
O O10 0.909963 0.806702 0.339915
O O11 0.800675 0.500000 0.787785
O O12 0.779828 0.716359 0.710005
O O13 0.725912 0.500000 0.927759
O O14 0.529954 0.277707 0.832164
O O15 0.750000 0.250000 0.000000
O O16 0.662214 0.500000 0.297334
#
# Coordination Sequence:
#
# PCOD8110207 Si02
#       7
#     4   8   4   8   8   8   8
#     4  11  26  44  72  94 134 174 220 272 330 399
#     4  10  22  38  64  97 130 167 224 269 319 392
#     4  11  26  48  64  99 134 172 218 275 330 390
#     4  10  21  41  64  92 134 177 210 270 330 383
#     4  12  25  42  69  93 132 176 217 268 331 392
#     4  11  24  41  68 100 132 172 220 271 328 388
#     4  11  24  41  62  95 130 169 221 274 324 390
#
# _framework density 20.549510000000001
#
# number of rings (size 3 to 8) (size 9 to 14) (size 15 to 20)
#    0.000    1.167    2.500    2.500    4.667    5.333 
#    0.000    5.000    0.000    0.000    0.000    0.000 
#    0.000    0.000    0.000    0.000    0.000    0.000 
#
# Total GULP energy -297706.758080 kJ/mol
# GULP energy per Si atom -12404.448253 kJ/mol
# Density = 2.050274 g / cm^3
# Si number density = 20.549510 Si / 1000 Ang^3
#
#
#
# Elastic Constant Matrix: (Units=GPa)
#
#
# Indices 1 2 3 4 5 6 
#
# 1 130.2342 54.1363 55.9075 0.0000 -1.7982 0.0004
# 2 54.1363 130.3809 24.5615 -0.0001 3.5655 0.0014
# 3 55.9075 24.5615 79.3797 0.0002 -10.2364 0.0002
# 4 0.0000 -0.0001 0.0002 28.2810 0.0000 3.2537
# 5 -1.7982 3.5655 -10.2364 0.0000 36.7234 0.0001
# 6 0.0004 0.0014 0.0002 3.2537 0.0001 27.0874
#
#
#
# Elastic Compliance Matrix: (Units=1/GPa)
#
#
# Indices 1 2 3 4 5 6 
#
# 1 0.012582 -0.003708 -0.007871 0.000000 -0.001218 0.000000
# 2 -0.003708 0.009323 -0.000429 0.000000 -0.001206 0.000000
# 3 -0.007871 -0.000429 0.018910 0.000000 0.004927 0.000000
# 4 0.000000 0.000000 0.000000 0.035855 0.000000 -0.004307
# 5 -0.001218 -0.001206 0.004927 0.000000 0.028661 0.000000
# 6 0.000000 0.000000 0.000000 -0.004307 0.000000 0.037435
#
#
# Mechanical properties :
#
#
# Convention : Reuss Voigt Hill
#
# Bulk Modulus (GPa) = 59.52886 67.68948 63.60917
# Shear Modulus (GPa) = 29.00534 32.11099 30.55816
#
# Velocity S-wave (km/s) = 3.76105 3.95728 3.86041
# Velocity P-wave (km/s) = 6.92041 7.34107 7.13384
#
# Compressibility (1/GPa) = 0.01679857
#
# Stress axis : x y z
#
# Youngs Moduli (GPa) = 79.47778 107.25848 52.88344
#
# Poissons Ratio (x) = 0.39773 0.41626
# Poissons Ratio (y) = 0.29472 0.02267
# Poissons Ratio (z) = 0.62560 0.04598
#
# Static dielectric constant tensor:
#      x y z
#    x 3.818640 0.000000 0.087510 
#    y 0.000000 3.912470 0.000000 
#    z 0.087510 0.000000 3.653270 
# 
# 
# High freq. dielectric constant tensor:
#      x y z
#    x 1.806680 0.000000 0.004450 
#    y 0.000000 1.817900 0.000000 
#    z 0.004450 0.000000 1.806770 
# 
# From -- ./inp_files/378577.got.cif
#   From: 2010.06.25/outbox.cif.g09.slc.cpg/sg12_190_cif.got.tgz:378577.got - 2010.06.28 00:19:55.
