data_PCOD8110581
_publ_section_title
;
Structure prediction by ZEFSAII (Michael W. Deem and Ramdas Pophale) SiO2 
 PCOD8110581
Probable space group: C 2/M
;
_chemical_formula_sum "Si O2"
_cell_formula_units_Z 44
_cell_length_a 7.874814
_cell_length_b 18.029177
_cell_length_c 16.499788
_cell_angle_alpha 90.000000
_cell_angle_beta 125.048756
_cell_angle_gamma 90.000000
_cell_volume 1917.785739
_symmetry_space_group_name_H-M "C 2/M"
_symmetry_group_IT_number 12
_symmetry_cell_setting 'monoclinic'
loop_
_space_group_symop_operation_xyz
x,y,z
-x,y,-z
-x,-y,-z
x,-y,z
1/2+x,1/2+y,z
1/2-x,1/2+y,-z
1/2-x,1/2-y,-z
1/2+x,1/2-y,z
loop_
_atom_site_type_symbol
_atom_site_label
_atom_site_fract_x
_atom_site_fract_y
_atom_site_fract_z
Si Si1 0.238811 0.000000 0.851396
Si Si2 0.357105 0.847685 0.384417
Si Si3 0.487916 0.748294 0.273040
Si Si4 0.051622 0.261366 0.121685
Si Si5 0.332661 0.000000 0.121398
Si Si6 0.739141 0.500000 0.286957
Si Si7 0.220445 0.126155 0.975874
O O1 0.268004 0.074388 0.911696
O O2 0.418239 0.000000 0.830951
O O3 0.003209 0.000000 0.754329
O O4 0.500000 0.831822 0.500000
O O5 0.453704 0.805755 0.334361
O O6 0.355296 0.932620 0.360870
O O7 0.122798 0.821226 0.341482
O O8 0.290700 0.728195 0.157877
O O9 0.614004 0.784650 0.232426
O O10 0.993025 0.173967 0.090142
O O11 0.905495 0.314723 0.032107
O O12 0.279182 0.000000 0.201756
O O13 0.220192 0.926885 0.054797
#
# Coordination Sequence:
#
# PCOD8110581 Si02
#       7
#     4   8   8   8   4   4   8
#     4  11  24  41  67  95 137 194 234 269 344 401
#     4  11  24  47  74 101 131 172 226 294 370 430
#     4  10  22  40  66  99 132 174 222 280 344 419
#     4  10  22  35  62  95 140 175 229 271 329 389
#     4  11  26  41  67  96 144 187 241 273 338 400
#     4  12  27  47  72 101 141 183 231 298 355 414
#     4  10  22  37  60  96 140 189 227 275 313 397
#
# _framework density 22.943125999999999
#
# number of rings (size 3 to 8) (size 9 to 14) (size 15 to 20)
#    0.000    1.455    0.000    5.182    7.636    5.091 
#    0.000    0.000    0.000    1.091    0.000    0.000 
#    0.000    0.000    0.000    0.000    0.000    0.000 
#
# Total GULP energy -272563.752049 kJ/mol
# GULP energy per Si atom -12389.261457 kJ/mol
# Density = 2.289091 g / cm^3
# Si number density = 22.943126 Si / 1000 Ang^3
#
#
#
# Elastic Constant Matrix: (Units=GPa)
#
#
# Indices 1 2 3 4 5 6 
#
# 1 55.6996 47.8204 38.8804 0.0000 14.9790 0.0000
# 2 47.8204 142.8411 34.8150 0.0000 14.5106 0.0000
# 3 38.8804 34.8150 130.3863 0.0000 15.6193 0.0000
# 4 0.0000 0.0000 0.0000 15.6173 0.0000 -22.3060
# 5 14.9790 14.5106 15.6193 0.0000 28.4706 0.0000
# 6 0.0000 0.0000 0.0000 -22.3060 0.0000 -13.5475
#
#
#
# Elastic Compliance Matrix: (Units=1/GPa)
#
#
# Indices 1 2 3 4 5 6 
#
# 1 0.031772 -0.008199 -0.006190 0.000000 -0.009141 0.000000
# 2 -0.008199 0.009836 -0.000105 0.000000 -0.000642 0.000000
# 3 -0.006190 -0.000105 0.009790 0.000000 -0.002061 0.000000
# 4 0.000000 0.000000 0.000000 0.019104 0.000000 -0.031455
# 5 -0.009141 -0.000642 -0.002061 0.000000 0.041391 0.000000
# 6 0.000000 0.000000 0.000000 -0.031455 0.000000 -0.022023
#
#
# Mechanical properties :
#
#
# Convention : Reuss Voigt Hill
#
# Bulk Modulus (GPa) = 44.62085 63.55096 54.08591
# Shear Modulus (GPa) = 39.57923 19.93549 29.75736
#
# Velocity S-wave (km/s) = 4.15794 2.95092 3.60530
# Velocity P-wave (km/s) = 6.52242 6.27456 6.39969
#
# Compressibility (1/GPa) = 0.02241105
#
# Stress axis : x y z
#
# Youngs Moduli (GPa) = 31.47435 101.66225 102.14397
#
# Poissons Ratio (x) = 0.83357 0.63225
# Poissons Ratio (y) = 0.25807 0.01068
# Poissons Ratio (z) = 0.19482 0.01063
#
# Static dielectric constant tensor:
#      x y z
#    x 4.624450 0.000000 0.252100 
#    y 0.000000 4.327360 0.000000 
#    z 0.252100 0.000000 4.045260 
# 
# 
# High freq. dielectric constant tensor:
#      x y z
#    x 1.933670 0.000000 0.000440 
#    y 0.000000 1.911280 0.000000 
#    z 0.000440 0.000000 1.890710 
# 
# From -- ./inp_files/257318.got.cif
#   From: 2010.06.25/outbox.cif.g09.slc.cpg/sg12_129_cif.got.tgz:257318.got - 2010.06.28 00:19:55.
