data_PCOD8110711
_publ_section_title
;
Structure prediction by ZEFSAII (Michael W. Deem and Ramdas Pophale) SiO2 
 PCOD8110711
Probable space group: C 2/M
;
_chemical_formula_sum "Si O2"
_cell_formula_units_Z 64
_cell_length_a 18.885328
_cell_length_b 22.041417
_cell_length_c 9.830417
_cell_angle_alpha 90.000000
_cell_angle_beta 127.011394
_cell_angle_gamma 90.000000
_cell_volume 3267.529417
_symmetry_space_group_name_H-M "C 2/M"
_symmetry_group_IT_number 12
_symmetry_cell_setting 'monoclinic'
loop_
_space_group_symop_operation_xyz
x,y,z
-x,y,-z
-x,-y,-z
x,-y,z
1/2+x,1/2+y,z
1/2-x,1/2+y,-z
1/2-x,1/2-y,-z
1/2+x,1/2-y,z
loop_
_atom_site_type_symbol
_atom_site_label
_atom_site_fract_x
_atom_site_fract_y
_atom_site_fract_z
Si Si1 0.289039 0.568665 0.378283
Si Si2 0.765116 0.430624 0.979877
Si Si3 0.331443 0.313918 0.783807
Si Si4 0.153515 0.260080 0.671532
Si Si5 0.900645 0.606265 0.350242
Si Si6 0.240419 0.567135 0.613802
Si Si7 0.626186 0.330048 0.876008
Si Si8 0.574863 0.328788 0.384530
O O1 0.327579 0.500000 0.414695
O O2 0.230937 0.583765 0.177246
O O3 0.225060 0.576308 0.434302
O O4 0.369876 0.615347 0.489443
O O5 0.736580 0.500000 0.971934
O O6 0.689986 0.388381 0.959701
O O7 0.860731 0.419696 0.161979
O O8 0.242916 0.272153 0.686189
O O9 0.310049 0.385451 0.753996
O O10 0.393794 0.302822 0.725875
O O11 0.381079 0.300282 0.982599
O O12 0.110836 0.321914 0.673591
O O13 0.170074 0.217860 0.822497
O O14 0.083048 0.228587 0.492090
O O15 0.852956 0.576577 0.423609
O O16 0.000000 0.587408 0.500000
O O17 0.278217 0.500000 0.687949
O O18 0.526714 0.350082 0.724945
#
# Coordination Sequence:
#
# PCOD8110711 Si02
#       8
#     8   8   8   8   8   8   8   8
#     4   9  20  38  58  83 118 158 195 234 290 354
#     4  11  23  39  61  88 117 153 195 241 299 357
#     4  10  22  37  58  84 118 159 199 238 290 347
#     4  11  22  40  59  83 117 160 199 239 292 344
#     4  11  23  39  61  88 116 149 201 252 294 346
#     4   9  18  36  59  82 113 153 193 240 294 348
#     4  12  22  37  59  89 123 155 193 245 292 348
#     4  11  22  37  59  88 121 157 201 239 284 346
#
# _framework density 19.586663999999999
#
# number of rings (size 3 to 8) (size 9 to 14) (size 15 to 20)
#    0.000    1.500    3.750    2.625    0.000    1.500 
#    0.000    1.875    0.000    6.000    0.000    0.000 
#    0.000    0.000    0.000    0.000    0.000    0.000 
#
# Total GULP energy -396592.034394 kJ/mol
# GULP energy per Si atom -12393.501075 kJ/mol
# Density = 1.954208 g / cm^3
# Si number density = 19.586664 Si / 1000 Ang^3
#
#
#
# Elastic Constant Matrix: (Units=GPa)
#
#
# Indices 1 2 3 4 5 6 
#
# 1 64.8637 21.3456 43.9794 0.0000 -4.1391 0.0000
# 2 21.3456 75.4578 38.8093 0.0000 -7.6246 0.0000
# 3 43.9794 38.8093 135.6535 0.0000 -6.8710 0.0000
# 4 0.0000 0.0000 0.0000 22.0723 0.0000 -7.3320
# 5 -4.1391 -7.6246 -6.8710 0.0000 39.7402 0.0000
# 6 0.0000 0.0000 0.0000 -7.3320 0.0000 15.1552
#
#
#
# Elastic Compliance Matrix: (Units=1/GPa)
#
#
# Indices 1 2 3 4 5 6 
#
# 1 0.020252 -0.002706 -0.005762 0.000000 0.000594 0.000000
# 2 -0.002706 0.016099 -0.003618 0.000000 0.002181 0.000000
# 3 -0.005762 -0.003618 0.010299 0.000000 0.000486 0.000000
# 4 0.000000 0.000000 0.000000 0.053981 0.000000 0.026116
# 5 0.000594 0.002181 0.000486 0.000000 0.025728 0.000000
# 6 0.000000 0.000000 0.000000 0.026116 0.000000 0.078619
#
#
# Mechanical properties :
#
#
# Convention : Reuss Voigt Hill
#
# Bulk Modulus (GPa) = 44.48465 53.80486 49.14475
# Shear Modulus (GPa) = 21.12904 26.84961 23.98932
#
# Velocity S-wave (km/s) = 3.28799 3.70646 3.50348
# Velocity P-wave (km/s) = 6.09717 6.77104 6.44292
#
# Compressibility (1/GPa) = 0.02247966
#
# Stress axis : x y z
#
# Youngs Moduli (GPa) = 49.37858 62.11532 97.09292
#
# Poissons Ratio (x) = 0.16806 0.55941
# Poissons Ratio (y) = 0.13360 0.35130
# Poissons Ratio (z) = 0.28450 0.22474
#
# Static dielectric constant tensor:
#      x y z
#    x 3.588310 0.000000 -0.331470 
#    y 0.000000 3.687500 0.000000 
#    z -0.331470 0.000000 3.787660 
# 
# 
# High freq. dielectric constant tensor:
#      x y z
#    x 1.747030 0.000000 -0.023770 
#    y 0.000000 1.768640 0.000000 
#    z -0.023770 0.000000 1.770460 
# 
# From -- ./inp_files/90711.got.cif
#   From: 2010.06.25/outbox.cif.g09.slc.cpg/sg12_46_cif.got.tgz:90711.got - 2010.06.28 00:19:55.
