data_PCOD8110444
_publ_section_title
;
Structure prediction by ZEFSAII (Michael W. Deem and Ramdas Pophale) SiO2 
 PCOD8110444
Probable space group: C 2/M
;
_chemical_formula_sum "Si O2"
_cell_formula_units_Z 48
_cell_length_a 22.829516
_cell_length_b 11.305450
_cell_length_c 14.043813
_cell_angle_alpha 90.000000
_cell_angle_beta 149.556363
_cell_angle_gamma 90.000000
_cell_volume 1836.590659
_symmetry_space_group_name_H-M "C 2/M"
_symmetry_group_IT_number 12
_symmetry_cell_setting 'monoclinic'
loop_
_space_group_symop_operation_xyz
x,y,z
-x,y,-z
-x,-y,-z
x,-y,z
1/2+x,1/2+y,z
1/2-x,1/2+y,-z
1/2-x,1/2-y,-z
1/2+x,1/2-y,z
loop_
_atom_site_type_symbol
_atom_site_label
_atom_site_fract_x
_atom_site_fract_y
_atom_site_fract_z
Si Si1 0.018650 0.249542 0.265335
Si Si2 0.371952 0.500000 0.778400
Si Si3 0.630533 0.000000 0.652678
Si Si4 0.234543 0.779710 0.087438
Si Si5 0.873755 0.739495 0.780533
Si Si6 0.935296 0.500000 0.647315
Si Si7 0.895133 0.868090 0.427281
Si Si8 0.763815 0.500000 0.584354
O O1 0.111530 0.237677 0.311723
O O2 0.982664 0.386395 0.231669
O O3 0.078617 0.210406 0.445615
O O4 0.897681 0.185014 0.073240
O O5 0.322554 0.368583 0.745680
O O6 0.362661 0.500000 0.646928
O O7 0.500000 0.500000 0.000000
O O8 0.500000 0.000000 0.500000
O O9 0.685579 0.887746 0.777353
O O10 0.645154 0.000000 0.559578
O O11 0.276234 0.670729 0.210871
O O12 0.250000 0.750000 0.000000
O O13 0.790875 0.622972 0.681830
O O14 0.000000 0.709502 0.000000
O O15 0.844918 0.500000 0.605887
O O16 0.000000 0.861500 0.500000
O O17 0.876260 0.000000 0.440863
#
# Coordination Sequence:
#
# PCOD8110444 Si02
#       8
#     8   4   4   8   8   4   8   4
#     4  11  24  43  65  94 130 166 218 264 323 389
#     4  10  22  41  65  93 128 166 216 271 321 389
#     4  12  24  40  61  88 127 168 216 260 310 380
#     4  12  25  39  65  93 122 173 210 261 322 376
#     4  10  23  43  66  97 130 169 215 276 328 393
#     4  10  22  43  64  91 124 165 212 269 311 387
#     4  11  24  43  62  90 134 167 211 267 319 382
#     4  10  21  42  70  91 127 171 215 265 338 385
#
# _framework density 26.135383000000001
#
# number of rings (size 3 to 8) (size 9 to 14) (size 15 to 20)
#    0.000    1.167    3.333    2.250    4.667    2.667 
#    3.000    0.000    0.000    0.000    0.000    0.000 
#    0.000    0.000    0.000    0.000    0.000    0.000 
#
# Total GULP energy -297409.573678 kJ/mol
# GULP energy per Si atom -12392.065570 kJ/mol
# Density = 2.607590 g / cm^3
# Si number density = 26.135383 Si / 1000 Ang^3
#
#
#
# Elastic Constant Matrix: (Units=GPa)
#
#
# Indices 1 2 3 4 5 6 
#
# 1 32.4191 18.1207 2.9793 0.0000 1.7417 0.0000
# 2 18.1207 195.1257 47.7116 0.0000 -2.0417 0.0000
# 3 2.9793 47.7116 135.5381 0.0000 -6.7852 0.0000
# 4 0.0000 0.0000 0.0000 49.5478 0.0000 -3.8177
# 5 1.7417 -2.0417 -6.7852 0.0000 36.7745 0.0000
# 6 0.0000 0.0000 0.0000 -3.8177 0.0000 28.7211
#
#
#
# Elastic Compliance Matrix: (Units=1/GPa)
#
#
# Indices 1 2 3 4 5 6 
#
# 1 0.032654 -0.003123 0.000298 0.000000 -0.001665 0.000000
# 2 -0.003123 0.005906 -0.002005 0.000000 0.000106 0.000000
# 3 0.000298 -0.002005 0.008146 0.000000 0.001378 0.000000
# 4 0.000000 0.000000 0.000000 0.020391 0.000000 0.002710
# 5 -0.001665 0.000106 0.001378 0.000000 0.027532 0.000000
# 6 0.000000 0.000000 0.000000 0.002710 0.000000 0.035178
#
#
# Mechanical properties :
#
#
# Convention : Reuss Voigt Hill
#
# Bulk Modulus (GPa) = 26.99306 55.63401 41.31353
# Shear Modulus (GPa) = 32.93473 42.62677 37.78075
#
# Velocity S-wave (km/s) = 3.55372 4.04294 3.80620
# Velocity P-wave (km/s) = 5.21432 6.56711 5.92942
#
# Compressibility (1/GPa) = 0.03704656
#
# Stress axis : x y z
#
# Youngs Moduli (GPa) = 30.62456 169.31049 122.75567
#
# Poissons Ratio (x) = 0.52872 -0.03660
# Poissons Ratio (y) = 0.09563 0.24615
# Poissons Ratio (z) = -0.00913 0.33950
#
# Static dielectric constant tensor:
#      x y z
#    x 3.330020 0.000000 6.520360 
#    y 0.000000 5.524600 0.000000 
#    z 6.520360 0.000000 -25.110610 
# 
# 
# High freq. dielectric constant tensor:
#      x y z
#    x 2.031800 0.000000 -0.011300 
#    y 0.000000 2.071280 0.000000 
#    z -0.011300 0.000000 2.064110 
# 
# From -- ./inp_files/246041.got.cif
#   From: 2010.06.25/outbox.cif.g09.slc.cpg/sg12_124_cif.got.tgz:246041.got - 2010.06.28 00:19:55.
