data_PCOD8110222
_publ_section_title
;
Structure prediction by ZEFSAII (Michael W. Deem and Ramdas Pophale) SiO2 
 PCOD8110222
Probable space group: C 2/M
;
_chemical_formula_sum "Si O2"
_cell_formula_units_Z 60
_cell_length_a 12.411245
_cell_length_b 19.161596
_cell_length_c 24.831592
_cell_angle_alpha 90.000000
_cell_angle_beta 150.877866
_cell_angle_gamma 90.000000
_cell_volume 2874.013134
_symmetry_space_group_name_H-M "C 2/M"
_symmetry_group_IT_number 12
_symmetry_cell_setting 'monoclinic'
loop_
_space_group_symop_operation_xyz
x,y,z
-x,y,-z
-x,-y,-z
x,-y,z
1/2+x,1/2+y,z
1/2-x,1/2+y,-z
1/2-x,1/2-y,-z
1/2+x,1/2-y,z
loop_
_atom_site_type_symbol
_atom_site_label
_atom_site_fract_x
_atom_site_fract_y
_atom_site_fract_z
Si Si1 0.212668 0.287730 0.559179
Si Si2 0.500000 0.132230 0.000000
Si Si3 0.682781 0.304905 0.778534
Si Si4 0.655000 0.420954 0.674312
Si Si5 0.626637 0.919912 0.845901
Si Si6 0.753140 0.352670 0.208533
Si Si7 0.290431 0.138247 0.544721
Si Si8 0.807875 0.079867 0.040594
O O1 0.431374 0.300285 0.690807
O O2 0.232791 0.214954 0.538270
O O3 0.177817 0.354400 0.505460
O O4 0.000000 0.280754 0.500000
O O5 0.661946 0.181939 0.103418
O O6 0.646148 0.087914 0.021582
O O7 0.690838 0.365463 0.737540
O O8 0.746608 0.230212 0.780813
O O9 0.663618 0.500000 0.702007
O O10 0.425166 0.411152 0.540709
O O11 0.860716 0.410913 0.722940
O O12 0.757208 0.872598 0.859485
O O13 0.698787 0.000000 0.868080
O O14 0.687519 0.894924 0.933146
O O15 0.539405 0.379319 0.147832
O O16 0.980014 0.389494 0.329397
O O17 0.872809 0.000000 0.064262
#
# Coordination Sequence:
#
# PCOD8110222 Si02
#       8
#     8   4   8   8   8   8   8   8
#     4   9  19  38  63  84 130 167 201 255 324 379
#     4  12  25  42  66  92 123 170 232 266 307 384
#     4  10  24  40  62 100 126 168 210 272 326 370
#     4  10  21  41  65  89 129 173 214 261 315 382
#     4  10  22  41  64  90 128 172 208 259 329 383
#     4  11  24  40  64  99 132 161 209 271 327 386
#     4   9  21  37  58  96 120 166 211 252 314 380
#     4  11  25  44  66  90 127 175 216 267 321 382
#
# _framework density 20.876732000000001
#
# number of rings (size 3 to 8) (size 9 to 14) (size 15 to 20)
#    0.000    1.867    1.333    1.800    7.467    4.267 
#    0.000    1.333    0.000    1.600    0.000    0.000 
#    0.000    0.000    0.000    0.000    0.000    0.000 
#
# Total GULP energy -371785.948022 kJ/mol
# GULP energy per Si atom -12392.864934 kJ/mol
# Density = 2.082922 g / cm^3
# Si number density = 20.876732 Si / 1000 Ang^3
#
#
#
# Elastic Constant Matrix: (Units=GPa)
#
#
# Indices 1 2 3 4 5 6 
#
# 1 108.4993 31.2177 45.8665 -0.0029 23.5925 -0.0006
# 2 31.2177 94.8409 38.9092 -0.0037 10.8550 0.0000
# 3 45.8665 38.9092 130.1531 -0.0228 11.3624 0.0022
# 4 -0.0029 -0.0037 -0.0228 29.5337 0.0021 8.2863
# 5 23.5925 10.8550 11.3624 0.0021 35.5426 0.0004
# 6 -0.0006 0.0000 0.0022 8.2863 0.0004 18.4212
#
#
#
# Elastic Compliance Matrix: (Units=1/GPa)
#
#
# Indices 1 2 3 4 5 6 
#
# 1 0.012647 -0.002058 -0.003254 -0.000001 -0.006726 0.000002
# 2 -0.002058 0.012590 -0.002903 -0.000001 -0.001551 0.000001
# 3 -0.003254 -0.002903 0.009703 0.000008 -0.000055 -0.000005
# 4 -0.000001 -0.000001 0.000008 0.038750 -0.000003 -0.017431
# 5 -0.006726 -0.001551 -0.000055 -0.000003 0.033091 0.000001
# 6 0.000002 0.000001 -0.000005 -0.017431 0.000001 0.062126
#
#
# Mechanical properties :
#
#
# Convention : Reuss Voigt Hill
#
# Bulk Modulus (GPa) = 54.02845 62.83113 58.42979
# Shear Modulus (GPa) = 26.10862 31.19949 28.65405
#
# Velocity S-wave (km/s) = 3.54023 3.87002 3.70879
# Velocity P-wave (km/s) = 6.53046 7.08033 6.81094
#
# Compressibility (1/GPa) = 0.01850877
#
# Stress axis : x y z
#
# Youngs Moduli (GPa) = 79.06983 79.42876 103.06256
#
# Poissons Ratio (x) = 0.16346 0.33542
# Poissons Ratio (y) = 0.16272 0.29920
# Poissons Ratio (z) = 0.25733 0.23059
#
# Static dielectric constant tensor:
#      x y z
#    x 3.403530 -0.000010 0.227130 
#    y -0.000010 3.627310 -0.000010 
#    z 0.227130 -0.000010 4.128400 
# 
# 
# High freq. dielectric constant tensor:
#      x y z
#    x 1.803450 0.000000 0.015750 
#    y 0.000000 1.803640 0.000000 
#    z 0.015750 0.000000 1.835790 
# 
# From -- ./inp_files/336886.got.cif
#   From: 2010.06.25/outbox.cif.g09.slc.cpg/sg12_169_cif.got.tgz:336886.got - 2010.06.28 00:19:55.
