data_PCOD8110486
_publ_section_title
;
Structure prediction by ZEFSAII (Michael W. Deem and Ramdas Pophale) SiO2 
 PCOD8110486
Probable space group: C 2/M
;
_chemical_formula_sum "Si O2"
_cell_formula_units_Z 64
_cell_length_a 30.259466
_cell_length_b 16.658816
_cell_length_c 9.594888
_cell_angle_alpha 90.000000
_cell_angle_beta 38.663026
_cell_angle_gamma 90.000000
_cell_volume 3021.647851
_symmetry_space_group_name_H-M "C 2/M"
_symmetry_group_IT_number 12
_symmetry_cell_setting 'monoclinic'
loop_
_space_group_symop_operation_xyz
x,y,z
-x,y,-z
-x,-y,-z
x,-y,z
1/2+x,1/2+y,z
1/2-x,1/2+y,-z
1/2-x,1/2-y,-z
1/2+x,1/2-y,z
loop_
_atom_site_type_symbol
_atom_site_label
_atom_site_fract_x
_atom_site_fract_y
_atom_site_fract_z
Si Si1 0.736054 0.163134 0.467986
Si Si2 0.000534 0.851600 0.158863
Si Si3 0.779441 0.593363 0.996730
Si Si4 0.370256 0.407972 0.986297
Si Si5 0.624120 0.595208 0.342271
Si Si6 0.850597 0.407687 0.090267
Si Si7 0.138479 0.405380 0.483591
Si Si8 0.007402 0.663250 0.139474
O O1 0.750000 0.250000 0.500000
O O2 0.805870 0.139964 0.212595
O O3 0.717198 0.104605 0.642437
O O4 0.667372 0.152838 0.535816
O O5 0.927926 0.867479 0.417043
O O6 0.013279 0.757827 0.135447
O O7 0.000000 0.881287 0.000000
O O8 0.061827 0.900412 0.084094
O O9 0.774131 0.500000 0.043791
O O10 0.700740 0.629385 0.196936
O O11 0.829203 0.631352 0.993710
O O12 0.808756 0.609026 0.772442
O O13 0.345602 0.500000 0.036913
O O14 0.390327 0.376568 0.781841
O O15 0.618354 0.500000 0.364883
O O16 0.869428 0.500000 0.030854
O O17 0.921398 0.365853 0.965841
O O18 0.136542 0.500000 0.532523
O O19 0.062067 0.374822 0.617483
O O20 0.000000 0.632506 0.000000
#
# Coordination Sequence:
#
# PCOD8110486 Si02
#       8
#     8   8   8   8   8   8   8   8
#     4  12  25  40  66 101 138 169 215 278 331 396
#     4  11  26  43  62  95 137 171 214 280 347 391
#     4   9  21  41  66  99 130 158 214 280 325 382
#     4  11  23  43  70  95 127 180 230 270 323 404
#     4  10  21  43  70  95 127 175 228 270 322 408
#     4  11  23  42  68  97 128 170 223 278 327 388
#     4  11  22  44  72  97 128 179 227 267 323 397
#     4  11  24  42  64  93 135 173 219 276 329 399
#
# _framework density 21.180495000000001
#
# number of rings (size 3 to 8) (size 9 to 14) (size 15 to 20)
#    0.000    1.250    2.500    3.000    3.500    3.000 
#    6.750    3.125    0.000    0.000    0.000    0.000 
#    0.000    0.000    0.000    0.000    0.000    0.000 
#
# Total GULP energy -396724.954601 kJ/mol
# GULP energy per Si atom -12397.654831 kJ/mol
# Density = 2.113229 g / cm^3
# Si number density = 21.180495 Si / 1000 Ang^3
#
#
#
# Elastic Constant Matrix: (Units=GPa)
#
#
# Indices 1 2 3 4 5 6 
#
# 1 160.1385 42.3551 52.3995 0.0000 8.7884 0.0000
# 2 42.3551 57.7327 33.4643 0.0000 8.4400 0.0000
# 3 52.3995 33.4643 119.0285 0.0000 -1.5771 0.0000
# 4 0.0000 0.0000 0.0000 26.2681 0.0000 -13.4771
# 5 8.7884 8.4400 -1.5771 0.0000 34.4401 0.0000
# 6 0.0000 0.0000 0.0000 -13.4771 0.0000 10.2026
#
#
#
# Elastic Compliance Matrix: (Units=1/GPa)
#
#
# Indices 1 2 3 4 5 6 
#
# 1 0.008286 -0.004532 -0.002388 0.000000 -0.001113 0.000000
# 2 -0.004532 0.024203 -0.004876 0.000000 -0.004998 0.000000
# 3 -0.002388 -0.004876 0.010854 0.000000 0.002301 0.000000
# 4 0.000000 0.000000 0.000000 0.118127 0.000000 0.156041
# 5 -0.001113 -0.004998 0.002301 0.000000 0.030650 0.000000
# 6 0.000000 0.000000 0.000000 0.156041 0.000000 0.304138
#
#
# Mechanical properties :
#
#
# Convention : Reuss Voigt Hill
#
# Bulk Modulus (GPa) = 50.63024 65.92639 58.27831
# Shear Modulus (GPa) = 9.49789 28.09421 18.79605
#
# Velocity S-wave (km/s) = 2.11990 3.64595 2.98220
# Velocity P-wave (km/s) = 5.47248 6.99411 6.27955
#
# Compressibility (1/GPa) = 0.01975104
#
# Stress axis : x y z
#
# Youngs Moduli (GPa) = 120.68912 41.31775 92.13168
#
# Poissons Ratio (x) = 0.18724 0.22004
# Poissons Ratio (y) = 0.54692 0.44921
# Poissons Ratio (z) = 0.28824 0.20145
#
# Static dielectric constant tensor:
#      x y z
#    x 4.180930 0.000000 0.022210 
#    y 0.000000 3.677250 0.000000 
#    z 0.022210 0.000000 4.084210 
# 
# 
# High freq. dielectric constant tensor:
#      x y z
#    x 1.844520 0.000000 -0.001200 
#    y 0.000000 1.814900 0.000000 
#    z -0.001200 0.000000 1.844970 
# 
# From -- ./inp_files/112842.got.cif
#   From: 2010.06.25/outbox.cif.g09.slc.cpg/sg12_57_cif.got.tgz:112842.got - 2010.06.28 00:19:55.
