data_PCOD8110929
_publ_section_title
;
Structure prediction by ZEFSAII (Michael W. Deem and Ramdas Pophale) SiO2 
 PCOD8110929
Probable space group: C 2/M
;
_chemical_formula_sum "Si O2"
_cell_formula_units_Z 36
_cell_length_a 15.957655
_cell_length_b 19.805738
_cell_length_c 8.937584
_cell_angle_alpha 90.000000
_cell_angle_beta 36.167376
_cell_angle_gamma 90.000000
_cell_volume 1667.016019
_symmetry_space_group_name_H-M "C 2/M"
_symmetry_group_IT_number 12
_symmetry_cell_setting 'monoclinic'
loop_
_space_group_symop_operation_xyz
x,y,z
-x,y,-z
-x,-y,-z
x,-y,z
1/2+x,1/2+y,z
1/2-x,1/2+y,-z
1/2-x,1/2-y,-z
1/2+x,1/2-y,z
loop_
_atom_site_type_symbol
_atom_site_label
_atom_site_fract_x
_atom_site_fract_y
_atom_site_fract_z
Si Si1 0.234104 0.923695 0.216222
Si Si2 0.823004 0.315986 0.512753
Si Si3 0.232578 0.823019 0.951575
Si Si4 0.411322 0.668322 0.355796
Si Si5 0.500000 0.879560 0.000000
O O1 0.106871 0.888944 0.491332
O O2 0.373511 0.925397 0.120151
O O3 0.191243 0.000000 0.237735
O O4 0.259797 0.882685 0.027851
O O5 0.842901 0.339109 0.656890
O O6 0.671748 0.349169 0.678233
O O7 0.822418 0.234925 0.532621
O O8 0.948698 0.335113 0.216445
O O9 0.250000 0.750000 0.000000
O O10 0.077452 0.821284 0.098566
#
# Coordination Sequence:
#
# PCOD8110929 Si02
#       5
#     8   8   8   8   4
#     4  11  24  42  65  92 129 172 209 260 325 384
#     4  10  22  39  65  95 124 165 213 264 317 368
#     4  12  23  38  62  98 128 162 212 266 317 373
#     4  10  22  38  61  92 126 167 207 257 315 379
#     4  10  23  44  66  92 123 170 216 264 313 384
#
# _framework density 21.595472999999998
#
# number of rings (size 3 to 8) (size 9 to 14) (size 15 to 20)
#    0.000    1.333    2.222    3.000    6.222    4.444 
#    0.000    6.667    0.000    6.667    0.000    0.000 
#    0.000    0.000    0.000    0.000    0.000    0.000 
#
# Total GULP energy -223033.916152 kJ/mol
# GULP energy per Si atom -12390.773120 kJ/mol
# Density = 2.154632 g / cm^3
# Si number density = 21.595473 Si / 1000 Ang^3
#
#
#
# Elastic Constant Matrix: (Units=GPa)
#
#
# Indices 1 2 3 4 5 6 
#
# 1 71.6413 26.8564 50.9124 -0.0008 23.5623 0.0006
# 2 26.8564 137.5901 39.0309 -0.0003 31.8491 0.0001
# 3 50.9124 39.0309 115.6210 -0.0018 31.9488 0.0007
# 4 -0.0008 -0.0003 -0.0018 20.5746 0.0009 3.1635
# 5 23.5623 31.8491 31.9488 0.0009 57.0816 -0.0005
# 6 0.0006 0.0001 0.0007 3.1635 -0.0005 24.9362
#
#
#
# Elastic Compliance Matrix: (Units=1/GPa)
#
#
# Indices 1 2 3 4 5 6 
#
# 1 0.021236 -0.001018 -0.007976 0.000000 -0.003734 0.000000
# 2 -0.001018 0.008728 -0.001501 0.000000 -0.003610 0.000000
# 3 -0.007976 -0.001501 0.013635 0.000001 -0.003502 0.000000
# 4 0.000000 0.000000 0.000001 0.049571 -0.000002 -0.006289
# 5 -0.003734 -0.003610 -0.003502 -0.000002 0.023034 0.000001
# 6 0.000000 0.000000 0.000000 -0.006289 0.000001 0.040900
#
#
# Mechanical properties :
#
#
# Convention : Reuss Voigt Hill
#
# Bulk Modulus (GPa) = 44.22753 62.05020 53.13886
# Shear Modulus (GPa) = 26.93530 34.38864 30.66197
#
# Velocity S-wave (km/s) = 3.53550 3.99482 3.77216
# Velocity P-wave (km/s) = 6.09842 7.07626 6.60546
#
# Compressibility (1/GPa) = 0.02261035
#
# Stress axis : x y z
#
# Youngs Moduli (GPa) = 47.08969 114.57448 73.33955
#
# Poissons Ratio (x) = 0.11668 0.58493
# Poissons Ratio (y) = 0.04795 0.11005
# Poissons Ratio (z) = 0.37557 0.17192
#
# Static dielectric constant tensor:
#      x y z
#    x 4.214120 0.000000 0.081610 
#    y 0.000000 3.506740 0.000000 
#    z 0.081610 0.000000 3.780440 
# 
# 
# High freq. dielectric constant tensor:
#      x y z
#    x 1.870230 0.000000 0.003830 
#    y 0.000000 1.807780 0.000000 
#    z 0.003830 0.000000 1.847240 
# 
# From -- ./inp_files/48392.got.cif
#   From: 2010.06.25/outbox.cif.g09.slc.cpg/sg12_25_cif.got.tgz:48392.got - 2010.06.28 00:19:55.
