data_PCOD8110469
_publ_section_title
;
Structure prediction by ZEFSAII (Michael W. Deem and Ramdas Pophale) SiO2 
 PCOD8110469
Probable space group: C 2/M
;
_chemical_formula_sum "Si O2"
_cell_formula_units_Z 48
_cell_length_a 13.138991
_cell_length_b 16.504880
_cell_length_c 9.967964
_cell_angle_alpha 90.000000
_cell_angle_beta 86.976775
_cell_angle_gamma 90.000000
_cell_volume 2158.618981
_symmetry_space_group_name_H-M "C 2/M"
_symmetry_group_IT_number 12
_symmetry_cell_setting 'monoclinic'
loop_
_space_group_symop_operation_xyz
x,y,z
-x,y,-z
-x,-y,-z
x,-y,z
1/2+x,1/2+y,z
1/2-x,1/2+y,-z
1/2-x,1/2-y,-z
1/2+x,1/2-y,z
loop_
_atom_site_type_symbol
_atom_site_label
_atom_site_fract_x
_atom_site_fract_y
_atom_site_fract_z
Si Si1 0.725403 0.656478 0.483997
Si Si2 0.561747 0.906079 0.619920
Si Si3 0.270009 0.655271 0.974414
Si Si4 0.428151 0.184438 0.128271
Si Si5 0.133094 0.858770 0.766898
Si Si6 0.592805 0.406650 0.264568
O O1 0.750000 0.750000 0.500000
O O2 0.818592 0.610273 0.407506
O O3 0.703521 0.623061 0.633907
O O4 0.626185 0.639553 0.398459
O O5 0.500000 0.867577 0.500000
O O6 0.516650 0.866308 0.758905
O O7 0.539108 0.000000 0.632199
O O8 0.162065 0.625506 0.921985
O O9 0.359112 0.642090 0.861896
O O10 0.250000 0.750000 0.000000
O O11 0.304416 0.608564 0.107645
O O12 0.386248 0.263905 0.205877
O O13 0.500000 0.209482 0.000000
O O14 0.028080 0.905260 0.748448
O O15 0.629251 0.500000 0.265730
#
# Coordination Sequence:
#
# PCOD8110469 Si02
#       6
#     8   8   8   8   8   8
#     4  12  24  43  71 101 135 182 231 282 343 415
#     4  11  26  46  68  98 137 178 229 291 350 404
#     4  10  21  43  65  99 136 182 234 279 336 410
#     4  11  23  42  72  99 135 177 235 291 340 405
#     4  11  24  40  68 103 136 178 234 276 336 423
#     4  12  26  45  68 101 146 182 223 291 358 409
#
# _framework density 22.236439000000001
#
# number of rings (size 3 to 8) (size 9 to 14) (size 15 to 20)
#    0.000    0.833    3.333    4.500    4.667    3.667 
#    0.000    0.000    0.000    0.000    0.000    0.000 
#    0.000    0.000    0.000    0.000    0.000    0.000 
#
# Total GULP energy -297554.906626 kJ/mol
# GULP energy per Si atom -12398.121109 kJ/mol
# Density = 2.218583 g / cm^3
# Si number density = 22.236439 Si / 1000 Ang^3
#
#
#
# Elastic Constant Matrix: (Units=GPa)
#
#
# Indices 1 2 3 4 5 6 
#
# 1 62.1677 9.6508 24.1379 0.0000 14.4311 0.0000
# 2 9.6508 79.9697 30.3245 0.0000 7.9263 0.0000
# 3 24.1379 30.3245 175.6887 0.0000 11.1401 0.0000
# 4 0.0000 0.0000 0.0000 21.6674 0.0000 3.0042
# 5 14.4311 7.9263 11.1401 0.0000 54.9011 0.0000
# 6 0.0000 0.0000 0.0000 3.0042 0.0000 26.7503
#
#
#
# Elastic Compliance Matrix: (Units=1/GPa)
#
#
# Indices 1 2 3 4 5 6 
#
# 1 0.017999 -0.000985 -0.002038 0.000000 -0.004175 0.000000
# 2 -0.000985 0.013555 -0.002124 0.000000 -0.001267 0.000000
# 3 -0.002038 -0.002124 0.006367 0.000000 -0.000450 0.000000
# 4 0.000000 0.000000 0.000000 0.046882 0.000000 -0.005265
# 5 -0.004175 -0.001267 -0.000450 0.000000 0.019586 0.000000
# 6 0.000000 0.000000 0.000000 -0.005265 0.000000 0.037974
#
#
# Mechanical properties :
#
#
# Convention : Reuss Voigt Hill
#
# Bulk Modulus (GPa) = 36.19788 49.56138 42.87963
# Shear Modulus (GPa) = 30.88963 37.57794 34.23379
#
# Velocity S-wave (km/s) = 3.73117 4.11533 3.92795
# Velocity P-wave (km/s) = 5.90560 6.70209 6.31641
#
# Compressibility (1/GPa) = 0.02762593
#
# Stress axis : x y z
#
# Youngs Moduli (GPa) = 55.55850 73.77568 157.06018
#
# Poissons Ratio (x) = 0.07270 0.32010
# Poissons Ratio (y) = 0.05475 0.33357
# Poissons Ratio (z) = 0.11323 0.15669
#
# Static dielectric constant tensor:
#      x y z
#    x 4.427960 0.000000 0.571550 
#    y 0.000000 3.699170 0.000000 
#    z 0.571550 0.000000 4.811920 
# 
# 
# High freq. dielectric constant tensor:
#      x y z
#    x 1.875870 0.000000 0.013940 
#    y 0.000000 1.850240 0.000000 
#    z 0.013940 0.000000 1.901290 
# 
# From -- ./inp_files/61718.got.cif
#   From: 2010.06.25/outbox.cif.g09.slc.cpg/sg12_31_cif.got.tgz:61718.got - 2010.06.28 00:19:55.
