data_PCOD8110426
_publ_section_title
;
Structure prediction by ZEFSAII (Michael W. Deem and Ramdas Pophale) SiO2 
 PCOD8110426
Probable space group: C 2/M
;
_chemical_formula_sum "Si O2"
_cell_formula_units_Z 48
_cell_length_a 14.491801
_cell_length_b 28.648724
_cell_length_c 5.222050
_cell_angle_alpha 90.000000
_cell_angle_beta 113.798402
_cell_angle_gamma 90.000000
_cell_volume 1983.699864
_symmetry_space_group_name_H-M "C 2/M"
_symmetry_group_IT_number 12
_symmetry_cell_setting 'monoclinic'
loop_
_space_group_symop_operation_xyz
x,y,z
-x,y,-z
-x,-y,-z
x,-y,z
1/2+x,1/2+y,z
1/2-x,1/2+y,-z
1/2-x,1/2-y,-z
1/2+x,1/2-y,z
loop_
_atom_site_type_symbol
_atom_site_label
_atom_site_fract_x
_atom_site_fract_y
_atom_site_fract_z
Si Si1 0.603248 0.860855 0.766158
Si Si2 0.561288 0.360722 0.307540
Si Si3 0.254743 0.689856 0.646865
Si Si4 0.822310 0.052057 0.713507
Si Si5 0.112771 0.266663 0.096671
Si Si6 0.804713 0.552198 0.926742
O O1 0.500000 0.864487 0.500000
O O2 0.705145 0.856957 0.710790
O O3 0.610264 0.907483 0.945662
O O4 0.606883 0.812120 0.917913
O O5 0.500000 0.359480 0.500000
O O6 0.662562 0.329693 0.462430
O O7 0.587400 0.413391 0.254695
O O8 0.500000 0.339006 0.000000
O O9 0.162053 0.718825 0.423107
O O10 0.314554 0.723909 0.916595
O O11 0.781438 0.060363 0.955782
O O12 0.867138 0.000000 0.742656
O O13 0.734323 0.058120 0.404404
O O14 0.000000 0.246929 0.000000
O O15 0.851418 0.500000 0.016168
#
# Coordination Sequence:
#
# PCOD8110426 Si02
#       6
#     8   8   8   8   8   8
#     4  12  24  42  73 101 138 184 237 285 356 422
#     4  12  26  43  68 104 138 186 239 287 356 420
#     4  11  25  46  67  97 140 183 222 303 345 415
#     4  10  21  42  68  97 139 186 232 288 354 416
#     4  11  24  46  69 100 134 181 240 281 359 418
#     4  10  22  41  71 103 141 186 230 288 356 416
#
# _framework density 24.197206999999999
#
# number of rings (size 3 to 8) (size 9 to 14) (size 15 to 20)
#    0.000    1.000    3.333    3.000    2.333    1.000 
#    6.000    0.000    0.000    3.500    0.000    0.000 
#    0.000    0.000    0.000    0.000    0.000    0.000 
#
# Total GULP energy -297388.295680 kJ/mol
# GULP energy per Si atom -12391.178987 kJ/mol
# Density = 2.414213 g / cm^3
# Si number density = 24.197207 Si / 1000 Ang^3
#
#
#
# Elastic Constant Matrix: (Units=GPa)
#
#
# Indices 1 2 3 4 5 6 
#
# 1 71.7261 3.4305 20.4876 0.0000 15.7902 0.0000
# 2 3.4305 96.3172 -1.3203 0.0000 18.4323 0.0000
# 3 20.4876 -1.3203 78.6164 0.0000 12.2819 0.0000
# 4 0.0000 0.0000 0.0000 42.4367 0.0000 6.4793
# 5 15.7902 18.4323 12.2819 0.0000 40.7681 0.0000
# 6 0.0000 0.0000 0.0000 6.4793 0.0000 23.9887
#
#
#
# Elastic Compliance Matrix: (Units=1/GPa)
#
#
# Indices 1 2 3 4 5 6 
#
# 1 0.016065 0.000417 -0.003335 0.000000 -0.005406 0.000000
# 2 0.000417 0.011459 0.000964 0.000000 -0.005632 0.000000
# 3 -0.003335 0.000964 0.014137 0.000000 -0.003403 0.000000
# 4 0.000000 0.000000 0.000000 0.024578 0.000000 -0.006639
# 5 -0.005406 -0.005632 -0.003403 0.000000 0.030194 0.000000
# 6 0.000000 0.000000 0.000000 -0.006639 0.000000 0.043479
#
#
# Mechanical properties :
#
#
# Convention : Reuss Voigt Hill
#
# Bulk Modulus (GPa) = 26.48932 32.42838 29.45885
# Shear Modulus (GPa) = 31.96830 36.37616 34.17223
#
# Velocity S-wave (km/s) = 3.63871 3.88147 3.76205
# Velocity P-wave (km/s) = 5.35020 5.78952 5.57419
#
# Compressibility (1/GPa) = 0.03775106
#
# Stress axis : x y z
#
# Youngs Moduli (GPa) = 62.24848 87.27052 70.73685
#
# Poissons Ratio (x) = -0.03636 0.23591
# Poissons Ratio (y) = -0.02593 -0.06818
# Poissons Ratio (z) = 0.20760 -0.08411
#
# Static dielectric constant tensor:
#      x y z
#    x 4.526210 0.000000 0.154810 
#    y 0.000000 4.931400 0.000000 
#    z 0.154810 0.000000 4.333180 
# 
# 
# High freq. dielectric constant tensor:
#      x y z
#    x 1.942710 0.000000 0.008230 
#    y 0.000000 1.994840 0.000000 
#    z 0.008230 0.000000 1.951010 
# 
# From -- ./inp_files/13232.got.cif
#   From: 2010.06.25/outbox.cif.g09.slc.cpg/sg12_7_cif.got.tgz:13232.got - 2010.06.28 00:19:55.
