data_PCOD8110924
_publ_section_title
;
Structure prediction by ZEFSAII (Michael W. Deem and Ramdas Pophale) SiO2 
 PCOD8110924
Probable space group: C 2/M
;
_chemical_formula_sum "Si O2"
_cell_formula_units_Z 64
_cell_length_a 19.657994
_cell_length_b 8.586513
_cell_length_c 23.543693
_cell_angle_alpha 90.000000
_cell_angle_beta 52.565396
_cell_angle_gamma 90.000000
_cell_volume 3155.565361
_symmetry_space_group_name_H-M "C 2/M"
_symmetry_group_IT_number 12
_symmetry_cell_setting 'monoclinic'
loop_
_space_group_symop_operation_xyz
x,y,z
-x,y,-z
-x,-y,-z
x,-y,z
1/2+x,1/2+y,z
1/2-x,1/2+y,-z
1/2-x,1/2-y,-z
1/2+x,1/2-y,z
loop_
_atom_site_type_symbol
_atom_site_label
_atom_site_fract_x
_atom_site_fract_y
_atom_site_fract_z
Si Si1 0.463249 0.316094 0.374290
Si Si2 0.684977 0.817584 0.487377
Si Si3 0.575529 0.816283 0.001918
Si Si4 0.557758 0.822520 0.733734
Si Si5 0.251179 0.179159 0.339883
Si Si6 0.735791 0.685483 0.120104
Si Si7 0.657592 0.684541 0.276119
Si Si8 0.916293 0.819004 0.880908
O O1 0.456630 0.500000 0.369341
O O2 0.407909 0.261946 0.456504
O O3 0.424282 0.231027 0.339355
O O4 0.560369 0.259506 0.333154
O O5 0.750000 0.750000 0.500000
O O6 0.716814 0.783985 0.408158
O O7 0.677036 0.000000 0.501037
O O8 0.668341 0.747071 0.937020
O O9 0.576680 0.000000 0.994261
O O10 0.500000 0.746603 0.000000
O O11 0.558272 0.775852 0.076045
O O12 0.647353 0.806257 0.720882
O O13 0.488249 0.709774 0.797053
O O14 0.524473 0.000000 0.752542
O O15 0.210367 0.246344 0.303020
O O16 0.224786 0.000000 0.364869
O O17 0.737085 0.500000 0.122348
O O18 0.697620 0.755155 0.197986
O O19 0.675112 0.737469 0.098321
O O20 0.662746 0.500000 0.270192
O O21 0.913517 0.000000 0.897615
#
# Coordination Sequence:
#
# PCOD8110924 Si02
#       8
#     8   8   8   8   8   8   8   8
#     4  11  21  38  64  89 118 154 200 247 296 355
#     4  12  24  39  60  86 121 159 200 248 299 356
#     4  10  22  38  61  90 120 153 195 245 296 351
#     4  11  22  36  60  91 120 152 201 251 295 348
#     4  10  22  39  62  89 118 155 199 247 300 356
#     4   9  18  36  61  87 115 153 197 240 289 349
#     4   9  19  37  62  89 118 155 197 242 295 360
#     4  11  22  38  61  85 119 159 199 242 292 353
#
# _framework density 20.281627
#
# number of rings (size 3 to 8) (size 9 to 14) (size 15 to 20)
#    0.000    1.625    2.500    2.625    1.750    1.250 
#    0.000    4.375    0.000    0.000    0.000    0.000 
#    0.000    0.000    0.000    0.000    0.000    0.000 
#
# Total GULP energy -396893.659537 kJ/mol
# GULP energy per Si atom -12402.926861 kJ/mol
# Density = 2.023546 g / cm^3
# Si number density = 20.281627 Si / 1000 Ang^3
#
#
#
# Elastic Constant Matrix: (Units=GPa)
#
#
# Indices 1 2 3 4 5 6 
#
# 1 144.9305 31.8902 48.6628 -0.0002 2.3262 -0.0006
# 2 31.8902 42.5431 13.5215 -0.0007 -5.1536 -0.0018
# 3 48.6628 13.5215 99.8609 0.0000 -8.8312 -0.0001
# 4 -0.0002 -0.0007 0.0000 30.9126 0.0001 2.0552
# 5 2.3262 -5.1536 -8.8312 0.0001 38.0443 -0.0001
# 6 -0.0006 -0.0018 -0.0001 2.0552 -0.0001 20.2313
#
#
#
# Elastic Compliance Matrix: (Units=1/GPa)
#
#
# Indices 1 2 3 4 5 6 
#
# 1 0.009685 -0.006251 -0.004084 0.000000 -0.002387 0.000000
# 2 -0.006251 0.028853 -0.000491 0.000000 0.004177 0.000002
# 3 -0.004084 -0.000491 0.012340 0.000000 0.003048 0.000000
# 4 0.000000 0.000000 0.000000 0.032569 0.000000 -0.003309
# 5 -0.002387 0.004177 0.003048 0.000000 0.027704 0.000000
# 6 0.000000 0.000002 0.000000 -0.003309 0.000000 0.049764
#
#
# Mechanical properties :
#
#
# Convention : Reuss Voigt Hill
#
# Bulk Modulus (GPa) = 34.21662 52.83151 43.52407
# Shear Modulus (GPa) = 25.99950 30.72165 28.36057
#
# Velocity S-wave (km/s) = 3.58428 3.89620 3.74349
# Velocity P-wave (km/s) = 5.83411 6.80779 6.33967
#
# Compressibility (1/GPa) = 0.02922556
#
# Stress axis : x y z
#
# Youngs Moduli (GPa) = 103.25292 34.65801 81.03558
#
# Poissons Ratio (x) = 0.21664 0.33097
# Poissons Ratio (y) = 0.64542 0.03982
# Poissons Ratio (z) = 0.42171 0.01703
#
# Static dielectric constant tensor:
#      x y z
#    x 3.909800 0.000000 -0.078250 
#    y 0.000000 3.352880 0.000000 
#    z -0.078250 0.000000 3.806120 
# 
# 
# High freq. dielectric constant tensor:
#      x y z
#    x 1.799960 0.000000 -0.006550 
#    y 0.000000 1.765060 0.000000 
#    z -0.006550 0.000000 1.800820 
# 
# From -- ./inp_files/345995.got.cif
#   From: 2010.06.25/outbox.cif.g09.slc.cpg/sg12_173_cif.got.tgz:345995.got - 2010.06.28 00:19:55.
