data_PCOD8110340
_publ_section_title
;
Structure prediction by ZEFSAII (Michael W. Deem and Ramdas Pophale) SiO2 
 PCOD8110340
Probable space group: C 2/M
;
_chemical_formula_sum "Si O2"
_cell_formula_units_Z 64
_cell_length_a 9.282521
_cell_length_b 28.434340
_cell_length_c 18.224413
_cell_angle_alpha 90.000000
_cell_angle_beta 38.317891
_cell_angle_gamma 90.000000
_cell_volume 2982.436318
_symmetry_space_group_name_H-M "C 2/M"
_symmetry_group_IT_number 12
_symmetry_cell_setting 'monoclinic'
loop_
_space_group_symop_operation_xyz
x,y,z
-x,y,-z
-x,-y,-z
x,-y,z
1/2+x,1/2+y,z
1/2-x,1/2+y,-z
1/2-x,1/2-y,-z
1/2+x,1/2-y,z
loop_
_atom_site_type_symbol
_atom_site_label
_atom_site_fract_x
_atom_site_fract_y
_atom_site_fract_z
Si Si1 0.056519 0.714059 0.715631
Si Si2 0.785946 0.385621 0.030544
Si Si3 0.498995 0.769940 0.423031
Si Si4 0.527140 0.946890 0.650042
Si Si5 0.577897 0.446937 0.746488
Si Si6 0.754265 0.218274 0.928218
Si Si7 0.474183 0.888942 0.217340
Si Si8 0.995222 0.055888 0.616514
O O1 0.325677 0.728140 0.621440
O O2 0.950050 0.703940 0.675153
O O3 0.024373 0.667280 0.775624
O O4 0.916831 0.759040 0.801615
O O5 0.578104 0.420069 0.132610
O O6 0.667176 0.334101 0.081195
O O7 0.000000 0.391143 0.000000
O O8 0.879610 0.400226 0.913245
O O9 0.500000 0.801118 0.500000
O O10 0.250000 0.750000 0.500000
O O11 0.352166 0.943458 0.651984
O O12 0.411566 0.913179 0.757558
O O13 0.784664 0.931114 0.522170
O O14 0.538853 0.000000 0.676008
O O15 0.488943 0.500000 0.785890
O O16 0.547220 0.426970 0.677616
O O17 0.500000 0.213678 0.000000
O O18 0.750000 0.250000 0.000000
O O19 0.219367 0.912262 0.321776
O O20 0.940989 0.000000 0.632923
#
# Coordination Sequence:
#
# PCOD8110340 Si02
#       8
#     8   8   8   8   8   8   8   8
#     4  11  23  41  65  93 124 164 216 266 317 379
#     4  11  24  43  63  93 130 166 218 265 321 389
#     4   9  21  41  62  87 124 162 199 256 324 382
#     4  10  23  42  63  95 132 167 211 264 323 384
#     4  10  22  41  67  97 131 170 210 263 325 384
#     4  11  23  41  64  89 120 165 214 268 316 370
#     4  12  24  40  63  96 128 166 213 268 318 383
#     4  10  21  41  69  95 127 172 218 261 314 387
#
# _framework density 21.458967000000001
#
# number of rings (size 3 to 8) (size 9 to 14) (size 15 to 20)
#    0.000    1.500    2.500    1.875    1.750    9.250 
#    0.000    5.000    0.000    0.000    0.000    0.000 
#    0.000    0.000    0.000    0.000    0.000    0.000 
#
# Total GULP energy -396456.705987 kJ/mol
# GULP energy per Si atom -12389.272062 kJ/mol
# Density = 2.141013 g / cm^3
# Si number density = 21.458967 Si / 1000 Ang^3
#
#
#
# Elastic Constant Matrix: (Units=GPa)
#
#
# Indices 1 2 3 4 5 6 
#
# 1 98.3251 14.0944 27.2589 0.0000 19.5130 0.0000
# 2 14.0944 75.0426 40.0086 -0.0001 2.9380 0.0001
# 3 27.2589 40.0086 111.3276 0.0001 19.9896 -0.0005
# 4 0.0000 -0.0001 0.0001 29.2363 0.0000 -10.8501
# 5 19.5130 2.9380 19.9896 0.0000 40.5751 0.0001
# 6 0.0000 0.0001 -0.0005 -10.8501 0.0001 65.1350
#
#
#
# Elastic Compliance Matrix: (Units=1/GPa)
#
#
# Indices 1 2 3 4 5 6 
#
# 1 0.011726 -0.001165 -0.001596 0.000000 -0.004768 0.000000
# 2 -0.001165 0.016733 -0.006156 0.000000 0.002381 0.000000
# 3 -0.001596 -0.006156 0.012471 0.000000 -0.004930 0.000000
# 4 0.000000 0.000000 0.000000 0.036458 0.000000 0.006073
# 5 -0.004768 0.002381 -0.004930 0.000000 0.029195 0.000000
# 6 0.000000 0.000000 0.000000 0.006073 0.000000 0.016364
#
#
# Mechanical properties :
#
#
# Convention : Reuss Voigt Hill
#
# Bulk Modulus (GPa) = 43.29666 49.71324 46.50495
# Shear Modulus (GPa) = 33.67432 40.54483 37.10958
#
# Velocity S-wave (km/s) = 3.96566 4.35145 4.16303
# Velocity P-wave (km/s) = 6.41786 6.96159 6.69525
#
# Compressibility (1/GPa) = 0.02309647
#
# Stress axis : x y z
#
# Youngs Moduli (GPa) = 85.27926 59.76104 80.18593
#
# Poissons Ratio (x) = 0.06959 0.12802
# Poissons Ratio (y) = 0.09931 0.49362
# Poissons Ratio (z) = 0.13615 0.36789
#
# Static dielectric constant tensor:
#      x y z
#    x 4.375950 0.000000 0.270960 
#    y 0.000000 3.878290 0.000000 
#    z 0.270960 0.000000 4.113990 
# 
# 
# High freq. dielectric constant tensor:
#      x y z
#    x 1.862530 0.000000 0.008990 
#    y 0.000000 1.823080 0.000000 
#    z 0.008990 0.000000 1.848530 
# 
# From -- ./inp_files/260293.got.cif
#   From: 2010.06.25/outbox.cif.g09.slc.cpg/sg12_131_cif.got.tgz:260293.got - 2010.06.28 00:19:55.
