data_PCOD8110320
_publ_section_title
;
Structure prediction by ZEFSAII (Michael W. Deem and Ramdas Pophale) SiO2 
 PCOD8110320
Probable space group: C 2/M
;
_chemical_formula_sum "Si O2"
_cell_formula_units_Z 48
_cell_length_a 14.626308
_cell_length_b 22.732584
_cell_length_c 13.249258
_cell_angle_alpha 90.000000
_cell_angle_beta 30.935986
_cell_angle_gamma 90.000000
_cell_volume 2264.674819
_symmetry_space_group_name_H-M "C 2/M"
_symmetry_group_IT_number 12
_symmetry_cell_setting 'monoclinic'
loop_
_space_group_symop_operation_xyz
x,y,z
-x,y,-z
-x,-y,-z
x,-y,z
1/2+x,1/2+y,z
1/2-x,1/2+y,-z
1/2-x,1/2-y,-z
1/2+x,1/2-y,z
loop_
_atom_site_type_symbol
_atom_site_label
_atom_site_fract_x
_atom_site_fract_y
_atom_site_fract_z
Si Si1 0.392699 0.390929 0.698184
Si Si2 0.686985 0.205798 0.778379
Si Si3 0.500000 0.400061 0.000000
Si Si4 0.817476 0.667734 0.622321
Si Si5 0.751487 0.124810 0.538400
Si Si6 0.378647 0.000000 0.365081
Si Si7 0.444160 0.500000 0.203817
Si Si8 0.757052 0.000000 0.927150
O O1 0.500000 0.415397 0.500000
O O2 0.289496 0.331537 0.766257
O O3 0.533975 0.373590 0.652192
O O4 0.250107 0.440491 0.866917
O O5 0.802284 0.262005 0.637179
O O6 0.655205 0.168242 0.707320
O O7 0.500000 0.226776 0.000000
O O8 0.328594 0.359202 0.164817
O O9 0.507977 0.441156 0.089870
O O10 0.801446 0.642710 0.524538
O O11 0.000000 0.647478 0.500000
O O12 0.683245 0.059412 0.631939
O O13 0.271494 0.000000 0.574743
O O14 0.595128 0.000000 0.162239
O O15 0.546017 0.500000 0.212764
#
# Coordination Sequence:
#
# PCOD8110320 Si02
#       8
#     8   8   4   8   8   4   4   4
#     4  10  21  41  68  94 137 175 218 279 335 391
#     4  11  24  44  66 101 133 173 226 272 330 404
#     4  11  24  44  68  94 132 175 222 282 328 389
#     4  12  25  45  69  98 134 179 225 273 328 392
#     4  11  23  45  66  95 139 171 220 280 331 387
#     4  12  23  39  64  98 129 169 224 267 330 408
#     4  11  24  43  66  96 133 169 219 278 335 389
#     4  12  22  38  67  98 130 177 219 265 347 400
#
# _framework density 21.195097000000001
#
# number of rings (size 3 to 8) (size 9 to 14) (size 15 to 20)
#    0.000    0.833    4.167    3.250    2.333    2.000 
#    3.000    7.917    0.000    0.000    0.000    0.000 
#    0.000    0.000    0.000    0.000    0.000    0.000 
#
# Total GULP energy -297548.358749 kJ/mol
# GULP energy per Si atom -12397.848281 kJ/mol
# Density = 2.114686 g / cm^3
# Si number density = 21.195097 Si / 1000 Ang^3
#
#
#
# Elastic Constant Matrix: (Units=GPa)
#
#
# Indices 1 2 3 4 5 6 
#
# 1 124.9875 45.3006 47.5007 0.0129 -11.3144 0.0375
# 2 45.3006 139.9899 40.4795 0.0766 -1.4411 0.1302
# 3 47.5007 40.4795 133.3624 0.1591 -4.8438 0.1534
# 4 0.0129 0.0766 0.1591 37.2287 -0.0690 5.9880
# 5 -11.3144 -1.4411 -4.8438 -0.0690 28.5882 -0.0126
# 6 0.0375 0.1302 0.1534 5.9880 -0.0126 40.9587
#
#
#
# Elastic Compliance Matrix: (Units=1/GPa)
#
#
# Indices 1 2 3 4 5 6 
#
# 1 0.010271 -0.002485 -0.002778 0.000019 0.003469 0.000007
# 2 -0.002485 0.008432 -0.001705 -0.000008 -0.000847 -0.000017
# 3 -0.002778 -0.001705 0.009018 -0.000030 0.000342 -0.000021
# 4 0.000019 -0.000008 -0.000030 0.027508 0.000066 -0.004021
# 5 0.003469 -0.000847 0.000342 0.000066 0.036368 0.000000
# 6 0.000007 -0.000017 -0.000021 -0.004021 0.000000 0.025003
#
#
# Mechanical properties :
#
#
# Convention : Reuss Voigt Hill
#
# Bulk Modulus (GPa) = 72.54278 73.87794 73.21036
# Shear Modulus (GPa) = 37.00117 39.02570 38.01343
#
# Velocity S-wave (km/s) = 4.18274 4.29565 4.23957
# Velocity P-wave (km/s) = 7.59128 7.71591 7.65385
#
# Compressibility (1/GPa) = 0.01378497
#
# Stress axis : x y z
#
# Youngs Moduli (GPa) = 97.35910 118.59929 110.89008
#
# Poissons Ratio (x) = 0.29469 0.30808
# Poissons Ratio (y) = 0.24191 0.18907
# Poissons Ratio (z) = 0.27049 0.20222
#
# Static dielectric constant tensor:
#      x y z
#    x 3.625790 -0.000120 0.002810 
#    y -0.000120 4.052210 0.000190 
#    z 0.002810 0.000190 3.891090 
# 
# 
# High freq. dielectric constant tensor:
#      x y z
#    x 1.812350 -0.000010 0.001570 
#    y -0.000010 1.850600 0.000020 
#    z 0.001570 0.000020 1.834680 
# 
# From -- ./inp_files/218460.got.cif
#   From: 2010.06.25/outbox.cif.g09.slc.cpg/sg12_110_cif.got.tgz:218460.got - 2010.06.28 00:19:55.
