data_PCOD8110747
_publ_section_title
;
Structure prediction by ZEFSAII (Michael W. Deem and Ramdas Pophale) SiO2 
 PCOD8110747
Probable space group: C 2/M
;
_chemical_formula_sum "Si O2"
_cell_formula_units_Z 44
_cell_length_a 19.107243
_cell_length_b 13.565317
_cell_length_c 10.743619
_cell_angle_alpha 90.000000
_cell_angle_beta 52.071283
_cell_angle_gamma 90.000000
_cell_volume 2196.505609
_symmetry_space_group_name_H-M "C 2/M"
_symmetry_group_IT_number 12
_symmetry_cell_setting 'monoclinic'
loop_
_space_group_symop_operation_xyz
x,y,z
-x,y,-z
-x,-y,-z
x,-y,z
1/2+x,1/2+y,z
1/2-x,1/2+y,-z
1/2-x,1/2-y,-z
1/2+x,1/2-y,z
loop_
_atom_site_type_symbol
_atom_site_label
_atom_site_fract_x
_atom_site_fract_y
_atom_site_fract_z
Si Si1 0.165025 0.204789 0.659241
Si Si2 0.176616 0.500000 0.016175
Si Si3 0.020683 0.197756 0.249606
Si Si4 0.623083 0.000000 0.345763
Si Si5 0.409944 0.170513 0.041394
Si Si6 0.000000 0.669117 0.500000
Si Si7 0.120063 0.000000 0.114315
Si Si8 0.817363 0.000000 0.222394
O O1 0.250000 0.250000 0.500000
O O2 0.146485 0.282374 0.787455
O O3 0.176563 0.095557 0.699334
O O4 0.085305 0.193324 0.648301
O O5 0.112130 0.500000 0.207174
O O6 0.153503 0.594308 0.958439
O O7 0.280437 0.500000 0.938782
O O8 0.040100 0.265824 0.346361
O O9 0.066073 0.093104 0.225294
O O10 0.064291 0.241556 0.078666
O O11 0.579591 0.096715 0.456080
O O12 0.724842 0.000000 0.257137
O O13 0.500000 0.121481 0.000000
O O14 0.114247 0.000000 0.968980
#
# Coordination Sequence:
#
# PCOD8110747 Si02
#       8
#     8   4   8   4   8   4   4   4
#     4  11  24  41  66  94 125 167 213 261 316 367
#     4  11  22  40  63  96 129 159 214 259 318 378
#     4  11  23  42  64  93 126 168 212 256 313 378
#     4  10  22  37  62  95 122 167 209 254 315 371
#     4  10  22  41  65  93 127 166 210 263 316 372
#     4  11  22  41  64  88 130 161 206 263 312 368
#     4  11  25  39  65  95 124 175 207 252 315 385
#     4  11  22  41  64  90 128 163 213 258 300 381
#
# _framework density 20.031818000000001
#
# number of rings (size 3 to 8) (size 9 to 14) (size 15 to 20)
#    0.000    1.273    3.636    1.909    0.000    5.455 
#    0.000    0.000    0.000    0.000    0.000    0.000 
#    0.000    0.000    0.000    0.000    0.000    0.000 
#
# Total GULP energy -272788.715980 kJ/mol
# GULP energy per Si atom -12399.487090 kJ/mol
# Density = 1.998622 g / cm^3
# Si number density = 20.031818 Si / 1000 Ang^3
#
#
#
# Elastic Constant Matrix: (Units=GPa)
#
#
# Indices 1 2 3 4 5 6 
#
# 1 92.8481 51.9647 31.0597 0.0000 -12.6230 0.0000
# 2 51.9647 143.8725 49.4105 0.0000 -8.9470 0.0000
# 3 31.0597 49.4105 112.6707 0.0000 -13.2739 0.0000
# 4 0.0000 0.0000 0.0000 7.4288 0.0000 -19.2600
# 5 -12.6230 -8.9470 -13.2739 0.0000 28.8210 0.0000
# 6 0.0000 0.0000 0.0000 -19.2600 0.0000 16.1588
#
#
#
# Elastic Compliance Matrix: (Units=1/GPa)
#
#
# Indices 1 2 3 4 5 6 
#
# 1 0.014304 -0.004381 -0.001527 0.000000 0.004202 0.000000
# 2 -0.004381 0.009549 -0.003021 0.000000 -0.000346 0.000000
# 3 -0.001527 -0.003021 0.011030 0.000000 0.003474 0.000000
# 4 0.000000 0.000000 0.000000 -0.064402 0.000000 -0.076762
# 5 0.004202 -0.000346 0.003474 0.000000 0.038030 0.000000
# 6 0.000000 0.000000 0.000000 -0.076762 0.000000 -0.029608
#
#
# Mechanical properties :
#
#
# Convention : Reuss Voigt Hill
#
# Bulk Modulus (GPa) = 58.73238 68.25124 63.49181
# Shear Modulus (GPa) = 2052.85378 24.94547 1038.89963
#
# Velocity S-wave (km/s) = 32.04717 3.53270 22.79804
# Velocity P-wave (km/s) = 37.39980 7.12638 26.92146
#
# Compressibility (1/GPa) = 0.01702638
#
# Stress axis : x y z
#
# Youngs Moduli (GPa) = 69.90989 104.72600 90.65968
#
# Poissons Ratio (x) = 0.45877 0.13844
# Poissons Ratio (y) = 0.30626 0.27385
# Poissons Ratio (z) = 0.10676 0.31633
#
# Static dielectric constant tensor:
#      x y z
#    x 3.760070 0.000000 0.031700 
#    y 0.000000 3.405080 0.000000 
#    z 0.031700 0.000000 3.681420 
# 
# 
# High freq. dielectric constant tensor:
#      x y z
#    x 1.783340 0.000000 -0.002970 
#    y 0.000000 1.791880 0.000000 
#    z -0.002970 0.000000 1.785970 
# 
# From -- ./inp_files/154150.got.cif
#   From: 2010.06.25/outbox.cif.g09.slc.cpg/sg12_78_cif.got.tgz:154150.got - 2010.06.28 00:19:55.
