data_PCOD8110768
_publ_section_title
;
Structure prediction by ZEFSAII (Michael W. Deem and Ramdas Pophale) SiO2 
 PCOD8110768
Probable space group: C 2/M
;
_chemical_formula_sum "Si O2"
_cell_formula_units_Z 64
_cell_length_a 14.871947
_cell_length_b 9.260865
_cell_length_c 24.300073
_cell_angle_alpha 90.000000
_cell_angle_beta 89.080877
_cell_angle_gamma 90.000000
_cell_volume 3346.347810
_symmetry_space_group_name_H-M "C 2/M"
_symmetry_group_IT_number 12
_symmetry_cell_setting 'monoclinic'
loop_
_space_group_symop_operation_xyz
x,y,z
-x,y,-z
-x,-y,-z
x,-y,z
1/2+x,1/2+y,z
1/2-x,1/2+y,-z
1/2-x,1/2-y,-z
1/2+x,1/2-y,z
loop_
_atom_site_type_symbol
_atom_site_label
_atom_site_fract_x
_atom_site_fract_y
_atom_site_fract_z
Si Si1 0.081194 0.837628 0.743733
Si Si2 0.382815 0.667412 0.643358
Si Si3 0.904567 0.666505 0.746872
Si Si4 0.408697 0.336358 0.376078
Si Si5 0.760260 0.670223 0.942864
Si Si6 0.575713 0.167199 0.132623
Si Si7 0.108418 0.165840 0.862790
Si Si8 0.735019 0.171063 0.557099
O O1 0.134206 0.822769 0.685322
O O2 0.141150 0.817886 0.798323
O O3 0.008180 0.712485 0.745098
O O4 0.037071 0.000000 0.745086
O O5 0.370849 0.500000 0.655092
O O6 0.351842 0.745828 0.700169
O O7 0.485618 0.705127 0.626338
O O8 0.317901 0.717562 0.595007
O O9 0.895045 0.500000 0.731547
O O10 0.872511 0.698687 0.809814
O O11 0.396571 0.500000 0.398425
O O12 0.358719 0.225438 0.416333
O O13 0.750341 0.500000 0.951899
O O14 0.857316 0.708941 0.917069
O O15 0.684761 0.730100 0.901605
O O16 0.750000 0.750000 0.000000
O O17 0.485598 0.256934 0.125386
O O18 0.548275 0.000000 0.130989
O O19 0.092620 0.000000 0.877647
O O20 0.750000 0.250000 0.500000
O O21 0.729713 0.000000 0.548304
#
# Coordination Sequence:
#
# PCOD8110768 Si02
#       8
#     8   8   8   8   8   8   8   8
#     4   8  15  30  53  79 108 140 170 204 257 321
#     4   9  20  38  57  78 109 145 173 206 261 320
#     4   9  16  28  52  83 109 133 168 213 258 309
#     4   9  18  35  58  81 106 138 173 210 258 314
#     4  10  22  38  53  73 103 139 181 223 262 309
#     4   9  19  35  54  78 108 138 168 212 268 314
#     4   9  18  34  56  79 104 137 176 215 256 311
#     4  11  24  40  56  77 106 140 181 223 260 304
#
# _framework density 19.125326999999999
#
# number of rings (size 3 to 8) (size 9 to 14) (size 15 to 20)
#    0.000    2.750    0.000    1.500    0.000    6.500 
#    0.000    7.500    0.000    0.000    0.000    0.000 
#    0.000    0.000    0.000    0.000    0.000    0.000 
#
# Total GULP energy -396571.819221 kJ/mol
# GULP energy per Si atom -12392.869351 kJ/mol
# Density = 1.908180 g / cm^3
# Si number density = 19.125327 Si / 1000 Ang^3
#
#
#
# Elastic Constant Matrix: (Units=GPa)
#
#
# Indices 1 2 3 4 5 6 
#
# 1 42.0299 15.0681 11.4880 0.0000 4.9124 0.0000
# 2 15.0681 48.8541 29.8264 0.0000 -2.3566 0.0000
# 3 11.4880 29.8264 93.7093 0.0000 1.9173 0.0000
# 4 0.0000 0.0000 0.0000 36.1245 0.0000 -0.4613
# 5 4.9124 -2.3566 1.9173 0.0000 33.0950 0.0000
# 6 0.0000 0.0000 0.0000 -0.4613 0.0000 25.2365
#
#
#
# Elastic Compliance Matrix: (Units=1/GPa)
#
#
# Indices 1 2 3 4 5 6 
#
# 1 0.027488 -0.008319 -0.000627 0.000000 -0.004636 0.000000
# 2 -0.008319 0.028097 -0.007999 0.000000 0.003699 0.000000
# 3 -0.000627 -0.007999 0.013320 0.000000 -0.001248 0.000000
# 4 0.000000 0.000000 0.000000 0.027688 0.000000 0.000506
# 5 -0.004636 0.003699 -0.001248 0.000000 0.031240 0.000000
# 6 0.000000 0.000000 0.000000 0.000506 0.000000 0.039634
#
#
# Mechanical properties :
#
#
# Convention : Reuss Voigt Hill
#
# Bulk Modulus (GPa) = 28.55915 33.03980 30.79947
# Shear Modulus (GPa) = 23.47102 27.43858 25.45480
#
# Velocity S-wave (km/s) = 3.50697 3.79182 3.65217
# Velocity P-wave (km/s) = 5.60032 6.04015 5.82439
#
# Compressibility (1/GPa) = 0.03501505
#
# Stress axis : x y z
#
# Youngs Moduli (GPa) = 36.37908 35.59139 75.07737
#
# Poissons Ratio (x) = 0.29608 0.04709
# Poissons Ratio (y) = 0.30264 0.60052
# Poissons Ratio (z) = 0.02282 0.28468
#
# Static dielectric constant tensor:
#      x y z
#    x 3.287240 0.000000 0.124470 
#    y 0.000000 3.443540 0.000000 
#    z 0.124470 0.000000 3.773580 
# 
# 
# High freq. dielectric constant tensor:
#      x y z
#    x 1.721090 0.000000 0.005750 
#    y 0.000000 1.739480 0.000000 
#    z 0.005750 0.000000 1.754140 
# 
# From -- ./inp_files/338676.got.cif
#   From: 2010.06.25/outbox.cif.g09.slc.cpg/sg12_170_cif.got.tgz:338676.got - 2010.06.28 00:19:55.
