data_PCOD8110015
_publ_section_title
;
Structure prediction by ZEFSAII (Michael W. Deem and Ramdas Pophale) SiO2 
 PCOD8110015
Probable space group: C 2/M
;
_chemical_formula_sum "Si O2"
_cell_formula_units_Z 56
_cell_length_a 18.828401
_cell_length_b 8.843181
_cell_length_c 16.277835
_cell_angle_alpha 90.000000
_cell_angle_beta 90.015061
_cell_angle_gamma 90.000000
_cell_volume 2710.307583
_symmetry_space_group_name_H-M "C 2/M"
_symmetry_group_IT_number 12
_symmetry_cell_setting 'monoclinic'
loop_
_space_group_symop_operation_xyz
x,y,z
-x,y,-z
-x,-y,-z
x,-y,z
1/2+x,1/2+y,z
1/2-x,1/2+y,-z
1/2-x,1/2-y,-z
1/2+x,1/2-y,z
loop_
_atom_site_type_symbol
_atom_site_label
_atom_site_fract_x
_atom_site_fract_y
_atom_site_fract_z
Si Si1 0.147251 0.677695 0.819866
Si Si2 0.029405 0.823488 0.912460
Si Si3 0.417437 0.677407 0.341443
Si Si4 0.407699 0.173989 0.820231
Si Si5 0.082195 0.822398 0.344775
Si Si6 0.265799 0.825578 0.912982
Si Si7 0.672538 0.321800 0.501709
O O1 0.155140 0.500000 0.815529
O O2 0.100110 0.727054 0.898046
O O3 0.112422 0.736631 0.737006
O O4 0.223915 0.749183 0.837392
O O5 0.973198 0.781724 0.842494
O O6 0.047419 0.000000 0.907333
O O7 0.000000 0.773996 0.000000
O O8 0.409276 0.500000 0.325474
O O9 0.499443 0.720029 0.357763
O O10 0.370706 0.731919 0.418366
O O11 0.383325 0.229389 0.730500
O O12 0.347741 0.195046 0.889087
O O13 0.432504 0.000000 0.816234
O O14 0.126385 0.769257 0.423842
O O15 0.091347 0.000000 0.328599
O O16 0.244049 0.000000 0.919285
O O17 0.250000 0.750000 0.000000
O O18 0.682126 0.500000 0.501939
O O19 0.750000 0.250000 0.500000
#
# Coordination Sequence:
#
# PCOD8110015 Si02
#       7
#     8   8   8   8   8   8   8
#     4  12  25  40  63  94 128 166 213 262 313 374
#     4  11  23  40  64  92 124 164 209 258 313 373
#     4  10  21  41  66  91 125 167 211 258 311 370
#     4  11  24  40  62  93 127 163 207 260 315 370
#     4  10  21  40  66  92 123 166 212 253 307 373
#     4  11  25  44  64  90 127 169 214 263 321 378
#     4  10  23  41  64  96 128 164 208 257 312 373
#
# _framework density 20.661860999999998
#
# number of rings (size 3 to 8) (size 9 to 14) (size 15 to 20)
#    0.000    1.286    1.429    3.857    2.000    8.571 
#    0.000    0.000    0.000    2.571    0.000    0.000 
#    0.000    0.000    0.000    0.000    0.000    0.000 
#
# Total GULP energy -347322.953487 kJ/mol
# GULP energy per Si atom -12404.391196 kJ/mol
# Density = 2.061483 g / cm^3
# Si number density = 20.661861 Si / 1000 Ang^3
#
#
#
# Elastic Constant Matrix: (Units=GPa)
#
#
# Indices 1 2 3 4 5 6 
#
# 1 91.5475 35.3812 34.2411 0.0000 4.5867 0.0000
# 2 35.3812 79.3277 37.5979 0.0000 -0.6872 0.0000
# 3 34.2411 37.5979 107.9374 0.0000 -7.2727 0.0000
# 4 0.0000 0.0000 0.0000 28.5934 0.0000 -2.6801
# 5 4.5867 -0.6872 -7.2727 0.0000 39.1753 0.0000
# 6 0.0000 0.0000 0.0000 -2.6801 0.0000 33.3771
#
#
#
# Elastic Compliance Matrix: (Units=1/GPa)
#
#
# Indices 1 2 3 4 5 6 
#
# 1 0.014011 -0.004899 -0.002891 0.000000 -0.002263 0.000000
# 2 -0.004899 0.016831 -0.004304 0.000000 0.000070 0.000000
# 3 -0.002891 -0.004304 0.011847 0.000000 0.002462 0.000000
# 4 0.000000 0.000000 0.000000 0.035238 0.000000 0.002830
# 5 -0.002263 0.000070 0.002462 0.000000 0.026250 0.000000
# 6 0.000000 0.000000 0.000000 0.002830 0.000000 0.030188
#
#
# Mechanical properties :
#
#
# Convention : Reuss Voigt Hill
#
# Bulk Modulus (GPa) = 54.04818 54.80589 54.42703
# Shear Modulus (GPa) = 30.35452 31.66863 31.01158
#
# Velocity S-wave (km/s) = 3.83705 3.91923 3.87836
# Velocity P-wave (km/s) = 6.77096 6.86026 6.81576
#
# Compressibility (1/GPa) = 0.01850201
#
# Stress axis : x y z
#
# Youngs Moduli (GPa) = 71.37168 59.41287 84.41011
#
# Poissons Ratio (x) = 0.29104 0.24402
# Poissons Ratio (y) = 0.34962 0.36332
# Poissons Ratio (z) = 0.20633 0.25572
#
# Static dielectric constant tensor:
#      x y z
#    x 3.911440 0.000000 -0.061210 
#    y 0.000000 3.673070 0.000000 
#    z -0.061210 0.000000 3.897300 
# 
# 
# High freq. dielectric constant tensor:
#      x y z
#    x 1.817080 0.000000 -0.000130 
#    y 0.000000 1.804790 0.000000 
#    z -0.000130 0.000000 1.821270 
# 
# From -- ./inp_files/230883.got.cif
#   From: 2010.06.25/outbox.cif.g09.slc.cpg/sg12_116_cif.got.tgz:230883.got - 2010.06.28 00:19:55.
