data_PCOD8110548
_publ_section_title
;
Structure prediction by ZEFSAII (Michael W. Deem and Ramdas Pophale) SiO2 
 PCOD8110548
Probable space group: C 2/M
;
_chemical_formula_sum "Si O2"
_cell_formula_units_Z 52
_cell_length_a 11.931596
_cell_length_b 26.010226
_cell_length_c 9.973507
_cell_angle_alpha 90.000000
_cell_angle_beta 61.717196
_cell_angle_gamma 90.000000
_cell_volume 2725.705371
_symmetry_space_group_name_H-M "C 2/M"
_symmetry_group_IT_number 12
_symmetry_cell_setting 'monoclinic'
loop_
_space_group_symop_operation_xyz
x,y,z
-x,y,-z
-x,-y,-z
x,-y,z
1/2+x,1/2+y,z
1/2-x,1/2+y,-z
1/2-x,1/2-y,-z
1/2+x,1/2-y,z
loop_
_atom_site_type_symbol
_atom_site_label
_atom_site_fract_x
_atom_site_fract_y
_atom_site_fract_z
Si Si1 0.858705 0.321509 0.722352
Si Si2 0.056013 0.942087 0.255661
Si Si3 0.801238 0.942084 0.549870
Si Si4 0.739901 0.215182 0.759361
Si Si5 0.000000 0.772262 0.000000
Si Si6 0.165626 0.151660 0.057984
Si Si7 0.349292 0.153661 0.429000
O O1 0.844453 0.259653 0.723744
O O2 0.813042 0.341803 0.604612
O O3 0.002256 0.335507 0.677823
O O4 0.770615 0.348913 0.881814
O O5 0.152663 0.938706 0.324164
O O6 0.102612 0.904405 0.110756
O O7 0.915700 0.925979 0.385228
O O8 0.054529 0.000000 0.198619
O O9 0.681812 0.904454 0.597398
O O10 0.755725 0.000000 0.543456
O O11 0.771659 0.167638 0.837341
O O12 0.735903 0.193703 0.609570
O O13 0.601968 0.235981 0.873790
O O14 0.056976 0.807473 0.084509
#
# Coordination Sequence:
#
# PCOD8110548 Si02
#       7
#     8   8   8   8   4   8   8
#     4  10  24  37  53  86 128 146 189 244 282 341
#     4   9  19  38  62  90 113 140 196 248 282 339
#     4   9  19  38  63  87 112 148 193 241 288 338
#     4  11  20  38  58  83 111 163 198 227 276 346
#     4  10  22  34  57  84 127 150 186 238 288 344
#     4  11  21  38  59  86 115 156 187 236 298 333
#     4  11  21  40  58  83 115 158 194 235 286 340
#
# _framework density 19.077629999999999
#
# number of rings (size 3 to 8) (size 9 to 14) (size 15 to 20)
#    0.000    1.846    1.538    5.077    4.308    0.000 
#    5.538    3.462    0.000    1.846    0.000    0.000 
#    0.000    0.000    0.000    0.000    0.000    0.000 
#
# Total GULP energy -322400.560238 kJ/mol
# GULP energy per Si atom -12400.021548 kJ/mol
# Density = 1.903421 g / cm^3
# Si number density = 19.077630 Si / 1000 Ang^3
#
#
#
# Elastic Constant Matrix: (Units=GPa)
#
#
# Indices 1 2 3 4 5 6 
#
# 1 93.1641 45.1214 36.8928 0.0000 -1.9004 0.0000
# 2 45.1214 116.5208 40.3721 0.0000 -6.9949 0.0000
# 3 36.8928 40.3721 46.6186 0.0000 7.7904 0.0000
# 4 0.0000 0.0000 0.0000 -11.7237 0.0000 -43.1876
# 5 -1.9004 -6.9949 7.7904 0.0000 26.2185 0.0000
# 6 0.0000 0.0000 0.0000 -43.1876 0.0000 -29.0467
#
#
#
# Elastic Compliance Matrix: (Units=1/GPa)
#
#
# Indices 1 2 3 4 5 6 
#
# 1 0.016576 -0.001955 -0.012142 0.000000 0.004288 0.000000
# 2 -0.001955 0.013748 -0.011520 0.000000 0.006949 0.000000
# 3 -0.012142 -0.011520 0.043875 0.000000 -0.016990 0.000000
# 4 0.000000 0.000000 0.000000 0.019052 0.000000 -0.028327
# 5 0.004288 0.006949 -0.016990 0.000000 0.045354 0.000000
# 6 0.000000 0.000000 0.000000 -0.028327 0.000000 0.007690
#
#
# Mechanical properties :
#
#
# Convention : Reuss Voigt Hill
#
# Bulk Modulus (GPa) = 43.54253 55.67512 49.60883
# Shear Modulus (GPa) = 24.36865 6.01743 15.19304
#
# Velocity S-wave (km/s) = 3.57787 1.77793 2.82508
# Velocity P-wave (km/s) = 6.31994 5.78459 6.05818
#
# Compressibility (1/GPa) = 0.02296605
#
# Stress axis : x y z
#
# Youngs Moduli (GPa) = 60.32853 72.73942 22.79207
#
# Poissons Ratio (x) = 0.14218 0.27673
# Poissons Ratio (y) = 0.11792 0.26257
# Poissons Ratio (z) = 0.73248 0.83796
#
# Static dielectric constant tensor:
#      x y z
#    x 3.474000 0.000000 0.077630 
#    y 0.000000 3.532720 0.000000 
#    z 0.077630 0.000000 3.422930 
# 
# 
# High freq. dielectric constant tensor:
#      x y z
#    x 1.741130 0.000000 0.007850 
#    y 0.000000 1.739080 0.000000 
#    z 0.007850 0.000000 1.736480 
# 
# From -- ./inp_files/134784.got.cif
#   From: 2010.06.25/outbox.cif.g09.slc.cpg/sg12_68_cif.got.tgz:134784.got - 2010.06.28 00:19:55.
