data_PCOD8110154
_publ_section_title
;
Structure prediction by ZEFSAII (Michael W. Deem and Ramdas Pophale) SiO2 
 PCOD8110154
Probable space group: C 2/M
;
_chemical_formula_sum "Si O2"
_cell_formula_units_Z 56
_cell_length_a 14.892372
_cell_length_b 23.725942
_cell_length_c 8.345632
_cell_angle_alpha 90.000000
_cell_angle_beta 66.632717
_cell_angle_gamma 90.000000
_cell_volume 2706.950936
_symmetry_space_group_name_H-M "C 2/M"
_symmetry_group_IT_number 12
_symmetry_cell_setting 'monoclinic'
loop_
_space_group_symop_operation_xyz
x,y,z
-x,y,-z
-x,-y,-z
x,-y,z
1/2+x,1/2+y,z
1/2-x,1/2+y,-z
1/2-x,1/2-y,-z
1/2+x,1/2-y,z
loop_
_atom_site_type_symbol
_atom_site_label
_atom_site_fract_x
_atom_site_fract_y
_atom_site_fract_z
Si Si1 0.625667 0.290961 0.016281
Si Si2 0.706166 0.629264 0.388703
Si Si3 0.922643 0.433614 0.788606
Si Si4 0.449139 0.657795 0.256861
Si Si5 0.863559 0.435249 0.470185
Si Si6 0.179870 0.669688 0.967342
Si Si7 0.439378 0.560696 0.702432
O O1 0.548672 0.306021 0.212319
O O2 0.733461 0.313507 0.973741
O O3 0.600118 0.324297 0.872617
O O4 0.609702 0.223856 0.013077
O O5 0.623546 0.665302 0.540719
O O6 0.766928 0.595685 0.478491
O O7 0.781634 0.668820 0.242318
O O8 0.661333 0.591262 0.276802
O O9 0.905976 0.500000 0.850421
O O10 0.877042 0.421619 0.647419
O O11 0.038489 0.419934 0.699320
O O12 0.873525 0.389124 0.946671
O O13 0.491212 0.593743 0.221248
O O14 0.841231 0.500000 0.461253
O O15 0.500000 0.552233 0.500000
O O16 0.413182 0.500000 0.797662
#
# Coordination Sequence:
#
# PCOD8110154 Si02
#       7
#     8   8   8   8   8   8   8
#     4  10  23  42  60  82 125 166 208 257 305 359
#     4  11  21  35  64  91 125 155 205 253 312 364
#     4   9  20  40  63  89 124 163 204 252 311 371
#     4  10  21  41  62  85 120 165 201 252 303 373
#     4   9  19  37  61  89 126 164 198 246 304 374
#     4  11  23  40  61  91 122 160 206 262 309 362
#     4   9  18  34  58  89 123 156 194 244 302 360
#
# _framework density 20.687483
#
# number of rings (size 3 to 8) (size 9 to 14) (size 15 to 20)
#    0.000    2.143    1.429    2.143    0.000    5.143 
#    0.000    9.286    0.000    0.000    0.000    0.000 
#    0.000    0.000    0.000    0.000    0.000    0.000 
#
# Total GULP energy -346876.840533 kJ/mol
# GULP energy per Si atom -12388.458590 kJ/mol
# Density = 2.064040 g / cm^3
# Si number density = 20.687483 Si / 1000 Ang^3
#
#
#
# Elastic Constant Matrix: (Units=GPa)
#
#
# Indices 1 2 3 4 5 6 
#
# 1 78.5160 40.8960 28.1757 0.0000 0.4634 0.0000
# 2 40.8960 134.3624 67.3312 0.0000 -8.8397 0.0000
# 3 28.1757 67.3312 106.0300 0.0000 -20.1463 0.0000
# 4 0.0000 0.0000 0.0000 33.7737 0.0000 -1.9143
# 5 0.4634 -8.8397 -20.1463 0.0000 35.1857 0.0000
# 6 0.0000 0.0000 0.0000 -1.9143 0.0000 27.8806
#
#
#
# Elastic Compliance Matrix: (Units=1/GPa)
#
#
# Indices 1 2 3 4 5 6 
#
# 1 0.015502 -0.003789 -0.002169 0.000000 -0.002398 0.000000
# 2 -0.003789 0.011902 -0.006703 0.000000 -0.000798 0.000000
# 3 -0.002169 -0.006703 0.015652 0.000000 0.007307 0.000000
# 4 0.000000 0.000000 0.000000 0.029725 0.000000 0.002041
# 5 -0.002398 -0.000798 0.007307 0.000000 0.032435 0.000000
# 6 0.000000 0.000000 0.000000 0.002041 0.000000 0.036007
#
#
# Mechanical properties :
#
#
# Convention : Reuss Voigt Hill
#
# Bulk Modulus (GPa) = 56.38543 65.74604 61.06573
# Shear Modulus (GPa) = 28.99252 31.53504 30.26378
#
# Velocity S-wave (km/s) = 3.74766 3.90853 3.82894
# Velocity P-wave (km/s) = 6.78539 7.22623 7.00928
#
# Compressibility (1/GPa) = 0.01773508
#
# Stress axis : x y z
#
# Youngs Moduli (GPa) = 64.50590 84.01679 63.88815
#
# Poissons Ratio (x) = 0.31838 0.13856
# Poissons Ratio (y) = 0.24444 0.42823
# Poissons Ratio (z) = 0.13990 0.56315
#
# Static dielectric constant tensor:
#      x y z
#    x 3.999900 0.000000 -0.206820 
#    y 0.000000 3.996360 0.000000 
#    z -0.206820 0.000000 3.641860 
# 
# 
# High freq. dielectric constant tensor:
#      x y z
#    x 1.821450 0.000000 -0.007650 
#    y 0.000000 1.801760 0.000000 
#    z -0.007650 0.000000 1.794480 
# 
# From -- ./inp_files/65316.got.cif
#   From: 2010.06.25/outbox.cif.g09.slc.cpg/sg12_33_cif.got.tgz:65316.got - 2010.06.28 00:19:55.
