data_PCOD8110474
_publ_section_title
;
Structure prediction by ZEFSAII (Michael W. Deem and Ramdas Pophale) SiO2 
 PCOD8110474
Probable space group: C 2/M
;
_chemical_formula_sum "Si O2"
_cell_formula_units_Z 32
_cell_length_a 18.967588
_cell_length_b 12.480033
_cell_length_c 12.741976
_cell_angle_alpha 90.000000
_cell_angle_beta 31.899916
_cell_angle_gamma 90.000000
_cell_volume 1593.888424
_symmetry_space_group_name_H-M "C 2/M"
_symmetry_group_IT_number 12
_symmetry_cell_setting 'monoclinic'
loop_
_space_group_symop_operation_xyz
x,y,z
-x,y,-z
-x,-y,-z
x,-y,z
1/2+x,1/2+y,z
1/2-x,1/2+y,-z
1/2-x,1/2-y,-z
1/2+x,1/2-y,z
loop_
_atom_site_type_symbol
_atom_site_label
_atom_site_fract_x
_atom_site_fract_y
_atom_site_fract_z
Si Si1 0.955385 0.000000 0.348729
Si Si2 0.902916 0.772502 0.327629
Si Si3 0.000000 0.674053 0.000000
Si Si4 0.263254 0.000000 0.003789
Si Si5 0.796474 0.500000 0.203584
Si Si6 0.985443 0.619844 0.636763
O O1 0.927244 0.102649 0.313851
O O2 0.859410 0.000000 0.571162
O O3 0.105827 0.000000 0.199252
O O4 0.750000 0.750000 0.500000
O O5 0.944229 0.703980 0.376768
O O6 0.992793 0.744847 0.113491
O O7 0.133971 0.603662 0.834147
O O8 0.316222 0.000000 0.055059
O O9 0.327838 0.105903 0.866373
O O10 0.052327 0.500000 0.561971
O O11 0.000000 0.663995 0.500000
#
# Coordination Sequence:
#
# PCOD8110474 Si02
#       6
#     4   8   4   4   4   8
#     4  12  28  41  65 109 134 178 234 284 333 405
#     4  12  26  44  70 100 140 176 230 287 338 407
#     4  11  22  45  74  94 132 193 213 278 350 412
#     4  10  21  43  68  97 140 176 224 279 335 414
#     4  11  21  43  71 100 133 176 234 267 350 405
#     4   9  21  44  72  98 135 188 222 273 349 412
#
# _framework density 20.076688000000001
#
# number of rings (size 3 to 8) (size 9 to 14) (size 15 to 20)
#    0.750    0.500    5.000    0.375    3.500    5.500 
#    0.000    0.000    0.000    0.000    0.000    0.000 
#    0.000    0.000    0.000    0.000    0.000    0.000 
#
# Total GULP energy -198370.507788 kJ/mol
# GULP energy per Si atom -12398.156737 kJ/mol
# Density = 2.003099 g / cm^3
# Si number density = 20.076688 Si / 1000 Ang^3
#
#
#
# Elastic Constant Matrix: (Units=GPa)
#
#
# Indices 1 2 3 4 5 6 
#
# 1 127.6686 64.4800 67.3963 0.0000 10.8996 0.0000
# 2 64.4800 134.5131 37.6914 0.0000 10.9270 0.0000
# 3 67.3963 37.6914 134.4763 0.0000 8.6414 0.0000
# 4 0.0000 0.0000 0.0000 -12.7878 0.0000 -3.0936
# 5 10.8996 10.9270 8.6414 0.0000 55.6751 0.0000
# 6 0.0000 0.0000 0.0000 -3.0936 0.0000 35.3541
#
#
#
# Elastic Compliance Matrix: (Units=1/GPa)
#
#
# Indices 1 2 3 4 5 6 
#
# 1 0.013003 -0.004726 -0.005139 0.000000 -0.000820 0.000000
# 2 -0.004726 0.009872 -0.000337 0.000000 -0.000960 0.000000
# 3 -0.005139 -0.000337 0.010139 0.000000 -0.000501 0.000000
# 4 0.000000 0.000000 0.000000 -0.076578 0.000000 -0.006701
# 5 -0.000820 -0.000960 -0.000501 0.000000 0.018388 0.000000
# 6 0.000000 0.000000 0.000000 -0.006701 0.000000 0.027699
#
#
# Mechanical properties :
#
#
# Convention : Reuss Voigt Hill
#
# Bulk Modulus (GPa) = 79.30787 81.75482 80.53135
# Shear Modulus (GPa) = 184.29903 30.78763 107.54333
#
# Velocity S-wave (km/s) = 9.59150 3.92024 7.32684
# Velocity P-wave (km/s) = 12.73776 7.82948 10.57240
#
# Compressibility (1/GPa) = 0.01260909
#
# Stress axis : x y z
#
# Youngs Moduli (GPa) = 76.90562 101.29520 98.63377
#
# Poissons Ratio (x) = 0.47876 0.50691
# Poissons Ratio (y) = 0.36348 0.03320
# Poissons Ratio (z) = 0.39524 0.03409
#
# Static dielectric constant tensor:
#      x y z
#    x 3.542060 0.000000 0.098210 
#    y 0.000000 3.544330 0.000000 
#    z 0.098210 0.000000 3.724940 
# 
# 
# High freq. dielectric constant tensor:
#      x y z
#    x 1.780590 0.000000 0.011390 
#    y 0.000000 1.778200 0.000000 
#    z 0.011390 0.000000 1.794990 
# 
# From -- ./inp_files/153201.got.cif
#   From: 2010.06.25/outbox.cif.g09.slc.cpg/sg12_77_cif.got.tgz:153201.got - 2010.06.28 00:19:55.
