data_PCOD8110726
_publ_section_title
;
Structure prediction by ZEFSAII (Michael W. Deem and Ramdas Pophale) SiO2 
 PCOD8110726
Probable space group: C 2/M
;
_chemical_formula_sum "Si O2"
_cell_formula_units_Z 40
_cell_length_a 13.128458
_cell_length_b 14.014276
_cell_length_c 12.004630
_cell_angle_alpha 90.000000
_cell_angle_beta 106.803530
_cell_angle_gamma 90.000000
_cell_volume 2114.374875
_symmetry_space_group_name_H-M "C 2/M"
_symmetry_group_IT_number 12
_symmetry_cell_setting 'monoclinic'
loop_
_space_group_symop_operation_xyz
x,y,z
-x,y,-z
-x,-y,-z
x,-y,z
1/2+x,1/2+y,z
1/2-x,1/2+y,-z
1/2-x,1/2-y,-z
1/2+x,1/2-y,z
loop_
_atom_site_type_symbol
_atom_site_label
_atom_site_fract_x
_atom_site_fract_y
_atom_site_fract_z
Si Si1 0.820447 0.500000 0.472130
Si Si2 0.865279 0.000000 0.756474
Si Si3 0.017378 0.661143 0.751055
Si Si4 0.528826 0.645848 0.879999
Si Si5 0.848659 0.500000 0.728225
Si Si6 0.710027 0.500000 0.897287
Si Si7 0.323156 0.000000 0.148123
Si Si8 0.500000 0.149164 0.500000
O O1 0.708749 0.500000 0.374559
O O2 0.789752 0.500000 0.591498
O O3 0.891495 0.410053 0.462101
O O4 0.797389 0.000000 0.847535
O O5 0.938805 0.906365 0.778695
O O6 0.034284 0.745444 0.843090
O O7 0.120882 0.594347 0.786955
O O8 0.001034 0.704401 0.619598
O O9 0.919224 0.595751 0.760335
O O10 0.641832 0.595588 0.895066
O O11 0.500000 0.640372 0.000000
O O12 0.755339 0.500000 0.787737
O O13 0.813180 0.500000 0.011098
#
# Coordination Sequence:
#
# PCOD8110726 Si02
#       8
#     4   4   8   8   4   4   4   4
#     4   9  16  36  65  82 110 152 190 230 283 335
#     4  11  19  41  62  82 107 159 198 225 285 341
#     4  10  22  37  60  90 115 146 188 240 285 334
#     4  11  24  40  56  83 119 152 192 237 281 338
#     4   9  22  40  58  86 118 146 185 240 287 332
#     4  11  23  42  57  81 119 153 192 235 284 340
#     4  11  20  36  66  85 107 154 196 231 283 344
#     4   9  16  36  60  87 116 142 188 239 278 333
#
# _framework density 18.918122
#
# number of rings (size 3 to 8) (size 9 to 14) (size 15 to 20)
#    0.000    1.800    4.000    1.800    2.800    3.200 
#    3.600    3.000    0.000    0.000    0.000    0.000 
#    0.000    0.000    0.000    0.000    0.000    0.000 
#
# Total GULP energy -247910.055189 kJ/mol
# GULP energy per Si atom -12395.502759 kJ/mol
# Density = 1.887506 g / cm^3
# Si number density = 18.918122 Si / 1000 Ang^3
#
#
#
# Elastic Constant Matrix: (Units=GPa)
#
#
# Indices 1 2 3 4 5 6 
#
# 1 87.1016 27.2897 50.1188 0.0000 -11.7614 0.0000
# 2 27.2897 99.5826 35.1807 0.0000 -0.7705 0.0000
# 3 50.1188 35.1807 132.7510 0.0000 -0.5838 0.0000
# 4 0.0000 0.0000 0.0000 15.1453 0.0000 -2.9657
# 5 -11.7614 -0.7705 -0.5838 0.0000 42.4731 0.0000
# 6 0.0000 0.0000 0.0000 -2.9657 0.0000 -2.0954
#
#
#
# Elastic Compliance Matrix: (Units=1/GPa)
#
#
# Indices 1 2 3 4 5 6 
#
# 1 0.015893 -0.002437 -0.005335 0.000000 0.004283 0.000000
# 2 -0.002437 0.011454 -0.002117 0.000000 -0.000496 0.000000
# 3 -0.005335 -0.002117 0.010102 0.000000 -0.001377 0.000000
# 4 0.000000 0.000000 0.000000 0.051699 0.000000 -0.073172
# 5 0.004283 -0.000496 -0.001377 0.000000 0.024703 0.000000
# 6 0.000000 0.000000 0.000000 -0.073172 0.000000 -0.373679
#
#
# Mechanical properties :
#
#
# Convention : Reuss Voigt Hill
#
# Bulk Modulus (GPa) = 56.59658 60.51262 58.55460
# Shear Modulus (GPa) = -21.35308 24.89435 1.77063
#
# Velocity S-wave (km/s) = -3.36327 3.63147 0.96849
# Velocity P-wave (km/s) = 3.85997 7.04553 5.68062
#
# Compressibility (1/GPa) = 0.01766891
#
# Stress axis : x y z
#
# Youngs Moduli (GPa) = 62.92109 87.30542 98.98673
#
# Poissons Ratio (x) = 0.21278 0.52814
# Poissons Ratio (y) = 0.15335 0.20960
# Poissons Ratio (z) = 0.33571 0.18487
#
# Static dielectric constant tensor:
#      x y z
#    x 3.337480 0.000000 -0.000700 
#    y 0.000000 3.243920 0.000000 
#    z -0.000700 0.000000 3.617560 
# 
# 
# High freq. dielectric constant tensor:
#      x y z
#    x 1.730430 0.000000 0.000780 
#    y 0.000000 1.709250 0.000000 
#    z 0.000780 0.000000 1.754180 
# 
# From -- ./inp_files/129884.got.cif
#   From: 2010.06.25/outbox.cif.g09.slc.cpg/sg12_65_cif.got.tgz:129884.got - 2010.06.28 00:19:55.
