data_PCOD8110818
_publ_section_title
;
Structure prediction by ZEFSAII (Michael W. Deem and Ramdas Pophale) SiO2 
 PCOD8110818
Probable space group: C 2/M
;
_chemical_formula_sum "Si O2"
_cell_formula_units_Z 56
_cell_length_a 9.769242
_cell_length_b 13.868726
_cell_length_c 24.763161
_cell_angle_alpha 90.000000
_cell_angle_beta 53.745820
_cell_angle_gamma 90.000000
_cell_volume 2705.545390
_symmetry_space_group_name_H-M "C 2/M"
_symmetry_group_IT_number 12
_symmetry_cell_setting 'monoclinic'
loop_
_space_group_symop_operation_xyz
x,y,z
-x,y,-z
-x,-y,-z
x,-y,z
1/2+x,1/2+y,z
1/2-x,1/2+y,-z
1/2-x,1/2-y,-z
1/2+x,1/2-y,z
loop_
_atom_site_type_symbol
_atom_site_label
_atom_site_fract_x
_atom_site_fract_y
_atom_site_fract_z
Si Si1 0.470747 0.113605 0.300173
Si Si2 0.131789 0.886576 0.318483
Si Si3 0.266449 0.385374 0.435264
Si Si4 0.274772 0.259683 0.801058
Si Si5 0.113171 0.227814 0.109154
Si Si6 0.829121 0.888327 0.007581
Si Si7 0.488740 0.114582 0.417327
O O1 0.285253 0.141925 0.321901
O O2 0.614787 0.162333 0.230007
O O3 0.486115 0.155868 0.357289
O O4 0.502384 0.000000 0.289715
O O5 0.152040 0.841712 0.254749
O O6 0.958972 0.846643 0.386588
O O7 0.120631 0.000000 0.311926
O O8 0.265140 0.500000 0.436794
O O9 0.176377 0.347498 0.511134
O O10 0.159759 0.350789 0.407673
O O11 0.284024 0.296499 0.860427
O O12 0.083187 0.235960 0.829944
O O13 0.174945 0.328605 0.069168
O O14 0.145530 0.140070 0.060664
O O15 0.780599 0.000000 0.022878
O O16 0.000000 0.863725 0.000000
O O17 0.481893 0.000000 0.415806
#
# Coordination Sequence:
#
# PCOD8110818 Si02
#       7
#     8   8   8   8   8   8   8
#     4  10  22  38  58  85 117 159 206 248 299 361
#     4  10  22  38  57  85 119 157 203 253 301 353
#     4   8  15  30  53  81 114 151 197 256 309 352
#     4  12  24  41  60  89 129 163 195 240 298 351
#     4  11  24  42  65  94 126 160 194 240 291 347
#     4  10  22  43  71  98 123 156 198 239 285 346
#     4   8  15  30  53  81 113 152 199 252 308 359
#
# _framework density 20.698231
#
# number of rings (size 3 to 8) (size 9 to 14) (size 15 to 20)
#    0.000    2.143    2.857    0.857    2.000    2.857 
#    0.000    4.286    0.000    0.000    0.000    0.000 
#    0.000    0.000    0.000    0.000    0.000    0.000 
#
# Total GULP energy -347264.333698 kJ/mol
# GULP energy per Si atom -12402.297632 kJ/mol
# Density = 2.065112 g / cm^3
# Si number density = 20.698231 Si / 1000 Ang^3
#
#
#
# Elastic Constant Matrix: (Units=GPa)
#
#
# Indices 1 2 3 4 5 6 
#
# 1 91.1855 25.0532 37.4739 0.0000 -5.6583 0.0000
# 2 25.0532 48.7871 19.7925 0.0000 -6.2751 0.0000
# 3 37.4739 19.7925 101.5896 -0.0001 -1.1912 0.0000
# 4 0.0000 0.0000 -0.0001 22.4836 0.0000 0.8919
# 5 -5.6583 -6.2751 -1.1912 0.0000 52.7988 0.0000
# 6 0.0000 0.0000 0.0000 0.8919 0.0000 21.8632
#
#
#
# Elastic Compliance Matrix: (Units=1/GPa)
#
#
# Indices 1 2 3 4 5 6 
#
# 1 0.014246 -0.005524 -0.004170 0.000000 0.000776 0.000000
# 2 -0.005524 0.024747 -0.002757 0.000000 0.002287 0.000000
# 3 -0.004170 -0.002757 0.011913 0.000000 -0.000506 0.000000
# 4 0.000000 0.000000 0.000000 0.044549 0.000000 -0.001817
# 5 0.000776 0.002287 -0.000506 0.000000 0.019283 0.000000
# 6 0.000000 0.000000 0.000000 -0.001817 0.000000 0.045813
#
#
# Mechanical properties :
#
#
# Convention : Reuss Voigt Hill
#
# Bulk Modulus (GPa) = 38.45543 45.13350 41.79446
# Shear Modulus (GPa) = 25.75721 30.04530 27.90125
#
# Velocity S-wave (km/s) = 3.53145 3.81410 3.67550
# Velocity P-wave (km/s) = 5.93697 6.42257 6.18454
#
# Compressibility (1/GPa) = 0.02600413
#
# Stress axis : x y z
#
# Youngs Moduli (GPa) = 70.19411 40.40963 83.94342
#
# Poissons Ratio (x) = 0.22323 0.35002
# Poissons Ratio (y) = 0.38777 0.23141
# Poissons Ratio (z) = 0.29269 0.11140
#
# Static dielectric constant tensor:
#      x y z
#    x 3.899420 0.000000 -0.000250 
#    y 0.000000 3.444730 0.000000 
#    z -0.000250 0.000000 3.921950 
# 
# 
# High freq. dielectric constant tensor:
#      x y z
#    x 1.815560 0.000000 0.000480 
#    y 0.000000 1.798280 0.000000 
#    z 0.000480 0.000000 1.816500 
# 
# From -- ./inp_files/300150.got.cif
#   From: 2010.06.25/outbox.cif.g09.slc.cpg/sg12_151_cif.got.tgz:300150.got - 2010.06.28 00:19:55.
