data_PCOD8110555
_publ_section_title
;
Structure prediction by ZEFSAII (Michael W. Deem and Ramdas Pophale) SiO2 
 PCOD8110555
Probable space group: C 2/M
;
_chemical_formula_sum "Si O2"
_cell_formula_units_Z 36
_cell_length_a 9.346518
_cell_length_b 17.745565
_cell_length_c 11.146599
_cell_angle_alpha 90.000000
_cell_angle_beta 78.480883
_cell_angle_gamma 90.000000
_cell_volume 1811.528855
_symmetry_space_group_name_H-M "C 2/M"
_symmetry_group_IT_number 12
_symmetry_cell_setting 'monoclinic'
loop_
_space_group_symop_operation_xyz
x,y,z
-x,y,-z
-x,-y,-z
x,-y,z
1/2+x,1/2+y,z
1/2-x,1/2+y,-z
1/2-x,1/2-y,-z
1/2+x,1/2-y,z
loop_
_atom_site_type_symbol
_atom_site_label
_atom_site_fract_x
_atom_site_fract_y
_atom_site_fract_z
Si Si1 0.855075 0.638644 0.194802
Si Si2 0.000000 0.252120 0.000000
Si Si3 0.453126 0.000000 0.872406
Si Si4 0.969389 0.141830 0.786712
Si Si5 0.889193 0.000000 0.128693
Si Si6 0.900546 0.741773 0.410930
O O1 0.876626 0.691846 0.073947
O O2 0.690101 0.606963 0.215165
O O3 0.879690 0.683487 0.310295
O O4 0.975265 0.574311 0.193905
O O5 0.944554 0.199986 0.900691
O O6 0.278338 0.000000 0.886585
O O7 0.500000 0.000000 0.000000
O O8 0.033548 0.181553 0.657264
O O9 0.081731 0.075184 0.799553
O O10 0.000000 0.000000 0.000000
O O11 0.750000 0.750000 0.500000
O O12 0.000000 0.709255 0.500000
#
# Coordination Sequence:
#
# PCOD8110555 Si02
#       6
#     8   4   4   8   4   8
#     4  11  23  41  67  96 133 171 217 269 329 388
#     4  10  22  34  68  98 130 160 220 262 336 380
#     4  12  26  42  64  96 138 173 214 267 332 394
#     4  11  23  41  67  96 133 172 216 268 331 386
#     4  12  26  42  64  96 138 172 216 265 332 399
#     4  11  24  45  70  97 130 172 225 274 320 381
#
# _framework density 19.872716
#
# number of rings (size 3 to 8) (size 9 to 14) (size 15 to 20)
#    0.000    0.889    4.444    2.667    3.111    1.778 
#    0.000    2.222    0.000    0.000    0.000    0.000 
#    0.000    0.000    0.000    0.000    0.000    0.000 
#
# Total GULP energy -223093.391195 kJ/mol
# GULP energy per Si atom -12394.077289 kJ/mol
# Density = 1.982748 g / cm^3
# Si number density = 19.872716 Si / 1000 Ang^3
#
#
#
# Elastic Constant Matrix: (Units=GPa)
#
#
# Indices 1 2 3 4 5 6 
#
# 1 185.2178 49.9544 48.4669 0.0000 -16.5091 0.0000
# 2 49.9544 102.8713 39.0090 0.0000 -10.2048 0.0000
# 3 48.4669 39.0090 122.8713 0.0000 -10.1152 0.0000
# 4 0.0000 0.0000 0.0000 9.9257 0.0000 -5.7703
# 5 -16.5091 -10.2048 -10.1152 0.0000 31.9793 0.0000
# 6 0.0000 0.0000 0.0000 -5.7703 0.0000 31.1899
#
#
#
# Elastic Compliance Matrix: (Units=1/GPa)
#
#
# Indices 1 2 3 4 5 6 
#
# 1 0.006679 -0.002385 -0.001700 0.000000 0.002149 0.000000
# 2 -0.002385 0.012098 -0.002755 0.000000 0.001758 0.000000
# 3 -0.001700 -0.002755 0.009794 0.000000 0.001341 0.000000
# 4 0.000000 0.000000 0.000000 0.112890 0.000000 0.020885
# 5 0.002149 0.001758 0.001341 0.000000 0.033365 0.000000
# 6 0.000000 0.000000 0.000000 0.020885 0.000000 0.035926
#
#
# Mechanical properties :
#
#
# Convention : Reuss Voigt Hill
#
# Bulk Modulus (GPa) = 67.16047 76.20233 71.68140
# Shear Modulus (GPa) = 21.79621 32.85433 27.32527
#
# Velocity S-wave (km/s) = 3.31538 4.07041 3.71214
# Velocity P-wave (km/s) = 6.96594 7.77943 7.38389
#
# Compressibility (1/GPa) = 0.01488971
#
# Stress axis : x y z
#
# Youngs Moduli (GPa) = 149.72627 82.65542 102.09862
#
# Poissons Ratio (x) = 0.19716 0.17360
# Poissons Ratio (y) = 0.35715 0.28132
# Poissons Ratio (z) = 0.25458 0.22775
#
# Static dielectric constant tensor:
#      x y z
#    x 3.647900 0.000000 0.262610 
#    y 0.000000 3.570130 0.000000 
#    z 0.262610 0.000000 4.304990 
# 
# 
# High freq. dielectric constant tensor:
#      x y z
#    x 1.788200 0.000000 -0.003310 
#    y 0.000000 1.770910 0.000000 
#    z -0.003310 0.000000 1.779070 
# 
# From -- ./inp_files/118811.got.cif
#   From: 2010.06.25/outbox.cif.g09.slc.cpg/sg12_60_cif.got.tgz:118811.got - 2010.06.28 00:19:55.
