data_PCOD8110094
_publ_section_title
;
Structure prediction by ZEFSAII (Michael W. Deem and Ramdas Pophale) SiO2 
 PCOD8110094
Probable space group: C 2/M
;
_chemical_formula_sum "Si O2"
_cell_formula_units_Z 40
_cell_length_a 10.224858
_cell_length_b 14.513038
_cell_length_c 13.133829
_cell_angle_alpha 90.000000
_cell_angle_beta 88.126597
_cell_angle_gamma 90.000000
_cell_volume 1947.936442
_symmetry_space_group_name_H-M "C 2/M"
_symmetry_group_IT_number 12
_symmetry_cell_setting 'monoclinic'
loop_
_space_group_symop_operation_xyz
x,y,z
-x,y,-z
-x,-y,-z
x,-y,z
1/2+x,1/2+y,z
1/2-x,1/2+y,-z
1/2-x,1/2-y,-z
1/2+x,1/2-y,z
loop_
_atom_site_type_symbol
_atom_site_label
_atom_site_fract_x
_atom_site_fract_y
_atom_site_fract_z
Si Si1 0.113080 0.890583 0.424919
Si Si2 0.880967 0.262213 0.933110
Si Si3 0.283511 0.107648 0.764255
Si Si4 0.977540 0.892839 0.791600
Si Si5 0.360428 0.109599 0.538500
O O1 0.092205 0.858364 0.309907
O O2 0.251724 0.852843 0.462265
O O3 0.000000 0.849296 0.500000
O O4 0.106584 0.000000 0.430477
O O5 0.865403 0.338348 0.846431
O O6 0.915502 0.162645 0.886058
O O7 0.750000 0.250000 0.000000
O O8 0.000000 0.296907 0.000000
O O9 0.329081 0.144160 0.652818
O O10 0.130724 0.128013 0.780116
O O11 0.314565 0.000000 0.776332
O O12 0.950425 0.000000 0.813059
O O13 0.500000 0.149488 0.500000
O O14 0.359411 0.000000 0.536634
#
# Coordination Sequence:
#
# PCOD8110094 Si02
#       5
#     8   8   8   8   8
#     4   9  15  29  58  91 120 157 202 242 289 364
#     4  12  26  44  64  91 124 157 208 276 320 353
#     4  10  21  41  67  92 124 167 207 248 309 375
#     4  10  21  40  68  94 121 165 213 248 299 380
#     4   9  17  31  56  92 130 160 192 244 305 361
#
# _framework density 20.534551
#
# number of rings (size 3 to 8) (size 9 to 14) (size 15 to 20)
#    0.000    2.000    4.000    0.000    0.000    3.200 
#    0.000    4.000    0.000    0.000    0.000    0.000 
#    0.000    0.000    0.000    0.000    0.000    0.000 
#
# Total GULP energy -248040.383584 kJ/mol
# GULP energy per Si atom -12402.019179 kJ/mol
# Density = 2.048781 g / cm^3
# Si number density = 20.534551 Si / 1000 Ang^3
#
#
#
# Elastic Constant Matrix: (Units=GPa)
#
#
# Indices 1 2 3 4 5 6 
#
# 1 164.0716 36.3411 84.5638 0.0000 9.6853 0.0000
# 2 36.3411 61.3075 47.9902 0.0000 4.6210 0.0000
# 3 84.5638 47.9902 151.3027 0.0000 14.4171 0.0000
# 4 0.0000 0.0000 0.0000 16.5614 0.0000 9.9490
# 5 9.6853 4.6210 14.4171 0.0000 52.2327 0.0000
# 6 0.0000 0.0000 0.0000 9.9490 0.0000 10.7349
#
#
#
# Elastic Compliance Matrix: (Units=1/GPa)
#
#
# Indices 1 2 3 4 5 6 
#
# 1 0.008712 -0.001799 -0.004272 0.000000 -0.000277 0.000000
# 2 -0.001799 0.022070 -0.005998 0.000000 0.000037 0.000000
# 3 -0.004272 -0.005998 0.011064 0.000000 -0.001731 0.000000
# 4 0.000000 0.000000 0.000000 0.136227 0.000000 -0.126254
# 5 -0.000277 0.000037 -0.001731 0.000000 0.019671 0.000000
# 6 0.000000 0.000000 0.000000 -0.126254 0.000000 0.210164
#
#
# Mechanical properties :
#
#
# Convention : Reuss Voigt Hill
#
# Bulk Modulus (GPa) = 56.47273 79.38579 67.92926
# Shear Modulus (GPa) = 11.41686 29.75823 20.58754
#
# Velocity S-wave (km/s) = 2.36049 3.81094 3.16979
# Velocity P-wave (km/s) = 5.91525 7.62285 6.82269
#
# Compressibility (1/GPa) = 0.01770766
#
# Stress axis : x y z
#
# Youngs Moduli (GPa) = 114.79079 45.31007 90.38077
#
# Poissons Ratio (x) = 0.08152 0.38609
# Poissons Ratio (y) = 0.20652 0.54212
# Poissons Ratio (z) = 0.49037 0.27178
#
# Static dielectric constant tensor:
#      x y z
#    x 3.900790 0.000000 0.119620 
#    y 0.000000 3.413480 0.000000 
#    z 0.119620 0.000000 3.839240 
# 
# 
# High freq. dielectric constant tensor:
#      x y z
#    x 1.808630 0.000000 0.005950 
#    y 0.000000 1.789870 0.000000 
#    z 0.005950 0.000000 1.811150 
# 
# From -- ./inp_files/119062.got.cif
#   From: 2010.06.25/outbox.cif.g09.slc.cpg/sg12_60_cif.got.tgz:119062.got - 2010.06.28 00:19:55.
