data_PCOD8110233
_publ_section_title
;
Structure prediction by ZEFSAII (Michael W. Deem and Ramdas Pophale) SiO2 
 PCOD8110233
Probable space group: C 2/M
;
_chemical_formula_sum "Si O2"
_cell_formula_units_Z 56
_cell_length_a 14.669314
_cell_length_b 17.484434
_cell_length_c 17.566244
_cell_angle_alpha 90.000000
_cell_angle_beta 141.292763
_cell_angle_gamma 90.000000
_cell_volume 2817.457381
_symmetry_space_group_name_H-M "C 2/M"
_symmetry_group_IT_number 12
_symmetry_cell_setting 'monoclinic'
loop_
_space_group_symop_operation_xyz
x,y,z
-x,y,-z
-x,-y,-z
x,-y,z
1/2+x,1/2+y,z
1/2-x,1/2+y,-z
1/2-x,1/2-y,-z
1/2+x,1/2-y,z
loop_
_atom_site_type_symbol
_atom_site_label
_atom_site_fract_x
_atom_site_fract_y
_atom_site_fract_z
Si Si1 0.381865 0.229029 0.030646
Si Si2 0.451675 0.915695 0.808019
Si Si3 0.118392 0.913957 0.641092
Si Si4 0.838178 0.212401 0.721132
Si Si5 0.854737 0.411388 0.455805
Si Si6 0.431367 0.825329 0.654667
Si Si7 0.311837 0.272864 0.235039
O O1 0.447514 0.144245 0.082424
O O2 0.505938 0.290260 0.134649
O O3 0.250000 0.250000 0.000000
O O4 0.333962 0.229912 0.911384
O O5 0.282069 0.907838 0.716745
O O6 0.466426 0.899636 0.727994
O O7 0.511083 0.000000 0.865715
O O8 0.109294 0.856413 0.708007
O O9 0.000000 0.890421 0.500000
O O10 0.084100 0.000000 0.647295
O O11 0.785332 0.124581 0.678065
O O12 0.839788 0.262309 0.643687
O O13 0.722397 0.253740 0.700067
O O14 0.825484 0.500000 0.456152
O O15 0.855172 0.357684 0.530295
O O16 0.000000 0.402627 0.500000
O O17 0.583891 0.788631 0.733360
#
# Coordination Sequence:
#
# PCOD8110233 Si02
#       7
#     8   8   8   8   8   8   8
#     4  11  22  42  62  95 125 166 216 264 305 373
#     4  10  21  41  65  92 127 167 209 259 320 375
#     4  10  23  40  61  96 133 162 201 257 322 383
#     4  11  23  41  66  94 125 166 213 258 320 371
#     4  11  24  42  65  96 130 166 212 263 317 378
#     4  11  22  40  67  95 124 166 213 258 316 382
#     4  12  22  39  68  90 129 166 215 260 310 375
#
# _framework density 19.876078
#
# number of rings (size 3 to 8) (size 9 to 14) (size 15 to 20)
#    0.000    1.143    7.143    1.286    2.000    1.714 
#    0.000    4.286    0.000    0.857    0.000    0.000 
#    0.000    0.000    0.000    0.000    0.000    0.000 
#
# Total GULP energy -346948.533795 kJ/mol
# GULP energy per Si atom -12391.019064 kJ/mol
# Density = 1.983084 g / cm^3
# Si number density = 19.876078 Si / 1000 Ang^3
#
#
#
# Elastic Constant Matrix: (Units=GPa)
#
#
# Indices 1 2 3 4 5 6 
#
# 1 73.5753 29.2221 18.8844 0.0005 0.5335 -0.0001
# 2 29.2221 112.3997 74.4755 0.0009 12.9062 0.0000
# 3 18.8844 74.4755 113.3074 -0.0001 0.4657 -0.0003
# 4 0.0005 0.0009 -0.0001 31.3036 -0.0001 8.0000
# 5 0.5335 12.9062 0.4657 -0.0001 29.4079 -0.0002
# 6 -0.0001 0.0000 -0.0003 8.0000 -0.0002 18.4237
#
#
#
# Elastic Compliance Matrix: (Units=1/GPa)
#
#
# Indices 1 2 3 4 5 6 
#
# 1 0.015229 -0.004359 0.000320 0.000000 0.001632 0.000000
# 2 -0.004359 0.018474 -0.011384 0.000000 -0.007848 0.000000
# 3 0.000320 -0.011384 0.016235 0.000000 0.004733 0.000000
# 4 0.000000 0.000000 0.000000 0.035933 0.000000 -0.015603
# 5 0.001632 -0.007848 0.004733 0.000000 0.037344 0.000000
# 6 0.000000 0.000000 0.000000 -0.015603 0.000000 0.061053
#
#
# Mechanical properties :
#
#
# Convention : Reuss Voigt Hill
#
# Bulk Modulus (GPa) = 52.37561 60.49406 56.43484
# Shear Modulus (GPa) = 22.57556 27.60706 25.09131
#
# Velocity S-wave (km/s) = 3.37384 3.73092 3.55686
# Velocity P-wave (km/s) = 6.44867 7.00438 6.73226
#
# Compressibility (1/GPa) = 0.01909286
#
# Stress axis : x y z
#
# Youngs Moduli (GPa) = 65.66566 54.12908 61.59345
#
# Poissons Ratio (x) = 0.23593 -0.01971
# Poissons Ratio (y) = 0.28621 0.70120
# Poissons Ratio (z) = -0.02102 0.61622
#
# Static dielectric constant tensor:
#      x y z
#    x 3.666740 0.000000 -0.006360 
#    y 0.000000 3.889820 0.000000 
#    z -0.006360 0.000000 3.634160 
# 
# 
# High freq. dielectric constant tensor:
#      x y z
#    x 1.776160 0.000000 -0.000640 
#    y 0.000000 1.772910 0.000000 
#    z -0.000640 0.000000 1.774680 
# 
# From -- ./inp_files/271443.got.cif
#   From: 2010.06.25/outbox.cif.g09.slc.cpg/sg12_136_cif.got.tgz:271443.got - 2010.06.28 00:19:55.
