data_PCOD8110893
_publ_section_title
;
Structure prediction by ZEFSAII (Michael W. Deem and Ramdas Pophale) SiO2 
 PCOD8110893
Probable space group: C 2/M
;
_chemical_formula_sum "Si O2"
_cell_formula_units_Z 56
_cell_length_a 26.037781
_cell_length_b 14.038459
_cell_length_c 8.470086
_cell_angle_alpha 90.000000
_cell_angle_beta 64.045000
_cell_angle_gamma 90.000000
_cell_volume 2783.797315
_symmetry_space_group_name_H-M "C 2/M"
_symmetry_group_IT_number 12
_symmetry_cell_setting 'monoclinic'
loop_
_space_group_symop_operation_xyz
x,y,z
-x,y,-z
-x,-y,-z
x,-y,z
1/2+x,1/2+y,z
1/2-x,1/2+y,-z
1/2-x,1/2-y,-z
1/2+x,1/2-y,z
loop_
_atom_site_type_symbol
_atom_site_label
_atom_site_fract_x
_atom_site_fract_y
_atom_site_fract_z
Si Si1 0.977573 0.889847 0.360015
Si Si2 0.043428 0.740144 0.067342
Si Si3 0.737455 0.260519 0.199191
Si Si4 0.942633 0.610620 0.659431
Si Si5 0.841048 0.611319 0.555959
Si Si6 0.656131 0.756526 0.734814
Si Si7 0.343597 0.389362 0.520388
O O1 0.910429 0.868473 0.449815
O O2 0.000000 0.858488 0.500000
O O3 0.011105 0.830952 0.183279
O O4 0.990450 0.000000 0.307802
O O5 0.064552 0.664225 0.166367
O O6 0.099922 0.776054 0.903263
O O7 0.000000 0.691737 0.000000
O O8 0.715665 0.160153 0.298548
O O9 0.795270 0.290130 0.210217
O O10 0.690236 0.343823 0.286047
O O11 0.750000 0.250000 0.000000
O O12 0.946427 0.500000 0.695552
O O13 0.891272 0.633600 0.611290
O O14 0.000000 0.647739 0.500000
O O15 0.829825 0.500000 0.549081
O O16 0.857937 0.656029 0.364380
O O17 0.678334 0.664810 0.606724
O O18 0.328866 0.500000 0.527578
#
# Coordination Sequence:
#
# PCOD8110893 Si02
#       7
#     8   8   8   8   8   8   8
#     4  10  23  40  63  94 125 164 210 249 302 374
#     4  12  23  37  63  92 130 167 196 253 317 357
#     4  11  25  41  62  94 125 156 208 256 307 372
#     4  10  22  38  60  88 118 160 209 251 298 364
#     4  10  22  43  65  86 121 165 207 254 308 362
#     4  11  24  39  61  96 123 160 207 254 305 368
#     4  10  22  43  65  89 125 165 204 252 306 362
#
# _framework density 20.116408
#
# number of rings (size 3 to 8) (size 9 to 14) (size 15 to 20)
#    0.000    1.429    1.429    3.857    8.000    4.571 
#    0.000    0.000    0.000    0.000    0.000    0.000 
#    0.000    0.000    0.000    0.000    0.000    0.000 
#
# Total GULP energy -347303.632422 kJ/mol
# GULP energy per Si atom -12403.701158 kJ/mol
# Density = 2.007062 g / cm^3
# Si number density = 20.116408 Si / 1000 Ang^3
#
#
#
# Elastic Constant Matrix: (Units=GPa)
#
#
# Indices 1 2 3 4 5 6 
#
# 1 111.5844 44.2419 51.7601 0.0000 9.6602 0.0000
# 2 44.2419 126.0068 58.8479 0.0000 5.2244 0.0000
# 3 51.7601 58.8479 146.3116 0.0000 0.4063 0.0000
# 4 0.0000 0.0000 0.0000 15.6248 0.0000 -1.6659
# 5 9.6602 5.2244 0.4063 0.0000 38.9762 0.0000
# 6 0.0000 0.0000 0.0000 -1.6659 0.0000 27.9169
#
#
#
# Elastic Compliance Matrix: (Units=1/GPa)
#
#
# Indices 1 2 3 4 5 6 
#
# 1 0.011613 -0.002534 -0.003082 0.000000 -0.002507 0.000000
# 2 -0.002534 0.010388 -0.003280 0.000000 -0.000730 0.000000
# 3 -0.003082 -0.003280 0.009241 0.000000 0.001107 0.000000
# 4 0.000000 0.000000 0.000000 0.064410 0.000000 0.003844
# 5 -0.002507 -0.000730 0.001107 0.000000 0.026364 0.000000
# 6 0.000000 0.000000 0.000000 0.003844 0.000000 0.036050
#
#
# Mechanical properties :
#
#
# Convention : Reuss Voigt Hill
#
# Bulk Modulus (GPa) = 74.34714 77.06694 75.70704
# Shear Modulus (GPa) = 27.72511 31.77378 29.74945
#
# Velocity S-wave (km/s) = 3.71648 3.97860 3.84977
# Velocity P-wave (km/s) = 7.44681 7.71358 7.58137
#
# Compressibility (1/GPa) = 0.01345042
#
# Stress axis : x y z
#
# Youngs Moduli (GPa) = 86.10822 96.26765 108.21257
#
# Poissons Ratio (x) = 0.24396 0.33353
# Poissons Ratio (y) = 0.21821 0.35488
# Poissons Ratio (z) = 0.26540 0.31571
#
# Static dielectric constant tensor:
#      x y z
#    x 3.811520 0.000000 0.007220 
#    y 0.000000 3.587430 0.000000 
#    z 0.007220 0.000000 3.705760 
# 
# 
# High freq. dielectric constant tensor:
#      x y z
#    x 1.800170 0.000000 -0.000280 
#    y 0.000000 1.782290 0.000000 
#    z -0.000280 0.000000 1.789550 
# 
# From -- ./inp_files/96784.got.cif
#   From: 2010.06.25/outbox.cif.g09.slc.cpg/sg12_49_cif.got.tgz:96784.got - 2010.06.28 00:19:55.
