data_PCOD8110038
_publ_section_title
;
Structure prediction by ZEFSAII (Michael W. Deem and Ramdas Pophale) SiO2 
 PCOD8110038
Probable space group: C 2/M
;
_chemical_formula_sum "Si O2"
_cell_formula_units_Z 56
_cell_length_a 18.451178
_cell_length_b 8.779561
_cell_length_c 18.138096
_cell_angle_alpha 90.000000
_cell_angle_beta 111.512473
_cell_angle_gamma 90.000000
_cell_volume 2733.563984
_symmetry_space_group_name_H-M "C 2/M"
_symmetry_group_IT_number 12
_symmetry_cell_setting 'monoclinic'
loop_
_space_group_symop_operation_xyz
x,y,z
-x,y,-z
-x,-y,-z
x,-y,z
1/2+x,1/2+y,z
1/2-x,1/2+y,-z
1/2-x,1/2-y,-z
1/2+x,1/2-y,z
loop_
_atom_site_type_symbol
_atom_site_label
_atom_site_fract_x
_atom_site_fract_y
_atom_site_fract_z
Si Si1 0.779366 0.322520 0.436246
Si Si2 0.417998 0.176724 0.005770
Si Si3 0.928882 0.830541 0.527504
Si Si4 0.673196 0.179363 0.274119
Si Si5 0.785902 0.821882 0.864057
Si Si6 0.972374 0.820953 0.707454
Si Si7 0.889384 0.675623 0.163489
O O1 0.762675 0.500000 0.429254
O O2 0.750000 0.250000 0.500000
O O3 0.870628 0.286737 0.466554
O O4 0.736667 0.250723 0.351288
O O5 0.421499 0.208906 0.093925
O O6 0.399445 0.000000 0.982150
O O7 0.500000 0.224768 0.000000
O O8 0.349295 0.281197 0.949115
O O9 0.953974 0.769481 0.617103
O O10 0.000000 0.839981 0.500000
O O11 0.891587 0.000000 0.521759
O O12 0.696100 0.222517 0.200479
O O13 0.586954 0.238932 0.259377
O O14 0.673905 0.000000 0.283847
O O15 0.700917 0.776998 0.863360
O O16 0.790821 0.000000 0.846599
O O17 0.060203 0.773100 0.760018
O O18 0.963213 0.000000 0.713406
O O19 0.900187 0.500000 0.188408
#
# Coordination Sequence:
#
# PCOD8110038 Si02
#       7
#     8   8   8   8   8   8   8
#     4  12  24  41  65  94 125 164 212 262 316 373
#     4  10  21  40  66  94 125 167 212 254 309 374
#     4  10  23  42  63  91 128 166 210 261 316 377
#     4  12  25  42  65  90 124 167 211 262 317 373
#     4  11  24  41  63  95 130 165 209 261 309 367
#     4  11  23  40  64  93 126 164 210 261 313 376
#     4  10  23  41  62  92 133 170 206 255 311 372
#
# _framework density 20.486076000000001
#
# number of rings (size 3 to 8) (size 9 to 14) (size 15 to 20)
#    0.000    1.143    1.429    4.714    2.000    4.000 
#    0.000    0.000    0.000    0.000    0.000    0.000 
#    0.000    0.000    0.000    0.000    0.000    0.000 
#
# Total GULP energy -347348.309964 kJ/mol
# GULP energy per Si atom -12405.296784 kJ/mol
# Density = 2.043945 g / cm^3
# Si number density = 20.486076 Si / 1000 Ang^3
#
#
#
# Elastic Constant Matrix: (Units=GPa)
#
#
# Indices 1 2 3 4 5 6 
#
# 1 122.9144 41.2520 34.8866 0.0000 9.7572 0.0000
# 2 41.2520 111.3873 37.1374 0.0000 12.3301 0.0000
# 3 34.8866 37.1374 84.4066 0.0000 15.2790 0.0000
# 4 0.0000 0.0000 0.0000 38.7109 0.0000 0.2235
# 5 9.7572 12.3301 15.2790 0.0000 41.9179 0.0000
# 6 0.0000 0.0000 0.0000 0.2235 0.0000 69.7798
#
#
#
# Elastic Compliance Matrix: (Units=1/GPa)
#
#
# Indices 1 2 3 4 5 6 
#
# 1 0.009868 -0.002660 -0.002820 0.000000 -0.000486 0.000000
# 2 -0.002660 0.011328 -0.003633 0.000000 -0.001389 0.000000
# 3 -0.002820 -0.003633 0.015309 0.000000 -0.003855 0.000000
# 4 0.000000 0.000000 0.000000 0.025833 0.000000 -0.000083
# 5 -0.000486 -0.001389 -0.003855 0.000000 0.025783 0.000000
# 6 0.000000 0.000000 0.000000 -0.000083 0.000000 0.014331
#
#
# Mechanical properties :
#
#
# Convention : Reuss Voigt Hill
#
# Bulk Modulus (GPa) = 54.71056 60.58449 57.64752
# Shear Modulus (GPa) = 39.44105 43.77721 41.60913
#
# Velocity S-wave (km/s) = 4.39254 4.62770 4.51165
# Velocity P-wave (km/s) = 7.24500 7.62836 7.43915
#
# Compressibility (1/GPa) = 0.01827801
#
# Stress axis : x y z
#
# Youngs Moduli (GPa) = 101.34185 88.27679 65.31991
#
# Poissons Ratio (x) = 0.23486 0.18419
# Poissons Ratio (y) = 0.26961 0.23732
# Poissons Ratio (z) = 0.28577 0.32072
#
# Static dielectric constant tensor:
#      x y z
#    x 5.558160 0.000000 1.709950 
#    y 0.000000 3.990300 0.000000 
#    z 1.709950 0.000000 5.358690 
# 
# 
# High freq. dielectric constant tensor:
#      x y z
#    x 1.813210 0.000000 0.002260 
#    y 0.000000 1.802580 0.000000 
#    z 0.002260 0.000000 1.811590 
# 
# From -- ./inp_files/275306.got.cif
#   From: 2010.06.25/outbox.cif.g09.slc.cpg/sg12_138_cif.got.tgz:275306.got - 2010.06.28 00:19:55.
