data_PCOD8110428
_publ_section_title
;
Structure prediction by ZEFSAII (Michael W. Deem and Ramdas Pophale) SiO2 
 PCOD8110428
Probable space group: C 2/M
;
_chemical_formula_sum "Si O2"
_cell_formula_units_Z 48
_cell_length_a 10.660050
_cell_length_b 27.524200
_cell_length_c 13.849508
_cell_angle_alpha 90.000000
_cell_angle_beta 150.408919
_cell_angle_gamma 90.000000
_cell_volume 2006.619845
_symmetry_space_group_name_H-M "C 2/M"
_symmetry_group_IT_number 12
_symmetry_cell_setting 'monoclinic'
loop_
_space_group_symop_operation_xyz
x,y,z
-x,y,-z
-x,-y,-z
x,-y,z
1/2+x,1/2+y,z
1/2-x,1/2+y,-z
1/2-x,1/2-y,-z
1/2+x,1/2-y,z
loop_
_atom_site_type_symbol
_atom_site_label
_atom_site_fract_x
_atom_site_fract_y
_atom_site_fract_z
Si Si1 0.532852 0.272192 0.288779
Si Si2 0.533788 0.383006 0.250913
Si Si3 0.761849 0.055288 0.774875
Si Si4 0.247133 0.444733 0.448581
Si Si5 0.469948 0.896074 0.873369
Si Si6 0.736031 0.788871 0.266959
O O1 0.750000 0.250000 0.500000
O O2 0.608917 0.327007 0.312127
O O3 0.516843 0.241117 0.178255
O O4 0.272644 0.271052 0.179241
O O5 0.734860 0.409431 0.315380
O O6 0.545464 0.408900 0.364643
O O7 0.252284 0.389276 0.018526
O O8 0.513413 0.064875 0.670073
O O9 0.772623 0.000000 0.742949
O O10 0.000000 0.067371 0.000000
O O11 0.341032 0.500000 0.518700
O O12 0.200691 0.431965 0.305379
O O13 0.335067 0.844497 0.787319
O O14 0.500000 0.918670 0.000000
O O15 0.000000 0.782323 0.500000
#
# Coordination Sequence:
#
# PCOD8110428 Si02
#       6
#     8   8   8   8   8   8
#     4  10  22  41  68  97 135 177 229 283 340 409
#     4  12  24  43  70 102 136 181 224 278 345 413
#     4  10  21  42  69 102 140 174 219 281 344 406
#     4  11  25  44  71 102 136 180 228 282 344 409
#     4  12  26  44  68  95 138 181 229 282 340 405
#     4  10  22  44  68  96 135 185 226 285 346 411
#
# _framework density 23.920824
#
# number of rings (size 3 to 8) (size 9 to 14) (size 15 to 20)
#    0.000    1.167    3.333    3.000    0.000    8.333 
#    0.000    0.833    0.000    0.000    0.000    0.000 
#    0.000    0.000    0.000    0.000    0.000    0.000 
#
# Total GULP energy -297630.813569 kJ/mol
# GULP energy per Si atom -12401.283899 kJ/mol
# Density = 2.386638 g / cm^3
# Si number density = 23.920824 Si / 1000 Ang^3
#
#
#
# Elastic Constant Matrix: (Units=GPa)
#
#
# Indices 1 2 3 4 5 6 
#
# 1 136.8808 37.2256 1.0887 0.0000 -20.9109 0.0000
# 2 37.2256 87.3761 18.1378 0.0000 -18.0300 0.0000
# 3 1.0887 18.1378 51.3448 -0.0001 -19.4433 0.0000
# 4 0.0000 0.0000 -0.0001 30.8146 0.0000 -7.6573
# 5 -20.9109 -18.0300 -19.4433 0.0000 41.9498 0.0000
# 6 0.0000 0.0000 0.0000 -7.6573 0.0000 41.2300
#
#
#
# Elastic Compliance Matrix: (Units=1/GPa)
#
#
# Indices 1 2 3 4 5 6 
#
# 1 0.008857 -0.003460 0.002600 0.000000 0.004133 0.000000
# 2 -0.003460 0.014277 -0.004002 0.000000 0.002557 0.000000
# 3 0.002600 -0.004002 0.025075 0.000000 0.011198 0.000000
# 4 0.000000 0.000000 0.000000 0.034022 0.000000 0.006319
# 5 0.004133 0.002557 0.011198 0.000000 0.032187 0.000000
# 6 0.000000 0.000000 0.000000 0.006319 0.000000 0.025428
#
#
# Mechanical properties :
#
#
# Convention : Reuss Voigt Hill
#
# Bulk Modulus (GPa) = 25.98473 43.16734 34.57603
# Shear Modulus (GPa) = 30.78803 37.40885 34.09844
#
# Velocity S-wave (km/s) = 3.59148 3.95886 3.77964
# Velocity P-wave (km/s) = 5.29950 6.24354 5.79079
#
# Compressibility (1/GPa) = 0.03848414
#
# Stress axis : x y z
#
# Youngs Moduli (GPa) = 112.90007 70.04091 39.88009
#
# Poissons Ratio (x) = 0.24237 -0.10367
# Poissons Ratio (y) = 0.39068 0.15960
# Poissons Ratio (z) = -0.29350 0.28031
#
# Static dielectric constant tensor:
#      x y z
#    x 5.018680 0.000000 -0.147450 
#    y 0.000000 4.102210 0.000000 
#    z -0.147450 0.000000 4.559590 
# 
# 
# High freq. dielectric constant tensor:
#      x y z
#    x 1.965630 0.000000 -0.001840 
#    y 0.000000 1.935040 0.000000 
#    z -0.001840 0.000000 1.960690 
# 
# From -- ./inp_files/209457.got.cif
#   From: 2010.06.25/outbox.cif.g09.slc.cpg/sg12_105_cif.got.tgz:209457.got - 2010.06.28 00:19:55.
