data_PCOD8110202
_publ_section_title
;
Structure prediction by ZEFSAII (Michael W. Deem and Ramdas Pophale) SiO2 
 PCOD8110202
Probable space group: C 2/M
;
_chemical_formula_sum "Si O2"
_cell_formula_units_Z 64
_cell_length_a 27.423951
_cell_length_b 14.177049
_cell_length_c 13.675913
_cell_angle_alpha 90.000000
_cell_angle_beta 37.128000
_cell_angle_gamma 90.000000
_cell_volume 3209.369804
_symmetry_space_group_name_H-M "C 2/M"
_symmetry_group_IT_number 12
_symmetry_cell_setting 'monoclinic'
loop_
_space_group_symop_operation_xyz
x,y,z
-x,y,-z
-x,-y,-z
x,-y,z
1/2+x,1/2+y,z
1/2-x,1/2+y,-z
1/2-x,1/2-y,-z
1/2+x,1/2-y,z
loop_
_atom_site_type_symbol
_atom_site_label
_atom_site_fract_x
_atom_site_fract_y
_atom_site_fract_z
Si Si1 0.090828 0.110812 0.837431
Si Si2 0.487193 0.204881 0.635440
Si Si3 0.319120 0.722364 0.462191
Si Si4 0.722457 0.392809 0.281921
Si Si5 0.370473 0.106630 0.494648
Si Si6 0.696148 0.608143 0.855540
Si Si7 0.959015 0.899552 0.461512
Si Si8 0.186539 0.730020 0.016266
O O1 0.117739 0.154584 0.691873
O O2 0.149813 0.141942 0.831578
O O3 0.094641 0.000000 0.817295
O O4 0.000000 0.146411 0.000000
O O5 0.500000 0.210508 0.500000
O O6 0.546217 0.123528 0.580419
O O7 0.511005 0.307253 0.645243
O O8 0.394463 0.184927 0.808735
O O9 0.250000 0.750000 0.500000
O O10 0.279580 0.668631 0.616649
O O11 0.365601 0.818695 0.415054
O O12 0.749515 0.500000 0.262554
O O13 0.636037 0.389826 0.367971
O O14 0.784449 0.347415 0.107177
O O15 0.292543 0.121314 0.688711
O O16 0.370945 0.000000 0.452050
O O17 0.674116 0.500000 0.915160
O O18 0.667918 0.671372 0.991584
O O19 0.000000 0.903234 0.500000
O O20 0.976876 0.000000 0.377299
O O21 0.250000 0.750000 0.000000
#
# Coordination Sequence:
#
# PCOD8110202 Si02
#       8
#     8   8   8   8   8   8   8   8
#     4  10  22  39  64  99 130 157 204 264 326 388
#     4  11  23  40  64  88 126 171 215 263 312 380
#     4  12  22  41  68  92 127 168 214 260 328 380
#     4  11  23  40  63  94 127 160 207 262 319 380
#     4  11  23  41  63  89 124 166 220 265 307 381
#     4  10  21  41  64  91 126 166 214 265 319 379
#     4   9  17  33  58  88 121 154 193 247 313 375
#     4  12  24  40  63  91 131 170 213 262 317 378
#
# _framework density 19.941611000000002
#
# number of rings (size 3 to 8) (size 9 to 14) (size 15 to 20)
#    0.000    1.250    3.750    2.625    1.750    2.250 
#    0.000    0.000    0.000    0.375    0.000    0.000 
#    0.000    0.000    0.000    0.000    0.000    0.000 
#
# Total GULP energy -396760.640278 kJ/mol
# GULP energy per Si atom -12398.770009 kJ/mol
# Density = 1.989622 g / cm^3
# Si number density = 19.941611 Si / 1000 Ang^3
#
#
#
# Elastic Constant Matrix: (Units=GPa)
#
#
# Indices 1 2 3 4 5 6 
#
# 1 107.9733 48.6130 58.0434 0.0000 -7.2318 0.0000
# 2 48.6130 116.2901 45.2530 0.0000 7.8760 0.0000
# 3 58.0434 45.2530 133.2856 0.0000 -6.6886 0.0000
# 4 0.0000 0.0000 0.0000 26.4228 0.0000 -4.1671
# 5 -7.2318 7.8760 -6.6886 0.0000 33.8759 0.0000
# 6 0.0000 0.0000 0.0000 -4.1671 0.0000 25.9024
#
#
#
# Elastic Compliance Matrix: (Units=1/GPa)
#
#
# Indices 1 2 3 4 5 6 
#
# 1 0.013734 -0.004240 -0.004388 0.000000 0.003051 0.000000
# 2 -0.004240 0.011528 -0.002270 0.000000 -0.004034 0.000000
# 3 -0.004388 -0.002270 0.010265 0.000000 0.001618 0.000000
# 4 0.000000 0.000000 0.000000 0.038831 0.000000 0.006247
# 5 0.003051 -0.004034 0.001618 0.000000 0.031428 0.000000
# 6 0.000000 0.000000 0.000000 0.006247 0.000000 0.039611
#
#
# Mechanical properties :
#
#
# Convention : Reuss Voigt Hill
#
# Bulk Modulus (GPa) = 72.82749 73.48532 73.15640
# Shear Modulus (GPa) = 29.10831 30.94953 30.02892
#
# Velocity S-wave (km/s) = 3.82472 3.94383 3.88473
# Velocity P-wave (km/s) = 7.49028 7.59398 7.54231
#
# Compressibility (1/GPa) = 0.01373108
#
# Stress axis : x y z
#
# Youngs Moduli (GPa) = 72.81225 86.74330 97.41390
#
# Poissons Ratio (x) = 0.36782 0.42746
# Poissons Ratio (y) = 0.30875 0.22112
# Poissons Ratio (z) = 0.31951 0.19690
#
# Static dielectric constant tensor:
#      x y z
#    x 2.081930 0.000000 -1.500880 
#    y 0.000000 4.169940 0.000000 
#    z -1.500880 0.000000 2.292800 
# 
# 
# High freq. dielectric constant tensor:
#      x y z
#    x 1.783450 0.000000 -0.010420 
#    y 0.000000 1.789210 0.000000 
#    z -0.010420 0.000000 1.759890 
# 
# From -- ./inp_files/183785.got.cif
#   From: 2010.06.25/outbox.cif.g09.slc.cpg/sg12_92_cif.got.tgz:183785.got - 2010.06.28 00:19:55.
