data_PCOD8110493
_publ_section_title
;
Structure prediction by ZEFSAII (Michael W. Deem and Ramdas Pophale) SiO2 
 PCOD8110493
Probable space group: C 2/M
;
_chemical_formula_sum "Si O2"
_cell_formula_units_Z 40
_cell_length_a 9.092673
_cell_length_b 17.747199
_cell_length_c 11.257881
_cell_angle_alpha 90.000000
_cell_angle_beta 108.804769
_cell_angle_gamma 90.000000
_cell_volume 1719.708500
_symmetry_space_group_name_H-M "C 2/M"
_symmetry_group_IT_number 12
_symmetry_cell_setting 'monoclinic'
loop_
_space_group_symop_operation_xyz
x,y,z
-x,y,-z
-x,-y,-z
x,-y,z
1/2+x,1/2+y,z
1/2-x,1/2+y,-z
1/2-x,1/2-y,-z
1/2+x,1/2-y,z
loop_
_atom_site_type_symbol
_atom_site_label
_atom_site_fract_x
_atom_site_fract_y
_atom_site_fract_z
Si Si1 0.768805 0.086223 0.912490
Si Si2 0.972079 0.333986 0.811599
Si Si3 0.900535 0.912955 0.691035
Si Si4 0.861783 0.414529 0.556829
Si Si5 0.845538 0.180038 0.149337
O O1 0.582521 0.096780 0.878899
O O2 0.810609 0.108830 0.788586
O O3 0.811308 0.000000 0.952081
O O4 0.866919 0.137783 0.028841
O O5 0.889598 0.353218 0.665832
O O6 0.837999 0.317560 0.871769
O O7 0.088719 0.263686 0.836022
O O8 0.795944 0.890825 0.551375
O O9 0.060979 0.866534 0.725838
O O10 0.943926 0.000000 0.699166
O O11 0.848587 0.500000 0.604512
O O12 0.000000 0.411641 0.500000
#
# Coordination Sequence:
#
# PCOD8110493 Si02
#       5
#     8   8   8   8   8
#     4  11  23  44  72  99 133 176 220 272 334 398
#     4  12  26  44  66  96 137 179 222 274 332 391
#     4  10  22  43  71 101 133 173 222 275 330 394
#     4  10  21  43  74 100 128 172 222 272 329 396
#     4  12  27  43  64  98 138 181 221 273 330 394
#
# _framework density 23.259754000000001
#
# number of rings (size 3 to 8) (size 9 to 14) (size 15 to 20)
#    0.000    1.000    2.000    4.200    0.000    8.800 
#    0.000    2.000    0.000    0.000    0.000    0.000 
#    0.000    0.000    0.000    0.000    0.000    0.000 
#
# Total GULP energy -248065.313846 kJ/mol
# GULP energy per Si atom -12403.265692 kJ/mol
# Density = 2.320681 g / cm^3
# Si number density = 23.259754 Si / 1000 Ang^3
#
#
#
# Elastic Constant Matrix: (Units=GPa)
#
#
# Indices 1 2 3 4 5 6 
#
# 1 83.0015 17.8267 -5.4665 0.0000 13.7743 0.0000
# 2 17.8267 88.7600 46.3200 0.0000 0.3029 0.0000
# 3 -5.4665 46.3200 100.8487 0.0000 8.2809 0.0000
# 4 0.0000 0.0000 0.0000 34.9058 0.0000 32.5675
# 5 13.7743 0.3029 8.2809 0.0000 35.9332 0.0000
# 6 0.0000 0.0000 0.0000 32.5675 0.0000 9.9976
#
#
#
# Elastic Compliance Matrix: (Units=1/GPa)
#
#
# Indices 1 2 3 4 5 6 
#
# 1 0.014302 -0.004633 0.003415 0.000000 -0.006230 0.000000
# 2 -0.004633 0.016396 -0.008069 0.000000 0.003497 0.000000
# 3 0.003415 -0.008069 0.014177 0.000000 -0.004508 0.000000
# 4 0.000000 0.000000 0.000000 -0.014048 0.000000 0.045762
# 5 -0.006230 0.003497 -0.004508 0.000000 0.031227 0.000000
# 6 0.000000 0.000000 0.000000 0.045762 0.000000 -0.049048
#
#
# Mechanical properties :
#
#
# Convention : Reuss Voigt Hill
#
# Bulk Modulus (GPa) = 38.02238 43.33006 40.67622
# Shear Modulus (GPa) = 123.92417 30.42933 77.17675
#
# Velocity S-wave (km/s) = 7.30712 3.62088 5.76649
# Velocity P-wave (km/s) = 9.35812 6.01251 7.86526
#
# Compressibility (1/GPa) = 0.02630030
#
# Stress axis : x y z
#
# Youngs Moduli (GPa) = 69.92074 60.99143 70.53592
#
# Poissons Ratio (x) = 0.28259 -0.24087
# Poissons Ratio (y) = 0.32396 0.56915
# Poissons Ratio (z) = -0.23877 0.49213
#
# Static dielectric constant tensor:
#      x y z
#    x 4.189790 0.000000 0.315720 
#    y 0.000000 4.092850 0.000000 
#    z 0.315720 0.000000 4.406820 
# 
# 
# High freq. dielectric constant tensor:
#      x y z
#    x 1.922680 0.000000 0.023800 
#    y 0.000000 1.913940 0.000000 
#    z 0.023800 0.000000 1.927280 
# 
# From -- ./inp_files/119138.got.cif
#   From: 2010.06.25/outbox.cif.g09.slc.cpg/sg12_60_cif.got.tgz:119138.got - 2010.06.28 00:19:55.
