data_PCOD8110189
_publ_section_title
;
Structure prediction by ZEFSAII (Michael W. Deem and Ramdas Pophale) SiO2 
 PCOD8110189
Probable space group: C 2/M
;
_chemical_formula_sum "Si O2"
_cell_formula_units_Z 56
_cell_length_a 13.217407
_cell_length_b 28.848288
_cell_length_c 8.620192
_cell_angle_alpha 90.000000
_cell_angle_beta 57.604854
_cell_angle_gamma 90.000000
_cell_volume 2775.349925
_symmetry_space_group_name_H-M "C 2/M"
_symmetry_group_IT_number 12
_symmetry_cell_setting 'monoclinic'
loop_
_space_group_symop_operation_xyz
x,y,z
-x,y,-z
-x,-y,-z
x,-y,z
1/2+x,1/2+y,z
1/2-x,1/2+y,-z
1/2-x,1/2-y,-z
1/2+x,1/2-y,z
loop_
_atom_site_type_symbol
_atom_site_label
_atom_site_fract_x
_atom_site_fract_y
_atom_site_fract_z
Si Si1 0.024155 0.448967 0.658710
Si Si2 0.568305 0.136916 0.096301
Si Si3 0.711804 0.553021 0.455342
Si Si4 0.034869 0.892663 0.798064
Si Si5 0.837284 0.811408 0.428933
Si Si6 0.317927 0.631605 0.754744
Si Si7 0.433892 0.214561 0.391649
O O1 0.997778 0.500000 0.757257
O O2 0.162475 0.434998 0.567057
O O3 0.000000 0.453519 0.500000
O O4 0.938002 0.408237 0.789451
O O5 0.506655 0.183249 0.211525
O O6 0.500000 0.120852 0.000000
O O7 0.705391 0.149028 0.947315
O O8 0.700537 0.500000 0.415996
O O9 0.602758 0.564514 0.661540
O O10 0.706168 0.581903 0.302052
O O11 0.925668 0.874759 0.784156
O O12 0.123805 0.848968 0.730394
O O13 0.000000 0.907813 0.000000
O O14 0.845598 0.830878 0.598049
O O15 0.702931 0.801317 0.485987
O O16 0.927711 0.767878 0.341368
O O17 0.500000 0.209438 0.500000
#
# Coordination Sequence:
#
# PCOD8110189 Si02
#       7
#     8   8   8   8   8   8   8
#     4  10  22  39  62  89 124 161 195 244 301 357
#     4  12  22  38  62  95 122 150 200 250 299 355
#     4  10  21  41  64  86 118 163 204 240 295 359
#     4  11  25  40  61  88 120 157 201 251 299 349
#     4  10  22  45  61  85 122 163 201 238 301 360
#     4  11  23  41  63  86 123 161 195 248 299 359
#     4  11  23  39  66  89 119 160 200 249 295 353
#
# _framework density 20.177634999999999
#
# number of rings (size 3 to 8) (size 9 to 14) (size 15 to 20)
#    0.000    1.286    2.857    3.857    4.000    2.857 
#    0.000    1.429    0.000    0.000    0.000    0.000 
#    0.000    0.000    0.000    0.000    0.000    0.000 
#
# Total GULP energy -347172.690079 kJ/mol
# GULP energy per Si atom -12399.024646 kJ/mol
# Density = 2.013171 g / cm^3
# Si number density = 20.177635 Si / 1000 Ang^3
#
#
#
# Elastic Constant Matrix: (Units=GPa)
#
#
# Indices 1 2 3 4 5 6 
#
# 1 87.3810 10.5817 14.4998 0.0000 3.4043 0.0000
# 2 10.5817 130.6367 40.6169 0.0000 -5.7245 0.0000
# 3 14.4998 40.6169 91.1448 0.0000 -10.5554 0.0000
# 4 0.0000 0.0000 0.0000 18.2391 0.0000 -1.8738
# 5 3.4043 -5.7245 -10.5554 0.0000 30.1876 0.0000
# 6 0.0000 0.0000 0.0000 -1.8738 0.0000 23.3066
#
#
#
# Elastic Compliance Matrix: (Units=1/GPa)
#
#
# Indices 1 2 3 4 5 6 
#
# 1 0.011902 -0.000455 -0.001935 0.000000 -0.002105 0.000000
# 2 -0.000455 0.008906 -0.003851 0.000000 0.000394 0.000000
# 3 -0.001935 -0.003851 0.013482 0.000000 0.004202 0.000000
# 4 0.000000 0.000000 0.000000 0.055284 0.000000 0.004445
# 5 -0.002105 0.000394 0.004202 0.000000 0.034908 0.000000
# 6 0.000000 0.000000 0.000000 0.004445 0.000000 0.043264
#
#
# Mechanical properties :
#
#
# Convention : Reuss Voigt Hill
#
# Bulk Modulus (GPa) = 45.85085 48.95104 47.40095
# Shear Modulus (GPa) = 26.66725 30.57762 28.62243
#
# Velocity S-wave (km/s) = 3.63936 3.89706 3.77041
# Velocity P-wave (km/s) = 6.35868 6.67549 6.51901
#
# Compressibility (1/GPa) = 0.02180984
#
# Stress axis : x y z
#
# Youngs Moduli (GPa) = 84.01784 112.28107 74.17278
#
# Poissons Ratio (x) = 0.05107 0.14349
# Poissons Ratio (y) = 0.03822 0.28563
# Poissons Ratio (z) = 0.16254 0.43239
#
# Static dielectric constant tensor:
#      x y z
#    x 3.757380 0.000000 -0.061270 
#    y 0.000000 3.930750 0.000000 
#    z -0.061270 0.000000 3.564350 
# 
# 
# High freq. dielectric constant tensor:
#      x y z
#    x 1.801070 0.000000 -0.007720 
#    y 0.000000 1.798440 0.000000 
#    z -0.007720 0.000000 1.775400 
# 
# From -- ./inp_files/68129.got.cif
#   From: 2010.06.25/outbox.cif.g09.slc.cpg/sg12_35_cif.got.tgz:68129.got - 2010.06.28 00:19:55.
