data_PCOD8110040
_publ_section_title
;
Structure prediction by ZEFSAII (Michael W. Deem and Ramdas Pophale) SiO2 
 PCOD8110040
Probable space group: C 2/M
;
_chemical_formula_sum "Si O2"
_cell_formula_units_Z 36
_cell_length_a 17.915299
_cell_length_b 19.323434
_cell_length_c 5.328457
_cell_angle_alpha 90.000000
_cell_angle_beta 122.946868
_cell_angle_gamma 90.000000
_cell_volume 1547.969892
_symmetry_space_group_name_H-M "C 2/M"
_symmetry_group_IT_number 12
_symmetry_cell_setting 'monoclinic'
loop_
_space_group_symop_operation_xyz
x,y,z
-x,y,-z
-x,-y,-z
x,-y,z
1/2+x,1/2+y,z
1/2-x,1/2+y,-z
1/2-x,1/2-y,-z
1/2+x,1/2-y,z
loop_
_atom_site_type_symbol
_atom_site_label
_atom_site_fract_x
_atom_site_fract_y
_atom_site_fract_z
Si Si1 0.500000 0.374922 0.000000
Si Si2 0.895541 0.351536 0.262773
Si Si3 0.902120 0.197470 0.204149
Si Si4 0.149611 0.075643 0.580293
Si Si5 0.673457 0.921558 0.363660
O O1 0.580091 0.325149 0.049612
O O2 0.451699 0.423398 0.708465
O O3 0.860055 0.273337 0.151155
O O4 0.847206 0.378994 0.423093
O O5 0.000000 0.352979 0.500000
O O6 0.876112 0.394966 0.977381
O O7 0.836462 0.139748 0.204186
O O8 0.000000 0.195535 0.500000
O O9 0.220954 0.083019 0.487497
O O10 0.162956 0.000000 0.736872
O O11 0.641600 0.000000 0.350581
#
# Coordination Sequence:
#
# PCOD8110040 Si02
#       5
#     4   8   8   8   8
#     4  10  21  40  66  94 127 176 220 258 327 396
#     4  11  25  44  71  95 131 174 217 275 329 389
#     4   9  22  39  64  95 129 169 219 265 322 390
#     4  10  23  41  63  95 135 172 216 269 321 388
#     4  11  26  44  67 100 133 169 220 275 326 386
#
# _framework density 23.256267000000001
#
# number of rings (size 3 to 8) (size 9 to 14) (size 15 to 20)
#    0.000    1.778    0.000    1.667   12.444    9.333 
#    0.000    0.000    0.000    0.000    0.000    0.000 
#    0.000    0.000    0.000    0.000    0.000    0.000 
#
# Total GULP energy -223081.251604 kJ/mol
# GULP energy per Si atom -12393.402867 kJ/mol
# Density = 2.320334 g / cm^3
# Si number density = 23.256267 Si / 1000 Ang^3
#
#
#
# Elastic Constant Matrix: (Units=GPa)
#
#
# Indices 1 2 3 4 5 6 
#
# 1 107.7873 87.9718 15.9791 0.0000 -32.5353 0.0000
# 2 87.9718 200.9707 29.7181 0.0000 -21.3992 0.0000
# 3 15.9791 29.7181 65.1122 0.0000 -12.4008 0.0000
# 4 0.0000 0.0000 0.0000 8.0591 0.0000 2.9605
# 5 -32.5353 -21.3992 -12.4008 0.0000 41.2067 0.0000
# 6 0.0000 0.0000 0.0000 2.9605 0.0000 34.5170
#
#
#
# Elastic Compliance Matrix: (Units=1/GPa)
#
#
# Indices 1 2 3 4 5 6 
#
# 1 0.018057 -0.006855 0.000780 0.000000 0.010931 0.000000
# 2 -0.006855 0.008127 -0.002391 0.000000 -0.001912 0.000000
# 3 0.000780 -0.002391 0.017120 0.000000 0.004526 0.000000
# 4 0.000000 0.000000 0.000000 0.128120 0.000000 -0.010989
# 5 0.010931 -0.001912 0.004526 0.000000 0.033268 0.000000
# 6 0.000000 0.000000 0.000000 -0.010989 0.000000 0.029914
#
#
# Mechanical properties :
#
#
# Convention : Reuss Voigt Hill
#
# Bulk Modulus (GPa) = 37.92200 71.24536 54.58368
# Shear Modulus (GPa) = 19.20655 32.76998 25.98826
#
# Velocity S-wave (km/s) = 2.87691 3.75785 3.34649
# Velocity P-wave (km/s) = 5.23230 7.03775 6.20109
#
# Compressibility (1/GPa) = 0.02636992
#
# Stress axis : x y z
#
# Youngs Moduli (GPa) = 55.38139 123.05239 58.41109
#
# Poissons Ratio (x) = 0.84356 -0.04553
# Poissons Ratio (y) = 0.37966 0.13965
# Poissons Ratio (z) = -0.04317 0.29420
#
# Static dielectric constant tensor:
#      x y z
#    x 4.326010 0.000000 -0.222730 
#    y 0.000000 4.507930 0.000000 
#    z -0.222730 0.000000 4.083860 
# 
# 
# High freq. dielectric constant tensor:
#      x y z
#    x 1.925230 0.000000 -0.004330 
#    y 0.000000 1.931630 0.000000 
#    z -0.004330 0.000000 1.904150 
# 
# From -- ./inp_files/15947.got.cif
#   From: 2010.06.25/outbox.cif.g09.slc.cpg/sg12_8_cif.got.tgz:15947.got - 2010.06.28 00:19:55.
