data_PCOD8110439
_publ_section_title
;
Structure prediction by ZEFSAII (Michael W. Deem and Ramdas Pophale) SiO2 
 PCOD8110439
Probable space group: C 2/M
;
_chemical_formula_sum "Si O2"
_cell_formula_units_Z 48
_cell_length_a 26.315205
_cell_length_b 13.881178
_cell_length_c 12.208726
_cell_angle_alpha 90.000000
_cell_angle_beta 149.940209
_cell_angle_gamma 90.000000
_cell_volume 2233.867792
_symmetry_space_group_name_H-M "C 2/M"
_symmetry_group_IT_number 12
_symmetry_cell_setting 'monoclinic'
loop_
_space_group_symop_operation_xyz
x,y,z
-x,y,-z
-x,-y,-z
x,-y,z
1/2+x,1/2+y,z
1/2-x,1/2+y,-z
1/2-x,1/2-y,-z
1/2+x,1/2-y,z
loop_
_atom_site_type_symbol
_atom_site_label
_atom_site_fract_x
_atom_site_fract_y
_atom_site_fract_z
Si Si1 0.583130 0.195999 0.822165
Si Si2 0.638076 0.797315 0.518925
Si Si3 0.610429 0.110953 0.241432
Si Si4 0.690781 0.891514 0.829126
Si Si5 0.413969 0.393596 0.251070
Si Si6 0.753864 0.610430 0.714965
O O1 0.471500 0.165143 0.647677
O O2 0.609426 0.171621 0.744661
O O3 0.584189 0.312015 0.839491
O O4 0.660316 0.135499 0.037795
O O5 0.657704 0.836432 0.434496
O O6 0.710704 0.844963 0.746031
O O7 0.657812 0.681738 0.551481
O O8 0.694940 0.125877 0.306972
O O9 0.594225 0.000000 0.241116
O O10 0.500000 0.154362 0.000000
O O11 0.649230 0.000000 0.740938
O O12 0.801185 0.890557 0.095155
O O13 0.500000 0.369147 0.500000
O O14 0.432837 0.500000 0.234978
O O15 0.717262 0.500000 0.662928
#
# Coordination Sequence:
#
# PCOD8110439 Si02
#       6
#     8   8   8   8   8   8
#     4  12  24  41  63  94 133 173 213 265 322 391
#     4  12  24  41  69  95 128 172 219 272 322 382
#     4  10  21  42  69  97 128 168 220 270 327 386
#     4  11  24  40  62  97 134 170 217 267 322 385
#     4  10  22  40  62  90 130 178 220 263 317 384
#     4  11  25  44  68  98 131 171 218 270 328 389
#
# _framework density 21.487394999999999
#
# number of rings (size 3 to 8) (size 9 to 14) (size 15 to 20)
#    0.000    1.000    3.333    3.500    2.333    3.333 
#    0.000    0.000    0.000    0.500    0.000    0.000 
#    0.000    0.000    0.000    0.000    0.000    0.000 
#
# Total GULP energy -297506.785618 kJ/mol
# GULP energy per Si atom -12396.116067 kJ/mol
# Density = 2.143849 g / cm^3
# Si number density = 21.487395 Si / 1000 Ang^3
#
#
#
# Elastic Constant Matrix: (Units=GPa)
#
#
# Indices 1 2 3 4 5 6 
#
# 1 76.5488 45.2370 40.9396 0.0000 -12.1006 0.0000
# 2 45.2370 133.6157 29.8482 0.0000 -12.5820 0.0000
# 3 40.9396 29.8482 84.7944 0.0000 -4.6689 0.0000
# 4 0.0000 0.0000 0.0000 31.7015 0.0000 -2.2972
# 5 -12.1006 -12.5820 -4.6689 0.0000 33.4995 0.0000
# 6 0.0000 0.0000 0.0000 -2.2972 0.0000 26.7971
#
#
#
# Elastic Compliance Matrix: (Units=1/GPa)
#
#
# Indices 1 2 3 4 5 6 
#
# 1 0.021053 -0.004860 -0.008199 0.000000 0.004637 0.000000
# 2 -0.004860 0.009489 -0.000901 0.000000 0.001683 0.000000
# 3 -0.008199 -0.000901 0.016010 0.000000 -0.001069 0.000000
# 4 0.000000 0.000000 0.000000 0.031741 0.000000 0.002721
# 5 0.004637 0.001683 -0.001069 0.000000 0.032009 0.000000
# 6 0.000000 0.000000 0.000000 0.002721 0.000000 0.037551
#
#
# Mechanical properties :
#
#
# Convention : Reuss Voigt Hill
#
# Bulk Modulus (GPa) = 53.66788 58.55650 56.11219
# Shear Modulus (GPa) = 27.47486 30.32856 28.90171
#
# Velocity S-wave (km/s) = 3.57970 3.76101 3.67148
# Velocity P-wave (km/s) = 6.48971 6.79493 6.64407
#
# Compressibility (1/GPa) = 0.01863312
#
# Stress axis : x y z
#
# Youngs Moduli (GPa) = 47.49866 105.38228 62.46057
#
# Poissons Ratio (x) = 0.51212 0.51210
# Poissons Ratio (y) = 0.23083 0.05630
# Poissons Ratio (z) = 0.38943 0.09498
#
# Static dielectric constant tensor:
#      x y z
#    x 3.827070 0.000000 0.026940 
#    y 0.000000 3.999790 0.000000 
#    z 0.026940 0.000000 3.926730 
# 
# 
# High freq. dielectric constant tensor:
#      x y z
#    x 1.829270 0.000000 0.008370 
#    y 0.000000 1.854090 0.000000 
#    z 0.008370 0.000000 1.841960 
# 
# From -- ./inp_files/183893.got.cif
#   From: 2010.06.25/outbox.cif.g09.slc.cpg/sg12_92_cif.got.tgz:183893.got - 2010.06.28 00:19:55.
