data_PCOD8110509
_publ_section_title
;
Structure prediction by ZEFSAII (Michael W. Deem and Ramdas Pophale) SiO2 
 PCOD8110509
Probable space group: C 2/M
;
_chemical_formula_sum "Si O2"
_cell_formula_units_Z 28
_cell_length_a 10.664725
_cell_length_b 15.072059
_cell_length_c 6.994713
_cell_angle_alpha 90.000000
_cell_angle_beta 68.724716
_cell_angle_gamma 90.000000
_cell_volume 1047.700494
_symmetry_space_group_name_H-M "C 2/M"
_symmetry_group_IT_number 12
_symmetry_cell_setting 'monoclinic'
loop_
_space_group_symop_operation_xyz
x,y,z
-x,y,-z
-x,-y,-z
x,-y,z
1/2+x,1/2+y,z
1/2-x,1/2+y,-z
1/2-x,1/2-y,-z
1/2+x,1/2-y,z
loop_
_atom_site_type_symbol
_atom_site_label
_atom_site_fract_x
_atom_site_fract_y
_atom_site_fract_z
Si Si1 0.248969 0.404425 0.759898
Si Si2 0.500000 0.318530 0.500000
Si Si3 0.150776 0.402632 0.394144
Si Si4 0.125002 0.226548 0.813065
O O1 0.221583 0.500000 0.878637
O O2 0.406038 0.378003 0.689660
O O3 0.223882 0.417303 0.551350
O O4 0.155403 0.324107 0.886318
O O5 0.405620 0.263829 0.400118
O O6 0.139744 0.500000 0.298544
O O7 0.244506 0.335933 0.217330
O O8 0.000000 0.362243 0.500000
O O9 0.000000 0.187063 0.000000
#
# Coordination Sequence:
#
# PCOD8110509 Si02
#       4
#     8   4   8   8
#     4  10  22  39  64  94 131 175 215 263 326 385
#     4  10  21  44  69  90 128 176 219 270 321 384
#     4   9  19  39  67  94 127 172 217 266 324 384
#     4  11  25  40  68  99 132 169 220 266 326 385
#
# _framework density 26.725196
#
# number of rings (size 3 to 8) (size 9 to 14) (size 15 to 20)
#    0.000    2.000    0.000    3.857    8.000    3.429 
#    0.000    0.000    0.000    0.000    0.000    0.000 
#    0.000    0.000    0.000    0.000    0.000    0.000 
#
# Total GULP energy -173477.530727 kJ/mol
# GULP energy per Si atom -12391.252195 kJ/mol
# Density = 2.666437 g / cm^3
# Si number density = 26.725196 Si / 1000 Ang^3
#
#
#
# Elastic Constant Matrix: (Units=GPa)
#
#
# Indices 1 2 3 4 5 6 
#
# 1 131.4830 64.3291 36.0217 0.0000 -41.6930 0.0000
# 2 64.3291 197.3769 30.8125 0.0000 -35.6487 0.0000
# 3 36.0217 30.8125 83.1951 0.0000 -38.9413 0.0000
# 4 0.0000 0.0000 0.0000 -2.0853 0.0000 -11.5702
# 5 -41.6930 -35.6487 -38.9413 0.0000 57.2352 0.0000
# 6 0.0000 0.0000 0.0000 -11.5702 0.0000 -24.3385
#
#
#
# Elastic Compliance Matrix: (Units=1/GPa)
#
#
# Indices 1 2 3 4 5 6 
#
# 1 0.010866 -0.002335 -0.001197 0.000000 0.005647 0.000000
# 2 -0.002335 0.006235 -0.000406 0.000000 0.001907 0.000000
# 3 -0.001197 -0.000406 0.017845 0.000000 0.011017 0.000000
# 4 0.000000 0.000000 0.000000 0.292823 0.000000 -0.139204
# 5 0.005647 0.001907 0.011017 0.000000 0.030268 0.000000
# 6 0.000000 0.000000 0.000000 -0.139204 0.000000 0.025089
#
#
# Mechanical properties :
#
#
# Convention : Reuss Voigt Hill
#
# Bulk Modulus (GPa) = 36.93965 74.93128 55.93547
# Shear Modulus (GPa) = 12.49921 24.88840 18.69381
#
# Velocity S-wave (km/s) = 2.16497 3.05498 2.64764
# Velocity P-wave (km/s) = 4.48347 6.36730 5.50654
#
# Compressibility (1/GPa) = 0.02707118
#
# Stress axis : x y z
#
# Youngs Moduli (GPa) = 92.02610 160.38164 56.03784
#
# Poissons Ratio (x) = 0.37446 0.06708
# Poissons Ratio (y) = 0.21486 0.02275
# Poissons Ratio (z) = 0.11015 0.06511
#
# Static dielectric constant tensor:
#      x y z
#    x 4.919090 0.000000 -0.195060 
#    y 0.000000 5.735270 0.000000 
#    z -0.195060 0.000000 4.064550 
# 
# 
# High freq. dielectric constant tensor:
#      x y z
#    x 2.084460 0.000000 -0.011170 
#    y 0.000000 2.088430 0.000000 
#    z -0.011170 0.000000 2.027100 
# 
# From -- ./inp_files/44738.got.cif
#   From: 2010.06.25/outbox.cif.g09.slc.cpg/sg12_23_cif.got.tgz:44738.got - 2010.06.28 00:19:55.
