data_PCOD8110960
_publ_section_title
;
Structure prediction by ZEFSAII (Michael W. Deem and Ramdas Pophale) SiO2 
 PCOD8110960
Probable space group: C 2/M
;
_chemical_formula_sum "Si O2"
_cell_formula_units_Z 56
_cell_length_a 13.617346
_cell_length_b 23.284338
_cell_length_c 8.478428
_cell_angle_alpha 90.000000
_cell_angle_beta 86.155111
_cell_angle_gamma 90.000000
_cell_volume 2682.212049
_symmetry_space_group_name_H-M "C 2/M"
_symmetry_group_IT_number 12
_symmetry_cell_setting 'monoclinic'
loop_
_space_group_symop_operation_xyz
x,y,z
-x,y,-z
-x,-y,-z
x,-y,z
1/2+x,1/2+y,z
1/2-x,1/2+y,-z
1/2-x,1/2-y,-z
1/2+x,1/2-y,z
loop_
_atom_site_type_symbol
_atom_site_label
_atom_site_fract_x
_atom_site_fract_y
_atom_site_fract_z
Si Si1 0.392487 0.353320 0.955248
Si Si2 0.812835 0.306332 0.628281
Si Si3 0.441059 0.864662 0.858746
Si Si4 0.871884 0.238848 0.205428
Si Si5 0.940254 0.202090 0.647076
Si Si6 0.283024 0.066884 0.047553
Si Si7 0.860830 0.637062 0.304106
O O1 0.389188 0.344723 0.765393
O O2 0.312949 0.401164 0.012588
O O3 0.500000 0.375026 0.000000
O O4 0.366739 0.291603 0.035760
O O5 0.860775 0.323695 0.789406
O O6 0.697480 0.297499 0.668051
O O7 0.862334 0.245583 0.574585
O O8 0.829671 0.353521 0.489144
O O9 0.523281 0.880627 0.718053
O O10 0.500000 0.834955 0.000000
O O11 0.381159 0.919359 0.934531
O O12 0.837647 0.305161 0.203322
O O13 0.983283 0.239144 0.256651
O O14 0.000000 0.170445 0.500000
O O15 0.298671 0.086681 0.227822
O O16 0.261554 0.000000 0.044199
#
# Coordination Sequence:
#
# PCOD8110960 Si02
#       7
#     8   8   8   8   8   8   8
#     4  10  24  40  64  95 128 164 206 260 313 379
#     4  12  21  38  60  94 137 170 198 243 315 382
#     4  10  22  38  63  88 123 161 205 258 306 365
#     4  11  22  36  62  99 130 166 202 244 315 388
#     4  11  22  35  58  96 136 164 191 244 311 395
#     4  11  25  45  65  88 117 167 226 270 308 360
#     4  11  23  37  61  95 129 169 199 258 314 379
#
# _framework density 20.87829
#
# number of rings (size 3 to 8) (size 9 to 14) (size 15 to 20)
#    0.000    1.143    4.286    1.714    6.000    4.000 
#    0.000    0.714    0.000    4.714    0.000    0.000 
#    0.000    0.000    0.000    0.000    0.000    0.000 
#
# Total GULP energy -347088.202041 kJ/mol
# GULP energy per Si atom -12396.007216 kJ/mol
# Density = 2.083077 g / cm^3
# Si number density = 20.878290 Si / 1000 Ang^3
#
#
#
# Elastic Constant Matrix: (Units=GPa)
#
#
# Indices 1 2 3 4 5 6 
#
# 1 78.0012 18.5173 17.2529 0.0000 -10.9108 0.0000
# 2 18.5173 80.5162 26.1238 0.0000 0.2772 0.0000
# 3 17.2529 26.1238 93.1973 0.0000 -16.6973 0.0000
# 4 0.0000 0.0000 0.0000 21.4353 0.0000 -1.1790
# 5 -10.9108 0.2772 -16.6973 0.0000 35.4210 0.0000
# 6 0.0000 0.0000 0.0000 -1.1790 0.0000 22.0512
#
#
#
# Elastic Compliance Matrix: (Units=1/GPa)
#
#
# Indices 1 2 3 4 5 6 
#
# 1 0.014313 -0.002940 -0.001127 0.000000 0.003901 0.000000
# 2 -0.002940 0.014409 -0.004016 0.000000 -0.002912 0.000000
# 3 -0.001127 -0.004016 0.013115 0.000000 0.005867 0.000000
# 4 0.000000 0.000000 0.000000 0.046790 0.000000 0.002502
# 5 0.003901 -0.002912 0.005867 0.000000 0.032222 0.000000
# 6 0.000000 0.000000 0.000000 0.002502 0.000000 0.045483
#
#
# Mechanical properties :
#
#
# Convention : Reuss Voigt Hill
#
# Bulk Modulus (GPa) = 38.95301 41.72252 40.33777
# Shear Modulus (GPa) = 26.17051 28.43621 27.30336
#
# Velocity S-wave (km/s) = 3.54429 3.69453 3.62019
# Velocity P-wave (km/s) = 5.95374 6.18276 6.06933
#
# Compressibility (1/GPa) = 0.02567196
#
# Stress axis : x y z
#
# Youngs Moduli (GPa) = 69.86636 69.40068 76.24576
#
# Poissons Ratio (x) = 0.20401 0.08592
# Poissons Ratio (y) = 0.20538 0.30623
# Poissons Ratio (z) = 0.07873 0.27874
#
# Static dielectric constant tensor:
#      x y z
#    x 4.134160 0.000000 -0.185150 
#    y 0.000000 3.129120 0.000000 
#    z -0.185150 0.000000 3.851010 
# 
# 
# High freq. dielectric constant tensor:
#      x y z
#    x 1.844930 0.000000 -0.006250 
#    y 0.000000 1.738850 0.000000 
#    z -0.006250 0.000000 1.826090 
# 
# From -- ./inp_files/64076.got.cif
#   From: 2010.06.25/outbox.cif.g09.slc.cpg/sg12_33_cif.got.tgz:64076.got - 2010.06.28 00:19:55.
