data_PCOD8110083
_publ_section_title
;
Structure prediction by ZEFSAII (Michael W. Deem and Ramdas Pophale) SiO2 
 PCOD8110083
Probable space group: C 2/M
;
_chemical_formula_sum "Si O2"
_cell_formula_units_Z 64
_cell_length_a 9.579014
_cell_length_b 17.716587
_cell_length_c 29.942135
_cell_angle_alpha 90.000000
_cell_angle_beta 144.423959
_cell_angle_gamma 90.000000
_cell_volume 2956.273383
_symmetry_space_group_name_H-M "C 2/M"
_symmetry_group_IT_number 12
_symmetry_cell_setting 'monoclinic'
loop_
_space_group_symop_operation_xyz
x,y,z
-x,y,-z
-x,-y,-z
x,-y,z
1/2+x,1/2+y,z
1/2-x,1/2+y,-z
1/2-x,1/2-y,-z
1/2+x,1/2-y,z
loop_
_atom_site_type_symbol
_atom_site_label
_atom_site_fract_x
_atom_site_fract_y
_atom_site_fract_z
Si Si1 0.586644 0.848815 0.648813
Si Si2 0.495314 0.411727 0.699323
Si Si3 0.610385 0.911667 0.074992
Si Si4 0.634497 0.418177 0.489697
Si Si5 0.163796 0.087985 0.203794
Si Si6 0.912133 0.178385 0.358871
Si Si7 0.921663 0.330662 0.847888
Si Si8 0.866660 0.689492 0.189462
O O1 0.840993 0.859997 0.691747
O O2 0.406565 0.897766 0.572322
O O3 0.631637 0.874960 0.711444
O O4 0.492281 0.762933 0.624308
O O5 0.432334 0.500000 0.686773
O O6 0.455083 0.380523 0.639213
O O7 0.769255 0.397074 0.784808
O O8 0.471614 0.867594 0.078972
O O9 0.894694 0.893311 0.150503
O O10 0.560098 0.000000 0.067421
O O11 0.500000 0.881847 0.000000
O O12 0.500000 0.429245 0.500000
O O13 0.634138 0.500000 0.464316
O O14 0.491215 0.351613 0.427567
O O15 0.207693 0.118367 0.164826
O O16 0.208464 0.000000 0.215074
O O17 0.629147 0.180226 0.278454
O O18 0.759230 0.260958 0.820710
O O19 0.119100 0.305701 0.861487
#
# Coordination Sequence:
#
# PCOD8110083 Si02
#       8
#     8   8   8   8   8   8   8   8
#     4  12  23  41  64  88 122 169 213 259 324 390
#     4  11  22  37  64  93 119 161 213 265 318 379
#     4  10  21  40  67  97 131 170 209 258 321 386
#     4  11  25  41  59  85 120 161 209 267 326 379
#     4  11  22  40  65  94 127 164 216 264 317 386
#     4  11  24  40  61  87 128 158 211 265 327 381
#     4  11  21  40  63  92 134 162 216 262 318 380
#     4  11  23  39  65  95 124 173 211 267 317 385
#
# _framework density 21.648876000000001
#
# number of rings (size 3 to 8) (size 9 to 14) (size 15 to 20)
#    0.000    1.000    2.500    5.250    1.750    4.500 
#    0.000    4.375    0.000    2.250    0.000    0.000 
#    0.000    0.000    0.000    0.000    0.000    0.000 
#
# Total GULP energy -396640.040772 kJ/mol
# GULP energy per Si atom -12395.001274 kJ/mol
# Density = 2.159960 g / cm^3
# Si number density = 21.648876 Si / 1000 Ang^3
#
#
#
# Elastic Constant Matrix: (Units=GPa)
#
#
# Indices 1 2 3 4 5 6 
#
# 1 118.2382 50.9591 11.5314 0.0001 -26.5765 0.0000
# 2 50.9591 135.1235 44.5964 -0.0002 -18.4087 -0.0001
# 3 11.5314 44.5964 66.1993 -0.0004 -27.2429 0.0000
# 4 0.0001 -0.0002 -0.0004 29.2169 -0.0001 -6.6096
# 5 -26.5765 -18.4087 -27.2429 -0.0001 26.5577 0.0001
# 6 0.0000 -0.0001 0.0000 -6.6096 0.0001 36.3239
#
#
#
# Elastic Compliance Matrix: (Units=1/GPa)
#
#
# Indices 1 2 3 4 5 6 
#
# 1 0.014818 -0.006079 0.010180 0.000000 0.021056 0.000000
# 2 -0.006079 0.012011 -0.010573 0.000000 -0.008604 0.000000
# 3 0.010180 -0.010573 0.037434 0.000001 0.041258 0.000000
# 4 0.000000 0.000000 0.000001 0.035696 0.000001 0.006495
# 5 0.021056 -0.008604 0.041258 0.000001 0.095083 0.000000
# 6 0.000000 0.000000 0.000000 0.006495 0.000000 0.028712
#
#
# Mechanical properties :
#
#
# Convention : Reuss Voigt Hill
#
# Bulk Modulus (GPa) = 19.48666 59.30386 39.39526
# Shear Modulus (GPa) = 19.70014 32.58464 26.14239
#
# Velocity S-wave (km/s) = 3.01987 3.88383 3.47877
# Velocity P-wave (km/s) = 4.60220 6.89675 5.86282
#
# Compressibility (1/GPa) = 0.05131715
#
# Stress axis : x y z
#
# Youngs Moduli (GPa) = 67.48712 83.25939 26.71351
#
# Poissons Ratio (x) = 0.50615 -0.27193
# Poissons Ratio (y) = 0.41027 0.28244
# Poissons Ratio (z) = -0.68699 0.88031
#
# Static dielectric constant tensor:
#      x y z
#    x 4.105000 0.000000 -0.299730 
#    y 0.000000 4.067050 0.000000 
#    z -0.299730 0.000000 3.409360 
# 
# 
# High freq. dielectric constant tensor:
#      x y z
#    x 1.853630 0.000000 -0.014030 
#    y 0.000000 1.863100 0.000000 
#    z -0.014030 0.000000 1.823000 
# 
# From -- ./inp_files/372995.got.cif
#   From: 2010.06.25/outbox.cif.g09.slc.cpg/sg12_187_cif.got.tgz:372995.got - 2010.06.28 00:19:55.
