data_PCOD8110051
_publ_section_title
;
Structure prediction by ZEFSAII (Michael W. Deem and Ramdas Pophale) SiO2 
 PCOD8110051
Probable space group: C 2/M
;
_chemical_formula_sum "Si O2"
_cell_formula_units_Z 64
_cell_length_a 8.879036
_cell_length_b 16.645399
_cell_length_c 29.735299
_cell_angle_alpha 90.000000
_cell_angle_beta 139.197876
_cell_angle_gamma 90.000000
_cell_volume 2871.731370
_symmetry_space_group_name_H-M "C 2/M"
_symmetry_group_IT_number 12
_symmetry_cell_setting 'monoclinic'
loop_
_space_group_symop_operation_xyz
x,y,z
-x,y,-z
-x,-y,-z
x,-y,z
1/2+x,1/2+y,z
1/2-x,1/2+y,-z
1/2-x,1/2-y,-z
1/2+x,1/2-y,z
loop_
_atom_site_type_symbol
_atom_site_label
_atom_site_fract_x
_atom_site_fract_y
_atom_site_fract_z
Si Si1 0.254110 0.404808 0.571197
Si Si2 0.530712 0.151664 0.686220
Si Si3 0.103421 0.184779 0.308498
Si Si4 0.133719 0.847081 0.912881
Si Si5 0.662471 0.090398 0.809893
Si Si6 0.063500 0.909239 0.561243
Si Si7 0.926628 0.322627 0.833757
Si Si8 0.982518 0.407486 0.059475
O O1 0.257457 0.500000 0.573431
O O2 0.336471 0.378470 0.639156
O O3 0.434555 0.369717 0.575022
O O4 0.000000 0.372915 0.500000
O O5 0.716462 0.174222 0.690919
O O6 0.376152 0.228005 0.664960
O O7 0.663912 0.113966 0.758081
O O8 0.340322 0.088508 0.627039
O O9 0.848673 0.176943 0.229897
O O10 0.259315 0.888113 0.898939
O O11 0.927808 0.903116 0.884352
O O12 0.033633 0.760793 0.875459
O O13 0.310865 0.845862 0.994994
O O14 0.510975 0.154753 0.803000
O O15 0.569477 0.000000 0.796513
O O16 0.000000 0.864363 0.500000
O O17 0.970852 0.000000 0.537722
O O18 0.021605 0.391659 0.888344
O O19 0.917234 0.500000 0.034700
#
# Coordination Sequence:
#
# PCOD8110051 Si02
#       8
#     8   8   8   8   8   8   8   8
#     4  10  22  42  69 102 140 181 229 287 346 409
#     4  12  25  43  65  95 132 177 226 285 343 411
#     4  12  26  43  68  96 135 178 232 281 347 417
#     4  11  23  43  68  95 132 180 224 278 346 412
#     4  12  25  42  67  98 135 177 230 285 344 409
#     4  10  21  40  66  97 135 178 225 277 340 408
#     4  12  25  43  67  99 135 181 226 286 348 415
#     4  11  24  44  68  99 136 176 232 287 344 413
#
# _framework density 22.286206
#
# number of rings (size 3 to 8) (size 9 to 14) (size 15 to 20)
#    0.000    0.750    1.250    7.125    0.000    6.000 
#    0.000    3.750    0.000    0.000    0.000    0.000 
#    0.000    0.000    0.000    0.000    0.000    0.000 
#
# Total GULP energy -396771.483719 kJ/mol
# GULP energy per Si atom -12399.108866 kJ/mol
# Density = 2.223548 g / cm^3
# Si number density = 22.286206 Si / 1000 Ang^3
#
#
#
# Elastic Constant Matrix: (Units=GPa)
#
#
# Indices 1 2 3 4 5 6 
#
# 1 151.5968 40.4311 65.2079 0.0000 1.5701 0.0000
# 2 40.4311 92.1444 43.1127 0.0000 -1.1673 0.0000
# 3 65.2079 43.1127 117.5028 -0.0001 -0.4394 -0.0001
# 4 0.0000 0.0000 -0.0001 33.4109 0.0000 3.2109
# 5 1.5701 -1.1673 -0.4394 0.0000 44.5610 0.0000
# 6 0.0000 0.0000 -0.0001 3.2109 0.0000 26.0835
#
#
#
# Elastic Compliance Matrix: (Units=1/GPa)
#
#
# Indices 1 2 3 4 5 6 
#
# 1 0.008949 -0.001941 -0.004256 0.000000 -0.000408 0.000000
# 2 -0.001941 0.013526 -0.003885 0.000000 0.000384 0.000000
# 3 -0.004256 -0.003885 0.012298 0.000000 0.000169 0.000000
# 4 0.000000 0.000000 0.000000 0.030289 0.000000 -0.003729
# 5 -0.000408 0.000384 0.000169 0.000000 0.022467 0.000000
# 6 0.000000 0.000000 0.000000 -0.003729 0.000000 0.038797
#
#
# Mechanical properties :
#
#
# Convention : Reuss Voigt Hill
#
# Bulk Modulus (GPa) = 68.43874 73.19418 70.81646
# Shear Modulus (GPa) = 33.03415 34.97723 34.00569
#
# Velocity S-wave (km/s) = 3.85420 3.96593 3.91047
# Velocity P-wave (km/s) = 7.11211 7.34068 7.22730
#
# Compressibility (1/GPa) = 0.01461161
#
# Stress axis : x y z
#
# Youngs Moduli (GPa) = 111.74777 73.92940 81.31416
#
# Poissons Ratio (x) = 0.14347 0.34604
# Poissons Ratio (y) = 0.21686 0.31587
# Poissons Ratio (z) = 0.47555 0.28719
#
# Static dielectric constant tensor:
#      x y z
#    x 4.192840 0.000000 -0.062060 
#    y 0.000000 3.889720 0.000000 
#    z -0.062060 0.000000 4.073020 
# 
# 
# High freq. dielectric constant tensor:
#      x y z
#    x 1.889240 0.000000 -0.001710 
#    y 0.000000 1.867390 0.000000 
#    z -0.001710 0.000000 1.890410 
# 
# From -- ./inp_files/373005.got.cif
#   From: 2010.06.25/outbox.cif.g09.slc.cpg/sg12_187_cif.got.tgz:373005.got - 2010.06.28 00:19:55.
