data_PCOD8110216
_publ_section_title
;
Structure prediction by ZEFSAII (Michael W. Deem and Ramdas Pophale) SiO2 
 PCOD8110216
Probable space group: C 2/M
;
_chemical_formula_sum "Si O2"
_cell_formula_units_Z 56
_cell_length_a 24.950876
_cell_length_b 9.046170
_cell_length_c 18.153632
_cell_angle_alpha 90.000000
_cell_angle_beta 136.475739
_cell_angle_gamma 90.000000
_cell_volume 2821.759377
_symmetry_space_group_name_H-M "C 2/M"
_symmetry_group_IT_number 12
_symmetry_cell_setting 'monoclinic'
loop_
_space_group_symop_operation_xyz
x,y,z
-x,y,-z
-x,-y,-z
x,-y,z
1/2+x,1/2+y,z
1/2-x,1/2+y,-z
1/2-x,1/2-y,-z
1/2+x,1/2-y,z
loop_
_atom_site_type_symbol
_atom_site_label
_atom_site_fract_x
_atom_site_fract_y
_atom_site_fract_z
Si Si1 0.657758 0.829749 0.083953
Si Si2 0.034095 0.824950 0.867914
Si Si3 0.389025 0.170738 0.798484
Si Si4 0.466728 0.331180 0.301790
Si Si5 0.167398 0.169117 0.725095
Si Si6 0.099416 0.331423 0.519440
Si Si7 0.752470 0.170184 0.579641
O O1 0.611074 0.814244 0.113716
O O2 0.745565 0.767393 0.178784
O O3 0.658493 0.000000 0.058435
O O4 0.616033 0.730125 0.981415
O O5 0.030026 0.775722 0.778868
O O6 0.965290 0.747543 0.843473
O O7 0.027552 0.000000 0.870721
O O8 0.312707 0.249957 0.692660
O O9 0.388205 0.000000 0.772966
O O10 0.495070 0.500000 0.334969
O O11 0.378536 0.315035 0.243634
O O12 0.522232 0.235700 0.408094
O O13 0.120155 0.254152 0.616049
O O14 0.173433 0.000000 0.704991
O O15 0.082183 0.500000 0.521170
O O16 0.167648 0.313920 0.528782
O O17 0.750000 0.250000 0.500000
O O18 0.777536 0.000000 0.594575
#
# Coordination Sequence:
#
# PCOD8110216 Si02
#       7
#     8   8   8   8   8   8   8
#     4  10  22  40  63  89 117 155 202 249 298 356
#     4  11  24  40  60  89 123 159 198 248 301 353
#     4  11  22  39  62  88 118 156 202 246 295 357
#     4  10  23  41  61  86 119 160 203 242 293 358
#     4  10  21  41  65  87 116 159 203 243 293 356
#     4  11  23  38  59  90 123 153 194 247 300 351
#     4  11  23  37  57  87 123 160 197 242 297 355
#
# _framework density 19.845775
#
# number of rings (size 3 to 8) (size 9 to 14) (size 15 to 20)
#    0.000    1.429    1.429    3.429    0.000   11.429 
#    0.000    0.000    0.000    0.000    0.000    0.000 
#    0.000    0.000    0.000    0.000    0.000    0.000 
#
# Total GULP energy -347351.702943 kJ/mol
# GULP energy per Si atom -12405.417962 kJ/mol
# Density = 1.980061 g / cm^3
# Si number density = 19.845775 Si / 1000 Ang^3
#
#
#
# Elastic Constant Matrix: (Units=GPa)
#
#
# Indices 1 2 3 4 5 6 
#
# 1 101.7105 47.8331 68.7903 0.0000 10.2669 0.0000
# 2 47.8331 140.5577 176.1702 0.0000 -11.7604 0.0000
# 3 68.7903 176.1702 496.5300 0.0000 -38.9771 0.0000
# 4 0.0000 0.0000 0.0000 39.2076 0.0000 1.2111
# 5 10.2669 -11.7604 -38.9771 0.0000 28.7943 0.0000
# 6 0.0000 0.0000 0.0000 1.2111 0.0000 28.6228
#
#
#
# Elastic Compliance Matrix: (Units=1/GPa)
#
#
# Indices 1 2 3 4 5 6 
#
# 1 0.013100 -0.003728 -0.001095 0.000000 -0.007676 0.000000
# 2 -0.003728 0.013900 -0.004325 0.000000 0.001152 0.000000
# 3 -0.001095 -0.004325 0.004019 0.000000 0.004064 0.000000
# 4 0.000000 0.000000 0.000000 0.025539 0.000000 -0.001081
# 5 -0.007676 0.001152 0.004064 0.000000 0.043438 0.000000
# 6 0.000000 0.000000 0.000000 -0.001081 0.000000 0.034983
#
#
# Mechanical properties :
#
#
# Convention : Reuss Voigt Hill
#
# Bulk Modulus (GPa) = 78.59126 147.15395 112.87261
# Shear Modulus (GPa) = 31.74261 49.05860 40.40060
#
# Velocity S-wave (km/s) = 4.00367 4.97731 4.51680
# Velocity P-wave (km/s) = 7.81406 10.36056 9.17607
#
# Compressibility (1/GPa) = 0.01272406
#
# Stress axis : x y z
#
# Youngs Moduli (GPa) = 76.33365 71.94006 248.80769
#
# Poissons Ratio (x) = 0.26822 0.27235
# Poissons Ratio (y) = 0.28461 1.07607
# Poissons Ratio (z) = 0.08356 0.31113
#
# Static dielectric constant tensor:
#      x y z
#    x 3.751640 0.000000 0.082250 
#    y 0.000000 3.723540 0.000000 
#    z 0.082250 0.000000 3.235860 
# 
# 
# High freq. dielectric constant tensor:
#      x y z
#    x 1.787270 0.000000 0.003920 
#    y 0.000000 1.778340 0.000000 
#    z 0.003920 0.000000 1.778430 
# 
# From -- ./inp_files/288181.got.cif
#   From: 2010.06.25/outbox.cif.g09.slc.cpg/sg12_145_cif.got.tgz:288181.got - 2010.06.28 00:19:55.
