data_PCOD8110892
_publ_section_title
;
Structure prediction by ZEFSAII (Michael W. Deem and Ramdas Pophale) SiO2 
 PCOD8110892
Probable space group: C 2/M
;
_chemical_formula_sum "Si O2"
_cell_formula_units_Z 56
_cell_length_a 23.728740
_cell_length_b 8.748523
_cell_length_c 15.495190
_cell_angle_alpha 90.000000
_cell_angle_beta 60.619475
_cell_angle_gamma 90.000000
_cell_volume 2802.942692
_symmetry_space_group_name_H-M "C 2/M"
_symmetry_group_IT_number 12
_symmetry_cell_setting 'monoclinic'
loop_
_space_group_symop_operation_xyz
x,y,z
-x,y,-z
-x,-y,-z
x,-y,z
1/2+x,1/2+y,z
1/2-x,1/2+y,-z
1/2-x,1/2-y,-z
1/2+x,1/2-y,z
loop_
_atom_site_type_symbol
_atom_site_label
_atom_site_fract_x
_atom_site_fract_y
_atom_site_fract_z
Si Si1 0.971539 0.823068 0.926889
Si Si2 0.212047 0.323495 0.154562
Si Si3 0.286417 0.680778 0.391616
Si Si4 0.567734 0.318638 0.706575
Si Si5 0.663282 0.823085 0.003952
Si Si6 0.812735 0.820854 0.654409
Si Si7 0.946882 0.181538 0.474122
O O1 0.021624 0.758830 0.817687
O O2 0.954660 0.000000 0.921637
O O3 0.908148 0.721329 0.969733
O O4 0.000000 0.800525 0.000000
O O5 0.208652 0.500000 0.183494
O O6 0.286878 0.277142 0.088600
O O7 0.177900 0.220910 0.252722
O O8 0.172401 0.287624 0.097963
O O9 0.286004 0.500000 0.400881
O O10 0.250000 0.750000 0.500000
O O11 0.359741 0.743972 0.332835
O O12 0.250319 0.732277 0.332046
O O13 0.569832 0.500000 0.706851
O O14 0.541000 0.261760 0.633265
O O15 0.676497 0.000000 0.973702
O O16 0.875790 0.763610 0.555681
O O17 0.802222 0.000000 0.650029
O O18 0.000000 0.252356 0.500000
O O19 0.950579 0.000000 0.476116
#
# Coordination Sequence:
#
# PCOD8110892 Si02
#       7
#     8   8   8   8   8   8   8
#     4  10  22  38  60  88 118 158 205 244 293 360
#     4  10  22  40  62  87 118 155 196 242 300 363
#     4  11  21  37  59  83 117 156 198 246 294 348
#     4   9  19  36  56  81 115 157 199 240 288 349
#     4  10  22  41  62  87 119 153 196 249 303 353
#     4  11  22  36  59  91 119 149 197 246 298 357
#     4   9  18  33  55  84 117 153 196 240 286 350
#
# _framework density 19.979002999999999
#
# number of rings (size 3 to 8) (size 9 to 14) (size 15 to 20)
#    0.000    2.000    1.429    1.714    4.000    2.000 
#    0.000    1.429    0.000    1.714    0.000    0.000 
#    0.000    0.000    0.000    0.000    0.000    0.000 
#
# Total GULP energy -347268.642415 kJ/mol
# GULP energy per Si atom -12402.451515 kJ/mol
# Density = 1.993353 g / cm^3
# Si number density = 19.979003 Si / 1000 Ang^3
#
#
#
# Elastic Constant Matrix: (Units=GPa)
#
#
# Indices 1 2 3 4 5 6 
#
# 1 114.4272 18.6854 35.0947 0.0000 2.1924 0.0000
# 2 18.6854 37.3689 13.9742 -0.0001 1.2735 -0.0001
# 3 35.0947 13.9742 118.2160 0.0000 9.7309 0.0000
# 4 0.0000 -0.0001 0.0000 26.5105 0.0000 0.3166
# 5 2.1924 1.2735 9.7309 0.0000 26.8697 0.0000
# 6 0.0000 -0.0001 0.0000 0.3166 0.0000 26.9762
#
#
#
# Elastic Compliance Matrix: (Units=1/GPa)
#
#
# Indices 1 2 3 4 5 6 
#
# 1 0.010197 -0.004151 -0.002560 0.000000 0.000292 0.000000
# 2 -0.004151 0.029688 -0.002256 0.000000 -0.000251 0.000000
# 3 -0.002560 -0.002256 0.009751 0.000000 -0.003215 0.000000
# 4 0.000000 0.000000 0.000000 0.037726 0.000000 -0.000443
# 5 0.000292 -0.000251 -0.003215 0.000000 0.038369 0.000000
# 6 0.000000 0.000000 0.000000 -0.000443 0.000000 0.037075
#
#
# Mechanical properties :
#
#
# Convention : Reuss Voigt Hill
#
# Bulk Modulus (GPa) = 31.54608 45.05787 38.30197
# Shear Modulus (GPa) = 26.13584 29.55513 27.84548
#
# Velocity S-wave (km/s) = 3.62078 3.85035 3.73733
# Velocity P-wave (km/s) = 5.77096 6.50911 6.15112
#
# Compressibility (1/GPa) = 0.03169966
#
# Stress axis : x y z
#
# Youngs Moduli (GPa) = 98.07079 33.68342 102.55775
#
# Poissons Ratio (x) = 0.13982 0.26259
# Poissons Ratio (y) = 0.40710 0.23141
# Poissons Ratio (z) = 0.25110 0.07600
#
# Static dielectric constant tensor:
#      x y z
#    x 3.808480 0.000000 0.074000 
#    y 0.000000 3.337820 0.000000 
#    z 0.074000 0.000000 3.819010 
# 
# 
# High freq. dielectric constant tensor:
#      x y z
#    x 1.787050 0.000000 0.005020 
#    y 0.000000 1.751420 0.000000 
#    z 0.005020 0.000000 1.789680 
# 
# From -- ./inp_files/238330.got.cif
#   From: 2010.06.25/outbox.cif.g09.slc.cpg/sg12_120_cif.got.tgz:238330.got - 2010.06.28 00:19:55.
