data_PCOD8110685
_publ_section_title
;
Structure prediction by ZEFSAII (Michael W. Deem and Ramdas Pophale) SiO2 
 PCOD8110685
Probable space group: C 2/M
;
_chemical_formula_sum "Si O2"
_cell_formula_units_Z 56
_cell_length_a 14.347432
_cell_length_b 20.314901
_cell_length_c 13.471405
_cell_angle_alpha 90.000000
_cell_angle_beta 131.781011
_cell_angle_gamma 90.000000
_cell_volume 2927.952947
_symmetry_space_group_name_H-M "C 2/M"
_symmetry_group_IT_number 12
_symmetry_cell_setting 'monoclinic'
loop_
_space_group_symop_operation_xyz
x,y,z
-x,y,-z
-x,-y,-z
x,-y,z
1/2+x,1/2+y,z
1/2-x,1/2+y,-z
1/2-x,1/2-y,-z
1/2+x,1/2-y,z
loop_
_atom_site_type_symbol
_atom_site_label
_atom_site_fract_x
_atom_site_fract_y
_atom_site_fract_z
Si Si1 0.001752 0.688999 0.719380
Si Si2 0.394300 0.302429 0.506575
Si Si3 0.355075 0.753736 0.777578
Si Si4 0.857877 0.072497 0.618192
Si Si5 0.419013 0.925501 0.535501
Si Si6 0.497756 0.377828 0.888895
Si Si7 0.278009 0.712180 0.922976
O O1 0.937967 0.749966 0.618124
O O2 0.970244 0.703153 0.813897
O O3 0.943783 0.619252 0.648966
O O4 0.146363 0.683428 0.792031
O O5 0.500000 0.314214 0.500000
O O6 0.269804 0.272968 0.369591
O O7 0.369139 0.372162 0.541717
O O8 0.387388 0.676195 0.795039
O O9 0.337112 0.762665 0.883489
O O10 0.728993 0.079002 0.589459
O O11 0.971463 0.072848 0.779553
O O12 0.862548 0.000000 0.570228
O O13 0.500000 0.898158 0.500000
O O14 0.461790 0.000000 0.589647
O O15 0.500000 0.411583 0.000000
O O16 0.633275 0.345901 0.977524
O O17 0.250000 0.750000 0.000000
#
# Coordination Sequence:
#
# PCOD8110685 Si02
#       7
#     8   8   8   8   8   8   8
#     4  12  21  35  63  87 117 152 188 243 299 345
#     4  12  22  36  61  91 116 148 198 241 300 349
#     4  11  21  36  58  89 117 147 189 244 292 349
#     4  11  23  41  59  82 120 158 195 244 295 349
#     4  10  23  38  57  86 119 153 194 241 297 354
#     4  10  22  37  55  84 120 150 198 234 286 348
#     4  11  22  36  55  88 120 150 188 243 287 345
#
# _framework density 19.125990999999999
#
# number of rings (size 3 to 8) (size 9 to 14) (size 15 to 20)
#    0.000    1.000    5.714    1.714    4.000    0.571 
#    0.000    0.714    0.000    0.000    0.000    1.000 
#    0.000    0.000    0.000    0.000    0.000    0.000 
#
# Total GULP energy -346944.913208 kJ/mol
# GULP energy per Si atom -12390.889757 kJ/mol
# Density = 1.908246 g / cm^3
# Si number density = 19.125991 Si / 1000 Ang^3
#
#
#
# Elastic Constant Matrix: (Units=GPa)
#
#
# Indices 1 2 3 4 5 6 
#
# 1 124.2919 31.5662 29.6512 0.0000 -2.4425 0.0000
# 2 31.5662 89.6409 38.2533 0.0000 0.9198 0.0000
# 3 29.6512 38.2533 72.7596 0.0000 0.1567 0.0000
# 4 0.0000 0.0000 0.0000 21.9058 0.0000 -1.6205
# 5 -2.4425 0.9198 0.1567 0.0000 28.7425 0.0000
# 6 0.0000 0.0000 0.0000 -1.6205 0.0000 19.1849
#
#
#
# Elastic Compliance Matrix: (Units=1/GPa)
#
#
# Indices 1 2 3 4 5 6 
#
# 1 0.009235 -0.002133 -0.002644 0.000000 0.000867 0.000000
# 2 -0.002133 0.014880 -0.006953 0.000000 -0.000620 0.000000
# 3 -0.002644 -0.006953 0.018477 0.000000 -0.000103 0.000000
# 4 0.000000 0.000000 0.000000 0.045937 0.000000 0.003880
# 5 0.000867 -0.000620 -0.000103 0.000000 0.034886 0.000000
# 6 0.000000 0.000000 0.000000 0.003880 0.000000 0.052452
#
#
# Mechanical properties :
#
#
# Convention : Reuss Voigt Hill
#
# Bulk Modulus (GPa) = 52.26532 53.95930 53.11231
# Shear Modulus (GPa) = 24.30682 26.44808 25.37745
#
# Velocity S-wave (km/s) = 3.56881 3.72268 3.64656
# Velocity P-wave (km/s) = 6.66093 6.83752 6.74980
#
# Compressibility (1/GPa) = 0.01913315
#
# Stress axis : x y z
#
# Youngs Moduli (GPa) = 108.28347 67.20459 54.12120
#
# Poissons Ratio (x) = 0.14332 0.14310
# Poissons Ratio (y) = 0.23092 0.37629
# Poissons Ratio (z) = 0.28632 0.46725
#
# Static dielectric constant tensor:
#      x y z
#    x 4.790870 0.000000 0.367450 
#    y 0.000000 3.311700 0.000000 
#    z 0.367450 0.000000 3.741050 
# 
# 
# High freq. dielectric constant tensor:
#      x y z
#    x 1.756490 0.000000 0.009560 
#    y 0.000000 1.716280 0.000000 
#    z 0.009560 0.000000 1.747260 
# 
# From -- ./inp_files/169505.got.cif
#   From: 2010.06.25/outbox.cif.g09.slc.cpg/sg12_85_cif.got.tgz:169505.got - 2010.06.28 00:19:55.
