data_PCOD8110916
_publ_section_title
;
Structure prediction by ZEFSAII (Michael W. Deem and Ramdas Pophale) SiO2 
 PCOD8110916
Probable space group: C 2/M
;
_chemical_formula_sum "Si O2"
_cell_formula_units_Z 56
_cell_length_a 9.842663
_cell_length_b 17.701137
_cell_length_c 19.731062
_cell_angle_alpha 90.000000
_cell_angle_beta 120.256700
_cell_angle_gamma 90.000000
_cell_volume 2969.379252
_symmetry_space_group_name_H-M "C 2/M"
_symmetry_group_IT_number 12
_symmetry_cell_setting 'monoclinic'
loop_
_space_group_symop_operation_xyz
x,y,z
-x,y,-z
-x,-y,-z
x,-y,z
1/2+x,1/2+y,z
1/2-x,1/2+y,-z
1/2-x,1/2-y,-z
1/2+x,1/2-y,z
loop_
_atom_site_type_symbol
_atom_site_label
_atom_site_fract_x
_atom_site_fract_y
_atom_site_fract_z
Si Si1 0.593895 0.336165 0.184239
Si Si2 0.360620 0.319527 0.012848
Si Si3 0.819632 0.588704 0.138111
Si Si4 0.145907 0.336813 0.234806
Si Si5 0.604942 0.331106 0.429795
Si Si6 0.463113 0.586867 0.278733
Si Si7 0.718280 0.700362 0.595463
O O1 0.435548 0.350986 0.101027
O O2 0.745909 0.367792 0.183584
O O3 0.616586 0.247604 0.202021
O O4 0.577410 0.380426 0.250138
O O5 0.500000 0.288971 0.000000
O O6 0.250000 0.250000 0.000000
O O7 0.265987 0.387043 0.952979
O O8 0.797828 0.500000 0.142396
O O9 0.002304 0.609556 0.178887
O O10 0.299974 0.367771 0.235946
O O11 0.166431 0.339650 0.321750
O O12 0.552078 0.404301 0.373657
O O13 0.448880 0.283415 0.410412
O O14 0.695595 0.352731 0.522618
O O15 0.714662 0.280817 0.409764
O O16 0.427615 0.500000 0.256687
#
# Coordination Sequence:
#
# PCOD8110916 Si02
#       7
#     8   8   8   8   8   8   8
#     4  11  22  38  63  83 111 154 196 232 279 344
#     4  10  22  38  61  84 112 148 193 232 279 344
#     4  11  24  40  59  86 119 150 187 239 292 339
#     4  11  21  37  60  87 113 151 195 236 279 339
#     4   9  18  34  53  83 110 147 187 234 277 331
#     4  11  23  37  56  87 122 149 185 240 295 335
#     4   9  18  32  56  83 108 144 194 234 270 331
#
# _framework density 18.859159999999999
#
# number of rings (size 3 to 8) (size 9 to 14) (size 15 to 20)
#    0.000    1.714    2.857    1.714    4.000    3.143 
#    0.000    6.429    0.000    2.143    0.000    5.000 
#    0.000    0.000    0.000    0.000    0.000    0.000 
#
# Total GULP energy -347178.482635 kJ/mol
# GULP energy per Si atom -12399.231523 kJ/mol
# Density = 1.881624 g / cm^3
# Si number density = 18.859160 Si / 1000 Ang^3
#
#
#
# Elastic Constant Matrix: (Units=GPa)
#
#
# Indices 1 2 3 4 5 6 
#
# 1 56.1635 26.9774 28.0762 0.0000 -1.2719 0.0000
# 2 26.9774 92.9144 38.3315 0.0000 -1.8298 0.0000
# 3 28.0762 38.3315 104.0510 0.0000 5.4335 0.0000
# 4 0.0000 0.0000 0.0000 17.9543 0.0000 2.5559
# 5 -1.2719 -1.8298 5.4335 0.0000 27.6502 0.0000
# 6 0.0000 0.0000 0.0000 2.5559 0.0000 19.7520
#
#
#
# Elastic Compliance Matrix: (Units=1/GPa)
#
#
# Indices 1 2 3 4 5 6 
#
# 1 0.022252 -0.004621 -0.004385 0.000000 0.001579 0.000000
# 2 -0.004621 0.013738 -0.003890 0.000000 0.001461 0.000000
# 3 -0.004385 -0.003890 0.012378 0.000000 -0.002892 0.000000
# 4 0.000000 0.000000 0.000000 0.056742 0.000000 -0.007342
# 5 0.001579 0.001461 -0.002892 0.000000 0.036904 0.000000
# 6 0.000000 0.000000 0.000000 -0.007342 0.000000 0.051578
#
#
# Mechanical properties :
#
#
# Convention : Reuss Voigt Hill
#
# Bulk Modulus (GPa) = 44.29377 48.87770 46.58573
# Shear Modulus (GPa) = 22.03523 23.72089 22.87806
#
# Velocity S-wave (km/s) = 3.42191 3.55038 3.48674
# Velocity P-wave (km/s) = 6.25701 6.54068 6.40042
#
# Compressibility (1/GPa) = 0.02257654
#
# Stress axis : x y z
#
# Youngs Moduli (GPa) = 44.93899 72.79066 80.78894
#
# Poissons Ratio (x) = 0.33636 0.35422
# Poissons Ratio (y) = 0.20766 0.31430
# Poissons Ratio (z) = 0.19704 0.28318
#
# Static dielectric constant tensor:
#      x y z
#    x 3.524200 0.000000 0.017960 
#    y 0.000000 3.128590 0.000000 
#    z 0.017960 0.000000 3.952640 
# 
# 
# High freq. dielectric constant tensor:
#      x y z
#    x 1.739740 0.000000 -0.000300 
#    y 0.000000 1.700670 0.000000 
#    z -0.000300 0.000000 1.752180 
# 
# From -- ./inp_files/257206.got.cif
#   From: 2010.06.25/outbox.cif.g09.slc.cpg/sg12_129_cif.got.tgz:257206.got - 2010.06.28 00:19:55.
