data_PCOD8110795
_publ_section_title
;
Structure prediction by ZEFSAII (Michael W. Deem and Ramdas Pophale) SiO2 
 PCOD8110795
Probable space group: C 2/M
;
_chemical_formula_sum "Si O2"
_cell_formula_units_Z 36
_cell_length_a 14.145329
_cell_length_b 26.685032
_cell_length_c 15.288720
_cell_angle_alpha 90.000000
_cell_angle_beta 160.183060
_cell_angle_gamma 90.000000
_cell_volume 1956.465582
_symmetry_space_group_name_H-M "C 2/M"
_symmetry_group_IT_number 12
_symmetry_cell_setting 'monoclinic'
loop_
_space_group_symop_operation_xyz
x,y,z
-x,y,-z
-x,-y,-z
x,-y,z
1/2+x,1/2+y,z
1/2-x,1/2+y,-z
1/2-x,1/2-y,-z
1/2+x,1/2-y,z
loop_
_atom_site_type_symbol
_atom_site_label
_atom_site_fract_x
_atom_site_fract_y
_atom_site_fract_z
Si Si1 0.465601 0.634903 0.701740
Si Si2 0.477577 0.812429 0.583274
Si Si3 0.819800 0.500000 0.254906
Si Si4 0.823460 0.794583 0.260012
Si Si5 0.891544 0.596977 0.200925
O O1 0.338307 0.676935 0.657445
O O2 0.637417 0.660695 0.774183
O O3 0.207588 0.602435 0.438273
O O4 0.670484 0.596181 0.929797
O O5 0.500000 0.818306 0.500000
O O6 0.570666 0.756837 0.692320
O O7 0.680780 0.854077 0.802958
O O8 0.884625 0.548185 0.253930
O O9 0.000000 0.500000 0.500000
O O10 0.500000 0.500000 0.000000
O O11 0.000000 0.806818 0.500000
O O12 0.500000 0.789231 0.000000
#
# Coordination Sequence:
#
# PCOD8110795 Si02
#       5
#     8   8   4   8   8
#     4  10  22  38  56  82 117 155 194 238 283 343
#     4   9  22  34  57  80 122 151 193 221 288 345
#     4  12  24  38  60  90 122 154 196 232 282 354
#     4  11  23  36  58  85 114 154 197 242 290 335
#     4  10  23  35  59  79 119 154 189 228 288 334
#
# _framework density 18.400527
#
# number of rings (size 3 to 8) (size 9 to 14) (size 15 to 20)
#    1.333    0.444    0.000    4.000    9.333    0.889 
#    0.000    0.000    0.000    0.000    0.000   15.556 
#    0.000    0.000    0.000    0.000    0.000    0.000 
#
# Total GULP energy -223066.043052 kJ/mol
# GULP energy per Si atom -12392.557947 kJ/mol
# Density = 1.835865 g / cm^3
# Si number density = 18.400527 Si / 1000 Ang^3
#
#
#
# Elastic Constant Matrix: (Units=GPa)
#
#
# Indices 1 2 3 4 5 6 
#
# 1 59.0854 37.9966 31.0059 -0.0280 -1.3080 -0.0442
# 2 37.9966 96.0692 37.7635 -0.0068 -6.4973 -0.0108
# 3 31.0059 37.7635 141.8477 -0.0266 3.9187 -0.0457
# 4 -0.0280 -0.0068 -0.0266 23.9657 -0.0314 -10.3581
# 5 -1.3080 -6.4973 3.9187 -0.0314 26.1546 -0.0484
# 6 -0.0442 -0.0108 -0.0457 -10.3581 -0.0484 23.5993
#
#
#
# Elastic Compliance Matrix: (Units=1/GPa)
#
#
# Indices 1 2 3 4 5 6 
#
# 1 0.023800 -0.008266 -0.002990 0.000045 -0.000415 0.000054
# 2 -0.008266 0.014799 -0.002233 -0.000007 0.003598 -0.000009
# 3 -0.002990 -0.002233 0.008352 0.000006 -0.001955 0.000008
# 4 0.000045 -0.000007 0.000006 0.051495 0.000103 0.022602
# 5 -0.000415 0.003598 -0.001955 0.000103 0.039400 0.000123
# 6 0.000054 -0.000009 0.000008 0.022602 0.000123 0.052295
#
#
# Mechanical properties :
#
#
# Convention : Reuss Voigt Hill
#
# Bulk Modulus (GPa) = 50.06523 56.72603 53.39563
# Shear Modulus (GPa) = 22.34355 27.42634 24.88494
#
# Velocity S-wave (km/s) = 3.48844 3.86491 3.68149
# Velocity P-wave (km/s) = 6.59495 7.12826 6.86678
#
# Compressibility (1/GPa) = 0.01997394
#
# Stress axis : x y z
#
# Youngs Moduli (GPa) = 42.01606 67.57053 119.73402
#
# Poissons Ratio (x) = 0.55854 0.35804
# Poissons Ratio (y) = 0.34730 0.26731
# Poissons Ratio (z) = 0.12564 0.15085
#
# Static dielectric constant tensor:
#      x y z
#    x 3.124180 -0.000020 0.087740 
#    y -0.000020 3.262030 -0.000060 
#    z 0.087740 -0.000060 3.233240 
# 
# 
# High freq. dielectric constant tensor:
#      x y z
#    x 1.696370 0.000000 0.004450 
#    y 0.000000 1.694460 0.000000 
#    z 0.004450 0.000000 1.726550 
# 
# From -- ./inp_files/12001.got.cif
#   From: 2010.06.25/outbox.cif.g09.slc.cpg/sg12_7_cif.got.tgz:12001.got - 2010.06.28 00:19:55.
