data_PCOD8110427
_publ_section_title
;
Structure prediction by ZEFSAII (Michael W. Deem and Ramdas Pophale) SiO2 
 PCOD8110427
Probable space group: C 2/M
;
_chemical_formula_sum "Si O2"
_cell_formula_units_Z 60
_cell_length_a 12.604025
_cell_length_b 17.368099
_cell_length_c 21.836108
_cell_angle_alpha 90.000000
_cell_angle_beta 142.691750
_cell_angle_gamma 90.000000
_cell_volume 2897.231256
_symmetry_space_group_name_H-M "C 2/M"
_symmetry_group_IT_number 12
_symmetry_cell_setting 'monoclinic'
loop_
_space_group_symop_operation_xyz
x,y,z
-x,y,-z
-x,-y,-z
x,-y,z
1/2+x,1/2+y,z
1/2-x,1/2+y,-z
1/2-x,1/2-y,-z
1/2+x,1/2-y,z
loop_
_atom_site_type_symbol
_atom_site_label
_atom_site_fract_x
_atom_site_fract_y
_atom_site_fract_z
Si Si1 0.752235 0.700419 0.699512
Si Si2 0.228969 0.086955 0.365829
Si Si3 0.888160 0.664857 0.186515
Si Si4 0.181475 0.853259 0.209908
Si Si5 0.648435 0.587714 0.752181
Si Si6 0.699654 0.589912 0.990051
Si Si7 0.500000 0.793740 0.500000
Si Si8 0.811529 0.318199 0.926194
O O1 0.842851 0.762649 0.786145
O O2 0.663244 0.631999 0.695533
O O3 0.588673 0.739904 0.590802
O O4 0.900415 0.664944 0.722634
O O5 0.235166 0.100469 0.295485
O O6 0.352220 0.147538 0.458543
O O7 0.036311 0.102788 0.301066
O O8 0.289753 0.000000 0.407930
O O9 0.836462 0.638409 0.231163
O O10 0.831216 0.752009 0.146261
O O11 0.795922 0.605113 0.098255
O O12 0.003249 0.886041 0.099332
O O13 0.683602 0.500000 0.752458
O O14 0.791479 0.615623 0.866225
O O15 0.713672 0.500000 0.979498
O O16 0.799039 0.642186 0.986346
O O17 0.000000 0.279911 0.000000
#
# Coordination Sequence:
#
# PCOD8110427 Si02
#       8
#     8   8   8   8   8   8   4   8
#     4  11  24  44  66  95 128 164 216 267 319 388
#     4  10  21  42  68  98 132 162 210 268 321 375
#     4  12  25  41  63  93 131 177 213 262 316 377
#     4  11  22  40  64  94 130 175 211 255 316 373
#     4  11  23  42  68  94 128 167 209 268 323 373
#     4  12  25  40  61  94 134 174 217 260 313 374
#     4  10  23  42  69  98 122 166 212 266 323 388
#     4  12  22  38  62  91 127 171 221 261 306 371
#
# _framework density 20.709427000000002
#
# number of rings (size 3 to 8) (size 9 to 14) (size 15 to 20)
#    0.000    0.800    4.000    4.200    0.000    4.800 
#    2.400    0.333    0.000    0.000    0.000    0.000 
#    0.000    0.000    0.000    0.000    0.000    0.000 
#
# Total GULP energy -372035.808268 kJ/mol
# GULP energy per Si atom -12401.193609 kJ/mol
# Density = 2.066229 g / cm^3
# Si number density = 20.709427 Si / 1000 Ang^3
#
#
#
# Elastic Constant Matrix: (Units=GPa)
#
#
# Indices 1 2 3 4 5 6 
#
# 1 143.9745 40.1957 39.5779 0.0003 -10.0931 0.0001
# 2 40.1957 102.5223 29.5676 0.0002 -2.1458 0.0001
# 3 39.5779 29.5676 89.0174 -0.0013 7.3462 -0.0003
# 4 0.0003 0.0002 -0.0013 30.4939 -0.0003 -2.5427
# 5 -10.0931 -2.1458 7.3462 -0.0003 8.2238 0.0000
# 6 0.0001 0.0001 -0.0003 -2.5427 0.0000 26.4412
#
#
#
# Elastic Compliance Matrix: (Units=1/GPa)
#
#
# Indices 1 2 3 4 5 6 
#
# 1 0.010108 -0.002136 -0.005141 0.000000 0.016441 0.000000
# 2 -0.002136 0.011570 -0.003159 0.000000 0.003219 0.000000
# 3 -0.005141 -0.003159 0.016364 0.000001 -0.021752 0.000000
# 4 0.000000 0.000000 0.000001 0.033059 0.000000 0.003179
# 5 0.016441 0.003219 -0.021752 0.000000 0.162046 0.000000
# 6 0.000000 0.000000 0.000000 0.003179 0.000000 0.038126
#
#
# Mechanical properties :
#
#
# Convention : Reuss Voigt Hill
#
# Bulk Modulus (GPa) = 58.24430 61.57739 59.91085
# Shear Modulus (GPa) = 16.78596 28.10998 22.44797
#
# Velocity S-wave (km/s) = 2.85010 3.68822 3.29591
# Velocity P-wave (km/s) = 6.24631 6.92357 6.59364
#
# Compressibility (1/GPa) = 0.01716906
#
# Stress axis : x y z
#
# Youngs Moduli (GPa) = 98.93211 86.43129 61.10995
#
# Poissons Ratio (x) = 0.18463 0.31419
# Poissons Ratio (y) = 0.21133 0.19304
# Poissons Ratio (z) = 0.50864 0.27303
#
# Static dielectric constant tensor:
#      x y z
#    x 3.834690 0.000000 0.123050 
#    y 0.000000 3.818420 0.000000 
#    z 0.123050 0.000000 3.681220 
# 
# 
# High freq. dielectric constant tensor:
#      x y z
#    x 1.815340 0.000000 0.010170 
#    y 0.000000 1.815360 0.000000 
#    z 0.010170 0.000000 1.794730 
# 
# From -- ./inp_files/306388.got.cif
#   From: 2010.06.25/outbox.cif.g09.slc.cpg/sg12_154_cif.got.tgz:306388.got - 2010.06.28 00:19:55.
