data_PCOD8110626
_publ_section_title
;
Structure prediction by ZEFSAII (Michael W. Deem and Ramdas Pophale) SiO2 
 PCOD8110626
Probable space group: C 2/M
;
_chemical_formula_sum "Si O2"
_cell_formula_units_Z 56
_cell_length_a 17.410255
_cell_length_b 30.036112
_cell_length_c 5.390869
_cell_angle_alpha 90.000000
_cell_angle_beta 109.247499
_cell_angle_gamma 90.000000
_cell_volume 2661.504423
_symmetry_space_group_name_H-M "C 2/M"
_symmetry_group_IT_number 12
_symmetry_cell_setting 'monoclinic'
loop_
_space_group_symop_operation_xyz
x,y,z
-x,y,-z
-x,-y,-z
x,-y,z
1/2+x,1/2+y,z
1/2-x,1/2+y,-z
1/2-x,1/2-y,-z
1/2+x,1/2-y,z
loop_
_atom_site_type_symbol
_atom_site_label
_atom_site_fract_x
_atom_site_fract_y
_atom_site_fract_z
Si Si1 0.930321 0.740459 0.726708
Si Si2 0.187590 0.548841 0.233276
Si Si3 0.123800 0.662475 0.637854
Si Si4 0.952788 0.159762 0.690928
Si Si5 0.724070 0.635939 0.539527
Si Si6 0.911149 0.565123 0.373037
Si Si7 0.288396 0.213033 0.874752
O O1 0.936036 0.698006 0.554072
O O2 0.939567 0.788268 0.607742
O O3 0.836131 0.739985 0.714575
O O4 0.000000 0.733817 0.000000
O O5 0.230818 0.500000 0.271622
O O6 0.252566 0.589300 0.300171
O O7 0.139500 0.550831 0.440739
O O8 0.130135 0.550866 0.929794
O O9 0.209275 0.649973 0.593534
O O10 0.074109 0.617776 0.621687
O O11 0.142509 0.683575 0.921999
O O12 0.868742 0.132770 0.653180
O O13 0.000000 0.139432 0.500000
O O14 0.000000 0.154311 0.000000
O O15 0.719981 0.677748 0.723093
O O16 0.000000 0.542892 0.500000
O O17 0.250000 0.250000 0.000000
#
# Coordination Sequence:
#
# PCOD8110626 Si02
#       7
#     8   8   8   8   8   8   8
#     4  10  24  35  53  87 125 170 214 256 300 359
#     4  11  24  44  67  94 120 164 211 256 315 370
#     4  10  22  36  58  85 121 170 210 253 296 364
#     4  11  26  41  62  90 123 163 204 258 318 370
#     4  10  23  42  61  89 122 159 211 257 309 375
#     4  11  24  39  63  93 134 165 206 255 309 361
#     4  11  21  35  61  84 119 167 210 256 301 357
#
# _framework density 21.040731000000001
#
# number of rings (size 3 to 8) (size 9 to 14) (size 15 to 20)
#    0.000    1.429    1.429    2.571   12.000    4.000 
#    0.000    0.000    0.000    0.857    0.000    0.000 
#    0.000    0.000    0.000    0.000    0.000    0.000 
#
# Total GULP energy -346912.477926 kJ/mol
# GULP energy per Si atom -12389.731355 kJ/mol
# Density = 2.099284 g / cm^3
# Si number density = 21.040731 Si / 1000 Ang^3
#
#
#
# Elastic Constant Matrix: (Units=GPa)
#
#
# Indices 1 2 3 4 5 6 
#
# 1 86.5665 34.9256 31.3136 0.0000 14.4061 0.0000
# 2 34.9256 99.1851 32.3461 0.0000 12.1958 0.0000
# 3 31.3136 32.3461 101.8417 0.0000 2.7187 0.0000
# 4 0.0000 0.0000 0.0000 61.3743 0.0000 -16.8155
# 5 14.4061 12.1958 2.7187 0.0000 36.2221 0.0000
# 6 0.0000 0.0000 0.0000 -16.8155 0.0000 8.9844
#
#
#
# Elastic Compliance Matrix: (Units=1/GPa)
#
#
# Indices 1 2 3 4 5 6 
#
# 1 0.014967 -0.003634 -0.003328 0.000000 -0.004479 0.000000
# 2 -0.003634 0.012598 -0.002815 0.000000 -0.002585 0.000000
# 3 -0.003328 -0.002815 0.011699 0.000000 0.001393 0.000000
# 4 0.000000 0.000000 0.000000 0.033443 0.000000 0.062592
# 5 -0.004479 -0.002585 0.001393 0.000000 0.030155 0.000000
# 6 0.000000 0.000000 0.000000 0.062592 0.000000 0.228453
#
#
# Mechanical properties :
#
#
# Convention : Reuss Voigt Hill
#
# Bulk Modulus (GPa) = 50.73568 53.86264 52.29916
# Shear Modulus (GPa) = 13.98840 33.91672 23.95256
#
# Velocity S-wave (km/s) = 2.58122 4.01927 3.37766
# Velocity P-wave (km/s) = 5.74883 6.86980 6.33416
#
# Compressibility (1/GPa) = 0.01971000
#
# Stress axis : x y z
#
# Youngs Moduli (GPa) = 66.81180 79.38005 85.47528
#
# Poissons Ratio (x) = 0.28848 0.28448
# Poissons Ratio (y) = 0.24281 0.24059
# Poissons Ratio (z) = 0.22236 0.22343
#
# Static dielectric constant tensor:
#      x y z
#    x 3.685850 0.000000 -0.035560 
#    y 0.000000 3.849580 0.000000 
#    z -0.035560 0.000000 3.933740 
# 
# 
# High freq. dielectric constant tensor:
#      x y z
#    x 1.813240 0.000000 -0.001160 
#    y 0.000000 1.816500 0.000000 
#    z -0.001160 0.000000 1.831880 
# 
# From -- ./inp_files/17652.got.cif
#   From: 2010.06.25/outbox.cif.g09.slc.cpg/sg12_9_cif.got.tgz:17652.got - 2010.06.28 00:19:55.
