data_PCOD8110021
_publ_section_title
;
Structure prediction by ZEFSAII (Michael W. Deem and Ramdas Pophale) SiO2 
 PCOD8110021
Probable space group: C 2/M
;
_chemical_formula_sum "Si O2"
_cell_formula_units_Z 64
_cell_length_a 31.808649
_cell_length_b 8.665732
_cell_length_c 16.112352
_cell_angle_alpha 90.000000
_cell_angle_beta 47.251833
_cell_angle_gamma 90.000000
_cell_volume 3261.437818
_symmetry_space_group_name_H-M "C 2/M"
_symmetry_group_IT_number 12
_symmetry_cell_setting 'monoclinic'
loop_
_space_group_symop_operation_xyz
x,y,z
-x,y,-z
-x,-y,-z
x,-y,z
1/2+x,1/2+y,z
1/2-x,1/2+y,-z
1/2-x,1/2-y,-z
1/2+x,1/2-y,z
loop_
_atom_site_type_symbol
_atom_site_label
_atom_site_fract_x
_atom_site_fract_y
_atom_site_fract_z
Si Si1 0.243264 0.820880 0.598494
Si Si2 0.926752 0.681397 0.362355
Si Si3 0.871080 0.677209 0.263723
Si Si4 0.834421 0.818671 0.597683
Si Si5 0.666714 0.319636 0.057771
Si Si6 0.222714 0.180703 0.157204
Si Si7 0.552647 0.181844 0.146199
Si Si8 0.940285 0.167148 0.041061
O O1 0.250000 0.750000 0.500000
O O2 0.177741 0.788871 0.707646
O O3 0.284001 0.730212 0.604996
O O4 0.259435 0.000000 0.579138
O O5 0.921517 0.500000 0.375531
O O6 0.894964 0.736928 0.320419
O O7 0.895255 0.750915 0.485431
O O8 0.993527 0.731566 0.271697
O O9 0.850992 0.500000 0.297606
O O10 0.917044 0.695801 0.130126
O O11 0.816233 0.760144 0.713819
O O12 0.841358 0.000000 0.588134
O O13 0.655516 0.500000 0.060143
O O14 0.687641 0.278795 0.121870
O O15 0.607459 0.227898 0.127268
O O16 0.715504 0.265607 0.926937
O O17 0.235763 0.000000 0.147587
O O18 0.552242 0.000000 0.129755
O O19 0.556260 0.271925 0.056144
O O20 0.907069 0.000000 0.084981
O O21 0.000000 0.127690 0.000000
#
# Coordination Sequence:
#
# PCOD8110021 Si02
#       8
#     8   8   8   8   8   8   8   8
#     4  12  24  38  56  82 117 156 200 245 290 346
#     4  10  22  39  59  83 117 159 201 243 292 347
#     4  11  22  38  57  79 114 158 200 245 294 344
#     4  11  23  39  62  88 117 156 198 244 297 354
#     4  10  21  40  66  93 120 150 191 243 296 354
#     4   9  21  42  65  91 121 153 189 236 301 363
#     4  11  23  40  61  86 119 159 200 243 297 355
#     4  11  23  37  56  84 117 154 200 246 290 345
#
# _framework density 19.623248
#
# number of rings (size 3 to 8) (size 9 to 14) (size 15 to 20)
#    0.000    1.375    2.500    3.000    1.750    3.500 
#    0.000    0.625    0.000    3.750    0.000    0.000 
#    0.000    0.000    0.000    0.000    0.000    0.000 
#
# Total GULP energy -396682.796434 kJ/mol
# GULP energy per Si atom -12396.337389 kJ/mol
# Density = 1.957858 g / cm^3
# Si number density = 19.623248 Si / 1000 Ang^3
#
#
#
# Elastic Constant Matrix: (Units=GPa)
#
#
# Indices 1 2 3 4 5 6 
#
# 1 84.8926 19.0749 48.9882 0.0000 -9.6092 0.0000
# 2 19.0749 40.6400 34.9447 0.0001 -3.7059 0.0000
# 3 48.9882 34.9447 151.2281 0.0000 -0.9727 0.0000
# 4 0.0000 0.0001 0.0000 35.3552 -0.0001 -2.7585
# 5 -9.6092 -3.7059 -0.9727 -0.0001 30.8535 0.0000
# 6 0.0000 0.0000 0.0000 -2.7585 0.0000 29.9433
#
#
#
# Elastic Compliance Matrix: (Units=1/GPa)
#
#
# Indices 1 2 3 4 5 6 
#
# 1 0.015426 -0.003215 -0.004226 0.000000 0.004285 0.000000
# 2 -0.003215 0.031753 -0.006279 0.000000 0.002615 0.000000
# 3 -0.004226 -0.006279 0.009421 0.000000 -0.001773 0.000000
# 4 0.000000 0.000000 0.000000 0.028489 0.000000 0.002625
# 5 0.004285 0.002615 -0.001773 0.000000 0.034004 0.000000
# 6 0.000000 0.000000 0.000000 0.002625 0.000000 0.033638
#
#
# Mechanical properties :
#
#
# Convention : Reuss Voigt Hill
#
# Bulk Modulus (GPa) = 34.29534 53.64180 43.96857
# Shear Modulus (GPa) = 26.33073 30.81394 28.57233
#
# Velocity S-wave (km/s) = 3.66705 3.96697 3.81996
# Velocity P-wave (km/s) = 5.95353 6.95541 6.47388
#
# Compressibility (1/GPa) = 0.02915848
#
# Stress axis : x y z
#
# Youngs Moduli (GPa) = 64.82544 31.49324 106.14484
#
# Poissons Ratio (x) = 0.10127 0.44862
# Poissons Ratio (y) = 0.20844 0.66646
# Poissons Ratio (z) = 0.27398 0.19774
#
# Static dielectric constant tensor:
#      x y z
#    x 3.381200 0.000000 -0.070740 
#    y 0.000000 3.552650 0.000000 
#    z -0.070740 0.000000 3.814870 
# 
# 
# High freq. dielectric constant tensor:
#      x y z
#    x 1.752800 0.000000 -0.009170 
#    y 0.000000 1.772470 0.000000 
#    z -0.009170 0.000000 1.772590 
# 
# From -- ./inp_files/249806.got.cif
#   From: 2010.06.25/outbox.cif.g09.slc.cpg/sg12_125_cif.got.tgz:249806.got - 2010.06.28 00:19:55.
