data_PCOD8110944
_publ_section_title
;
Structure prediction by ZEFSAII (Michael W. Deem and Ramdas Pophale) SiO2 
 PCOD8110944
Probable space group: C 2/M
;
_chemical_formula_sum "Si O2"
_cell_formula_units_Z 28
_cell_length_a 10.410315
_cell_length_b 22.754054
_cell_length_c 4.980216
_cell_angle_alpha 90.000000
_cell_angle_beta 97.546080
_cell_angle_gamma 90.000000
_cell_volume 1169.481279
_symmetry_space_group_name_H-M "C 2/M"
_symmetry_group_IT_number 12
_symmetry_cell_setting 'monoclinic'
loop_
_space_group_symop_operation_xyz
x,y,z
-x,y,-z
-x,-y,-z
x,-y,z
1/2+x,1/2+y,z
1/2-x,1/2+y,-z
1/2-x,1/2-y,-z
1/2+x,1/2-y,z
loop_
_atom_site_type_symbol
_atom_site_label
_atom_site_fract_x
_atom_site_fract_y
_atom_site_fract_z
Si Si1 0.862859 0.068601 0.339955
Si Si2 0.418685 0.724156 0.739497
Si Si3 0.241504 0.624224 0.790201
Si Si4 0.500000 0.836395 0.000000
O O1 0.753714 0.082293 0.534459
O O2 0.000000 0.090700 0.500000
O O3 0.866254 0.000000 0.276183
O O4 0.832857 0.101250 0.054413
O O5 0.500000 0.710599 0.500000
O O6 0.279853 0.691123 0.706069
O O7 0.405714 0.794663 0.790324
O O8 0.500000 0.694459 0.000000
O O9 0.091556 0.623491 0.840069
#
# Coordination Sequence:
#
# PCOD8110944 Si02
#       4
#     8   8   8   4
#     4  11  25  45  70  95 120 161 221 275 317 365
#     4  10  22  38  62  92 129 170 210 258 301 371
#     4  12  23  42  67  95 132 170 206 262 321 373
#     4  10  28  38  63  98 139 168 210 246 314 398
#
# _framework density 23.942239000000001
#
# number of rings (size 3 to 8) (size 9 to 14) (size 15 to 20)
#    0.857    0.286    0.000    6.857    4.000    3.429 
#    0.000    4.286    0.000    0.000    0.000    0.000 
#    0.000    0.000    0.000    0.000    0.000    0.000 
#
# Total GULP energy -173547.466565 kJ/mol
# GULP energy per Si atom -12396.247612 kJ/mol
# Density = 2.388775 g / cm^3
# Si number density = 23.942239 Si / 1000 Ang^3
#
#
#
# Elastic Constant Matrix: (Units=GPa)
#
#
# Indices 1 2 3 4 5 6 
#
# 1 52.0059 6.6872 -3.2270 0.0000 -30.8881 0.0000
# 2 6.6872 66.2077 5.6335 0.0000 -5.1938 0.0000
# 3 -3.2270 5.6335 128.1883 0.0000 -17.2371 0.0000
# 4 0.0000 0.0000 0.0000 30.6656 0.0000 -17.6147
# 5 -30.8881 -5.1938 -17.2371 0.0000 47.8269 0.0000
# 6 0.0000 0.0000 0.0000 -17.6147 0.0000 -0.0152
#
#
#
# Elastic Compliance Matrix: (Units=1/GPa)
#
#
# Indices 1 2 3 4 5 6 
#
# 1 0.033168 -0.001911 0.003964 0.000000 0.022642 0.000000
# 2 -0.001911 0.015371 -0.000699 0.000000 0.000183 0.000000
# 3 0.003964 -0.000699 0.008686 0.000000 0.005615 0.000000
# 4 0.000000 0.000000 0.000000 0.000049 0.000000 -0.056686
# 5 0.022642 0.000183 0.005615 0.000000 0.037575 0.000000
# 6 0.000000 0.000000 0.000000 -0.056686 0.000000 -0.098684
#
#
# Mechanical properties :
#
#
# Convention : Reuss Voigt Hill
#
# Bulk Modulus (GPa) = 16.68548 29.39882 23.04215
# Shear Modulus (GPa) = 372.14788 31.51602 201.83195
#
# Velocity S-wave (km/s) = 12.48091 3.63207 9.19144
# Velocity P-wave (km/s) = 14.65202 5.46763 11.05841
#
# Compressibility (1/GPa) = 0.05993235
#
# Stress axis : x y z
#
# Youngs Moduli (GPa) = 30.14938 65.05821 115.12131
#
# Poissons Ratio (x) = 0.12433 -0.45629
# Poissons Ratio (y) = 0.05762 0.08047
# Poissons Ratio (z) = -0.11950 0.04548
#
# Static dielectric constant tensor:
#      x y z
#    x 3.855060 0.000000 -0.055430 
#    y 0.000000 4.062540 0.000000 
#    z -0.055430 0.000000 4.424980 
# 
# 
# High freq. dielectric constant tensor:
#      x y z
#    x 1.921840 0.000000 -0.010290 
#    y 0.000000 1.931710 0.000000 
#    z -0.010290 0.000000 1.974060 
# 
# From -- ./inp_files/6528.got.cif
#   From: 2010.06.25/outbox.cif.g09.slc.cpg/sg12_4_cif.got.tgz:6528.got - 2010.06.28 00:19:55.
