data_PCOD8110971
_publ_section_title
;
Structure prediction by ZEFSAII (Michael W. Deem and Ramdas Pophale) SiO2 
 PCOD8110971
Probable space group: C 2/M
;
_chemical_formula_sum "Si O2"
_cell_formula_units_Z 32
_cell_length_a 19.901286
_cell_length_b 13.880361
_cell_length_c 5.240835
_cell_angle_alpha 90.000000
_cell_angle_beta 100.336034
_cell_angle_gamma 90.000000
_cell_volume 1424.219803
_symmetry_space_group_name_H-M "C 2/M"
_symmetry_group_IT_number 12
_symmetry_cell_setting 'monoclinic'
loop_
_space_group_symop_operation_xyz
x,y,z
-x,y,-z
-x,-y,-z
x,-y,z
1/2+x,1/2+y,z
1/2-x,1/2+y,-z
1/2-x,1/2-y,-z
1/2+x,1/2-y,z
loop_
_atom_site_type_symbol
_atom_site_label
_atom_site_fract_x
_atom_site_fract_y
_atom_site_fract_z
Si Si1 0.286318 0.710449 0.775025
Si Si2 0.584638 0.500000 0.767551
Si Si3 0.327661 0.500000 0.692122
Si Si4 0.545306 0.000000 0.280172
Si Si5 0.571387 0.793965 0.203290
Si Si6 0.500000 0.660367 0.500000
O O1 0.250000 0.750000 0.500000
O O2 0.283463 0.594924 0.730796
O O3 0.362838 0.748687 0.884781
O O4 0.250000 0.750000 0.000000
O O5 0.641854 0.500000 0.577328
O O6 0.536976 0.593803 0.731891
O O7 0.610464 0.500000 0.070580
O O8 0.500000 0.000000 0.500000
O O9 0.590559 0.902900 0.304908
O O10 0.500000 0.000000 0.000000
O O11 0.560468 0.727519 0.440193
O O12 0.500000 0.791784 0.000000
#
# Coordination Sequence:
#
# PCOD8110971 Si02
#       6
#     8   4   4   4   8   4
#     4  12  29  48  72 104 145 190 235 292 359 423
#     4  11  24  38  71 110 138 178 225 294 358 420
#     4  12  24  49  71  98 144 188 235 282 359 430
#     4  10  22  38  64 100 133 179 235 295 348 398
#     4  11  24  43  72 101 141 184 239 294 349 418
#     4  11  22  37  70 106 140 175 234 287 356 412
#
# _framework density 22.468440999999999
#
# number of rings (size 3 to 8) (size 9 to 14) (size 15 to 20)
#    0.000    0.750    3.750    3.000    3.500    3.000 
#    0.000    0.000    0.000    0.000    0.000    0.000 
#    0.000    0.000    0.000    0.000    0.000    0.000 
#
# Total GULP energy -198241.236269 kJ/mol
# GULP energy per Si atom -12390.077267 kJ/mol
# Density = 2.241730 g / cm^3
# Si number density = 22.468441 Si / 1000 Ang^3
#
#
#
# Elastic Constant Matrix: (Units=GPa)
#
#
# Indices 1 2 3 4 5 6 
#
# 1 123.6072 54.9642 35.6137 0.0000 -14.8144 0.0000
# 2 54.9642 214.5994 24.5798 0.0000 -7.1369 0.0000
# 3 35.6137 24.5798 101.0525 0.0000 -3.3335 0.0000
# 4 0.0000 0.0000 0.0000 -56.0673 0.0000 -144.3914
# 5 -14.8144 -7.1369 -3.3335 0.0000 50.1542 0.0000
# 6 0.0000 0.0000 0.0000 -144.3914 0.0000 -246.6527
#
#
#
# Elastic Compliance Matrix: (Units=1/GPa)
#
#
# Indices 1 2 3 4 5 6 
#
# 1 0.010227 -0.002194 -0.002988 0.000000 0.002510 0.000000
# 2 -0.002194 0.005282 -0.000509 0.000000 0.000070 0.000000
# 3 -0.002988 -0.000509 0.011066 0.000000 -0.000220 0.000000
# 4 0.000000 0.000000 0.000000 0.035137 0.000000 -0.020569
# 5 0.002510 0.000070 -0.000220 0.000000 0.020675 0.000000
# 6 0.000000 0.000000 0.000000 -0.020569 0.000000 0.007987
#
#
# Mechanical properties :
#
#
# Convention : Reuss Voigt Hill
#
# Bulk Modulus (GPa) = 65.82000 74.39717 70.10859
# Shear Modulus (GPa) = 46.80704 -28.90639 8.95033
#
# Velocity S-wave (km/s) = 4.56920 -3.59072 1.99804
# Velocity P-wave (km/s) = 7.56272 3.99909 6.04928
#
# Compressibility (1/GPa) = 0.01519295
#
# Stress axis : x y z
#
# Youngs Moduli (GPa) = 97.77669 189.30807 90.37038
#
# Poissons Ratio (x) = 0.41530 0.27003
# Poissons Ratio (y) = 0.21450 0.04604
# Poissons Ratio (z) = 0.29216 0.09644
#
# Static dielectric constant tensor:
#      x y z
#    x 12.727920 0.000000 -1.619460 
#    y 0.000000 5.030170 0.000000 
#    z -1.619460 0.000000 4.096400 
# 
# 
# High freq. dielectric constant tensor:
#      x y z
#    x 1.866390 0.000000 -0.005560 
#    y 0.000000 1.921690 0.000000 
#    z -0.005560 0.000000 1.887260 
# 
# From -- ./inp_files/14585.got.cif
#   From: 2010.06.25/outbox.cif.g09.slc.cpg/sg12_8_cif.got.tgz:14585.got - 2010.06.28 00:19:55.
