data_PCOD8110760
_publ_section_title
;
Structure prediction by ZEFSAII (Michael W. Deem and Ramdas Pophale) SiO2 
 PCOD8110760
Probable space group: C 2/M
;
_chemical_formula_sum "Si O2"
_cell_formula_units_Z 56
_cell_length_a 14.191494
_cell_length_b 19.219112
_cell_length_c 10.450937
_cell_angle_alpha 90.000000
_cell_angle_beta 119.228307
_cell_angle_gamma 90.000000
_cell_volume 2487.551941
_symmetry_space_group_name_H-M "C 2/M"
_symmetry_group_IT_number 12
_symmetry_cell_setting 'monoclinic'
loop_
_space_group_symop_operation_xyz
x,y,z
-x,y,-z
-x,-y,-z
x,-y,z
1/2+x,1/2+y,z
1/2-x,1/2+y,-z
1/2-x,1/2-y,-z
1/2+x,1/2-y,z
loop_
_atom_site_type_symbol
_atom_site_label
_atom_site_fract_x
_atom_site_fract_y
_atom_site_fract_z
Si Si1 0.924874 0.076430 0.329207
Si Si2 0.571515 0.000000 0.674812
Si Si3 0.868020 0.349924 0.281572
Si Si4 0.978417 0.821162 0.783565
Si Si5 0.425265 0.000000 0.829675
Si Si6 0.293200 0.140905 0.748657
Si Si7 0.599740 0.197755 0.415100
Si Si8 0.659194 0.278648 0.081130
O O1 0.992803 0.103125 0.251871
O O2 0.831095 0.130997 0.298561
O O3 0.000000 0.070116 0.500000
O O4 0.879184 0.000000 0.263763
O O5 0.500000 0.000000 0.500000
O O6 0.651461 0.066938 0.725782
O O7 0.492804 0.000000 0.744173
O O8 0.860867 0.311958 0.414427
O O9 0.778485 0.311221 0.134222
O O10 0.989884 0.344301 0.309409
O O11 0.927507 0.778039 0.631622
O O12 0.893144 0.826756 0.842303
O O13 0.088450 0.783903 0.906207
O O14 0.352230 0.932218 0.794314
O O15 0.500000 0.000000 0.000000
O O16 0.304270 0.170913 0.612317
O O17 0.342206 0.197731 0.878921
#
# Coordination Sequence:
#
# PCOD8110760 Si02
#       8
#     8   4   8   8   4   8   8   8
#     4  11  26  45  65  95 131 178 223 270 327 395
#     4  12  22  46  64  99 148 169 222 288 339 412
#     4  11  22  40  65 105 129 176 220 270 344 398
#     4  10  24  46  66  94 136 170 229 275 324 400
#     4  12  26  40  69 102 136 183 218 276 359 406
#     4  11  23  44  66  96 137 170 220 277 333 401
#     4  10  22  37  69  99 131 165 222 275 335 393
#     4  10  25  43  70  99 128 178 221 279 335 387
#
# _framework density 22.512093
#
# number of rings (size 3 to 8) (size 9 to 14) (size 15 to 20)
#    0.000    1.286    3.571    0.857   10.000    4.571 
#    2.571    0.714    0.000    0.000    0.000    0.000 
#    0.000    0.000    0.000    0.000    0.000    0.000 
#
# Total GULP energy -347195.527907 kJ/mol
# GULP energy per Si atom -12399.840282 kJ/mol
# Density = 2.246085 g / cm^3
# Si number density = 22.512093 Si / 1000 Ang^3
#
#
#
# Elastic Constant Matrix: (Units=GPa)
#
#
# Indices 1 2 3 4 5 6 
#
# 1 94.3771 26.5664 8.2681 0.0000 -8.4196 0.0000
# 2 26.5664 106.0452 19.2985 0.0000 -5.3118 0.0000
# 3 8.2681 19.2985 45.6344 0.0000 0.1514 0.0000
# 4 0.0000 0.0000 0.0000 34.7799 0.0000 -18.4160
# 5 -8.4196 -5.3118 0.1514 0.0000 31.6858 0.0000
# 6 0.0000 0.0000 0.0000 -18.4160 0.0000 58.4567
#
#
#
# Elastic Compliance Matrix: (Units=1/GPa)
#
#
# Indices 1 2 3 4 5 6 
#
# 1 0.011655 -0.002601 -0.001021 0.000000 0.002666 0.000000
# 2 -0.002601 0.010893 -0.004139 0.000000 0.001155 0.000000
# 3 -0.001021 -0.004139 0.023852 0.000000 -0.001079 0.000000
# 4 0.000000 0.000000 0.000000 0.034509 0.000000 0.010872
# 5 0.002666 0.001155 -0.001079 0.000000 0.032467 0.000000
# 6 0.000000 0.000000 0.000000 0.010872 0.000000 0.020532
#
#
# Mechanical properties :
#
#
# Convention : Reuss Voigt Hill
#
# Bulk Modulus (GPa) = 32.38439 39.36920 35.87679
# Shear Modulus (GPa) = 31.30460 37.77937 34.54198
#
# Velocity S-wave (km/s) = 3.73308 4.10101 3.92136
# Velocity P-wave (km/s) = 5.74436 6.32063 6.03937
#
# Compressibility (1/GPa) = 0.03087907
#
# Stress axis : x y z
#
# Youngs Moduli (GPa) = 85.79950 91.80620 41.92489
#
# Poissons Ratio (x) = 0.23874 0.04280
# Poissons Ratio (y) = 0.22312 0.17353
# Poissons Ratio (z) = 0.08758 0.37999
#
# Static dielectric constant tensor:
#      x y z
#    x 4.183040 0.000000 -0.002550 
#    y 0.000000 4.205690 0.000000 
#    z -0.002550 0.000000 3.875600 
# 
# 
# High freq. dielectric constant tensor:
#      x y z
#    x 1.893270 0.000000 -0.002610 
#    y 0.000000 1.889650 0.000000 
#    z -0.002610 0.000000 1.878290 
# 
# From -- ./inp_files/146265.got.cif
#   From: 2010.06.25/outbox.cif.g09.slc.cpg/sg12_74_cif.got.tgz:146265.got - 2010.06.28 00:19:55.
