data_PCOD8110577
_publ_section_title
;
Structure prediction by ZEFSAII (Michael W. Deem and Ramdas Pophale) SiO2 
 PCOD8110577
Probable space group: C 2/M
;
_chemical_formula_sum "Si O2"
_cell_formula_units_Z 64
_cell_length_a 12.207015
_cell_length_b 22.827510
_cell_length_c 12.290034
_cell_angle_alpha 90.000000
_cell_angle_beta 115.570575
_cell_angle_gamma 90.000000
_cell_volume 3089.255230
_symmetry_space_group_name_H-M "C 2/M"
_symmetry_group_IT_number 12
_symmetry_cell_setting 'monoclinic'
loop_
_space_group_symop_operation_xyz
x,y,z
-x,y,-z
-x,-y,-z
x,-y,z
1/2+x,1/2+y,z
1/2-x,1/2+y,-z
1/2-x,1/2-y,-z
1/2+x,1/2-y,z
loop_
_atom_site_type_symbol
_atom_site_label
_atom_site_fract_x
_atom_site_fract_y
_atom_site_fract_z
Si Si1 0.790098 0.843664 0.087866
Si Si2 0.137814 0.933796 0.715412
Si Si3 0.789956 0.568760 0.571813
Si Si4 0.114127 0.117010 0.331810
Si Si5 0.881973 0.742551 0.893492
Si Si6 0.514270 0.143892 0.633413
Si Si7 0.229444 0.860408 0.164449
Si Si8 0.508283 0.263389 0.270762
O O1 0.783904 0.896200 0.168868
O O2 0.661994 0.810472 0.048642
O O3 0.895400 0.797397 0.165188
O O4 0.800050 0.875073 0.974182
O O5 0.183336 0.919487 0.613540
O O6 0.995241 0.922217 0.670064
O O7 0.165947 0.000000 0.756753
O O8 0.824729 0.500000 0.579369
O O9 0.737672 0.592299 0.435238
O O10 0.908093 0.607911 0.649608
O O11 0.128272 0.113760 0.205295
O O12 0.093339 0.185138 0.356968
O O13 0.774434 0.789734 0.836380
O O14 0.920025 0.724432 0.788130
O O15 0.000000 0.771701 0.000000
O O16 0.500000 0.130138 0.500000
O O17 0.638684 0.118725 0.738457
O O18 0.517494 0.214836 0.648736
#
# Coordination Sequence:
#
# PCOD8110577 Si02
#       8
#     8   8   8   8   8   8   8   8
#     4  11  21  38  63  92 131 164 202 252 320 386
#     4  10  23  42  65  92 122 161 216 272 316 365
#     4  11  24  45  67  88 121 171 226 264 306 370
#     4  10  22  40  65  96 125 169 207 266 315 373
#     4  11  19  34  62  92 125 168 206 245 305 383
#     4  12  24  42  61  93 133 169 207 261 315 374
#     4  11  22  40  60  97 135 163 203 256 317 385
#     4  10  22  35  60  95 129 162 202 255 319 377
#
# _framework density 20.716967
#
# number of rings (size 3 to 8) (size 9 to 14) (size 15 to 20)
#    0.000    1.250    3.750    2.625    0.000    3.750 
#    0.000    2.500    0.000    1.875    0.000    0.000 
#    0.000    0.000    0.000    0.000    0.000    0.000 
#
# Total GULP energy -396492.536498 kJ/mol
# GULP energy per Si atom -12390.391766 kJ/mol
# Density = 2.066981 g / cm^3
# Si number density = 20.716967 Si / 1000 Ang^3
#
#
#
# Elastic Constant Matrix: (Units=GPa)
#
#
# Indices 1 2 3 4 5 6 
#
# 1 95.3565 40.7276 34.5286 0.0000 2.0075 0.0000
# 2 40.7276 85.4230 40.2833 0.0000 -2.9375 0.0000
# 3 34.5286 40.2833 97.5739 0.0000 0.0299 0.0000
# 4 0.0000 0.0000 0.0000 12.9997 0.0000 -5.9978
# 5 2.0075 -2.9375 0.0299 0.0000 37.4713 0.0000
# 6 0.0000 0.0000 0.0000 -5.9978 0.0000 30.5087
#
#
#
# Elastic Compliance Matrix: (Units=1/GPa)
#
#
# Indices 1 2 3 4 5 6 
#
# 1 0.013757 -0.005344 -0.002662 0.000000 -0.001154 0.000000
# 2 -0.005344 0.016661 -0.004988 0.000000 0.001596 0.000000
# 3 -0.002662 -0.004988 0.013250 0.000000 -0.000259 0.000000
# 4 0.000000 0.000000 0.000000 0.084598 0.000000 0.016631
# 5 -0.001154 0.001596 -0.000259 0.000000 0.026874 0.000000
# 6 0.000000 0.000000 0.000000 0.016631 0.000000 0.036047
#
#
# Mechanical properties :
#
#
# Convention : Reuss Voigt Hill
#
# Bulk Modulus (GPa) = 56.55632 56.60359 56.57995
# Shear Modulus (GPa) = 22.41456 27.05021 24.73238
#
# Velocity S-wave (km/s) = 3.29286 3.61737 3.45892
# Velocity P-wave (km/s) = 6.46653 6.69543 6.58198
#
# Compressibility (1/GPa) = 0.01768149
#
# Stress axis : x y z
#
# Youngs Moduli (GPa) = 72.68803 60.01919 75.47137
#
# Poissons Ratio (x) = 0.32072 0.20090
# Poissons Ratio (y) = 0.38841 0.37646
# Poissons Ratio (z) = 0.19349 0.29939
#
# Static dielectric constant tensor:
#      x y z
#    x 3.922150 0.000000 -0.151240 
#    y 0.000000 3.508110 0.000000 
#    z -0.151240 0.000000 3.665950 
# 
# 
# High freq. dielectric constant tensor:
#      x y z
#    x 1.825500 0.000000 -0.010200 
#    y 0.000000 1.782650 0.000000 
#    z -0.010200 0.000000 1.805060 
# 
# From -- ./inp_files/135976.got.cif
#   From: 2010.06.25/outbox.cif.g09.slc.cpg/sg12_68_cif.got.tgz:135976.got - 2010.06.28 00:19:55.
