data_PCOD8110014
_publ_section_title
;
Structure prediction by ZEFSAII (Michael W. Deem and Ramdas Pophale) SiO2 
 PCOD8110014
Probable space group: C 2/M
;
_chemical_formula_sum "Si O2"
_cell_formula_units_Z 64
_cell_length_a 19.093248
_cell_length_b 8.884215
_cell_length_c 30.391568
_cell_angle_alpha 90.000000
_cell_angle_beta 141.646888
_cell_angle_gamma 90.000000
_cell_volume 3198.881350
_symmetry_space_group_name_H-M "C 2/M"
_symmetry_group_IT_number 12
_symmetry_cell_setting 'monoclinic'
loop_
_space_group_symop_operation_xyz
x,y,z
-x,y,-z
-x,-y,-z
x,-y,z
1/2+x,1/2+y,z
1/2-x,1/2+y,-z
1/2-x,1/2-y,-z
1/2+x,1/2-y,z
loop_
_atom_site_type_symbol
_atom_site_label
_atom_site_fract_x
_atom_site_fract_y
_atom_site_fract_z
Si Si1 0.219189 0.675914 0.789599
Si Si2 0.369659 0.677187 0.434898
Si Si3 0.979840 0.669807 0.788613
Si Si4 0.631413 0.177127 0.066039
Si Si5 0.272450 0.176198 0.057508
Si Si6 0.268621 0.672701 0.555299
Si Si7 0.246088 0.828355 0.712549
Si Si8 0.500755 0.329543 0.713357
O O1 0.242973 0.500000 0.805356
O O2 0.319716 0.763166 0.863707
O O3 0.207872 0.723514 0.733476
O O4 0.101119 0.713573 0.754319
O O5 0.500000 0.726414 0.500000
O O6 0.355151 0.500000 0.433714
O O7 0.305997 0.753099 0.443779
O O8 0.314788 0.729441 0.361783
O O9 0.981398 0.500000 0.770180
O O10 0.881243 0.684711 0.775904
O O11 0.097684 0.711646 0.868662
O O12 0.950422 0.787746 0.735985
O O13 0.693377 0.253934 0.055736
O O14 0.651518 0.000000 0.072847
O O15 0.500000 0.218786 0.000000
O O16 0.247330 0.000000 0.042800
O O17 0.250000 0.250000 0.000000
O O18 0.232143 0.500000 0.534407
O O19 0.250000 0.750000 0.500000
O O20 0.401662 0.689524 0.629501
O O21 0.209054 0.000000 0.704298
O O22 0.547406 0.500000 0.736422
#
# Coordination Sequence:
#
# PCOD8110014 Si02
#       8
#     8   8   8   8   8   8   8   8
#     4  12  26  42  64  95 129 165 210 259 312 373
#     4  10  22  41  65  93 126 165 208 256 313 374
#     4  10  21  40  66  92 121 161 207 258 312 368
#     4  11  25  45  67  92 127 168 211 260 315 373
#     4  11  24  41  64  96 128 163 212 258 311 373
#     4  11  25  42  64  94 126 165 213 262 313 374
#     4  10  22  41  64  91 128 167 206 254 312 374
#     4  11  23  41  66  92 123 163 211 261 314 373
#
# _framework density 20.006993000000001
#
# number of rings (size 3 to 8) (size 9 to 14) (size 15 to 20)
#    0.000    1.250    2.500    2.625    3.500    4.250 
#    0.000    0.000    0.000    0.000    0.000    0.000 
#    0.000    0.000    0.000    0.000    0.000    0.000 
#
# Total GULP energy -396946.120533 kJ/mol
# GULP energy per Si atom -12404.566267 kJ/mol
# Density = 1.996146 g / cm^3
# Si number density = 20.006993 Si / 1000 Ang^3
#
#
#
# Elastic Constant Matrix: (Units=GPa)
#
#
# Indices 1 2 3 4 5 6 
#
# 1 85.0904 35.8534 42.5292 -0.0001 -9.0429 0.0001
# 2 35.8534 86.9515 48.5991 -0.0002 -5.2171 0.0002
# 3 42.5292 48.5991 114.1432 0.0000 -4.9934 0.0000
# 4 -0.0001 -0.0002 0.0000 29.2271 0.0000 -5.9818
# 5 -9.0429 -5.2171 -4.9934 0.0000 40.3861 -0.0001
# 6 0.0001 0.0002 0.0000 -5.9818 -0.0001 39.6307
#
#
#
# Elastic Compliance Matrix: (Units=1/GPa)
#
#
# Indices 1 2 3 4 5 6 
#
# 1 0.015752 -0.004102 -0.004013 0.000000 0.002501 0.000000
# 2 -0.004102 0.016215 -0.005353 0.000000 0.000514 0.000000
# 3 -0.004013 -0.005353 0.012534 0.000000 -0.000040 0.000000
# 4 0.000000 0.000000 0.000000 0.035305 0.000000 0.005329
# 5 0.002501 0.000514 -0.000040 0.000000 0.025382 0.000000
# 6 0.000000 0.000000 0.000000 0.005329 0.000000 0.026037
#
#
# Mechanical properties :
#
#
# Convention : Reuss Voigt Hill
#
# Bulk Modulus (GPa) = 56.93407 60.01652 58.47530
# Shear Modulus (GPa) = 30.48459 32.46234 31.47346
#
# Velocity S-wave (km/s) = 3.90769 4.03246 3.97056
# Velocity P-wave (km/s) = 6.99135 7.19332 7.09305
#
# Compressibility (1/GPa) = 0.01756417
#
# Stress axis : x y z
#
# Youngs Moduli (GPa) = 63.48271 61.67186 79.78550
#
# Poissons Ratio (x) = 0.25299 0.32020
# Poissons Ratio (y) = 0.26041 0.42709
# Poissons Ratio (z) = 0.25477 0.33012
#
# Static dielectric constant tensor:
#      x y z
#    x 3.648200 0.000000 0.054290 
#    y 0.000000 3.631980 0.000000 
#    z 0.054290 0.000000 3.859900 
# 
# 
# High freq. dielectric constant tensor:
#      x y z
#    x 1.787360 0.000000 0.001860 
#    y 0.000000 1.784390 0.000000 
#    z 0.001860 0.000000 1.793950 
# 
# From -- ./inp_files/378488.got.cif
#   From: 2010.06.25/outbox.cif.g09.slc.cpg/sg12_190_cif.got.tgz:378488.got - 2010.06.28 00:19:55.
