data_PCOD8110857
_publ_section_title
;
Structure prediction by ZEFSAII (Michael W. Deem and Ramdas Pophale) SiO2 
 PCOD8110857
Probable space group: C 2/M
;
_chemical_formula_sum "Si O2"
_cell_formula_units_Z 32
_cell_length_a 10.263244
_cell_length_b 16.627888
_cell_length_c 9.937158
_cell_angle_alpha 90.000000
_cell_angle_beta 96.098091
_cell_angle_gamma 90.000000
_cell_volume 1686.240432
_symmetry_space_group_name_H-M "C 2/M"
_symmetry_group_IT_number 12
_symmetry_cell_setting 'monoclinic'
loop_
_space_group_symop_operation_xyz
x,y,z
-x,y,-z
-x,-y,-z
x,-y,z
1/2+x,1/2+y,z
1/2-x,1/2+y,-z
1/2-x,1/2-y,-z
1/2+x,1/2-y,z
loop_
_atom_site_type_symbol
_atom_site_label
_atom_site_fract_x
_atom_site_fract_y
_atom_site_fract_z
Si Si1 0.130847 0.638375 0.431747
Si Si2 0.185309 0.500000 0.925516
Si Si3 0.920779 0.910833 0.869143
Si Si4 0.099303 0.500000 0.219502
Si Si5 0.110639 0.176620 0.402475
O O1 0.141606 0.579030 0.306515
O O2 0.134061 0.729329 0.379199
O O3 0.257537 0.628755 0.541818
O O4 0.000000 0.617273 0.500000
O O5 0.267262 0.420019 0.892852
O O6 0.055043 0.500000 0.823737
O O7 0.169627 0.500000 0.083970
O O8 0.942489 0.856535 0.742751
O O9 0.981537 0.000000 0.847898
O O10 0.000000 0.869452 0.000000
O O11 0.000000 0.161403 0.500000
#
# Coordination Sequence:
#
# PCOD8110857 Si02
#       5
#     8   4   8   4   8
#     4  10  22  38  59  85 117 144 195 236 284 331
#     4   9  21  38  54  86 116 144 198 232 269 348
#     4   9  20  37  58  81 118 146 186 232 283 332
#     4  11  21  36  62  79 112 159 188 230 282 343
#     4  10  22  38  59  89 115 145 191 240 279 339
#
# _framework density 18.977129000000001
#
# number of rings (size 3 to 8) (size 9 to 14) (size 15 to 20)
#    0.750    1.500    0.000    1.875    5.250    0.500 
#    4.500    1.250    0.000    0.000    0.000    0.000 
#    0.000    0.000    0.000    0.000    0.000    0.000 
#
# Total GULP energy -198360.358326 kJ/mol
# GULP energy per Si atom -12397.522395 kJ/mol
# Density = 1.893394 g / cm^3
# Si number density = 18.977129 Si / 1000 Ang^3
#
#
#
# Elastic Constant Matrix: (Units=GPa)
#
#
# Indices 1 2 3 4 5 6 
#
# 1 94.0658 30.1804 46.2469 0.0000 4.9775 0.0000
# 2 30.1804 69.2744 71.5650 0.0000 -1.0884 0.0000
# 3 46.2469 71.5650 169.1506 0.0000 9.6608 0.0000
# 4 0.0000 0.0000 0.0000 -80.6470 0.0000 85.2253
# 5 4.9775 -1.0884 9.6608 0.0000 29.6828 0.0000
# 6 0.0000 0.0000 0.0000 85.2253 0.0000 -54.6078
#
#
#
# Elastic Compliance Matrix: (Units=1/GPa)
#
#
# Indices 1 2 3 4 5 6 
#
# 1 0.012814 -0.003712 -0.001837 0.000000 -0.001687 0.000000
# 2 -0.003712 0.027338 -0.010846 0.000000 0.005155 0.000000
# 3 -0.001837 -0.010846 0.011216 0.000000 -0.003740 0.000000
# 4 0.000000 0.000000 0.000000 0.019098 0.000000 0.029805
# 5 -0.001687 0.005155 -0.003740 0.000000 0.035379 0.000000
# 6 0.000000 0.000000 0.000000 0.029805 0.000000 0.028204
#
#
# Mechanical properties :
#
#
# Convention : Reuss Voigt Hill
#
# Bulk Modulus (GPa) = 53.82194 69.83062 61.82628
# Shear Modulus (GPa) = 28.89665 -8.81449 10.04108
#
# Velocity S-wave (km/s) = 3.90642 -2.15752 2.30274
# Velocity P-wave (km/s) = 6.98355 5.53811 6.30240
#
# Compressibility (1/GPa) = 0.01857978
#
# Stress axis : x y z
#
# Youngs Moduli (GPa) = 78.03957 36.57941 89.15532
#
# Poissons Ratio (x) = 0.13577 0.16376
# Poissons Ratio (y) = 0.28965 0.96696
# Poissons Ratio (z) = 0.14334 0.39673
#
# Static dielectric constant tensor:
#      x y z
#    x 3.550640 0.000000 0.138450 
#    y 0.000000 3.241390 0.000000 
#    z 0.138450 0.000000 3.376500 
# 
# 
# High freq. dielectric constant tensor:
#      x y z
#    x 1.745460 0.000000 0.008790 
#    y 0.000000 1.716270 0.000000 
#    z 0.008790 0.000000 1.745680 
# 
# From -- ./inp_files/46299.got.cif
#   From: 2010.06.25/outbox.cif.g09.slc.cpg/sg12_24_cif.got.tgz:46299.got - 2010.06.28 00:19:55.
