data_PCOD8110619
_publ_section_title
;
Structure prediction by ZEFSAII (Michael W. Deem and Ramdas Pophale) SiO2 
 PCOD8110619
Probable space group: C 2/M
;
_chemical_formula_sum "Si O2"
_cell_formula_units_Z 56
_cell_length_a 14.311963
_cell_length_b 31.693151
_cell_length_c 11.906934
_cell_angle_alpha 90.000000
_cell_angle_beta 31.375306
_cell_angle_gamma 90.000000
_cell_volume 2811.923678
_symmetry_space_group_name_H-M "C 2/M"
_symmetry_group_IT_number 12
_symmetry_cell_setting 'monoclinic'
loop_
_space_group_symop_operation_xyz
x,y,z
-x,y,-z
-x,-y,-z
x,-y,z
1/2+x,1/2+y,z
1/2-x,1/2+y,-z
1/2-x,1/2-y,-z
1/2+x,1/2-y,z
loop_
_atom_site_type_symbol
_atom_site_label
_atom_site_fract_x
_atom_site_fract_y
_atom_site_fract_z
Si Si1 0.033474 0.951021 0.334403
Si Si2 0.150209 0.402051 0.103979
Si Si3 0.705223 0.950782 0.509489
Si Si4 0.710119 0.398077 0.785172
Si Si5 0.254432 0.690445 0.342214
Si Si6 0.071438 0.693613 0.163424
Si Si7 0.122768 0.773831 0.002995
O O1 0.862233 0.937961 0.434996
O O2 0.000000 0.942801 0.500000
O O3 0.082794 0.000000 0.262016
O O4 0.195071 0.921040 0.132015
O O5 0.208869 0.404045 0.174160
O O6 0.098415 0.355605 0.111415
O O7 0.975271 0.429592 0.261977
O O8 0.747379 0.937808 0.337706
O O9 0.673281 0.000000 0.542366
O O10 0.799397 0.357015 0.638005
O O11 0.500000 0.390669 0.000000
O O12 0.454955 0.693686 0.186279
O O13 0.101316 0.704594 0.584347
O O14 0.257563 0.720752 0.231056
O O15 0.051284 0.725110 0.077368
O O16 0.256531 0.711254 0.019973
#
# Coordination Sequence:
#
# PCOD8110619 Si02
#       7
#     8   8   8   8   8   8   8
#     4  10  24  47  68  89 125 175 219 260 317 385
#     4  12  23  39  67  98 132 167 213 269 324 385
#     4  11  25  41  65 101 132 166 212 264 324 386
#     4  12  21  38  66  97 133 174 210 256 327 402
#     4  11  20  39  61  85 121 171 205 250 320 378
#     4  11  22  37  60  89 119 162 208 257 313 370
#     4  10  22  36  57  86 117 158 216 253 297 378
#
# _framework density 19.915192000000001
#
# number of rings (size 3 to 8) (size 9 to 14) (size 15 to 20)
#    0.000    1.000    5.714    1.714    0.000    2.571 
#    0.000    7.857    0.000    0.000    0.000    0.000 
#    0.000    0.000    0.000    0.000    0.000    0.000 
#
# Total GULP energy -347036.963696 kJ/mol
# GULP energy per Si atom -12394.177275 kJ/mol
# Density = 1.986986 g / cm^3
# Si number density = 19.915192 Si / 1000 Ang^3
#
#
#
# Elastic Constant Matrix: (Units=GPa)
#
#
# Indices 1 2 3 4 5 6 
#
# 1 54.2017 31.5465 22.9647 0.0000 0.7373 0.0000
# 2 31.5465 129.5741 65.0056 0.0000 4.0223 0.0000
# 3 22.9647 65.0056 83.5583 0.0001 -2.1698 0.0000
# 4 0.0000 0.0000 0.0001 31.2550 0.0000 6.1995
# 5 0.7373 4.0223 -2.1698 0.0000 26.1236 0.0000
# 6 0.0000 0.0000 0.0000 6.1995 0.0000 26.5046
#
#
#
# Elastic Compliance Matrix: (Units=1/GPa)
#
#
# Indices 1 2 3 4 5 6 
#
# 1 0.021970 -0.003783 -0.003103 0.000000 -0.000295 0.000000
# 2 -0.003783 0.013513 -0.009545 0.000000 -0.002767 0.000000
# 3 -0.003103 -0.009545 0.020330 0.000000 0.003246 0.000000
# 4 0.000000 0.000000 0.000000 0.033552 0.000000 -0.007848
# 5 -0.000295 -0.002767 0.003246 0.000000 0.038983 0.000000
# 6 0.000000 0.000000 0.000000 -0.007848 0.000000 0.039565
#
#
# Mechanical properties :
#
#
# Convention : Reuss Voigt Hill
#
# Bulk Modulus (GPa) = 43.56891 56.26309 49.91600
# Shear Modulus (GPa) = 23.98944 26.63113 25.31028
#
# Velocity S-wave (km/s) = 3.47447 3.66078 3.56884
# Velocity P-wave (km/s) = 6.16609 6.79567 6.48852
#
# Compressibility (1/GPa) = 0.02295215
#
# Stress axis : x y z
#
# Youngs Moduli (GPa) = 45.51650 74.00252 49.18786
#
# Poissons Ratio (x) = 0.27997 0.15261
# Poissons Ratio (y) = 0.17220 0.46949
# Poissons Ratio (z) = 0.14122 0.70634
#
# Static dielectric constant tensor:
#      x y z
#    x 3.930390 0.000000 -0.144490 
#    y 0.000000 4.059380 0.000000 
#    z -0.144490 0.000000 3.676430 
# 
# 
# High freq. dielectric constant tensor:
#      x y z
#    x 1.773340 0.000000 -0.017520 
#    y 0.000000 1.783130 0.000000 
#    z -0.017520 0.000000 1.784570 
# 
# From -- ./inp_files/150383.got.cif
#   From: 2010.06.25/outbox.cif.g09.slc.cpg/sg12_76_cif.got.tgz:150383.got - 2010.06.28 00:19:55.
