data_PCOD8110217
_publ_section_title
;
Structure prediction by ZEFSAII (Michael W. Deem and Ramdas Pophale) SiO2 
 PCOD8110217
Probable space group: C 2/M
;
_chemical_formula_sum "Si O2"
_cell_formula_units_Z 56
_cell_length_a 8.918646
_cell_length_b 27.505125
_cell_length_c 14.219088
_cell_angle_alpha 90.000000
_cell_angle_beta 124.321210
_cell_angle_gamma 90.000000
_cell_volume 2880.754865
_symmetry_space_group_name_H-M "C 2/M"
_symmetry_group_IT_number 12
_symmetry_cell_setting 'monoclinic'
loop_
_space_group_symop_operation_xyz
x,y,z
-x,y,-z
-x,-y,-z
x,-y,z
1/2+x,1/2+y,z
1/2-x,1/2+y,-z
1/2-x,1/2-y,-z
1/2+x,1/2-y,z
loop_
_atom_site_type_symbol
_atom_site_label
_atom_site_fract_x
_atom_site_fract_y
_atom_site_fract_z
Si Si1 0.031036 0.816274 0.723927
Si Si2 0.205054 0.386110 0.605814
Si Si3 0.579141 0.157042 0.127162
Si Si4 0.499811 0.126987 0.704696
Si Si5 0.455492 0.264176 0.081168
Si Si6 0.303006 0.444004 0.472033
Si Si7 0.558726 0.226747 0.418547
O O1 0.204174 0.852892 0.783284
O O2 0.996712 0.799718 0.818159
O O3 0.845454 0.843365 0.628232
O O4 0.067365 0.769448 0.670315
O O5 0.180362 0.391702 0.710960
O O6 0.282272 0.433154 0.577336
O O7 0.000000 0.373374 0.500000
O O8 0.465516 0.131076 0.170866
O O9 0.572185 0.215182 0.129390
O O10 0.500000 0.137128 0.000000
O O11 0.337275 0.089202 0.633527
O O12 0.440136 0.180535 0.649550
O O13 0.500000 0.292428 0.000000
O O14 0.250000 0.250000 0.000000
O O15 0.500000 0.431463 0.500000
O O16 0.254662 0.500000 0.437960
O O17 0.500000 0.209227 0.500000
O O18 0.750000 0.250000 0.500000
#
# Coordination Sequence:
#
# PCOD8110217 Si02
#       7
#     8   8   8   8   8   8   8
#     4  12  23  36  55  75 118 162 198 243 285 334
#     4  10  23  38  56  89 118 152 192 238 284 353
#     4  11  23  38  55  80 112 159 205 253 284 334
#     4  11  22  36  55  82 116 145 192 237 287 342
#     4  11  22  37  53  77 108 157 213 254 289 328
#     4  10  21  41  65  88 116 148 185 232 289 361
#     4  12  23  32  46  73 110 151 187 223 273 329
#
# _framework density 19.439349
#
# number of rings (size 3 to 8) (size 9 to 14) (size 15 to 20)
#    0.000    1.000    4.286    5.571    4.000    3.714 
#    0.000    0.000    0.000    0.429    0.000    0.000 
#    0.000    8.571    0.000    0.000    0.000    0.000 
#
# Total GULP energy -346936.750854 kJ/mol
# GULP energy per Si atom -12390.598245 kJ/mol
# Density = 1.939510 g / cm^3
# Si number density = 19.439349 Si / 1000 Ang^3
#
#
#
# Elastic Constant Matrix: (Units=GPa)
#
#
# Indices 1 2 3 4 5 6 
#
# 1 118.4215 34.2552 44.6855 0.0000 -15.5169 0.0000
# 2 34.2552 70.5344 28.7248 0.0000 -2.3662 0.0000
# 3 44.6855 28.7248 90.1504 0.0000 -23.1030 0.0000
# 4 0.0000 0.0000 0.0000 11.0982 0.0000 -1.8315
# 5 -15.5169 -2.3662 -23.1030 0.0000 50.6322 0.0000
# 6 0.0000 0.0000 0.0000 -1.8315 0.0000 27.6177
#
#
#
# Elastic Compliance Matrix: (Units=1/GPa)
#
#
# Indices 1 2 3 4 5 6 
#
# 1 0.011234 -0.003781 -0.003994 0.000000 0.001444 0.000000
# 2 -0.003781 0.017714 -0.004365 0.000000 -0.002323 0.000000
# 3 -0.003994 -0.004365 0.015964 0.000000 0.005856 0.000000
# 4 0.000000 0.000000 0.000000 0.091101 0.000000 0.006041
# 5 0.001444 -0.002323 0.005856 0.000000 0.022756 0.000000
# 6 0.000000 0.000000 0.000000 0.006041 0.000000 0.036609
#
#
# Mechanical properties :
#
#
# Convention : Reuss Voigt Hill
#
# Bulk Modulus (GPa) = 48.46920 54.93747 51.70333
# Shear Modulus (GPa) = 22.07153 29.29901 25.68527
#
# Velocity S-wave (km/s) = 3.37323 3.88648 3.63892
# Velocity P-wave (km/s) = 6.33713 6.96146 6.65662
#
# Compressibility (1/GPa) = 0.02063166
#
# Stress axis : x y z
#
# Youngs Moduli (GPa) = 89.01240 56.45395 62.64137
#
# Poissons Ratio (x) = 0.21346 0.25018
# Poissons Ratio (y) = 0.33656 0.27344
# Poissons Ratio (z) = 0.35550 0.24643
#
# Static dielectric constant tensor:
#      x y z
#    x 3.899630 0.000000 -0.227450 
#    y 0.000000 3.189820 0.000000 
#    z -0.227450 0.000000 3.778600 
# 
# 
# High freq. dielectric constant tensor:
#      x y z
#    x 1.782680 0.000000 -0.011700 
#    y 0.000000 1.705140 0.000000 
#    z -0.011700 0.000000 1.749590 
# 
# From -- ./inp_files/198963.got.cif
#   From: 2010.06.25/outbox.cif.g09.slc.cpg/sg12_100_cif.got.tgz:198963.got - 2010.06.28 00:19:55.
