data_PCOD8110850
_publ_section_title
;
Structure prediction by ZEFSAII (Michael W. Deem and Ramdas Pophale) SiO2 
 PCOD8110850
Probable space group: C 2/M
;
_chemical_formula_sum "Si O2"
_cell_formula_units_Z 52
_cell_length_a 17.216628
_cell_length_b 29.669428
_cell_length_c 5.197996
_cell_angle_alpha 90.000000
_cell_angle_beta 113.198538
_cell_angle_gamma 90.000000
_cell_volume 2440.492201
_symmetry_space_group_name_H-M "C 2/M"
_symmetry_group_IT_number 12
_symmetry_cell_setting 'monoclinic'
loop_
_space_group_symop_operation_xyz
x,y,z
-x,y,-z
-x,-y,-z
x,-y,z
1/2+x,1/2+y,z
1/2-x,1/2+y,-z
1/2-x,1/2-y,-z
1/2+x,1/2-y,z
loop_
_atom_site_type_symbol
_atom_site_label
_atom_site_fract_x
_atom_site_fract_y
_atom_site_fract_z
Si Si1 0.240787 0.447455 0.374050
Si Si2 0.643891 0.837160 0.764258
Si Si3 0.500000 0.264340 0.000000
Si Si4 0.911171 0.381116 0.799612
Si Si5 0.340907 0.252505 0.476153
Si Si6 0.914378 0.170496 0.263246
Si Si7 0.796904 0.097079 0.937253
O O1 0.224825 0.500000 0.384288
O O2 0.151562 0.423086 0.295655
O O3 0.304547 0.430417 0.680598
O O4 0.278287 0.437518 0.143146
O O5 0.579487 0.855806 0.461878
O O6 0.662061 0.783929 0.758530
O O7 0.728959 0.863806 0.819671
O O8 0.614484 0.844357 0.017685
O O9 0.429589 0.237568 0.738708
O O10 0.566161 0.293811 0.928959
O O11 0.000000 0.402333 0.000000
O O12 0.250000 0.250000 0.500000
O O13 0.351526 0.303750 0.382990
O O14 0.000000 0.154188 0.500000
O O15 0.881819 0.123862 0.105126
#
# Coordination Sequence:
#
# PCOD8110850 Si02
#       7
#     8   8   4   8   8   8   8
#     4  10  22  41  66  95 121 157 208 262 325 396
#     4  10  23  37  57  88 125 169 216 255 300 364
#     4  10  24  40  58  92 129 174 223 266 316 370
#     4  10  22  38  58  89 126 168 208 254 314 374
#     4  11  25  39  62  90 130 178 222 271 317 371
#     4  10  24  41  63  93 126 170 219 263 321 378
#     4  10  22  40  66  90 123 162 205 259 319 379
#
# _framework density 21.307176999999999
#
# number of rings (size 3 to 8) (size 9 to 14) (size 15 to 20)
#    0.000    1.846    0.000    1.846   14.000    4.000 
#    0.000    0.000    0.000    8.308    0.000    0.000 
#    0.000    0.000    0.000    0.000    0.000    0.000 
#
# Total GULP energy -322210.417808 kJ/mol
# GULP energy per Si atom -12392.708377 kJ/mol
# Density = 2.125868 g / cm^3
# Si number density = 21.307177 Si / 1000 Ang^3
#
#
#
# Elastic Constant Matrix: (Units=GPa)
#
#
# Indices 1 2 3 4 5 6 
#
# 1 76.0368 34.0849 20.6558 0.0000 15.1739 0.0000
# 2 34.0849 118.8343 53.7595 0.0000 13.0057 0.0000
# 3 20.6558 53.7595 98.5531 0.0000 1.6851 0.0000
# 4 0.0000 0.0000 0.0000 24.7639 0.0000 -5.4663
# 5 15.1739 13.0057 1.6851 0.0000 17.4019 0.0000
# 6 0.0000 0.0000 0.0000 -5.4663 0.0000 10.3964
#
#
#
# Elastic Compliance Matrix: (Units=1/GPa)
#
#
# Indices 1 2 3 4 5 6 
#
# 1 0.017502 -0.002699 -0.001973 0.000000 -0.013053 0.000000
# 2 -0.002699 0.012747 -0.006275 0.000000 -0.006565 0.000000
# 3 -0.001973 -0.006275 0.013897 0.000000 0.005064 0.000000
# 4 0.000000 0.000000 0.000000 0.045683 0.000000 0.024020
# 5 -0.013053 -0.006565 0.005064 0.000000 0.073263 0.000000
# 6 0.000000 0.000000 0.000000 0.024020 0.000000 0.108816
#
#
# Mechanical properties :
#
#
# Convention : Reuss Voigt Hill
#
# Bulk Modulus (GPa) = 44.94079 56.71387 50.82733
# Shear Modulus (GPa) = 16.59920 22.84073 19.71996
#
# Velocity S-wave (km/s) = 2.79416 3.27765 3.04552
# Velocity P-wave (km/s) = 5.61671 6.40305 6.02273
#
# Compressibility (1/GPa) = 0.02225150
#
# Stress axis : x y z
#
# Youngs Moduli (GPa) = 57.13551 78.45241 71.95942
#
# Poissons Ratio (x) = 0.21175 0.14196
# Poissons Ratio (y) = 0.15421 0.45156
# Poissons Ratio (z) = 0.11272 0.49230
#
# Static dielectric constant tensor:
#      x y z
#    x 3.744750 0.000000 -0.042360 
#    y 0.000000 3.537200 0.000000 
#    z -0.042360 0.000000 4.532710 
# 
# 
# High freq. dielectric constant tensor:
#      x y z
#    x 1.824670 0.000000 -0.002540 
#    y 0.000000 1.810770 0.000000 
#    z -0.002540 0.000000 1.860200 
# 
# From -- ./inp_files/18189.got.cif
#   From: 2010.06.25/outbox.cif.g09.slc.cpg/sg12_10_cif.got.tgz:18189.got - 2010.06.28 00:19:55.
