data_PCOD8110403
_publ_section_title
;
Structure prediction by ZEFSAII (Michael W. Deem and Ramdas Pophale) SiO2 
 PCOD8110403
Probable space group: C 2/M
;
_chemical_formula_sum "Si O2"
_cell_formula_units_Z 40
_cell_length_a 24.182869
_cell_length_b 8.892400
_cell_length_c 16.919074
_cell_angle_alpha 90.000000
_cell_angle_beta 147.169871
_cell_angle_gamma 90.000000
_cell_volume 1972.527122
_symmetry_space_group_name_H-M "C 2/M"
_symmetry_group_IT_number 12
_symmetry_cell_setting 'monoclinic'
loop_
_space_group_symop_operation_xyz
x,y,z
-x,y,-z
-x,-y,-z
x,-y,z
1/2+x,1/2+y,z
1/2-x,1/2+y,-z
1/2-x,1/2-y,-z
1/2+x,1/2-y,z
loop_
_atom_site_type_symbol
_atom_site_label
_atom_site_fract_x
_atom_site_fract_y
_atom_site_fract_z
Si Si1 0.140790 0.675996 0.370878
Si Si2 0.719431 0.824687 0.729415
Si Si3 0.528415 0.824902 0.393620
Si Si4 0.188400 0.822193 0.854098
Si Si5 0.602349 0.330800 0.171362
O O1 0.155577 0.500000 0.391876
O O2 0.250000 0.750000 0.500000
O O3 0.078678 0.730349 0.372506
O O4 0.081203 0.725369 0.220927
O O5 0.606673 0.795834 0.559349
O O6 0.737605 0.730972 0.830782
O O7 0.803094 0.769234 0.766544
O O8 0.735884 0.000000 0.768579
O O9 0.428966 0.726254 0.287153
O O10 0.497293 0.000000 0.352681
O O11 0.197223 0.000000 0.871861
O O12 0.250000 0.750000 0.000000
O O13 0.628361 0.500000 0.231076
O O14 0.500000 0.327612 0.000000
#
# Coordination Sequence:
#
# PCOD8110403 Si02
#       5
#     8   8   8   8   8
#     4  11  22  39  64  95 129 164 208 254 305 367
#     4  10  21  42  66  91 127 167 205 251 311 369
#     4  10  22  42  66  92 126 166 206 253 311 369
#     4  12  27  44  64  92 124 160 209 260 314 370
#     4  10  22  40  63  94 130 168 207 249 308 372
#
# _framework density 20.278554
#
# number of rings (size 3 to 8) (size 9 to 14) (size 15 to 20)
#    0.000    1.400    2.000    3.000    2.800    6.000 
#    0.000    0.000    0.000    0.000    0.000    0.000 
#    0.000    0.000    0.000    0.000    0.000    0.000 
#
# Total GULP energy -248088.137919 kJ/mol
# GULP energy per Si atom -12404.406896 kJ/mol
# Density = 2.023240 g / cm^3
# Si number density = 20.278554 Si / 1000 Ang^3
#
#
#
# Elastic Constant Matrix: (Units=GPa)
#
#
# Indices 1 2 3 4 5 6 
#
# 1 95.1186 37.2291 23.8644 0.0000 -20.4205 0.0000
# 2 37.2291 78.9949 29.8582 0.0000 -8.7593 0.0000
# 3 23.8644 29.8582 84.2607 0.0000 -10.0030 0.0000
# 4 0.0000 0.0000 0.0000 31.9388 0.0000 -2.4309
# 5 -20.4205 -8.7593 -10.0030 0.0000 36.6741 0.0000
# 6 0.0000 0.0000 0.0000 -2.4309 0.0000 37.3709
#
#
#
# Elastic Compliance Matrix: (Units=1/GPa)
#
#
# Indices 1 2 3 4 5 6 
#
# 1 0.014387 -0.005570 -0.001352 0.000000 0.006312 0.000000
# 2 -0.005570 0.016939 -0.004457 0.000000 -0.000271 0.000000
# 3 -0.001352 -0.004457 0.014070 0.000000 0.002020 0.000000
# 4 0.000000 0.000000 0.000000 0.031466 0.000000 0.002047
# 5 0.006312 -0.000271 0.002020 0.000000 0.031268 0.000000
# 6 0.000000 0.000000 0.000000 0.002047 0.000000 0.026892
#
#
# Mechanical properties :
#
#
# Convention : Reuss Voigt Hill
#
# Bulk Modulus (GPa) = 44.17179 48.91975 46.54577
# Shear Modulus (GPa) = 30.24345 32.35826 31.30086
#
# Velocity S-wave (km/s) = 3.86606 3.99894 3.93306
# Velocity P-wave (km/s) = 6.46207 6.74524 6.60517
#
# Compressibility (1/GPa) = 0.02263888
#
# Stress axis : x y z
#
# Youngs Moduli (GPa) = 69.50510 59.03706 71.07313
#
# Poissons Ratio (x) = 0.32882 0.09608
# Poissons Ratio (y) = 0.38712 0.31677
# Poissons Ratio (z) = 0.09396 0.26313
#
# Static dielectric constant tensor:
#      x y z
#    x 4.255380 0.000000 -0.188140 
#    y 0.000000 3.923310 0.000000 
#    z -0.188140 0.000000 3.781590 
# 
# 
# High freq. dielectric constant tensor:
#      x y z
#    x 1.808430 0.000000 -0.003970 
#    y 0.000000 1.781230 0.000000 
#    z -0.003970 0.000000 1.801560 
# 
# From -- ./inp_files/220586.got.cif
#   From: 2010.06.25/outbox.cif.g09.slc.cpg/sg12_111_cif.got.tgz:220586.got - 2010.06.28 00:19:55.
