data_PCOD8110590
_publ_section_title
;
Structure prediction by ZEFSAII (Michael W. Deem and Ramdas Pophale) SiO2 
 PCOD8110590
Probable space group: C 2/M
;
_chemical_formula_sum "Si O2"
_cell_formula_units_Z 60
_cell_length_a 15.608069
_cell_length_b 24.490334
_cell_length_c 11.256134
_cell_angle_alpha 90.000000
_cell_angle_beta 128.776707
_cell_angle_gamma 90.000000
_cell_volume 3354.292022
_symmetry_space_group_name_H-M "C 2/M"
_symmetry_group_IT_number 12
_symmetry_cell_setting 'monoclinic'
loop_
_space_group_symop_operation_xyz
x,y,z
-x,y,-z
-x,-y,-z
x,-y,z
1/2+x,1/2+y,z
1/2-x,1/2+y,-z
1/2-x,1/2-y,-z
1/2+x,1/2-y,z
loop_
_atom_site_type_symbol
_atom_site_label
_atom_site_fract_x
_atom_site_fract_y
_atom_site_fract_z
Si Si1 0.576816 0.342980 0.769697
Si Si2 0.457460 0.248927 0.092953
Si Si3 0.064534 0.937653 0.433083
Si Si4 0.500000 0.737937 0.500000
Si Si5 0.318616 0.147800 0.927722
Si Si6 0.520701 0.058302 0.879503
Si Si7 0.145406 0.286916 0.432660
Si Si8 0.694453 0.890116 0.348439
O O1 0.575060 0.308658 0.888978
O O2 0.490344 0.393178 0.702603
O O3 0.555751 0.301374 0.643711
O O4 0.696395 0.368074 0.858129
O O5 0.551674 0.222557 0.254594
O O6 0.500000 0.258980 0.000000
O O7 0.352104 0.208784 0.996569
O O8 0.191633 0.922549 0.561115
O O9 0.000000 0.932221 0.500000
O O10 0.055227 0.000000 0.376331
O O11 0.593620 0.775591 0.518668
O O12 0.331718 0.141829 0.797195
O O13 0.393199 0.106375 0.069184
O O14 0.404611 0.068150 0.713149
O O15 0.567366 0.000000 0.873788
O O16 0.500000 0.054360 0.000000
O O17 0.250000 0.250000 0.500000
O O18 0.192091 0.348152 0.457295
#
# Coordination Sequence:
#
# PCOD8110590 Si02
#       8
#     8   8   8   4   8   8   8   8
#     4  11  21  36  54  79 117 143 185 236 283 336
#     4  11  21  35  53  83 111 150 187 224 282 348
#     4  11  22  36  56  82 111 150 195 241 291 341
#     4  10  22  36  51  86 113 152 192 230 280 348
#     4  11  18  33  50  78 113 145 178 221 279 344
#     4   9  18  29  46  73 103 137 173 213 268 329
#     4  11  21  35  57  78 117 156 187 234 284 337
#     4  11  18  34  54  76 113 144 183 230 279 337
#
# _framework density 17.887530000000002
#
# number of rings (size 3 to 8) (size 9 to 14) (size 15 to 20)
#    0.000    1.333    4.667    3.600    0.000    1.067 
#    0.000    0.000    0.000    0.400    0.000    3.733 
#    0.000    0.000    0.000    0.000    0.000    0.000 
#
# Total GULP energy -371867.431308 kJ/mol
# GULP energy per Si atom -12395.581044 kJ/mol
# Density = 1.784682 g / cm^3
# Si number density = 17.887530 Si / 1000 Ang^3
#
#
#
# Elastic Constant Matrix: (Units=GPa)
#
#
# Indices 1 2 3 4 5 6 
#
# 1 80.4553 38.4512 26.3870 0.0000 14.0302 0.0000
# 2 38.4512 137.0280 36.3083 0.0000 7.1220 0.0000
# 3 26.3870 36.3083 60.6866 0.0000 16.8242 0.0000
# 4 0.0000 0.0000 0.0000 14.0316 0.0000 10.1828
# 5 14.0302 7.1220 16.8242 0.0000 32.2542 0.0000
# 6 0.0000 0.0000 0.0000 10.1828 0.0000 16.2015
#
#
#
# Elastic Compliance Matrix: (Units=1/GPa)
#
#
# Indices 1 2 3 4 5 6 
#
# 1 0.015976 -0.003248 -0.003829 0.000000 -0.004235 0.000000
# 2 -0.003248 0.009357 -0.004682 0.000000 0.001789 0.000000
# 3 -0.003829 -0.004682 0.023610 0.000000 -0.009616 0.000000
# 4 0.000000 0.000000 0.000000 0.131033 0.000000 -0.082355
# 5 -0.004235 0.001789 -0.009616 0.000000 0.037466 0.000000
# 6 0.000000 0.000000 0.000000 -0.082355 0.000000 0.113483
#
#
# Mechanical properties :
#
#
# Convention : Reuss Voigt Hill
#
# Bulk Modulus (GPa) = 39.33196 53.38475 46.35835
# Shear Modulus (GPa) = 13.77725 24.29904 19.03814
#
# Velocity S-wave (km/s) = 2.77829 3.68969 3.26594
# Velocity P-wave (km/s) = 5.68578 6.93262 6.33992
#
# Compressibility (1/GPa) = 0.02542462
#
# Stress axis : x y z
#
# Youngs Moduli (GPa) = 62.59388 106.87416 42.35536
#
# Poissons Ratio (x) = 0.34716 0.16218
# Poissons Ratio (y) = 0.20333 0.19829
# Poissons Ratio (z) = 0.23967 0.50035
#
# Static dielectric constant tensor:
#      x y z
#    x 3.279510 0.000000 0.173370 
#    y 0.000000 3.680530 0.000000 
#    z 0.173370 0.000000 3.309420 
# 
# 
# High freq. dielectric constant tensor:
#      x y z
#    x 1.673780 0.000000 0.034670 
#    y 0.000000 1.695220 0.000000 
#    z 0.034670 0.000000 1.677560 
# 
# From -- ./inp_files/149308.got.cif
#   From: 2010.06.25/outbox.cif.g09.slc.cpg/sg12_75_cif.got.tgz:149308.got - 2010.06.28 00:19:55.
