data_PCOD8110492
_publ_section_title
;
Structure prediction by ZEFSAII (Michael W. Deem and Ramdas Pophale) SiO2 
 PCOD8110492
Probable space group: C 2/M
;
_chemical_formula_sum "Si O2"
_cell_formula_units_Z 52
_cell_length_a 18.226452
_cell_length_b 12.248272
_cell_length_c 12.801656
_cell_angle_alpha 90.000000
_cell_angle_beta 127.544678
_cell_angle_gamma 90.000000
_cell_volume 2265.946742
_symmetry_space_group_name_H-M "C 2/M"
_symmetry_group_IT_number 12
_symmetry_cell_setting 'monoclinic'
loop_
_space_group_symop_operation_xyz
x,y,z
-x,y,-z
-x,-y,-z
x,-y,z
1/2+x,1/2+y,z
1/2-x,1/2+y,-z
1/2-x,1/2-y,-z
1/2+x,1/2-y,z
loop_
_atom_site_type_symbol
_atom_site_label
_atom_site_fract_x
_atom_site_fract_y
_atom_site_fract_z
Si Si1 0.122620 0.500000 0.356606
Si Si2 0.166692 0.878301 0.321006
Si Si3 0.104316 0.279897 0.826989
Si Si4 0.212489 0.233053 0.722582
Si Si5 0.464851 0.620024 0.076027
Si Si6 0.898422 0.270464 0.566943
Si Si7 0.577264 0.000000 0.911828
Si Si8 0.702687 0.000000 0.211336
O O1 0.133481 0.394934 0.439613
O O2 0.198265 0.500000 0.332479
O O3 0.031754 0.500000 0.203582
O O4 0.207507 0.811413 0.256869
O O5 0.057289 0.894552 0.221773
O O6 0.173703 0.805591 0.431300
O O7 0.212854 0.000000 0.371788
O O8 0.186765 0.271269 0.816328
O O9 0.119976 0.395800 0.892521
O O10 0.110185 0.191406 0.926311
O O11 0.006256 0.261614 0.684795
O O12 0.121068 0.242568 0.570644
O O13 0.241237 0.108748 0.766502
O O14 0.421078 0.500000 0.013251
O O15 0.500000 0.678807 0.000000
O O16 0.606857 0.000000 0.060126
#
# Coordination Sequence:
#
# PCOD8110492 Si02
#       8
#     4   8   8   8   8   8   4   4
#     4  10  21  43  72  98 122 174 225 264 316 377
#     4  10  22  38  62  93 125 172 212 263 323 376
#     4  10  24  43  66  92 127 171 216 262 325 383
#     4  12  26  40  62  97 135 167 209 271 330 386
#     4   9  20  41  65  89 118 164 220 263 309 384
#     4  10  22  42  66  93 129 171 218 265 315 389
#     4  10  25  45  66  92 129 172 218 271 315 394
#     4  12  27  42  63 100 130 171 217 268 334 369
#
# _framework density 22.948466
#
# number of rings (size 3 to 8) (size 9 to 14) (size 15 to 20)
#    0.000    1.692    1.538    1.154    6.462    0.615 
#    0.000    3.077    0.000    0.000    0.000    0.000 
#    0.000    0.000    0.000    0.000    0.000    0.000 
#
# Total GULP energy -322184.827838 kJ/mol
# GULP energy per Si atom -12391.724148 kJ/mol
# Density = 2.289623 g / cm^3
# Si number density = 22.948466 Si / 1000 Ang^3
#
#
#
# Elastic Constant Matrix: (Units=GPa)
#
#
# Indices 1 2 3 4 5 6 
#
# 1 85.7576 44.3639 1.5887 0.0000 -33.8825 0.0000
# 2 44.3639 166.3911 23.4861 0.0000 -13.9436 0.0000
# 3 1.5887 23.4861 61.2352 0.0000 -17.2377 0.0000
# 4 0.0000 0.0000 0.0000 52.5753 0.0000 -38.6497
# 5 -33.8825 -13.9436 -17.2377 0.0000 43.8980 0.0000
# 6 0.0000 0.0000 0.0000 -38.6497 0.0000 44.1065
#
#
#
# Elastic Compliance Matrix: (Units=1/GPa)
#
#
# Indices 1 2 3 4 5 6 
#
# 1 0.020797 -0.004996 0.006126 0.000000 0.016871 0.000000
# 2 -0.004996 0.007610 -0.003591 0.000000 -0.002849 0.000000
# 3 0.006126 -0.003591 0.020865 0.000000 0.011781 0.000000
# 4 0.000000 0.000000 0.000000 0.053455 0.000000 0.046842
# 5 0.016871 -0.002849 0.011781 0.000000 0.039523 0.000000
# 6 0.000000 0.000000 0.000000 0.046842 0.000000 0.063719
#
#
# Mechanical properties :
#
#
# Convention : Reuss Voigt Hill
#
# Bulk Modulus (GPa) = 22.54799 50.25126 36.39963
# Shear Modulus (GPa) = 22.15567 44.37896 33.26732
#
# Velocity S-wave (km/s) = 3.11055 4.40233 3.81156
# Velocity P-wave (km/s) = 4.76943 6.91272 5.93857
#
# Compressibility (1/GPa) = 0.04434985
#
# Stress axis : x y z
#
# Youngs Moduli (GPa) = 48.08292 131.40395 47.92686
#
# Poissons Ratio (x) = 0.65649 -0.29359
# Poissons Ratio (y) = 0.24022 0.17211
# Poissons Ratio (z) = -0.29454 0.47189
#
# Static dielectric constant tensor:
#      x y z
#    x 3.827680 0.000000 -0.011360 
#    y 0.000000 4.529670 0.000000 
#    z -0.011360 0.000000 4.117310 
# 
# 
# High freq. dielectric constant tensor:
#      x y z
#    x 1.887800 0.000000 0.002600 
#    y 0.000000 1.916960 0.000000 
#    z 0.002600 0.000000 1.917300 
# 
# From -- ./inp_files/165801.got.cif
#   From: 2010.06.25/outbox.cif.g09.slc.cpg/sg12_83_cif.got.tgz:165801.got - 2010.06.28 00:19:55.
