data_PCOD8110246
_publ_section_title
;
Structure prediction by ZEFSAII (Michael W. Deem and Ramdas Pophale) SiO2 
 PCOD8110246
Probable space group: C 2/M
;
_chemical_formula_sum "Si O2"
_cell_formula_units_Z 32
_cell_length_a 11.987044
_cell_length_b 20.854526
_cell_length_c 5.280844
_cell_angle_alpha 90.000000
_cell_angle_beta 79.752843
_cell_angle_gamma 90.000000
_cell_volume 1299.070490
_symmetry_space_group_name_H-M "C 2/M"
_symmetry_group_IT_number 12
_symmetry_cell_setting 'monoclinic'
loop_
_space_group_symop_operation_xyz
x,y,z
-x,y,-z
-x,-y,-z
x,-y,z
1/2+x,1/2+y,z
1/2-x,1/2+y,-z
1/2-x,1/2-y,-z
1/2+x,1/2-y,z
loop_
_atom_site_type_symbol
_atom_site_label
_atom_site_fract_x
_atom_site_fract_y
_atom_site_fract_z
Si Si1 0.879184 0.749046 0.830344
Si Si2 0.750354 0.928098 0.483643
Si Si3 0.627951 0.303453 0.667940
Si Si4 0.618126 0.896712 0.043272
O O1 0.821018 0.760010 0.581250
O O2 0.908759 0.676627 0.879634
O O3 0.996193 0.789466 0.761940
O O4 0.807836 0.783076 0.092250
O O5 0.851985 0.879038 0.379863
O O6 0.660838 0.928697 0.287063
O O7 0.799088 0.000000 0.491899
O O8 0.702094 0.905596 0.773567
O O9 0.500000 0.928802 0.000000
#
# Coordination Sequence:
#
# PCOD8110246 Si02
#       4
#     8   8   8   8
#     4  10  21  41  66 103 128 158 212 267 345 371
#     4  12  28  44  64  96 133 178 219 253 312 391
#     4  10  21  41  67  96 134 160 210 272 319 387
#     4  12  25  44  68  95 131 170 215 273 321 379
#
# _framework density 24.632998000000001
#
# number of rings (size 3 to 8) (size 9 to 14) (size 15 to 20)
#    0.000    1.000    2.500    4.500    3.500    9.000 
#    0.000    5.000    0.000    0.000    0.000    0.000 
#    0.000    0.000    0.000    0.000    0.000    0.000 
#
# Total GULP energy -198363.890722 kJ/mol
# GULP energy per Si atom -12397.743170 kJ/mol
# Density = 2.457693 g / cm^3
# Si number density = 24.632998 Si / 1000 Ang^3
#
#
#
# Elastic Constant Matrix: (Units=GPa)
#
#
# Indices 1 2 3 4 5 6 
#
# 1 81.4758 31.2219 45.0502 0.0000 8.8612 0.0000
# 2 31.2219 185.1838 74.8287 0.0000 -0.5751 0.0000
# 3 45.0502 74.8287 219.8670 0.0000 21.9175 0.0000
# 4 0.0000 0.0000 0.0000 20.3010 0.0000 15.2315
# 5 8.8612 -0.5751 21.9175 0.0000 44.3796 0.0000
# 6 0.0000 0.0000 0.0000 15.2315 0.0000 35.9097
#
#
#
# Elastic Compliance Matrix: (Units=1/GPa)
#
#
# Indices 1 2 3 4 5 6 
#
# 1 0.014281 -0.001510 -0.002236 0.000000 -0.001767 0.000000
# 2 -0.001510 0.006481 -0.002035 0.000000 0.001390 0.000000
# 3 -0.002236 -0.002035 0.005950 0.000000 -0.002518 0.000000
# 4 0.000000 0.000000 0.000000 0.072252 0.000000 -0.030647
# 5 -0.001767 0.001390 -0.002518 0.000000 0.024147 0.000000
# 6 0.000000 0.000000 0.000000 -0.030647 0.000000 0.040847
#
#
# Mechanical properties :
#
#
# Convention : Reuss Voigt Hill
#
# Bulk Modulus (GPa) = 66.00592 87.63646 76.82119
# Shear Modulus (GPa) = 27.69010 42.47979 35.08494
#
# Velocity S-wave (km/s) = 3.35641 4.15722 3.77809
# Velocity P-wave (km/s) = 6.47105 7.66143 7.09126
#
# Compressibility (1/GPa) = 0.01515016
#
# Stress axis : x y z
#
# Youngs Moduli (GPa) = 70.02476 154.29217 168.06558
#
# Poissons Ratio (x) = 0.23292 0.37583
# Poissons Ratio (y) = 0.10571 0.34203
# Poissons Ratio (z) = 0.15659 0.31400
#
# Static dielectric constant tensor:
#      x y z
#    x 5.873650 0.000000 2.143320 
#    y 0.000000 4.221700 0.000000 
#    z 2.143320 0.000000 7.978470 
# 
# 
# High freq. dielectric constant tensor:
#      x y z
#    x 2.001170 0.000000 0.015550 
#    y 0.000000 1.959650 0.000000 
#    z 0.015550 0.000000 2.030100 
# 
# From -- ./inp_files/10162.got.cif
#   From: 2010.06.25/outbox.cif.g09.slc.cpg/sg12_6_cif.got.tgz:10162.got - 2010.06.28 00:19:55.
