data_PCOD8110777
_publ_section_title
;
Structure prediction by ZEFSAII (Michael W. Deem and Ramdas Pophale) SiO2 
 PCOD8110777
Probable space group: C 2/M
;
_chemical_formula_sum "Si O2"
_cell_formula_units_Z 56
_cell_length_a 10.016258
_cell_length_b 27.061790
_cell_length_c 18.128594
_cell_angle_alpha 90.000000
_cell_angle_beta 39.783082
_cell_angle_gamma 90.000000
_cell_volume 3144.318949
_symmetry_space_group_name_H-M "C 2/M"
_symmetry_group_IT_number 12
_symmetry_cell_setting 'monoclinic'
loop_
_space_group_symop_operation_xyz
x,y,z
-x,y,-z
-x,-y,-z
x,-y,z
1/2+x,1/2+y,z
1/2-x,1/2+y,-z
1/2-x,1/2-y,-z
1/2+x,1/2-y,z
loop_
_atom_site_type_symbol
_atom_site_label
_atom_site_fract_x
_atom_site_fract_y
_atom_site_fract_z
Si Si1 0.831489 0.649563 0.013098
Si Si2 0.730822 0.945650 0.039876
Si Si3 0.176197 0.296205 0.485559
Si Si4 0.630470 0.155413 0.285879
Si Si5 0.021993 0.807774 0.765866
Si Si6 0.750359 0.709992 0.903702
Si Si7 0.281403 0.445361 0.184680
O O1 0.802034 0.692558 0.964657
O O2 0.892573 0.596594 0.952490
O O3 0.617075 0.645107 0.151168
O O4 0.000000 0.667798 0.000000
O O5 0.974791 0.935208 0.927141
O O6 0.670824 0.000000 0.034263
O O7 0.673543 0.943029 0.150194
O O8 0.250000 0.250000 0.500000
O O9 0.382638 0.316372 0.356082
O O10 0.000000 0.282078 0.500000
O O11 0.094273 0.336262 0.580116
O O12 0.787039 0.194542 0.257862
O O13 0.648889 0.167791 0.191535
O O14 0.682641 0.097584 0.277187
O O15 0.873482 0.759991 0.833466
O O16 0.500000 0.714885 0.000000
O O17 0.240912 0.500000 0.236503
#
# Coordination Sequence:
#
# PCOD8110777 Si02
#       7
#     8   8   8   8   8   8   8
#     4  12  24  33  51  84 115 142 178 225 281 331
#     4   9  17  32  53  79 109 141 176 220 278 332
#     4  10  22  38  55  75 104 149 187 222 265 317
#     4  11  20  36  60  79 109 143 185 231 270 316
#     4  11  23  36  53  76 112 146 183 223 267 323
#     4  12  22  36  56  77 111 151 184 220 274 324
#     4   9  16  31  58  84 103 136 185 231 270 318
#
# _framework density 17.809896999999999
#
# number of rings (size 3 to 8) (size 9 to 14) (size 15 to 20)
#    0.000    1.429    5.714    1.714    2.000    0.286 
#    0.000    0.000    0.000    4.714    0.000    0.000 
#    0.000    2.857    0.000    0.000    0.000    0.000 
#
# Total GULP energy -346948.675028 kJ/mol
# GULP energy per Si atom -12391.024108 kJ/mol
# Density = 1.776936 g / cm^3
# Si number density = 17.809897 Si / 1000 Ang^3
#
#
#
# Elastic Constant Matrix: (Units=GPa)
#
#
# Indices 1 2 3 4 5 6 
#
# 1 71.9129 17.1097 27.1559 0.0000 2.7147 0.0000
# 2 17.1097 98.9698 37.7913 0.0000 -2.2279 0.0000
# 3 27.1559 37.7913 118.0890 0.0000 10.1251 0.0000
# 4 0.0000 0.0000 0.0000 24.2499 0.0000 -0.9562
# 5 2.7147 -2.2279 10.1251 0.0000 14.2753 0.0000
# 6 0.0000 0.0000 0.0000 -0.9562 0.0000 16.8102
#
#
#
# Elastic Compliance Matrix: (Units=1/GPa)
#
#
# Indices 1 2 3 4 5 6 
#
# 1 0.015435 -0.001564 -0.002956 0.000000 -0.001083 0.000000
# 2 -0.001564 0.011972 -0.003894 0.000000 0.004928 0.000000
# 3 -0.002956 -0.003894 0.011071 0.000000 -0.007898 0.000000
# 4 0.000000 0.000000 0.000000 0.041330 0.000000 0.002351
# 5 -0.001083 0.004928 -0.007898 0.000000 0.076628 0.000000
# 6 0.000000 0.000000 0.000000 0.002351 0.000000 0.059621
#
#
# Mechanical properties :
#
#
# Convention : Reuss Voigt Hill
#
# Bulk Modulus (GPa) = 46.18929 50.34285 48.26607
# Shear Modulus (GPa) = 20.82429 24.86138 22.84284
#
# Velocity S-wave (km/s) = 3.42314 3.74027 3.58521
# Velocity P-wave (km/s) = 6.45095 6.85427 6.65567
#
# Compressibility (1/GPa) = 0.02165004
#
# Stress axis : x y z
#
# Youngs Moduli (GPa) = 64.78791 83.52513 90.32210
#
# Poissons Ratio (x) = 0.13063 0.26700
# Poissons Ratio (y) = 0.10133 0.35175
# Poissons Ratio (z) = 0.19152 0.32528
#
# Static dielectric constant tensor:
#      x y z
#    x 3.228950 0.000000 0.156300 
#    y 0.000000 3.325480 0.000000 
#    z 0.156300 0.000000 3.575530 
# 
# 
# High freq. dielectric constant tensor:
#      x y z
#    x 1.673670 0.000000 0.012710 
#    y 0.000000 1.682710 0.000000 
#    z 0.012710 0.000000 1.675680 
# 
# From -- ./inp_files/136564.got.cif
#   From: 2010.06.25/outbox.cif.g09.slc.cpg/sg12_69_cif.got.tgz:136564.got - 2010.06.28 00:19:55.
