data_PCOD8110544
_publ_section_title
;
Structure prediction by ZEFSAII (Michael W. Deem and Ramdas Pophale) SiO2 
 PCOD8110544
Probable space group: C 2/M
;
_chemical_formula_sum "Si O2"
_cell_formula_units_Z 56
_cell_length_a 9.374593
_cell_length_b 28.155575
_cell_length_c 10.375154
_cell_angle_alpha 90.000000
_cell_angle_beta 83.496442
_cell_angle_gamma 90.000000
_cell_volume 2720.868683
_symmetry_space_group_name_H-M "C 2/M"
_symmetry_group_IT_number 12
_symmetry_cell_setting 'monoclinic'
loop_
_space_group_symop_operation_xyz
x,y,z
-x,y,-z
-x,-y,-z
x,-y,z
1/2+x,1/2+y,z
1/2-x,1/2+y,-z
1/2-x,1/2-y,-z
1/2+x,1/2-y,z
loop_
_atom_site_type_symbol
_atom_site_label
_atom_site_fract_x
_atom_site_fract_y
_atom_site_fract_z
Si Si1 0.150695 0.318832 0.780658
Si Si2 0.836276 0.404098 0.028297
Si Si3 0.818903 0.877199 0.202878
Si Si4 0.893214 0.218790 0.622195
Si Si5 0.571689 0.721628 0.861524
Si Si6 0.556077 0.447297 0.138810
Si Si7 0.899147 0.326654 0.622239
O O1 0.173562 0.353645 0.897980
O O2 0.262270 0.319794 0.646947
O O3 0.181357 0.264755 0.824545
O O4 0.989490 0.325873 0.746259
O O5 0.727720 0.437090 0.123319
O O6 0.781933 0.404797 0.887028
O O7 0.000000 0.423380 0.000000
O O8 0.853822 0.828724 0.124085
O O9 0.733428 0.862849 0.342253
O O10 0.959843 0.908500 0.226897
O O11 0.965978 0.216212 0.753088
O O12 0.843391 0.273274 0.593678
O O13 0.000000 0.200593 0.500000
O O14 0.500000 0.737366 0.000000
O O15 0.530854 0.500000 0.199011
O O16 0.500000 0.443647 0.000000
O O17 0.000000 0.347418 0.500000
#
# Coordination Sequence:
#
# PCOD8110544 Si02
#       7
#     8   8   8   8   8   8   8
#     4  11  21  34  51  77 118 151 188 232 280 328
#     4  11  21  35  56  87 119 142 179 233 286 336
#     4  11  20  37  56  81 113 149 189 234 275 340
#     4  10  22  35  50  73 109 158 206 241 271 324
#     4  11  22  32  52  79 110 157 195 226 277 339
#     4   9  20  38  61  85 111 145 184 228 287 349
#     4  10  22  34  51  76 108 152 196 235 275 328
#
# _framework density 20.581662000000001
#
# number of rings (size 3 to 8) (size 9 to 14) (size 15 to 20)
#    0.000    1.571    2.857    3.429    4.000    3.143 
#    0.000    0.000    0.000    0.429    0.000    1.000 
#    0.000    0.000    0.000    0.000    0.000    0.000 
#
# Total GULP energy -346952.182881 kJ/mol
# GULP energy per Si atom -12391.149389 kJ/mol
# Density = 2.053482 g / cm^3
# Si number density = 20.581662 Si / 1000 Ang^3
#
#
#
# Elastic Constant Matrix: (Units=GPa)
#
#
# Indices 1 2 3 4 5 6 
#
# 1 100.5083 38.2856 28.2968 0.0000 -36.8160 0.0000
# 2 38.2856 77.0755 25.4012 0.0000 -14.1352 0.0000
# 3 28.2968 25.4012 88.2159 0.0000 -35.8131 0.0000
# 4 0.0000 0.0000 0.0000 16.8850 0.0000 -9.8478
# 5 -36.8160 -14.1352 -35.8131 0.0000 35.2264 0.0000
# 6 0.0000 0.0000 0.0000 -9.8478 0.0000 24.4403
#
#
#
# Elastic Compliance Matrix: (Units=1/GPa)
#
#
# Indices 1 2 3 4 5 6 
#
# 1 0.019594 -0.007223 0.004992 0.000000 0.022655 0.000000
# 2 -0.007223 0.017144 -0.004924 0.000000 -0.005675 0.000000
# 3 0.004992 -0.004924 0.021231 0.000000 0.024826 0.000000
# 4 0.000000 0.000000 0.000000 0.077417 0.000000 0.031194
# 5 0.022655 -0.005675 0.024826 0.000000 0.075027 0.000000
# 6 0.000000 0.000000 0.000000 0.031194 0.000000 0.053485
#
#
# Mechanical properties :
#
#
# Convention : Reuss Voigt Hill
#
# Bulk Modulus (GPa) = 22.90467 49.97409 36.43938
# Shear Modulus (GPa) = 17.07875 26.89807 21.98841
#
# Velocity S-wave (km/s) = 2.88376 3.61902 3.27211
# Velocity P-wave (km/s) = 4.71603 6.46504 5.65852
#
# Compressibility (1/GPa) = 0.04365922
#
# Stress axis : x y z
#
# Youngs Moduli (GPa) = 51.03626 58.32915 47.10094
#
# Poissons Ratio (x) = 0.42133 -0.23513
# Poissons Ratio (y) = 0.36865 0.23191
# Poissons Ratio (z) = -0.25477 0.28719
#
# Static dielectric constant tensor:
#      x y z
#    x 3.925550 0.000000 -0.326280 
#    y 0.000000 3.544150 0.000000 
#    z -0.326280 0.000000 3.590180 
# 
# 
# High freq. dielectric constant tensor:
#      x y z
#    x 1.815950 0.000000 -0.022290 
#    y 0.000000 1.753960 0.000000 
#    z -0.022290 0.000000 1.793150 
# 
# From -- ./inp_files/125189.got.cif
#   From: 2010.06.25/outbox.cif.g09.slc.cpg/sg12_63_cif.got.tgz:125189.got - 2010.06.28 00:19:55.
