data_PCOD8110821
_publ_section_title
;
Structure prediction by ZEFSAII (Michael W. Deem and Ramdas Pophale) SiO2 
 PCOD8110821
Probable space group: C 2/M
;
_chemical_formula_sum "Si O2"
_cell_formula_units_Z 56
_cell_length_a 20.050630
_cell_length_b 9.042259
_cell_length_c 17.145850
_cell_angle_alpha 90.000000
_cell_angle_beta 122.515001
_cell_angle_gamma 90.000000
_cell_volume 2621.324085
_symmetry_space_group_name_H-M "C 2/M"
_symmetry_group_IT_number 12
_symmetry_cell_setting 'monoclinic'
loop_
_space_group_symop_operation_xyz
x,y,z
-x,y,-z
-x,-y,-z
x,-y,z
1/2+x,1/2+y,z
1/2-x,1/2+y,-z
1/2-x,1/2-y,-z
1/2+x,1/2-y,z
loop_
_atom_site_type_symbol
_atom_site_label
_atom_site_fract_x
_atom_site_fract_y
_atom_site_fract_z
Si Si1 0.562911 0.171639 0.879997
Si Si2 0.690579 0.671527 0.404127
Si Si3 0.359177 0.328244 0.930266
Si Si4 0.618163 0.828284 0.219169
Si Si5 0.390706 0.325831 0.362187
Si Si6 0.680158 0.169984 0.819894
Si Si7 0.936379 0.830664 0.554157
O O1 0.470390 0.193781 0.802686
O O2 0.617474 0.233259 0.843625
O O3 0.582691 0.000000 0.908861
O O4 0.581420 0.265239 0.968395
O O5 0.714197 0.500000 0.408387
O O6 0.750000 0.750000 0.500000
O O7 0.683073 0.751154 0.316193
O O8 0.604802 0.690693 0.389349
O O9 0.377746 0.500000 0.927689
O O10 0.374910 0.242144 0.860839
O O11 0.269722 0.304891 0.905195
O O12 0.640514 0.000000 0.228200
O O13 0.379125 0.500000 0.344339
O O14 0.325570 0.250151 0.267143
O O15 0.382703 0.271014 0.447581
O O16 0.476096 0.262816 0.386886
O O17 0.661088 0.000000 0.793366
O O18 0.949919 0.000000 0.540226
#
# Coordination Sequence:
#
# PCOD8110821 Si02
#       7
#     8   8   8   8   8   8   8
#     4  10  22  42  65  88 119 158 202 250 299 358
#     4  11  23  39  59  86 121 159 199 244 294 351
#     4  11  24  40  61  91 125 158 197 248 303 359
#     4  11  24  42  64  89 119 160 205 248 300 357
#     4   9  17  33  58  84 110 149 194 238 288 349
#     4  10  22  38  57  87 124 154 191 244 301 354
#     4   8  17  34  55  81 113 147 193 242 287 341
#
# _framework density 21.363249
#
# number of rings (size 3 to 8) (size 9 to 14) (size 15 to 20)
#    0.000    2.000    0.000    3.857    2.000    4.571 
#    0.000    2.857    0.000    0.000    0.000    0.000 
#    0.000    0.000    0.000    0.000    0.000    0.000 
#
# Total GULP energy -347155.301287 kJ/mol
# GULP energy per Si atom -12398.403617 kJ/mol
# Density = 2.131463 g / cm^3
# Si number density = 21.363249 Si / 1000 Ang^3
#
#
#
# Elastic Constant Matrix: (Units=GPa)
#
#
# Indices 1 2 3 4 5 6 
#
# 1 48.5961 22.5131 -1.8476 0.0000 -7.1607 0.0000
# 2 22.5131 100.3194 52.2039 0.0000 -2.3170 0.0000
# 3 -1.8476 52.2039 116.5487 0.0000 -4.3264 0.0000
# 4 0.0000 0.0000 0.0000 39.8989 0.0000 -0.3926
# 5 -7.1607 -2.3170 -4.3264 0.0000 32.3303 0.0000
# 6 0.0000 0.0000 0.0000 -0.3926 0.0000 24.6651
#
#
#
# Elastic Compliance Matrix: (Units=1/GPa)
#
#
# Indices 1 2 3 4 5 6 
#
# 1 0.025055 -0.007574 0.003995 0.000000 0.005541 0.000000
# 2 -0.007574 0.015288 -0.007024 0.000000 -0.001522 0.000000
# 3 0.003995 -0.007024 0.011863 0.000000 0.001969 0.000000
# 4 0.000000 0.000000 0.000000 0.025067 0.000000 0.000399
# 5 0.005541 -0.001522 0.001969 0.000000 0.032312 0.000000
# 6 0.000000 0.000000 0.000000 0.000399 0.000000 0.040549
#
#
# Mechanical properties :
#
#
# Convention : Reuss Voigt Hill
#
# Bulk Modulus (GPa) = 32.25795 45.68923 38.97359
# Shear Modulus (GPa) = 27.52191 32.21851 29.87021
#
# Velocity S-wave (km/s) = 3.59316 3.88768 3.74332
# Velocity P-wave (km/s) = 5.68743 6.44867 6.07998
#
# Compressibility (1/GPa) = 0.03100011
#
# Stress axis : x y z
#
# Youngs Moduli (GPa) = 39.91251 65.41115 84.29719
#
# Poissons Ratio (x) = 0.49540 -0.33679
# Poissons Ratio (y) = 0.30229 0.59212
# Poissons Ratio (z) = -0.15946 0.45946
#
# Static dielectric constant tensor:
#      x y z
#    x 4.153330 0.000000 -0.028700 
#    y 0.000000 3.671440 0.000000 
#    z -0.028700 0.000000 3.803100 
# 
# 
# High freq. dielectric constant tensor:
#      x y z
#    x 1.845280 0.000000 -0.000300 
#    y 0.000000 1.819310 0.000000 
#    z -0.000300 0.000000 1.845160 
# 
# From -- ./inp_files/288437.got.cif
#   From: 2010.06.25/outbox.cif.g09.slc.cpg/sg12_145_cif.got.tgz:288437.got - 2010.06.28 00:19:55.
