data_PCOD8110699
_publ_section_title
;
Structure prediction by ZEFSAII (Michael W. Deem and Ramdas Pophale) SiO2 
 PCOD8110699
Probable space group: C 2/M
;
_chemical_formula_sum "Si O2"
_cell_formula_units_Z 64
_cell_length_a 14.426514
_cell_length_b 26.542518
_cell_length_c 9.703076
_cell_angle_alpha 90.000000
_cell_angle_beta 70.214460
_cell_angle_gamma 90.000000
_cell_volume 3496.125319
_symmetry_space_group_name_H-M "C 2/M"
_symmetry_group_IT_number 12
_symmetry_cell_setting 'monoclinic'
loop_
_space_group_symop_operation_xyz
x,y,z
-x,y,-z
-x,-y,-z
x,-y,z
1/2+x,1/2+y,z
1/2-x,1/2+y,-z
1/2-x,1/2-y,-z
1/2+x,1/2-y,z
loop_
_atom_site_type_symbol
_atom_site_label
_atom_site_fract_x
_atom_site_fract_y
_atom_site_fract_z
Si Si1 0.229004 0.057836 0.034515
Si Si2 0.117230 0.868198 0.281191
Si Si3 0.735699 0.442057 0.717040
Si Si4 0.264880 0.785888 0.119624
Si Si5 0.597141 0.138499 0.361613
Si Si6 0.885782 0.874268 0.401010
Si Si7 0.093322 0.628637 0.045453
Si Si8 0.743249 0.285090 0.633891
O O1 0.151557 0.085172 0.171733
O O2 0.231412 0.000000 0.077060
O O3 0.196058 0.065454 0.892588
O O4 0.337974 0.079763 0.998689
O O5 0.164462 0.816226 0.203381
O O6 0.149270 0.877119 0.423071
O O7 0.000806 0.865166 0.328408
O O8 0.762938 0.500000 0.674551
O O9 0.833333 0.409192 0.641674
O O10 0.648555 0.425464 0.657292
O O11 0.297864 0.750523 0.226779
O O12 0.250000 0.750000 0.000000
O O13 0.353361 0.823723 0.047625
O O14 0.500000 0.132235 0.500000
O O15 0.565749 0.140607 0.217391
O O16 0.651941 0.190318 0.376704
O O17 0.836068 0.828201 0.347754
O O18 0.000000 0.615693 0.000000
O O19 0.750000 0.250000 0.500000
#
# Coordination Sequence:
#
# PCOD8110699 Si02
#       8
#     8   8   8   8   8   8   8   8
#     4   9  20  40  61  82 113 148 183 231 283 333
#     4  10  22  38  57  84 117 145 185 234 279 330
#     4   9  20  40  61  82 112 148 186 229 280 337
#     4  11  22  40  57  80 117 153 189 232 277 330
#     4  10  22  37  57  84 115 146 187 235 281 332
#     4  10  22  38  57  85 114 147 187 231 278 333
#     4  10  22  37  57  84 114 147 189 233 278 335
#     4  11  22  38  59  82 114 154 189 229 280 333
#
# _framework density 18.305979000000001
#
# number of rings (size 3 to 8) (size 9 to 14) (size 15 to 20)
#    0.000    2.000    2.500    0.000    3.500    5.000 
#    0.000    2.500    0.000    0.000    0.000    0.000 
#    0.000    0.000    0.000    0.000    0.000    0.000 
#
# Total GULP energy -396865.637500 kJ/mol
# GULP energy per Si atom -12402.051172 kJ/mol
# Density = 1.826431 g / cm^3
# Si number density = 18.305979 Si / 1000 Ang^3
#
#
#
# Elastic Constant Matrix: (Units=GPa)
#
#
# Indices 1 2 3 4 5 6 
#
# 1 90.2377 35.6511 56.2081 0.0000 10.5952 0.0000
# 2 35.6511 121.2310 63.5663 0.0000 6.1941 0.0000
# 3 56.2081 63.5663 142.3125 0.0000 3.4034 0.0000
# 4 0.0000 0.0000 0.0000 31.7394 0.0000 4.9890
# 5 10.5952 6.1941 3.4034 0.0000 33.5645 0.0000
# 6 0.0000 0.0000 0.0000 4.9890 0.0000 14.3366
#
#
#
# Elastic Compliance Matrix: (Units=1/GPa)
#
#
# Indices 1 2 3 4 5 6 
#
# 1 0.015491 -0.001555 -0.005327 0.000000 -0.004063 0.000000
# 2 -0.001555 0.011004 -0.004274 0.000000 -0.001106 0.000000
# 3 -0.005327 -0.004274 0.011007 0.000000 0.001354 0.000000
# 4 0.000000 0.000000 0.000000 0.033330 0.000000 -0.011598
# 5 -0.004063 -0.001106 0.001354 0.000000 0.031143 0.000000
# 6 0.000000 0.000000 0.000000 -0.011598 0.000000 0.073787
#
#
# Mechanical properties :
#
#
# Convention : Reuss Voigt Hill
#
# Bulk Modulus (GPa) = 65.83170 73.84804 69.83987
# Shear Modulus (GPa) = 24.61380 29.15182 26.88281
#
# Velocity S-wave (km/s) = 3.67083 3.99491 3.83629
# Velocity P-wave (km/s) = 7.34891 7.85542 7.60638
#
# Compressibility (1/GPa) = 0.01519025
#
# Stress axis : x y z
#
# Youngs Moduli (GPa) = 64.55286 90.87797 90.84718
#
# Poissons Ratio (x) = 0.14131 0.48392
# Poissons Ratio (y) = 0.10038 0.38832
# Poissons Ratio (z) = 0.34385 0.38845
#
# Static dielectric constant tensor:
#      x y z
#    x 3.429500 0.000000 0.159590 
#    y 0.000000 3.635330 0.000000 
#    z 0.159590 0.000000 3.549640 
# 
# 
# High freq. dielectric constant tensor:
#      x y z
#    x 1.702210 0.000000 0.009250 
#    y 0.000000 1.719090 0.000000 
#    z 0.009250 0.000000 1.723860 
# 
# From -- ./inp_files/66892.got.cif
#   From: 2010.06.25/outbox.cif.g09.slc.cpg/sg12_34_cif.got.tgz:66892.got - 2010.06.28 00:19:55.
