data_PCOD8110519
_publ_section_title
;
Structure prediction by ZEFSAII (Michael W. Deem and Ramdas Pophale) SiO2 
 PCOD8110519
Probable space group: C 2/M
;
_chemical_formula_sum "Si O2"
_cell_formula_units_Z 44
_cell_length_a 12.981212
_cell_length_b 26.295149
_cell_length_c 10.925710
_cell_angle_alpha 90.000000
_cell_angle_beta 32.183077
_cell_angle_gamma 90.000000
_cell_volume 1986.383827
_symmetry_space_group_name_H-M "C 2/M"
_symmetry_group_IT_number 12
_symmetry_cell_setting 'monoclinic'
loop_
_space_group_symop_operation_xyz
x,y,z
-x,y,-z
-x,-y,-z
x,-y,z
1/2+x,1/2+y,z
1/2-x,1/2+y,-z
1/2-x,1/2-y,-z
1/2+x,1/2-y,z
loop_
_atom_site_type_symbol
_atom_site_label
_atom_site_fract_x
_atom_site_fract_y
_atom_site_fract_z
Si Si1 0.057929 0.726719 0.141780
Si Si2 0.149904 0.116670 0.518956
Si Si3 0.000000 0.628097 0.500000
Si Si4 0.233389 0.802689 0.633235
Si Si5 0.030770 0.441597 0.697638
Si Si6 0.787048 0.620704 0.113140
O O1 0.939484 0.762490 0.162156
O O2 0.928512 0.725023 0.394273
O O3 0.250000 0.750000 0.000000
O O4 0.109584 0.671956 0.035869
O O5 0.162804 0.166875 0.585851
O O6 0.242575 0.069543 0.501773
O O7 0.281393 0.123635 0.265303
O O8 0.927200 0.108468 0.717522
O O9 0.197207 0.661834 0.322599
O O10 0.044995 0.593328 0.337610
O O11 0.002313 0.500000 0.690908
O O12 0.908061 0.427191 0.941438
#
# Coordination Sequence:
#
# PCOD8110519 Si02
#       6
#     8   8   4   8   8   8
#     4  11  21  40  63  94 130 176 218 263 326 391
#     4  10  22  41  65  93 130 168 219 277 329 398
#     4  10  21  46  66  94 134 174 219 276 322 400
#     4  10  22  41  61  95 132 172 223 261 323 393
#     4  11  24  44  69  93 127 173 224 281 343 390
#     4  11  22  41  65  96 133 169 217 277 336 397
#
# _framework density 22.150804999999998
#
# number of rings (size 3 to 8) (size 9 to 14) (size 15 to 20)
#    0.000    1.455    5.455    0.818    0.000    2.182 
#    9.818    9.091    0.000    5.455    0.000    0.000 
#    0.000    0.000    0.000    0.000    0.000    0.000 
#
# Total GULP energy -272614.272034 kJ/mol
# GULP energy per Si atom -12391.557820 kJ/mol
# Density = 2.210039 g / cm^3
# Si number density = 22.150805 Si / 1000 Ang^3
#
#
#
# Elastic Constant Matrix: (Units=GPa)
#
#
# Indices 1 2 3 4 5 6 
#
# 1 121.0343 54.9180 33.8772 0.0000 -13.4918 -0.0001
# 2 54.9180 137.0123 36.5176 0.0000 -16.1253 0.0000
# 3 33.8772 36.5176 78.4906 0.0000 -12.0885 -0.0002
# 4 0.0000 0.0000 0.0000 23.3310 0.0000 -4.0845
# 5 -13.4918 -16.1253 -12.0885 0.0000 27.5509 0.0001
# 6 -0.0001 0.0000 -0.0002 -4.0845 0.0001 29.6688
#
#
#
# Elastic Compliance Matrix: (Units=1/GPa)
#
#
# Indices 1 2 3 4 5 6 
#
# 1 0.010789 -0.003335 -0.002780 0.000000 0.002112 0.000000
# 2 -0.003335 0.009672 -0.002617 0.000000 0.002879 0.000000
# 3 -0.002780 -0.002617 0.015778 0.000000 0.004030 0.000000
# 4 0.000000 0.000000 0.000000 0.043920 0.000000 0.006046
# 5 0.002112 0.002879 0.004030 0.000000 0.040784 0.000000
# 6 0.000000 0.000000 0.000000 0.006046 0.000000 0.034538
#
#
# Mechanical properties :
#
#
# Convention : Reuss Voigt Hill
#
# Bulk Modulus (GPa) = 53.26042 65.24029 59.25035
# Shear Modulus (GPa) = 27.90137 30.19174 29.04656
#
# Velocity S-wave (km/s) = 3.55295 3.69590 3.62513
# Velocity P-wave (km/s) = 6.39749 6.90866 6.65799
#
# Compressibility (1/GPa) = 0.01877567
#
# Stress axis : x y z
#
# Youngs Moduli (GPa) = 92.68899 103.39412 63.37815
#
# Poissons Ratio (x) = 0.34482 0.17617
# Poissons Ratio (y) = 0.30912 0.16585
# Poissons Ratio (z) = 0.25765 0.27057
#
# Static dielectric constant tensor:
#      x y z
#    x 3.949040 0.000000 -0.417000 
#    y 0.000000 3.716550 0.000000 
#    z -0.417000 0.000000 3.954630 
# 
# 
# High freq. dielectric constant tensor:
#      x y z
#    x 1.892400 0.000000 -0.013330 
#    y 0.000000 1.854370 0.000000 
#    z -0.013330 0.000000 1.868650 
# 
# From -- ./inp_files/149387.got.cif
#   From: 2010.06.25/outbox.cif.g09.slc.cpg/sg12_75_cif.got.tgz:149387.got - 2010.06.28 00:19:55.
