data_PCOD8110350
_publ_section_title
;
Structure prediction by ZEFSAII (Michael W. Deem and Ramdas Pophale) SiO2 
 PCOD8110350
Probable space group: C 2/M
;
_chemical_formula_sum "Si O2"
_cell_formula_units_Z 48
_cell_length_a 22.281606
_cell_length_b 24.584608
_cell_length_c 9.572807
_cell_angle_alpha 90.000000
_cell_angle_beta 26.759322
_cell_angle_gamma 90.000000
_cell_volume 2361.004135
_symmetry_space_group_name_H-M "C 2/M"
_symmetry_group_IT_number 12
_symmetry_cell_setting 'monoclinic'
loop_
_space_group_symop_operation_xyz
x,y,z
-x,y,-z
-x,-y,-z
x,-y,z
1/2+x,1/2+y,z
1/2-x,1/2+y,-z
1/2-x,1/2-y,-z
1/2+x,1/2-y,z
loop_
_atom_site_type_symbol
_atom_site_label
_atom_site_fract_x
_atom_site_fract_y
_atom_site_fract_z
Si Si1 0.863221 0.861125 0.230323
Si Si2 0.785476 0.656319 0.187064
Si Si3 0.467127 0.749125 0.908983
Si Si4 0.461098 0.938847 0.732360
Si Si5 0.126517 0.438771 0.648205
Si Si6 0.631340 0.718673 0.320310
O O1 0.802564 0.835814 0.494340
O O2 0.760763 0.903715 0.377659
O O3 0.892445 0.809881 0.066534
O O4 0.000000 0.889923 0.000000
O O5 0.696309 0.661075 0.231119
O O6 0.889490 0.705337 0.983547
O O7 0.852158 0.597301 0.038102
O O8 0.598748 0.745904 0.538710
O O9 0.500000 0.767750 0.000000
O O10 0.500000 0.914615 0.500000
O O11 0.592344 0.939132 0.555492
O O12 0.403367 0.000000 0.836053
O O13 0.155583 0.500000 0.642601
O O14 0.000000 0.414915 0.000000
O O15 0.500000 0.710835 0.500000
O O16 0.750000 0.750000 0.000000
#
# Coordination Sequence:
#
# PCOD8110350 Si02
#       6
#     8   8   8   8   8   8
#     4  11  23  41  62  98 138 172 215 274 334 395
#     4  12  24  41  67  97 128 181 214 272 342 385
#     4  11  25  42  64  96 139 178 222 269 329 407
#     4  10  24  44  67  97 129 166 225 281 328 392
#     4  10  21  41  70 100 127 168 228 281 323 386
#     4  12  26  44  63  95 138 176 225 271 319 396
#
# _framework density 20.330333
#
# number of rings (size 3 to 8) (size 9 to 14) (size 15 to 20)
#    0.000    1.000    6.667    0.500    4.667    1.667 
#    0.000    0.000    0.000    0.500    0.000    0.000 
#    0.000    0.000    0.000    0.000    0.000    0.000 
#
# Total GULP energy -297347.329518 kJ/mol
# GULP energy per Si atom -12389.472063 kJ/mol
# Density = 2.028406 g / cm^3
# Si number density = 20.330333 Si / 1000 Ang^3
#
#
#
# Elastic Constant Matrix: (Units=GPa)
#
#
# Indices 1 2 3 4 5 6 
#
# 1 120.7723 40.0202 35.2765 0.0092 -6.7764 -0.0007
# 2 40.0202 91.3624 50.1146 0.0022 -13.9212 -0.0003
# 3 35.2765 50.1146 119.8636 0.0193 3.4917 -0.0012
# 4 0.0092 0.0022 0.0193 -270.4737 -0.0117 18.5034
# 5 -6.7764 -13.9212 3.4917 -0.0117 42.2519 0.0008
# 6 -0.0007 -0.0003 -0.0012 18.5034 0.0008 31.4636
#
#
#
# Elastic Compliance Matrix: (Units=1/GPa)
#
#
# Indices 1 2 3 4 5 6 
#
# 1 0.009883 -0.003420 -0.001496 0.000000 0.000582 0.000000
# 2 -0.003420 0.016616 -0.006099 -0.000001 0.005430 0.000000
# 3 -0.001496 -0.006099 0.011426 0.000001 -0.003194 0.000000
# 4 0.000000 -0.000001 0.000001 -0.003554 -0.000001 0.002090
# 5 0.000582 0.005430 -0.003194 -0.000001 0.025814 0.000000
# 6 0.000000 0.000000 0.000000 0.002090 0.000000 0.030554
#
#
# Mechanical properties :
#
#
# Convention : Reuss Voigt Hill
#
# Bulk Modulus (GPa) = 62.90871 64.75786 63.83329
# Shear Modulus (GPa) = 42.34916 -25.57916 8.38500
#
# Velocity S-wave (km/s) = 4.56900 -3.55093 2.03306
# Velocity P-wave (km/s) = 7.67104 3.88714 6.08090
#
# Compressibility (1/GPa) = 0.01589605
#
# Stress axis : x y z
#
# Youngs Moduli (GPa) = 101.18561 60.18174 87.52012
#
# Poissons Ratio (x) = 0.20582 0.13090
# Poissons Ratio (y) = 0.34606 0.53378
# Poissons Ratio (z) = 0.15133 0.36704
#
# Static dielectric constant tensor:
#      x y z
#    x 4.354230 0.000000 -0.492000 
#    y 0.000000 3.546560 0.000000 
#    z -0.492000 0.000000 4.551840 
# 
# 
# High freq. dielectric constant tensor:
#      x y z
#    x 1.806580 0.000000 0.005630 
#    y 0.000000 1.775590 0.000000 
#    z 0.005630 0.000000 1.797670 
# 
# From -- ./inp_files/91203.got.cif
#   From: 2010.06.25/outbox.cif.g09.slc.cpg/sg12_46_cif.got.tgz:91203.got - 2010.06.28 00:19:55.
