data_PCOD8110085
_publ_section_title
;
Structure prediction by ZEFSAII (Michael W. Deem and Ramdas Pophale) SiO2 
 PCOD8110085
Probable space group: C 2/M
;
_chemical_formula_sum "Si O2"
_cell_formula_units_Z 64
_cell_length_a 15.469605
_cell_length_b 29.688450
_cell_length_c 9.021238
_cell_angle_alpha 90.000000
_cell_angle_beta 132.669399
_cell_angle_gamma 90.000000
_cell_volume 3046.377267
_symmetry_space_group_name_H-M "C 2/M"
_symmetry_group_IT_number 12
_symmetry_cell_setting 'monoclinic'
loop_
_space_group_symop_operation_xyz
x,y,z
-x,y,-z
-x,-y,-z
x,-y,z
1/2+x,1/2+y,z
1/2-x,1/2+y,-z
1/2-x,1/2-y,-z
1/2+x,1/2-y,z
loop_
_atom_site_type_symbol
_atom_site_label
_atom_site_fract_x
_atom_site_fract_y
_atom_site_fract_z
Si Si1 0.066963 0.291957 0.433274
Si Si2 0.639936 0.948364 0.529560
Si Si3 0.214603 0.604985 0.875774
Si Si4 0.998907 0.802315 0.769003
Si Si5 0.999432 0.623990 0.177763
Si Si6 0.543684 0.605204 0.706850
Si Si7 0.409142 0.549043 0.762608
Si Si8 0.688232 0.315662 0.213407
O O1 0.018337 0.243385 0.338423
O O2 0.058346 0.328446 0.291106
O O3 0.203136 0.283267 0.626685
O O4 0.000000 0.311498 0.500000
O O5 0.631580 0.931251 0.691755
O O6 0.570509 0.917902 0.330442
O O7 0.777641 0.944314 0.661836
O O8 0.594922 0.000000 0.465853
O O9 0.261625 0.638774 0.802556
O O10 0.133073 0.625807 0.910355
O O11 0.329376 0.585043 0.094520
O O12 0.884205 0.822867 0.718271
O O13 0.047329 0.840430 0.713650
O O14 0.101988 0.789851 0.002832
O O15 0.000000 0.619231 0.000000
O O16 0.500000 0.586825 0.500000
O O17 0.438879 0.589055 0.688391
O O18 0.423763 0.500000 0.703540
O O19 0.500000 0.553634 0.000000
#
# Coordination Sequence:
#
# PCOD8110085 Si02
#       8
#     8   8   8   8   8   8   8   8
#     4  12  23  44  67  93 132 179 224 265 321 395
#     4  11  23  44  74  99 127 172 223 268 324 401
#     4  11  22  45  67  96 129 174 221 268 326 394
#     4  10  24  39  63 100 131 170 223 273 325 378
#     4  12  28  44  67  96 133 172 219 276 335 387
#     4  11  24  39  64  99 138 172 213 273 335 384
#     4  10  21  40  67  98 127 167 217 266 323 393
#     4  10  21  42  66  92 128 171 219 271 317 386
#
# _framework density 21.008561
#
# number of rings (size 3 to 8) (size 9 to 14) (size 15 to 20)
#    0.000    1.125    3.750    1.875    5.250    2.000 
#    2.250    0.000    0.000    0.000    0.000    0.000 
#    0.000    0.000    0.000    0.000    0.000    0.000 
#
# Total GULP energy -396626.165973 kJ/mol
# GULP energy per Si atom -12394.567687 kJ/mol
# Density = 2.096074 g / cm^3
# Si number density = 21.008561 Si / 1000 Ang^3
#
#
#
# Elastic Constant Matrix: (Units=GPa)
#
#
# Indices 1 2 3 4 5 6 
#
# 1 89.8272 16.0721 36.2639 0.0000 -2.8105 0.0000
# 2 16.0721 104.4702 35.1037 0.0000 -13.7231 0.0000
# 3 36.2639 35.1037 112.6022 0.0000 -7.1510 0.0000
# 4 0.0000 0.0000 0.0000 33.9631 0.0000 6.1108
# 5 -2.8105 -13.7231 -7.1510 0.0000 19.7148 0.0000
# 6 0.0000 0.0000 0.0000 6.1108 0.0000 24.2113
#
#
#
# Elastic Compliance Matrix: (Units=1/GPa)
#
#
# Indices 1 2 3 4 5 6 
#
# 1 0.012836 -0.000661 -0.003931 0.000000 -0.000056 0.000000
# 2 -0.000661 0.011572 -0.002957 0.000000 0.006888 0.000000
# 3 -0.003931 -0.002957 0.011160 0.000000 0.001429 0.000000
# 4 0.000000 0.000000 0.000000 0.030844 0.000000 -0.007785
# 5 -0.000056 0.006888 0.001429 0.000000 0.056028 0.000000
# 6 0.000000 0.000000 0.000000 -0.007785 0.000000 0.043268
#
#
# Mechanical properties :
#
#
# Convention : Reuss Voigt Hill
#
# Bulk Modulus (GPa) = 48.85567 53.53101 51.19334
# Shear Modulus (GPa) = 26.64798 30.20848 28.42823
#
# Velocity S-wave (km/s) = 3.56537 3.79610 3.68254
# Velocity P-wave (km/s) = 6.34467 6.68952 6.51937
#
# Compressibility (1/GPa) = 0.02046845
#
# Stress axis : x y z
#
# Youngs Moduli (GPa) = 77.90494 86.41269 89.60881
#
# Poissons Ratio (x) = 0.05713 0.35229
# Poissons Ratio (y) = 0.05151 0.26500
# Poissons Ratio (z) = 0.30627 0.25555
#
# Static dielectric constant tensor:
#      x y z
#    x 3.704660 0.000000 0.192050 
#    y 0.000000 3.715190 0.000000 
#    z 0.192050 0.000000 3.939600 
# 
# 
# High freq. dielectric constant tensor:
#      x y z
#    x 1.827130 0.000000 0.015090 
#    y 0.000000 1.814650 0.000000 
#    z 0.015090 0.000000 1.826510 
# 
# From -- ./inp_files/68574.got.cif
#   From: 2010.06.25/outbox.cif.g09.slc.cpg/sg12_35_cif.got.tgz:68574.got - 2010.06.28 00:19:55.
