data_PCOD8110208
_publ_section_title
;
Structure prediction by ZEFSAII (Michael W. Deem and Ramdas Pophale) SiO2 
 PCOD8110208
Probable space group: C 2/M
;
_chemical_formula_sum "Si O2"
_cell_formula_units_Z 64
_cell_length_a 8.975983
_cell_length_b 28.460582
_cell_length_c 17.680360
_cell_angle_alpha 90.000000
_cell_angle_beta 134.815828
_cell_angle_gamma 90.000000
_cell_volume 3204.006777
_symmetry_space_group_name_H-M "C 2/M"
_symmetry_group_IT_number 12
_symmetry_cell_setting 'monoclinic'
loop_
_space_group_symop_operation_xyz
x,y,z
-x,y,-z
-x,-y,-z
x,-y,z
1/2+x,1/2+y,z
1/2-x,1/2+y,-z
1/2-x,1/2-y,-z
1/2+x,1/2-y,z
loop_
_atom_site_type_symbol
_atom_site_label
_atom_site_fract_x
_atom_site_fract_y
_atom_site_fract_z
Si Si1 0.084574 0.710280 0.292931
Si Si2 0.087797 0.395243 0.611284
Si Si3 0.104313 0.711148 0.615291
Si Si4 0.987923 0.945175 0.198082
Si Si5 0.331246 0.945551 0.783568
Si Si6 0.661476 0.109401 0.989640
Si Si7 0.773645 0.794140 0.953931
Si Si8 0.763446 0.886109 0.388437
O O1 0.200673 0.755057 0.299333
O O2 0.213698 0.662243 0.326155
O O3 0.054330 0.717123 0.371812
O O4 0.869484 0.707685 0.171183
O O5 0.181152 0.342660 0.635231
O O6 0.272922 0.428123 0.707957
O O7 0.000000 0.414315 0.500000
O O8 0.893496 0.394848 0.598716
O O9 0.000000 0.728188 0.500000
O O10 0.861031 0.934565 0.229160
O O11 0.989915 0.000000 0.179099
O O12 0.872527 0.918351 0.088345
O O13 0.545330 0.918717 0.881479
O O14 0.258067 0.929987 0.674939
O O15 0.387590 0.000000 0.803554
O O16 0.726087 0.160602 0.986637
O O17 0.500000 0.114141 0.000000
O O18 0.750000 0.750000 0.000000
O O19 0.000000 0.797190 0.000000
O O20 0.000000 0.883194 0.500000
#
# Coordination Sequence:
#
# PCOD8110208 Si02
#       8
#     8   8   8   8   8   8   8   8
#     4  11  23  40  62  89 124 164 204 256 305 367
#     4  10  23  41  61  92 126 164 205 257 313 371
#     4  10  22  39  62  91 120 161 205 254 306 364
#     4  10  22  39  66  93 122 162 207 258 312 371
#     4  10  21  41  64  93 125 159 205 258 313 373
#     4  10  22  41  66  94 124 164 208 256 311 369
#     4  12  26  42  62  93 131 170 209 253 308 371
#     4  11  23  40  63  91 124 163 209 257 311 372
#
# _framework density 19.974989999999998
#
# number of rings (size 3 to 8) (size 9 to 14) (size 15 to 20)
#    0.000    1.500    1.250    3.000    5.250    5.500 
#    0.000    0.000    0.000    2.250    0.000    0.000 
#    0.000    0.000    0.000    0.000    0.000    0.000 
#
# Total GULP energy -396928.448764 kJ/mol
# GULP energy per Si atom -12404.014024 kJ/mol
# Density = 1.992953 g / cm^3
# Si number density = 19.974990 Si / 1000 Ang^3
#
#
#
# Elastic Constant Matrix: (Units=GPa)
#
#
# Indices 1 2 3 4 5 6 
#
# 1 51.0386 33.1176 38.6777 0.0000 10.5499 0.0000
# 2 33.1176 110.3148 49.4017 0.0000 11.0493 0.0000
# 3 38.6777 49.4017 135.0267 0.0000 19.0264 0.0000
# 4 0.0000 0.0000 0.0000 29.6463 0.0000 2.6085
# 5 10.5499 11.0493 19.0264 0.0000 34.2387 0.0000
# 6 0.0000 0.0000 0.0000 2.6085 0.0000 29.6213
#
#
#
# Elastic Compliance Matrix: (Units=1/GPa)
#
#
# Indices 1 2 3 4 5 6 
#
# 1 0.028184 -0.005626 -0.005476 0.000000 -0.003826 0.000000
# 2 -0.005626 0.012027 -0.002697 0.000000 -0.000649 0.000000
# 3 -0.005476 -0.002697 0.010417 0.000000 -0.003231 0.000000
# 4 0.000000 0.000000 0.000000 0.033994 0.000000 -0.002994
# 5 -0.003826 -0.000649 -0.003231 0.000000 0.032390 0.000000
# 6 0.000000 0.000000 0.000000 -0.002994 0.000000 0.034023
#
#
# Mechanical properties :
#
#
# Convention : Reuss Voigt Hill
#
# Bulk Modulus (GPa) = 43.42233 59.86379 51.64306
# Shear Modulus (GPa) = 26.83713 30.38013 28.60863
#
# Velocity S-wave (km/s) = 3.66941 3.90411 3.78858
# Velocity P-wave (km/s) = 6.30383 7.09628 6.71176
#
# Compressibility (1/GPa) = 0.02302963
#
# Stress axis : x y z
#
# Youngs Moduli (GPa) = 35.48137 83.14783 96.00119
#
# Poissons Ratio (x) = 0.46776 0.52568
# Poissons Ratio (y) = 0.19961 0.25895
# Poissons Ratio (z) = 0.19429 0.22428
#
# Static dielectric constant tensor:
#      x y z
#    x 3.622160 0.000000 -0.087560 
#    y 0.000000 3.724260 0.000000 
#    z -0.087560 0.000000 3.729810 
# 
# 
# High freq. dielectric constant tensor:
#      x y z
#    x 1.776360 0.000000 -0.002060 
#    y 0.000000 1.787880 0.000000 
#    z -0.002060 0.000000 1.791830 
# 
# From -- ./inp_files/260364.got.cif
#   From: 2010.06.25/outbox.cif.g09.slc.cpg/sg12_131_cif.got.tgz:260364.got - 2010.06.28 00:19:55.
