data_PCOD8110060
_publ_section_title
;
Structure prediction by ZEFSAII (Michael W. Deem and Ramdas Pophale) SiO2 
 PCOD8110060
Probable space group: C 2/M
;
_chemical_formula_sum "Si O2"
_cell_formula_units_Z 56
_cell_length_a 8.822055
_cell_length_b 18.902601
_cell_length_c 17.595259
_cell_angle_alpha 90.000000
_cell_angle_beta 61.054798
_cell_angle_gamma 90.000000
_cell_volume 2567.652400
_symmetry_space_group_name_H-M "C 2/M"
_symmetry_group_IT_number 12
_symmetry_cell_setting 'monoclinic'
loop_
_space_group_symop_operation_xyz
x,y,z
-x,y,-z
-x,-y,-z
x,-y,z
1/2+x,1/2+y,z
1/2-x,1/2+y,-z
1/2-x,1/2-y,-z
1/2+x,1/2-y,z
loop_
_atom_site_type_symbol
_atom_site_label
_atom_site_fract_x
_atom_site_fract_y
_atom_site_fract_z
Si Si1 0.698133 0.582444 0.934590
Si Si2 0.191186 0.797748 0.163501
Si Si3 0.061289 0.293456 0.672720
Si Si4 0.996888 0.920049 0.722865
Si Si5 0.452001 0.679278 0.596599
Si Si6 0.670484 0.921159 0.263149
Si Si7 0.069546 0.295544 0.066692
O O1 0.731627 0.500000 0.945548
O O2 0.733962 0.601023 0.837995
O O3 0.830080 0.629682 0.952319
O O4 0.500000 0.603285 0.000000
O O5 0.066196 0.744888 0.237939
O O6 0.119420 0.877338 0.187844
O O7 0.183790 0.769378 0.076322
O O8 0.382323 0.798314 0.155161
O O9 0.064610 0.247501 0.594336
O O10 0.990567 0.372052 0.676168
O O11 0.253801 0.298712 0.657207
O O12 0.989739 0.887934 0.640420
O O13 0.194894 0.916599 0.700847
O O14 0.926493 0.000000 0.738717
O O15 0.500000 0.657081 0.500000
O O16 0.594933 0.000000 0.273405
O O17 0.000000 0.279373 0.000000
#
# Coordination Sequence:
#
# PCOD8110060 Si02
#       7
#     8   8   8   8   8   8   8
#     4  10  24  45  66  94 134 179 223 271 329 381
#     4  11  23  42  61  94 131 171 221 272 320 382
#     4  11  21  41  66  95 130 170 215 260 317 388
#     4  10  23  42  67  95 127 168 214 264 324 388
#     4  11  24  42  69  99 132 168 203 260 326 393
#     4  10  21  40  67  92 126 176 224 268 313 379
#     4  12  26  40  63  93 131 177 220 278 328 378
#
# _framework density 21.809805999999998
#
# number of rings (size 3 to 8) (size 9 to 14) (size 15 to 20)
#    0.000    1.286    1.429    5.143    2.000    2.286 
#    0.000    0.000    0.000    2.571    0.000    0.000 
#    0.000    0.000    0.000    0.000    0.000    0.000 
#
# Total GULP energy -347200.562668 kJ/mol
# GULP energy per Si atom -12400.020095 kJ/mol
# Density = 2.176017 g / cm^3
# Si number density = 21.809806 Si / 1000 Ang^3
#
#
#
# Elastic Constant Matrix: (Units=GPa)
#
#
# Indices 1 2 3 4 5 6 
#
# 1 105.1106 43.5901 28.4702 0.0000 -2.6537 0.0000
# 2 43.5901 138.8749 45.6214 0.0000 4.2995 0.0000
# 3 28.4702 45.6214 88.3053 0.0000 19.0114 0.0000
# 4 0.0000 0.0000 0.0000 26.4326 0.0000 3.2973
# 5 -2.6537 4.2995 19.0114 0.0000 31.5977 0.0000
# 6 0.0000 0.0000 0.0000 3.2973 0.0000 42.8055
#
#
#
# Elastic Compliance Matrix: (Units=1/GPa)
#
#
# Indices 1 2 3 4 5 6 
#
# 1 0.011536 -0.002739 -0.002979 0.000000 0.003134 0.000000
# 2 -0.002739 0.009407 -0.004195 0.000000 0.001014 0.000000
# 3 -0.002979 -0.004195 0.016523 0.000000 -0.009621 0.000000
# 4 0.000000 0.000000 0.000000 0.038199 0.000000 -0.002943
# 5 0.003134 0.001014 -0.009621 0.000000 0.037562 0.000000
# 6 0.000000 0.000000 0.000000 -0.002943 0.000000 0.023588
#
#
# Mechanical properties :
#
#
# Convention : Reuss Voigt Hill
#
# Bulk Modulus (GPa) = 56.68943 63.07270 59.88106
# Shear Modulus (GPa) = 30.76510 34.47444 32.61977
#
# Velocity S-wave (km/s) = 3.75988 3.98010 3.87155
# Velocity P-wave (km/s) = 6.70060 7.07840 6.89209
#
# Compressibility (1/GPa) = 0.01763997
#
# Stress axis : x y z
#
# Youngs Moduli (GPa) = 86.68722 106.30003 60.52031
#
# Poissons Ratio (x) = 0.29119 0.18027
# Poissons Ratio (y) = 0.23747 0.25390
# Poissons Ratio (z) = 0.25821 0.44596
#
# Static dielectric constant tensor:
#      x y z
#    x 4.268600 0.000000 -0.063920 
#    y 0.000000 4.101090 0.000000 
#    z -0.063920 0.000000 3.997900 
# 
# 
# High freq. dielectric constant tensor:
#      x y z
#    x 1.873150 0.000000 0.003580 
#    y 0.000000 1.858560 0.000000 
#    z 0.003580 0.000000 1.848890 
# 
# From -- ./inp_files/257055.got.cif
#   From: 2010.06.25/outbox.cif.g09.slc.cpg/sg12_129_cif.got.tgz:257055.got - 2010.06.28 00:19:55.
