data_PCOD8110659
_publ_section_title
;
Structure prediction by ZEFSAII (Michael W. Deem and Ramdas Pophale) SiO2 
 PCOD8110659
Probable space group: C 2/M
;
_chemical_formula_sum "Si O2"
_cell_formula_units_Z 48
_cell_length_a 20.389612
_cell_length_b 8.952379
_cell_length_c 15.107290
_cell_angle_alpha 90.000000
_cell_angle_beta 68.385053
_cell_angle_gamma 90.000000
_cell_volume 2563.702765
_symmetry_space_group_name_H-M "C 2/M"
_symmetry_group_IT_number 12
_symmetry_cell_setting 'monoclinic'
loop_
_space_group_symop_operation_xyz
x,y,z
-x,y,-z
-x,-y,-z
x,-y,z
1/2+x,1/2+y,z
1/2-x,1/2+y,-z
1/2-x,1/2-y,-z
1/2+x,1/2-y,z
loop_
_atom_site_type_symbol
_atom_site_label
_atom_site_fract_x
_atom_site_fract_y
_atom_site_fract_z
Si Si1 0.913423 0.176670 0.405589
Si Si2 0.941646 0.176618 0.906046
Si Si3 0.595998 0.323188 0.885667
Si Si4 0.145378 0.326127 0.397522
Si Si5 0.196404 0.177330 0.686356
Si Si6 0.944671 0.326573 0.728019
O O1 0.903162 0.240285 0.508586
O O2 0.847867 0.228403 0.377248
O O3 0.984921 0.237239 0.328902
O O4 0.919194 0.000000 0.407066
O O5 0.912170 0.265272 0.835989
O O6 0.021780 0.230887 0.882403
O O7 0.936958 0.000000 0.891084
O O8 0.895936 0.224370 0.015400
O O9 0.595159 0.500000 0.881124
O O10 0.659421 0.258030 0.794005
O O11 0.144306 0.500000 0.423367
O O12 0.224541 0.258897 0.360390
O O13 0.114467 0.297484 0.316075
O O14 0.199399 0.000000 0.691531
O O15 0.963438 0.500000 0.726442
#
# Coordination Sequence:
#
# PCOD8110659 Si02
#       6
#     8   8   8   8   8   8
#     4  11  21  35  58  80  98 130 179 226 256 291
#     4   9  16  30  55  81 102 129 172 219 254 293
#     4   8  14  28  54  82 102 126 169 218 257 296
#     4  10  22  37  52  73 107 144 171 204 258 317
#     4   9  17  33  56  79 102 133 174 213 255 306
#     4  11  22  35  51  75 109 143 170 204 257 315
#
# _framework density 18.722919000000001
#
# number of rings (size 3 to 8) (size 9 to 14) (size 15 to 20)
#    0.000    2.333    1.667    3.000    0.000    3.333 
#    0.000    3.333    0.000    0.000    0.000    0.000 
#    0.000    0.000    0.000    0.000    0.000    0.000 
#
# Total GULP energy -297563.780179 kJ/mol
# GULP energy per Si atom -12398.490841 kJ/mol
# Density = 1.868031 g / cm^3
# Si number density = 18.722919 Si / 1000 Ang^3
#
#
#
# Elastic Constant Matrix: (Units=GPa)
#
#
# Indices 1 2 3 4 5 6 
#
# 1 66.8047 30.2417 16.6216 0.0000 14.3073 0.0000
# 2 30.2417 50.5917 35.9280 0.0000 12.9613 0.0000
# 3 16.6216 35.9280 120.4080 0.0000 19.6694 0.0000
# 4 0.0000 0.0000 0.0000 22.2646 0.0000 4.1619
# 5 14.3073 12.9613 19.6694 0.0000 24.7407 0.0000
# 6 0.0000 0.0000 0.0000 4.1619 0.0000 19.7390
#
#
#
# Elastic Compliance Matrix: (Units=1/GPa)
#
#
# Indices 1 2 3 4 5 6 
#
# 1 0.021741 -0.012432 0.001952 0.000000 -0.007612 0.000000
# 2 -0.012432 0.033751 -0.007632 0.000000 -0.004425 0.000000
# 3 0.001952 -0.007632 0.011313 0.000000 -0.006125 0.000000
# 4 0.000000 0.000000 0.000000 0.046757 0.000000 -0.009859
# 5 -0.007612 -0.004425 -0.006125 0.000000 0.052008 0.000000
# 6 0.000000 0.000000 0.000000 -0.009859 0.000000 0.052740
#
#
# Mechanical properties :
#
#
# Convention : Reuss Voigt Hill
#
# Bulk Modulus (GPa) = 32.69976 44.82078 38.76027
# Shear Modulus (GPa) = 18.88722 23.68307 21.28515
#
# Velocity S-wave (km/s) = 3.17957 3.56044 3.37538
# Velocity P-wave (km/s) = 5.56620 6.39478 5.99482
#
# Compressibility (1/GPa) = 0.03058126
#
# Stress axis : x y z
#
# Youngs Moduli (GPa) = 45.99516 29.62889 88.39048
#
# Poissons Ratio (x) = 0.36835 -0.17251
# Poissons Ratio (y) = 0.57182 0.67458
# Poissons Ratio (z) = -0.08977 0.22612
#
# Static dielectric constant tensor:
#      x y z
#    x 3.454900 0.000000 -0.052940 
#    y 0.000000 3.097930 0.000000 
#    z -0.052940 0.000000 3.828260 
# 
# 
# High freq. dielectric constant tensor:
#      x y z
#    x 1.710230 0.000000 0.005710 
#    y 0.000000 1.693270 0.000000 
#    z 0.005710 0.000000 1.746450 
# 
# From -- ./inp_files/229840.got.cif
#   From: 2010.06.25/outbox.cif.g09.slc.cpg/sg12_115_cif.got.tgz:229840.got - 2010.06.28 00:19:55.
