data_PCOD8110541
_publ_section_title
;
Structure prediction by ZEFSAII (Michael W. Deem and Ramdas Pophale) SiO2 
 PCOD8110541
Probable space group: C 2/M
;
_chemical_formula_sum "Si O2"
_cell_formula_units_Z 56
_cell_length_a 28.473370
_cell_length_b 8.622027
_cell_length_c 19.080833
_cell_angle_alpha 90.000000
_cell_angle_beta 41.760324
_cell_angle_gamma 90.000000
_cell_volume 3119.825468
_symmetry_space_group_name_H-M "C 2/M"
_symmetry_group_IT_number 12
_symmetry_cell_setting 'monoclinic'
loop_
_space_group_symop_operation_xyz
x,y,z
-x,y,-z
-x,-y,-z
x,-y,z
1/2+x,1/2+y,z
1/2-x,1/2+y,-z
1/2-x,1/2-y,-z
1/2+x,1/2-y,z
loop_
_atom_site_type_symbol
_atom_site_label
_atom_site_fract_x
_atom_site_fract_y
_atom_site_fract_z
Si Si1 0.198260 0.816766 0.000108
Si Si2 0.492446 0.179996 0.121252
Si Si3 0.496519 0.818403 0.608689
Si Si4 0.105587 0.181599 0.384577
Si Si5 0.040135 0.181227 0.205527
Si Si6 0.886396 0.679915 0.121338
Si Si7 0.245352 0.181262 0.794914
O O1 0.222142 0.757367 0.897272
O O2 0.201051 0.000000 0.999983
O O3 0.250000 0.750000 0.000000
O O4 0.119311 0.757892 0.103206
O O5 0.492413 0.283972 0.190825
O O6 0.420116 0.212979 0.159923
O O7 0.497936 0.000000 0.135563
O O8 0.558211 0.229162 0.999938
O O9 0.562288 0.728669 0.501702
O O10 0.424234 0.769574 0.650603
O O11 0.492476 0.776173 0.694305
O O12 0.508789 0.000000 0.585493
O O13 0.186324 0.226261 0.306186
O O14 0.097818 0.000000 0.380081
O O15 0.038499 0.000000 0.224896
O O16 0.866710 0.500000 0.135541
O O17 0.816620 0.783013 0.191254
O O18 0.262220 0.000000 0.776496
#
# Coordination Sequence:
#
# PCOD8110541 Si02
#       7
#     8   8   8   8   8   8   8
#     4  10  22  34  47  72 107 143 176 213 261 316
#     4   9  18  33  53  78 108 143 183 224 268 320
#     4  11  22  38  58  81 107 142 183 227 270 318
#     4  11  22  38  58  81 107 142 183 227 270 318
#     4  11  21  35  53  79 110 144 182 222 269 322
#     4   9  18  33  53  78 108 143 183 224 268 320
#     4  11  21  35  53  79 110 144 182 222 269 322
#
# _framework density 17.949722999999999
#
# number of rings (size 3 to 8) (size 9 to 14) (size 15 to 20)
#    0.000    1.714    1.429    6.000    0.000    5.143 
#    0.000    1.429    0.000    0.857    0.000    0.000 
#    0.000    0.000    0.000    0.000    0.000    0.000 
#
# Total GULP energy -347328.127502 kJ/mol
# GULP energy per Si atom -12404.575982 kJ/mol
# Density = 1.790887 g / cm^3
# Si number density = 17.949723 Si / 1000 Ang^3
#
#
#
# Elastic Constant Matrix: (Units=GPa)
#
#
# Indices 1 2 3 4 5 6 
#
# 1 111.1099 22.3739 47.1199 0.0079 1.1173 -0.0066
# 2 22.3739 56.2777 21.5690 -0.0187 -0.1583 -0.0030
# 3 47.1199 21.5690 79.4709 -0.0213 0.7532 0.0056
# 4 0.0079 -0.0187 -0.0213 24.3668 0.0086 0.5664
# 5 1.1173 -0.1583 0.7532 0.0086 26.5824 -0.0135
# 6 -0.0066 -0.0030 0.0056 0.5664 -0.0135 34.3427
#
#
#
# Elastic Compliance Matrix: (Units=1/GPa)
#
#
# Indices 1 2 3 4 5 6 
#
# 1 0.012296 -0.002340 -0.006652 -0.000012 -0.000342 0.000003
# 2 -0.002340 0.020279 -0.004120 0.000013 0.000336 0.000002
# 3 -0.006652 -0.004120 0.017648 0.000015 -0.000245 -0.000005
# 4 -0.000012 0.000013 0.000015 0.041055 -0.000014 -0.000677
# 5 -0.000342 0.000336 -0.000245 -0.000014 0.037642 0.000015
# 6 0.000003 0.000002 -0.000005 -0.000677 0.000015 0.029129
#
#
# Mechanical properties :
#
#
# Convention : Reuss Voigt Hill
#
# Bulk Modulus (GPa) = 41.66775 47.66489 44.66632
# Shear Modulus (GPa) = 26.00471 27.44475 26.72473
#
# Velocity S-wave (km/s) = 3.81038 3.91446 3.86277
# Velocity P-wave (km/s) = 6.52860 6.85879 6.69573
#
# Compressibility (1/GPa) = 0.02399938
#
# Stress axis : x y z
#
# Youngs Moduli (GPa) = 81.32885 49.31172 56.66406
#
# Poissons Ratio (x) = 0.11538 0.37694
# Poissons Ratio (y) = 0.19029 0.23344
# Poissons Ratio (z) = 0.54101 0.20315
#
# Static dielectric constant tensor:
#      x y z
#    x 3.276130 -0.000040 0.001610 
#    y -0.000040 3.299040 0.000050 
#    z 0.001610 0.000050 3.215060 
# 
# 
# High freq. dielectric constant tensor:
#      x y z
#    x 1.694640 0.000000 0.001090 
#    y 0.000000 1.700300 0.000000 
#    z 0.001090 0.000000 1.678380 
# 
# From -- ./inp_files/291859.got.cif
#   From: 2010.06.25/outbox.cif.g09.slc.cpg/sg12_146_cif.got.tgz:291859.got - 2010.06.28 00:19:55.
