data_PCOD8110242
_publ_section_title
;
Structure prediction by ZEFSAII (Michael W. Deem and Ramdas Pophale) SiO2 
 PCOD8110242
Probable space group: C 2/M
;
_chemical_formula_sum "Si O2"
_cell_formula_units_Z 52
_cell_length_a 16.942587
_cell_length_b 8.663610
_cell_length_c 27.003900
_cell_angle_alpha 90.000000
_cell_angle_beta 39.742556
_cell_angle_gamma 90.000000
_cell_volume 2534.173700
_symmetry_space_group_name_H-M "C 2/M"
_symmetry_group_IT_number 12
_symmetry_cell_setting 'monoclinic'
loop_
_space_group_symop_operation_xyz
x,y,z
-x,y,-z
-x,-y,-z
x,-y,z
1/2+x,1/2+y,z
1/2-x,1/2+y,-z
1/2-x,1/2-y,-z
1/2+x,1/2-y,z
loop_
_atom_site_type_symbol
_atom_site_label
_atom_site_fract_x
_atom_site_fract_y
_atom_site_fract_z
Si Si1 0.779670 0.329268 0.843035
Si Si2 0.533670 0.500000 0.608026
Si Si3 0.062772 0.824896 0.878140
Si Si4 0.811948 0.000000 0.642086
Si Si5 0.956124 0.249589 0.316554
Si Si6 0.311640 0.822372 0.017593
Si Si7 0.333474 0.325202 0.276160
Si Si8 0.741415 0.000000 0.568610
O O1 0.740054 0.500000 0.879254
O O2 0.692236 0.272409 0.840286
O O3 0.764678 0.216894 0.896480
O O4 0.920311 0.339838 0.757123
O O5 0.443097 0.500000 0.605070
O O6 0.507530 0.644398 0.655130
O O7 0.673828 0.500000 0.520808
O O8 0.071376 0.803444 0.814890
O O9 0.031287 0.000000 0.906934
O O10 0.954405 0.723781 0.953820
O O11 0.746961 0.165890 0.686671
O O12 0.828716 0.000000 0.574939
O O13 0.908257 0.160884 0.291115
O O14 0.846741 0.353812 0.389746
O O15 0.302799 0.000000 0.012912
O O16 0.250000 0.750000 0.000000
O O17 0.268393 0.500000 0.301496
#
# Coordination Sequence:
#
# PCOD8110242 Si02
#       8
#     8   4   8   4   8   8   8   4
#     4  11  23  41  64  92 126 166 212 265 322 386
#     4  12  23  40  66 102 132 163 216 282 329 395
#     4  10  22  40  63  91 129 169 210 265 324 379
#     4  10  23  40  68  95 134 180 220 269 337 399
#     4  11  22  40  68  95 128 170 219 270 326 397
#     4  12  26  41  62  90 126 169 216 266 321 380
#     4  10  21  41  65  96 132 176 226 269 327 394
#     4  10  23  44  66  93 133 175 213 263 344 406
#
# _framework density 20.51951
#
# number of rings (size 3 to 8) (size 9 to 14) (size 15 to 20)
#    0.000    1.231    1.538    4.385    2.154    3.692 
#    1.385    0.000    0.000    1.846    0.000    0.000 
#    0.000    0.000    0.000    0.000    0.000    0.000 
#
# Total GULP energy -322218.060715 kJ/mol
# GULP energy per Si atom -12393.002335 kJ/mol
# Density = 2.047281 g / cm^3
# Si number density = 20.519510 Si / 1000 Ang^3
#
#
#
# Elastic Constant Matrix: (Units=GPa)
#
#
# Indices 1 2 3 4 5 6 
#
# 1 99.7324 36.7479 29.7190 0.0007 -6.2961 0.0016
# 2 36.7479 135.7980 36.0990 0.0003 -0.6972 0.0019
# 3 29.7190 36.0990 101.0847 0.0003 -2.7347 0.0003
# 4 0.0007 0.0003 0.0003 -63.1857 0.0003 -89.0269
# 5 -6.2961 -0.6972 -2.7347 0.0003 30.9593 0.0004
# 6 0.0016 0.0019 0.0003 -89.0269 0.0004 -73.1777
#
#
#
# Elastic Compliance Matrix: (Units=1/GPa)
#
#
# Indices 1 2 3 4 5 6 
#
# 1 0.011843 -0.002523 -0.002523 0.000000 0.002129 0.000000
# 2 -0.002523 0.008674 -0.002370 0.000000 -0.000527 0.000000
# 3 -0.002523 -0.002370 0.011493 0.000000 0.000449 0.000000
# 4 0.000000 0.000000 0.000000 0.022162 0.000000 -0.026961
# 5 0.002129 -0.000527 0.000449 0.000000 0.032761 0.000000
# 6 0.000000 0.000000 0.000000 -0.026961 0.000000 0.019135
#
#
# Mechanical properties :
#
#
# Convention : Reuss Voigt Hill
#
# Bulk Modulus (GPa) = 58.21700 60.19411 59.20555
# Shear Modulus (GPa) = 39.48624 -5.47755 17.00434
#
# Velocity S-wave (km/s) = 4.39147 -1.63561 2.88182
# Velocity P-wave (km/s) = 7.35843 5.08250 6.32370
#
# Compressibility (1/GPa) = 0.01717711
#
# Stress axis : x y z
#
# Youngs Moduli (GPa) = 84.43985 115.28739 87.00914
#
# Poissons Ratio (x) = 0.29088 0.21954
# Poissons Ratio (y) = 0.21305 0.20622
# Poissons Ratio (z) = 0.21306 0.27324
#
# Static dielectric constant tensor:
#      x y z
#    x 3.818370 0.000000 0.131290 
#    y 0.000000 3.941460 0.000000 
#    z 0.131290 0.000000 3.586760 
# 
# 
# High freq. dielectric constant tensor:
#      x y z
#    x 1.809660 0.000000 0.011120 
#    y 0.000000 1.812240 0.000000 
#    z 0.011120 0.000000 1.796380 
# 
# From -- ./inp_files/362711.got.cif
#   From: 2010.06.25/outbox.cif.g09.slc.cpg/sg12_182_cif.got.tgz:362711.got - 2010.06.28 00:19:55.
