data_PCOD8110954
_publ_section_title
;
Structure prediction by ZEFSAII (Michael W. Deem and Ramdas Pophale) SiO2 
 PCOD8110954
Probable space group: C 2/M
;
_chemical_formula_sum "Si O2"
_cell_formula_units_Z 36
_cell_length_a 22.132411
_cell_length_b 14.869100
_cell_length_c 7.866770
_cell_angle_alpha 90.000000
_cell_angle_beta 136.269943
_cell_angle_gamma 90.000000
_cell_volume 1789.584796
_symmetry_space_group_name_H-M "C 2/M"
_symmetry_group_IT_number 12
_symmetry_cell_setting 'monoclinic'
loop_
_space_group_symop_operation_xyz
x,y,z
-x,y,-z
-x,-y,-z
x,-y,z
1/2+x,1/2+y,z
1/2-x,1/2+y,-z
1/2-x,1/2-y,-z
1/2+x,1/2-y,z
loop_
_atom_site_type_symbol
_atom_site_label
_atom_site_fract_x
_atom_site_fract_y
_atom_site_fract_z
Si Si1 0.646401 0.601103 0.951979
Si Si2 0.558879 0.783379 0.773362
Si Si3 0.000000 0.752408 0.000000
Si Si4 0.270530 0.100537 0.890895
Si Si5 0.187741 0.164382 0.388667
O O1 0.607889 0.500000 0.854162
O O2 0.698515 0.607885 0.236601
O O3 0.568675 0.674626 0.788224
O O4 0.711438 0.624202 0.931482
O O5 0.500000 0.818815 0.500000
O O6 0.513541 0.809847 0.860317
O O7 0.652937 0.827551 0.955360
O O8 0.913998 0.811846 0.794427
O O9 0.214582 0.105542 0.604827
O O10 0.308985 0.000000 0.985196
O O11 0.250000 0.250000 0.500000
#
# Coordination Sequence:
#
# PCOD8110954 Si02
#       5
#     8   8   4   8   8
#     4  10  22  39  62  91 119 159 204 251 308 365
#     4  11  23  38  61  88 127 161 204 253 302 362
#     4  10  22  38  62  96 114 160 206 246 310 368
#     4  11  23  40  63  90 124 166 206 249 307 364
#     4  11  21  40  66  88 125 163 202 251 309 361
#
# _framework density 20.116399000000001
#
# number of rings (size 3 to 8) (size 9 to 14) (size 15 to 20)
#    0.000    1.333    4.444    2.667    3.111    0.889 
#    0.000   16.667    0.000    0.000    0.000    0.000 
#    0.000    0.000    0.000    0.000    0.000    0.000 
#
# Total GULP energy -223174.037370 kJ/mol
# GULP energy per Si atom -12398.557632 kJ/mol
# Density = 2.007061 g / cm^3
# Si number density = 20.116399 Si / 1000 Ang^3
#
#
#
# Elastic Constant Matrix: (Units=GPa)
#
#
# Indices 1 2 3 4 5 6 
#
# 1 124.9193 15.7209 45.9722 0.0000 -25.5598 0.0000
# 2 15.7209 53.5721 6.2516 0.0000 9.2375 0.0000
# 3 45.9722 6.2516 123.7840 0.0000 -17.6749 0.0000
# 4 0.0000 0.0000 0.0000 15.1491 0.0000 -0.6522
# 5 -25.5598 9.2375 -17.6749 0.0000 45.6835 0.0000
# 6 0.0000 0.0000 0.0000 -0.6522 0.0000 -8.4946
#
#
#
# Elastic Compliance Matrix: (Units=1/GPa)
#
#
# Indices 1 2 3 4 5 6 
#
# 1 0.010728 -0.003765 -0.002994 0.000000 0.005605 0.000000
# 2 -0.003765 0.020976 -0.000601 0.000000 -0.006581 0.000000
# 3 -0.002994 -0.000601 0.009525 0.000000 0.002132 0.000000
# 4 0.000000 0.000000 0.000000 0.065793 0.000000 -0.005052
# 5 0.005605 -0.006581 0.002132 0.000000 0.027181 0.000000
# 6 0.000000 0.000000 0.000000 -0.005052 0.000000 -0.117333
#
#
# Mechanical properties :
#
#
# Convention : Reuss Voigt Hill
#
# Bulk Modulus (GPa) = 37.72173 48.68496 43.20334
# Shear Modulus (GPa) = 123.68397 26.08962 74.88680
#
# Velocity S-wave (km/s) = 7.84969 3.60520 6.10799
# Velocity P-wave (km/s) = 10.04735 6.44858 8.44196
#
# Compressibility (1/GPa) = 0.02650992
#
# Stress axis : x y z
#
# Youngs Moduli (GPa) = 93.21756 47.67320 104.98566
#
# Poissons Ratio (x) = 0.17950 0.31429
# Poissons Ratio (y) = 0.35099 0.06306
# Poissons Ratio (z) = 0.27906 0.02863
#
# Static dielectric constant tensor:
#      x y z
#    x 4.003690 0.000000 -0.550790 
#    y 0.000000 3.495550 0.000000 
#    z -0.550790 0.000000 3.991390 
# 
# 
# High freq. dielectric constant tensor:
#      x y z
#    x 1.802400 0.000000 -0.022740 
#    y 0.000000 1.765930 0.000000 
#    z -0.022740 0.000000 1.788990 
# 
# From -- ./inp_files/95997.got.cif
#   From: 2010.06.25/outbox.cif.g09.slc.cpg/sg12_48_cif.got.tgz:95997.got - 2010.06.28 00:19:55.
