data_PCOD8110032
_publ_section_title
;
Structure prediction by ZEFSAII (Michael W. Deem and Ramdas Pophale) SiO2 
 PCOD8110032
Probable space group: C 2/M
;
_chemical_formula_sum "Si O2"
_cell_formula_units_Z 44
_cell_length_a 12.835653
_cell_length_b 21.024975
_cell_length_c 12.389833
_cell_angle_alpha 90.000000
_cell_angle_beta 140.509138
_cell_angle_gamma 90.000000
_cell_volume 2126.402113
_symmetry_space_group_name_H-M "C 2/M"
_symmetry_group_IT_number 12
_symmetry_cell_setting 'monoclinic'
loop_
_space_group_symop_operation_xyz
x,y,z
-x,y,-z
-x,-y,-z
x,-y,z
1/2+x,1/2+y,z
1/2-x,1/2+y,-z
1/2-x,1/2-y,-z
1/2+x,1/2-y,z
loop_
_atom_site_type_symbol
_atom_site_label
_atom_site_fract_x
_atom_site_fract_y
_atom_site_fract_z
Si Si1 0.594027 0.928324 0.680161
Si Si2 0.718166 0.716503 0.860503
Si Si3 0.847265 0.183249 0.587379
Si Si4 0.323660 0.673484 0.815034
Si Si5 0.342704 0.928086 0.669435
Si Si6 0.500000 0.126280 0.000000
O O1 0.500000 0.900878 0.500000
O O2 0.759657 0.888427 0.827204
O O3 0.490515 0.920515 0.704586
O O4 0.647737 0.000000 0.700608
O O5 0.539347 0.686040 0.717104
O O6 0.710822 0.766622 0.756053
O O7 0.750000 0.750000 0.000000
O O8 0.864540 0.667178 0.955714
O O9 0.750000 0.250000 0.500000
O O10 0.821329 0.158919 0.687316
O O11 0.785267 0.128283 0.457034
O O12 0.500000 0.691575 0.000000
O O13 0.409368 0.919152 0.842932
O O14 0.267576 0.000000 0.599576
#
# Coordination Sequence:
#
# PCOD8110032 Si02
#       6
#     8   8   8   8   8   4
#     4  10  21  40  66  93 128 173 219 269 333 407
#     4  12  23  42  66 101 136 175 229 278 343 413
#     4  12  25  41  67  99 134 177 227 285 345 407
#     4  12  23  38  63  97 132 169 216 279 336 400
#     4  11  25  46  69  99 135 182 233 283 348 419
#     4  12  25  46  70  96 133 186 226 288 347 416
#
# _framework density 20.692229000000001
#
# number of rings (size 3 to 8) (size 9 to 14) (size 15 to 20)
#    0.000    0.545    4.545    4.636    0.000    2.545 
#    0.000    2.727    0.000    0.000    0.000    0.000 
#    0.000    0.000    0.000    0.000    0.000    0.000 
#
# Total GULP energy -272808.400830 kJ/mol
# GULP energy per Si atom -12400.381856 kJ/mol
# Density = 2.064513 g / cm^3
# Si number density = 20.692229 Si / 1000 Ang^3
#
#
#
# Elastic Constant Matrix: (Units=GPa)
#
#
# Indices 1 2 3 4 5 6 
#
# 1 99.7447 44.5955 45.1571 0.0000 9.1482 0.0000
# 2 44.5955 132.8718 54.9229 0.0000 17.5583 0.0000
# 3 45.1571 54.9229 100.8430 0.0000 -4.2072 0.0000
# 4 0.0000 0.0000 0.0000 35.6876 0.0000 -3.0991
# 5 9.1482 17.5583 -4.2072 0.0000 45.2157 0.0000
# 6 0.0000 0.0000 0.0000 -3.0991 0.0000 29.4515
#
#
#
# Elastic Compliance Matrix: (Units=1/GPa)
#
#
# Indices 1 2 3 4 5 6 
#
# 1 0.013443 -0.002160 -0.004941 0.000000 -0.002341 0.000000
# 2 -0.002160 0.010962 -0.005182 0.000000 -0.004302 0.000000
# 3 -0.004941 -0.005182 0.015136 0.000000 0.004420 0.000000
# 4 0.000000 0.000000 0.000000 0.028279 0.000000 0.002976
# 5 -0.002341 -0.004302 0.004420 0.000000 0.024672 0.000000
# 6 0.000000 0.000000 0.000000 0.002976 0.000000 0.034267
#
#
# Mechanical properties :
#
#
# Convention : Reuss Voigt Hill
#
# Bulk Modulus (GPa) = 66.78353 69.20116 67.99234
# Shear Modulus (GPa) = 31.98642 34.65656 33.32149
#
# Velocity S-wave (km/s) = 3.93595 4.09694 4.01726
# Velocity P-wave (km/s) = 7.28014 7.47634 7.37889
#
# Compressibility (1/GPa) = 0.01497375
#
# Stress axis : x y z
#
# Youngs Moduli (GPa) = 74.38848 91.22723 66.06871
#
# Poissons Ratio (x) = 0.19707 0.32643
# Poissons Ratio (y) = 0.16070 0.34239
# Poissons Ratio (z) = 0.36754 0.47276
#
# Static dielectric constant tensor:
#      x y z
#    x 3.968750 0.000000 -0.063950 
#    y 0.000000 3.855030 0.000000 
#    z -0.063950 0.000000 3.743130 
# 
# 
# High freq. dielectric constant tensor:
#      x y z
#    x 1.825230 0.000000 -0.008760 
#    y 0.000000 1.812560 0.000000 
#    z -0.008760 0.000000 1.803930 
# 
# From -- ./inp_files/49165.got.cif
#   From: 2010.06.25/outbox.cif.g09.slc.cpg/sg12_25_cif.got.tgz:49165.got - 2010.06.28 00:19:55.
