data_PCOD8110417
_publ_section_title
;
Structure prediction by ZEFSAII (Michael W. Deem and Ramdas Pophale) SiO2 
 PCOD8110417
Probable space group: C 2/M
;
_chemical_formula_sum "Si O2"
_cell_formula_units_Z 64
_cell_length_a 10.881177
_cell_length_b 24.980853
_cell_length_c 10.960253
_cell_angle_alpha 90.000000
_cell_angle_beta 82.592312
_cell_angle_gamma 90.000000
_cell_volume 2954.362823
_symmetry_space_group_name_H-M "C 2/M"
_symmetry_group_IT_number 12
_symmetry_cell_setting 'monoclinic'
loop_
_space_group_symop_operation_xyz
x,y,z
-x,y,-z
-x,-y,-z
x,-y,z
1/2+x,1/2+y,z
1/2-x,1/2+y,-z
1/2-x,1/2-y,-z
1/2+x,1/2-y,z
loop_
_atom_site_type_symbol
_atom_site_label
_atom_site_fract_x
_atom_site_fract_y
_atom_site_fract_z
Si Si1 0.145333 0.752587 0.160205
Si Si2 0.116560 0.257812 0.688104
Si Si3 0.500040 0.559954 0.635556
Si Si4 0.362574 0.146646 0.499275
Si Si5 0.362593 0.938555 0.060280
Si Si6 0.835424 0.853314 0.285273
Si Si7 0.777529 0.837181 0.020337
Si Si8 0.275774 0.059259 0.329455
O O1 0.261773 0.759767 0.239318
O O2 0.169562 0.706862 0.054830
O O3 0.017455 0.730565 0.234787
O O4 0.131231 0.810557 0.093823
O O5 0.138516 0.295822 0.568615
O O6 0.100956 0.195886 0.648923
O O7 0.500000 0.584491 0.500000
O O8 0.552688 0.500000 0.624675
O O9 0.594019 0.591800 0.706644
O O10 0.362540 0.562651 0.708553
O O11 0.500000 0.125416 0.500000
O O12 0.303963 0.146685 0.642192
O O13 0.288845 0.103363 0.430631
O O14 0.367284 0.930021 0.205398
O O15 0.321694 0.000000 0.033465
O O16 0.500000 0.926473 0.000000
O O17 0.270570 0.895543 0.012738
O O18 0.844791 0.843790 0.140437
O O19 0.298339 0.000000 0.382988
#
# Coordination Sequence:
#
# PCOD8110417 Si02
#       8
#     8   8   8   8   8   8   8   8
#     4  10  24  43  68  96 125 183 221 272 328 390
#     4  11  25  44  66  95 134 172 227 273 329 396
#     4  10  21  42  68  94 130 173 223 268 321 397
#     4  12  25  41  65  96 133 174 213 271 335 391
#     4  10  23  41  67  97 130 174 219 270 331 393
#     4  11  25  40  63 100 132 169 216 268 333 395
#     4  10  23  41  63  94 135 167 217 268 325 398
#     4  10  23  44  67  96 128 172 226 271 325 396
#
# _framework density 21.662877999999999
#
# number of rings (size 3 to 8) (size 9 to 14) (size 15 to 20)
#    0.000    1.500    1.250    2.625    8.750    5.250 
#    0.000    0.000    0.000    2.250    0.000    0.000 
#    0.000    0.000    0.000    0.000    0.000    0.000 
#
# Total GULP energy -396528.468342 kJ/mol
# GULP energy per Si atom -12391.514636 kJ/mol
# Density = 2.161357 g / cm^3
# Si number density = 21.662878 Si / 1000 Ang^3
#
#
#
# Elastic Constant Matrix: (Units=GPa)
#
#
# Indices 1 2 3 4 5 6 
#
# 1 76.9124 19.8655 18.5536 0.0000 1.3951 0.0000
# 2 19.8655 113.5719 9.3274 0.0000 17.6204 0.0000
# 3 18.5536 9.3274 53.2436 0.0000 4.0263 0.0000
# 4 0.0000 0.0000 0.0000 29.8717 0.0000 -0.5123
# 5 1.3951 17.6204 4.0263 0.0000 25.6438 0.0000
# 6 0.0000 0.0000 0.0000 -0.5123 0.0000 29.3135
#
#
#
# Elastic Compliance Matrix: (Units=1/GPa)
#
#
# Indices 1 2 3 4 5 6 
#
# 1 0.014771 -0.002439 -0.004843 0.000000 0.001633 0.000000
# 2 -0.002439 0.010339 -0.000439 0.000000 -0.006902 0.000000
# 3 -0.004843 -0.000439 0.020750 0.000000 -0.002693 0.000000
# 4 0.000000 0.000000 0.000000 0.033487 0.000000 0.000585
# 5 0.001633 -0.006902 -0.002693 0.000000 0.044072 0.000000
# 6 0.000000 0.000000 0.000000 0.000585 0.000000 0.034124
#
#
# Mechanical properties :
#
#
# Convention : Reuss Voigt Hill
#
# Bulk Modulus (GPa) = 32.87774 37.69123 35.28449
# Shear Modulus (GPa) = 27.30393 30.03123 28.66758
#
# Velocity S-wave (km/s) = 3.55407 3.72734 3.64174
# Velocity P-wave (km/s) = 5.66143 5.99674 5.83150
#
# Compressibility (1/GPa) = 0.03041571
#
# Stress axis : x y z
#
# Youngs Moduli (GPa) = 67.70242 96.72507 48.19312
#
# Poissons Ratio (x) = 0.23593 0.23341
# Poissons Ratio (y) = 0.16514 0.02117
# Poissons Ratio (z) = 0.32790 0.04249
#
# Static dielectric constant tensor:
#      x y z
#    x 3.763760 0.000000 -0.250110 
#    y 0.000000 4.195660 0.000000 
#    z -0.250110 0.000000 3.967220 
# 
# 
# High freq. dielectric constant tensor:
#      x y z
#    x 1.838330 0.000000 -0.023610 
#    y 0.000000 1.864300 0.000000 
#    z -0.023610 0.000000 1.849240 
# 
# From -- ./inp_files/135339.got.cif
#   From: 2010.06.25/outbox.cif.g09.slc.cpg/sg12_68_cif.got.tgz:135339.got - 2010.06.28 00:19:55.
