data_PCOD8110844
_publ_section_title
;
Structure prediction by ZEFSAII (Michael W. Deem and Ramdas Pophale) SiO2 
 PCOD8110844
Probable space group: C 2/M
;
_chemical_formula_sum "Si O2"
_cell_formula_units_Z 56
_cell_length_a 8.875604
_cell_length_b 28.831652
_cell_length_c 11.405655
_cell_angle_alpha 90.000000
_cell_angle_beta 62.541520
_cell_angle_gamma 90.000000
_cell_volume 2589.883837
_symmetry_space_group_name_H-M "C 2/M"
_symmetry_group_IT_number 12
_symmetry_cell_setting 'monoclinic'
loop_
_space_group_symop_operation_xyz
x,y,z
-x,y,-z
-x,-y,-z
x,-y,z
1/2+x,1/2+y,z
1/2-x,1/2+y,-z
1/2-x,1/2-y,-z
1/2+x,1/2-y,z
loop_
_atom_site_type_symbol
_atom_site_label
_atom_site_fract_x
_atom_site_fract_y
_atom_site_fract_z
Si Si1 0.220208 0.212824 0.612083
Si Si2 0.655095 0.555068 0.857044
Si Si3 0.438351 0.183493 0.140406
Si Si4 0.521961 0.052995 0.119069
Si Si5 0.368256 0.751184 0.779321
Si Si6 0.873522 0.889629 0.376646
Si Si7 0.255341 0.396586 0.667668
O O1 0.250000 0.250000 0.500000
O O2 0.364315 0.222791 0.655795
O O3 0.226944 0.158991 0.577884
O O4 0.031044 0.218344 0.730314
O O5 0.658769 0.500000 0.828676
O O6 0.823122 0.574429 0.861637
O O7 0.651583 0.581891 0.734024
O O8 0.500000 0.567454 0.000000
O O9 0.605407 0.208873 0.132935
O O10 0.301377 0.221394 0.146346
O O11 0.365198 0.148226 0.264374
O O12 0.500000 0.157254 0.000000
O O13 0.342167 0.058626 0.248278
O O14 0.570006 0.000000 0.084263
O O15 0.500000 0.076936 0.000000
O O16 0.790375 0.912703 0.521678
O O17 0.074179 0.884837 0.323232
#
# Coordination Sequence:
#
# PCOD8110844 Si02
#       7
#     8   8   8   8   8   8   8
#     4  11  22  39  63  89 128 177 223 277 338 394
#     4  10  23  45  73 104 137 173 217 277 350 421
#     4  11  22  40  61  87 127 170 219 280 336 400
#     4  10  22  43  70  98 130 170 216 267 335 415
#     4  10  22  38  58  88 118 165 225 273 334 397
#     4  11  24  42  63  96 137 174 228 281 335 405
#     4  11  24  40  62  93 130 176 223 271 330 400
#
# _framework density 21.622592000000001
#
# number of rings (size 3 to 8) (size 9 to 14) (size 15 to 20)
#    0.000    1.429    1.429    3.857    4.000    2.857 
#    0.000    3.571    0.000    0.000    0.000    0.000 
#    0.000    0.000    0.000    0.000    0.000    0.000 
#
# Total GULP energy -346885.073743 kJ/mol
# GULP energy per Si atom -12388.752634 kJ/mol
# Density = 2.157338 g / cm^3
# Si number density = 21.622592 Si / 1000 Ang^3
#
#
#
# Elastic Constant Matrix: (Units=GPa)
#
#
# Indices 1 2 3 4 5 6 
#
# 1 91.4494 32.9125 51.3336 0.0000 20.6362 0.0000
# 2 32.9125 74.2395 42.5673 0.0000 11.6431 0.0000
# 3 51.3336 42.5673 151.9721 0.0000 22.0155 0.0000
# 4 0.0000 0.0000 0.0000 111.4517 0.0000 4.3012
# 5 20.6362 11.6431 22.0155 0.0000 36.3270 0.0000
# 6 0.0000 0.0000 0.0000 4.3012 0.0000 31.7871
#
#
#
# Elastic Compliance Matrix: (Units=1/GPa)
#
#
# Indices 1 2 3 4 5 6 
#
# 1 0.015504 -0.004129 -0.003285 0.000000 -0.005494 0.000000
# 2 -0.004129 0.017383 -0.003296 0.000000 -0.001228 0.000000
# 3 -0.003285 -0.003296 0.008978 0.000000 -0.002518 0.000000
# 4 0.000000 0.000000 0.000000 0.009020 0.000000 -0.001220
# 5 -0.005494 -0.001228 -0.002518 0.000000 0.032568 0.000000
# 6 0.000000 0.000000 0.000000 -0.001220 0.000000 0.031624
#
#
# Mechanical properties :
#
#
# Convention : Reuss Voigt Hill
#
# Bulk Modulus (GPa) = 48.91044 63.47641 56.19343
# Shear Modulus (GPa) = 34.88875 48.63633 41.76254
#
# Velocity S-wave (km/s) = 4.02124 4.74785 4.39957
# Velocity P-wave (km/s) = 6.65054 7.71210 7.20090
#
# Compressibility (1/GPa) = 0.02044553
#
# Stress axis : x y z
#
# Youngs Moduli (GPa) = 64.49768 57.52753 111.38461
#
# Poissons Ratio (x) = 0.23750 0.36589
# Poissons Ratio (y) = 0.26628 0.36718
# Poissons Ratio (z) = 0.21187 0.18964
#
# Static dielectric constant tensor:
#      x y z
#    x 4.206710 0.000000 0.104630 
#    y 0.000000 3.742340 0.000000 
#    z 0.104630 0.000000 3.922450 
# 
# 
# High freq. dielectric constant tensor:
#      x y z
#    x 1.861750 0.000000 0.003400 
#    y 0.000000 1.837270 0.000000 
#    z 0.003400 0.000000 1.854610 
# 
# From -- ./inp_files/125619.got.cif
#   From: 2010.06.25/outbox.cif.g09.slc.cpg/sg12_63_cif.got.tgz:125619.got - 2010.06.28 00:19:55.
