data_PCOD8110780
_publ_section_title
;
Structure prediction by ZEFSAII (Michael W. Deem and Ramdas Pophale) SiO2 
 PCOD8110780
Probable space group: C 2/M
;
_chemical_formula_sum "Si O2"
_cell_formula_units_Z 64
_cell_length_a 17.084958
_cell_length_b 14.750712
_cell_length_c 25.101914
_cell_angle_alpha 90.000000
_cell_angle_beta 30.670219
_cell_angle_gamma 90.000000
_cell_volume 3226.900577
_symmetry_space_group_name_H-M "C 2/M"
_symmetry_group_IT_number 12
_symmetry_cell_setting 'monoclinic'
loop_
_space_group_symop_operation_xyz
x,y,z
-x,y,-z
-x,-y,-z
x,-y,z
1/2+x,1/2+y,z
1/2-x,1/2+y,-z
1/2-x,1/2-y,-z
1/2+x,1/2-y,z
loop_
_atom_site_type_symbol
_atom_site_label
_atom_site_fract_x
_atom_site_fract_y
_atom_site_fract_z
Si Si1 0.171075 0.263592 0.389740
Si Si2 0.344722 0.245187 0.391563
Si Si3 0.140759 0.394173 0.886896
Si Si4 0.431099 0.395030 0.198138
Si Si5 0.443713 0.603893 0.762912
Si Si6 0.404931 0.392376 0.004623
Si Si7 0.948274 0.605566 0.781386
Si Si8 0.175487 0.603339 0.744775
O O1 0.225537 0.229885 0.414765
O O2 0.274215 0.341252 0.302102
O O3 0.181994 0.171538 0.348167
O O4 0.000000 0.299967 0.500000
O O5 0.250000 0.250000 0.500000
O O6 0.415743 0.344394 0.345430
O O7 0.471970 0.164751 0.312265
O O8 0.144792 0.500000 0.897822
O O9 0.292654 0.352518 0.824802
O O10 0.118300 0.376614 0.837732
O O11 0.000000 0.347101 0.000000
O O12 0.384490 0.500000 0.218829
O O13 0.553320 0.382550 0.174745
O O14 0.511678 0.356065 0.097766
O O15 0.465189 0.500000 0.734219
O O16 0.407713 0.500000 0.001496
O O17 0.500000 0.355829 0.000000
O O18 0.227521 0.360712 0.110387
O O19 0.957852 0.500000 0.759457
O O20 0.033242 0.623386 0.788207
O O21 0.234223 0.500000 0.704353
#
# Coordination Sequence:
#
# PCOD8110780 Si02
#       8
#     8   8   8   8   8   8   8   8
#     4  10  22  38  55  79 109 141 186 229 269 323
#     4  10  22  38  55  79 108 142 187 228 268 321
#     4   9  18  32  54  84 112 141 183 221 259 323
#     4   9  19  37  58  80 110 146 179 220 277 326
#     4   9  19  36  55  79 111 145 180 219 270 324
#     4   9  18  34  57  83 111 143 183 225 266 322
#     4   9  19  37  58  81 112 146 178 220 276 326
#     4   9  19  36  55  80 112 145 180 220 270 324
#
# _framework density 19.833272999999998
#
# number of rings (size 3 to 8) (size 9 to 14) (size 15 to 20)
#    0.000    2.750    0.000    0.000    3.500    2.000 
#    2.250    1.875    0.000    0.000    0.000    0.000 
#    0.000    0.000    0.000    0.000    0.000    0.000 
#
# Total GULP energy -396616.171504 kJ/mol
# GULP energy per Si atom -12394.255359 kJ/mol
# Density = 1.978813 g / cm^3
# Si number density = 19.833273 Si / 1000 Ang^3
#
#
#
# Elastic Constant Matrix: (Units=GPa)
#
#
# Indices 1 2 3 4 5 6 
#
# 1 91.6169 32.7750 64.4403 -0.0012 3.9971 0.0001
# 2 32.7750 74.2393 54.4599 -0.0039 5.3576 0.0009
# 3 64.4403 54.4599 165.5699 -0.0103 10.9486 0.0036
# 4 -0.0012 -0.0039 -0.0103 25.1250 0.0019 1.5015
# 5 3.9971 5.3576 10.9486 0.0019 36.8305 -0.0004
# 6 0.0001 0.0009 0.0036 1.5015 -0.0004 16.4357
#
#
#
# Elastic Compliance Matrix: (Units=1/GPa)
#
#
# Indices 1 2 3 4 5 6 
#
# 1 0.015590 -0.003213 -0.005029 -0.000002 0.000270 0.000001
# 2 -0.003213 0.018443 -0.004755 0.000001 -0.000921 0.000000
# 3 -0.005029 -0.004755 0.009669 0.000003 -0.001637 -0.000002
# 4 -0.000002 0.000001 0.000003 0.040020 -0.000003 -0.003656
# 5 0.000270 -0.000921 -0.001637 -0.000003 0.027743 0.000001
# 6 0.000001 0.000000 -0.000002 -0.003656 0.000001 0.061177
#
#
# Mechanical properties :
#
#
# Convention : Reuss Voigt Hill
#
# Bulk Modulus (GPa) = 56.47000 70.53073 63.50036
# Shear Modulus (GPa) = 24.44546 27.66162 26.05354
#
# Velocity S-wave (km/s) = 3.51458 3.73863 3.62833
# Velocity P-wave (km/s) = 6.70849 7.36719 7.04554
#
# Compressibility (1/GPa) = 0.01770852
#
# Stress axis : x y z
#
# Youngs Moduli (GPa) = 64.14529 54.22117 103.42236
#
# Poissons Ratio (x) = 0.17422 0.52006
# Poissons Ratio (y) = 0.20611 0.49176
# Poissons Ratio (z) = 0.32255 0.25781
#
# Static dielectric constant tensor:
#      x y z
#    x 3.833720 -0.000030 0.072160 
#    y -0.000030 3.965110 -0.000010 
#    z 0.072160 -0.000010 3.681520 
# 
# 
# High freq. dielectric constant tensor:
#      x y z
#    x 1.774290 0.000000 0.003460 
#    y 0.000000 1.769790 0.000000 
#    z 0.003460 0.000000 1.763950 
# 
# From -- ./inp_files/343999.got.cif
#   From: 2010.06.25/outbox.cif.g09.slc.cpg/sg12_172_cif.got.tgz:343999.got - 2010.06.28 00:19:55.
