data_PCOD8110942
_publ_section_title
;
Structure prediction by ZEFSAII (Michael W. Deem and Ramdas Pophale) SiO2 
 PCOD8110942
Probable space group: C 2/M
;
_chemical_formula_sum "Si O2"
_cell_formula_units_Z 32
_cell_length_a 28.634236
_cell_length_b 7.504967
_cell_length_c 27.573125
_cell_angle_alpha 90.000000
_cell_angle_beta 15.651941
_cell_angle_gamma 90.000000
_cell_volume 1598.640545
_symmetry_space_group_name_H-M "C 2/M"
_symmetry_group_IT_number 12
_symmetry_cell_setting 'monoclinic'
loop_
_space_group_symop_operation_xyz
x,y,z
-x,y,-z
-x,-y,-z
x,-y,z
1/2+x,1/2+y,z
1/2-x,1/2+y,-z
1/2-x,1/2-y,-z
1/2+x,1/2-y,z
loop_
_atom_site_type_symbol
_atom_site_label
_atom_site_fract_x
_atom_site_fract_y
_atom_site_fract_z
Si Si1 0.750115 0.206928 0.443802
Si Si2 0.952951 0.500000 0.102819
Si Si3 0.444588 0.705851 0.928177
Si Si4 0.547149 0.500000 0.508615
Si Si5 0.944793 0.294157 0.682427
O O1 0.750000 0.250000 0.500000
O O2 0.576757 0.281676 0.591367
O O3 0.923533 0.281680 0.244624
O O4 0.750147 0.000000 0.436270
O O5 0.750054 0.500000 0.314324
O O6 0.034043 0.322041 0.044878
O O7 0.000000 0.500000 0.000000
O O8 0.482768 0.500000 0.903458
O O9 0.249880 0.727611 0.102426
O O10 0.500000 0.500000 0.500000
O O11 0.466068 0.677964 0.612839
O O12 0.982955 0.500000 0.630801
#
# Coordination Sequence:
#
# PCOD8110942 Si02
#       5
#     8   4   8   4   8
#     4  10  22  38  62  92 124 170 214 257 323 373
#     4  12  24  40  66  95 127 168 213 263 320 376
#     4  10  22  42  63  88 128 167 208 265 313 377
#     4  12  24  40  66  95 127 168 213 263 320 376
#     4  10  22  42  63  88 128 167 208 265 313 377
#
# _framework density 20.017007
#
# number of rings (size 3 to 8) (size 9 to 14) (size 15 to 20)
#    0.000    1.500    2.500    2.250    3.500    2.000 
#    0.000    0.000    0.000    0.000    0.000    0.000 
#    0.000    0.000    0.000    0.000    0.000    0.000 
#
# Total GULP energy -198397.220283 kJ/mol
# GULP energy per Si atom -12399.826268 kJ/mol
# Density = 1.997145 g / cm^3
# Si number density = 20.017007 Si / 1000 Ang^3
#
#
#
# Elastic Constant Matrix: (Units=GPa)
#
#
# Indices 1 2 3 4 5 6 
#
# 1 166.1131 52.8397 76.1562 0.0390 6.9939 0.0054
# 2 52.8397 89.3577 47.3939 0.4972 1.5235 -0.1862
# 3 76.1562 47.3939 170.1634 -0.0133 -7.9879 -0.0146
# 4 0.0390 0.4972 -0.0133 24.8864 -0.0115 1.1896
# 5 6.9939 1.5235 -7.9879 -0.0115 36.5487 -0.0293
# 6 0.0054 -0.1862 -0.0146 1.1896 -0.0293 29.0900
#
#
#
# Elastic Compliance Matrix: (Units=1/GPa)
#
#
# Indices 1 2 3 4 5 6 
#
# 1 0.008574 -0.003455 -0.002975 0.000054 -0.002147 -0.000030
# 2 -0.003455 0.014593 -0.002541 -0.000293 -0.000502 0.000104
# 3 -0.002975 -0.002541 0.008030 0.000061 0.002430 -0.000012
# 4 0.000054 -0.000293 0.000061 0.040267 0.000027 -0.001649
# 5 -0.002147 -0.000502 0.002430 0.000027 0.028324 0.000026
# 6 -0.000030 0.000104 -0.000012 -0.001649 0.000026 0.034444
#
#
# Mechanical properties :
#
#
# Convention : Reuss Voigt Hill
#
# Bulk Modulus (GPa) = 75.46137 86.49042 80.97590
# Shear Modulus (GPa) = 31.92973 34.72132 33.32552
#
# Velocity S-wave (km/s) = 3.99824 4.16936 4.08470
# Velocity P-wave (km/s) = 7.68733 8.15355 7.92387
#
# Compressibility (1/GPa) = 0.01325181
#
# Stress axis : x y z
#
# Youngs Moduli (GPa) = 116.63591 68.52766 124.52796
#
# Poissons Ratio (x) = 0.23679 0.37053
# Poissons Ratio (y) = 0.40303 0.31648
# Poissons Ratio (z) = 0.34705 0.17416
#
# Static dielectric constant tensor:
#      x y z
#    x 4.228300 -0.069270 -0.009080 
#    y -0.069270 7.860770 -0.017730 
#    z -0.009080 -0.017730 4.258680 
# 
# 
# High freq. dielectric constant tensor:
#      x y z
#    x 1.764330 -0.000010 -0.010820 
#    y -0.000010 1.788960 0.000010 
#    z -0.010820 0.000010 1.803590 
# 
# From -- ./inp_files/348717.got.cif
#   From: 2010.06.25/outbox.cif.g09.slc.cpg/sg12_175_cif.got.tgz:348717.got - 2010.06.28 00:19:55.
