data_PCOD8110933
_publ_section_title
;
Structure prediction by ZEFSAII (Michael W. Deem and Ramdas Pophale) SiO2 
 PCOD8110933
Probable space group: C 2/M
;
_chemical_formula_sum "Si O2"
_cell_formula_units_Z 48
_cell_length_a 10.677933
_cell_length_b 16.893829
_cell_length_c 14.427850
_cell_angle_alpha 90.000000
_cell_angle_beta 119.208582
_cell_angle_gamma 90.000000
_cell_volume 2271.726371
_symmetry_space_group_name_H-M "C 2/M"
_symmetry_group_IT_number 12
_symmetry_cell_setting 'monoclinic'
loop_
_space_group_symop_operation_xyz
x,y,z
-x,y,-z
-x,-y,-z
x,-y,z
1/2+x,1/2+y,z
1/2-x,1/2+y,-z
1/2-x,1/2-y,-z
1/2+x,1/2-y,z
loop_
_atom_site_type_symbol
_atom_site_label
_atom_site_fract_x
_atom_site_fract_y
_atom_site_fract_z
Si Si1 0.552330 0.412955 0.622980
Si Si2 0.376016 0.088535 0.175929
Si Si3 0.155373 0.661898 0.228961
Si Si4 0.164236 0.211466 0.383504
Si Si5 0.171166 0.226818 0.066326
Si Si6 0.377310 0.911644 0.386170
O O1 0.500000 0.417275 0.500000
O O2 0.520513 0.500000 0.657003
O O3 0.722063 0.397859 0.692089
O O4 0.475890 0.337081 0.638789
O O5 0.506918 0.115005 0.156208
O O6 0.234956 0.142214 0.118012
O O7 0.435275 0.090728 0.302600
O O8 0.329134 0.000000 0.130745
O O9 0.113054 0.720882 0.296291
O O10 0.207507 0.706004 0.155050
O O11 0.250000 0.250000 0.500000
O O12 0.253516 0.151013 0.354288
O O13 0.250000 0.250000 0.000000
O O14 0.000000 0.217214 0.000000
O O15 0.500000 0.884132 0.500000
O O16 0.322944 0.000000 0.392627
#
# Coordination Sequence:
#
# PCOD8110933 Si02
#       6
#     8   8   8   8   8   8
#     4  11  25  42  61  95 141 182 217 265 329 406
#     4  11  24  45  71 103 137 178 227 282 347 420
#     4  12  24  43  71  98 135 177 227 277 343 404
#     4  12  23  36  63  95 132 175 228 267 325 404
#     4  12  26  49  76 102 134 178 233 300 354 402
#     4  10  22  38  61  95 138 179 216 266 335 408
#
# _framework density 21.129306
#
# number of rings (size 3 to 8) (size 9 to 14) (size 15 to 20)
#    0.000    0.667    5.000    3.000    2.333    0.333 
#    0.000    2.500    0.000    0.000    0.000    0.000 
#    0.000    0.000    0.000    0.000    0.000    0.000 
#
# Total GULP energy -297569.787895 kJ/mol
# GULP energy per Si atom -12398.741162 kJ/mol
# Density = 2.108121 g / cm^3
# Si number density = 21.129306 Si / 1000 Ang^3
#
#
#
# Elastic Constant Matrix: (Units=GPa)
#
#
# Indices 1 2 3 4 5 6 
#
# 1 114.5077 49.2464 33.1437 0.0000 9.4214 0.0000
# 2 49.2464 114.5795 39.0303 0.0000 6.7522 0.0000
# 3 33.1437 39.0303 86.5510 0.0000 1.7604 0.0000
# 4 0.0000 0.0000 0.0000 2.0647 0.0000 -12.7384
# 5 9.4214 6.7522 1.7604 0.0000 40.6341 0.0000
# 6 0.0000 0.0000 0.0000 -12.7384 0.0000 4.0816
#
#
#
# Elastic Compliance Matrix: (Units=1/GPa)
#
#
# Indices 1 2 3 4 5 6 
#
# 1 0.011288 -0.003878 -0.002536 0.000000 -0.001863 0.000000
# 2 -0.003878 0.011738 -0.003790 0.000000 -0.000887 0.000000
# 3 -0.002536 -0.003790 0.014222 0.000000 0.000602 0.000000
# 4 0.000000 0.000000 0.000000 -0.026531 0.000000 -0.082803
# 5 -0.001863 -0.000887 0.000602 0.000000 0.025163 0.000000
# 6 0.000000 0.000000 0.000000 -0.082803 0.000000 -0.013421
#
#
# Mechanical properties :
#
#
# Convention : Reuss Voigt Hill
#
# Bulk Modulus (GPa) = 59.38366 62.05322 60.71844
# Shear Modulus (GPa) = 103.13557 22.30392 62.71975
#
# Velocity S-wave (km/s) = 6.99411 3.25251 5.45419
# Velocity P-wave (km/s) = 9.66382 6.59827 8.27425
#
# Compressibility (1/GPa) = 0.01683965
#
# Stress axis : x y z
#
# Youngs Moduli (GPa) = 88.58837 85.19587 70.31416
#
# Poissons Ratio (x) = 0.33039 0.17831
# Poissons Ratio (y) = 0.34355 0.26649
# Poissons Ratio (z) = 0.22466 0.32290
#
# Static dielectric constant tensor:
#      x y z
#    x 3.824000 0.000000 0.009790 
#    y 0.000000 4.481730 0.000000 
#    z 0.009790 0.000000 3.798610 
# 
# 
# High freq. dielectric constant tensor:
#      x y z
#    x 1.828400 0.000000 0.001410 
#    y 0.000000 1.847370 0.000000 
#    z 0.001410 0.000000 1.816250 
# 
# From -- ./inp_files/131784.got.cif
#   From: 2010.06.25/outbox.cif.g09.slc.cpg/sg12_66_cif.got.tgz:131784.got - 2010.06.28 00:19:55.
