data_PCOD8110871
_publ_section_title
;
Structure prediction by ZEFSAII (Michael W. Deem and Ramdas Pophale) SiO2 
 PCOD8110871
Probable space group: C 2/M
;
_chemical_formula_sum "Si O2"
_cell_formula_units_Z 44
_cell_length_a 17.904793
_cell_length_b 21.388498
_cell_length_c 15.040655
_cell_angle_alpha 90.000000
_cell_angle_beta 158.360516
_cell_angle_gamma 90.000000
_cell_volume 2124.057502
_symmetry_space_group_name_H-M "C 2/M"
_symmetry_group_IT_number 12
_symmetry_cell_setting 'monoclinic'
loop_
_space_group_symop_operation_xyz
x,y,z
-x,y,-z
-x,-y,-z
x,-y,z
1/2+x,1/2+y,z
1/2-x,1/2+y,-z
1/2-x,1/2-y,-z
1/2+x,1/2-y,z
loop_
_atom_site_type_symbol
_atom_site_label
_atom_site_fract_x
_atom_site_fract_y
_atom_site_fract_z
Si Si1 0.392748 0.233798 0.035080
Si Si2 0.500000 0.147733 0.000000
Si Si3 0.585848 0.573016 0.868868
Si Si4 0.615548 0.426925 0.539084
Si Si5 0.374239 0.348602 0.771117
Si Si6 0.424296 0.827397 0.254098
O O1 0.376733 0.190548 0.931690
O O2 0.176251 0.267721 0.808507
O O3 0.566110 0.285541 0.214514
O O4 0.455260 0.189853 0.185700
O O5 0.332385 0.105614 0.766361
O O6 0.631342 0.500000 0.929415
O O7 0.519265 0.590362 0.695265
O O8 0.412769 0.592799 0.747967
O O9 0.788436 0.611019 0.114783
O O10 0.500000 0.404142 0.500000
O O11 0.659873 0.500000 0.592997
O O12 0.138483 0.343758 0.535933
O O13 0.500000 0.357610 0.000000
#
# Coordination Sequence:
#
# PCOD8110871 Si02
#       6
#     8   4   8   8   8   8
#     4  10  22  38  59  92 122 163 205 256 303 375
#     4  12  21  36  62  94 123 164 200 252 312 370
#     4  10  23  42  63  92 124 163 212 260 306 366
#     4  10  22  39  60  91 129 165 209 255 306 371
#     4  11  23  42  62  91 124 161 209 260 309 368
#     4  10  22  42  63  85 124 166 205 256 314 364
#
# _framework density 20.715070000000001
#
# number of rings (size 3 to 8) (size 9 to 14) (size 15 to 20)
#    0.000    1.636    0.909    3.000    0.000    8.364 
#    3.273    5.455    0.000    0.000    0.000    0.000 
#    0.000    0.000    0.000    0.000    0.000    0.000 
#
# Total GULP energy -272903.745918 kJ/mol
# GULP energy per Si atom -12404.715724 kJ/mol
# Density = 2.066792 g / cm^3
# Si number density = 20.715070 Si / 1000 Ang^3
#
#
#
# Elastic Constant Matrix: (Units=GPa)
#
#
# Indices 1 2 3 4 5 6 
#
# 1 109.7618 36.2621 45.7665 0.0001 -0.3481 0.0000
# 2 36.2621 79.3631 44.4213 0.0001 -1.0714 0.0000
# 3 45.7665 44.4213 144.0615 0.0002 11.3710 0.0001
# 4 0.0001 0.0001 0.0002 16.9233 0.0001 2.2439
# 5 -0.3481 -1.0714 11.3710 0.0001 27.4689 0.0001
# 6 0.0000 0.0000 0.0001 2.2439 0.0001 36.6638
#
#
#
# Elastic Compliance Matrix: (Units=1/GPa)
#
#
# Indices 1 2 3 4 5 6 
#
# 1 0.011425 -0.003780 -0.002547 0.000000 0.001052 0.000000
# 2 -0.003780 0.016665 -0.004120 0.000000 0.002307 0.000000
# 3 -0.002547 -0.004120 0.009341 0.000000 -0.004060 0.000000
# 4 0.000000 0.000000 0.000000 0.059573 0.000000 -0.003646
# 5 0.001052 0.002307 -0.004060 0.000000 0.038189 0.000000
# 6 0.000000 0.000000 0.000000 -0.003646 0.000000 0.027498
#
#
# Mechanical properties :
#
#
# Convention : Reuss Voigt Hill
#
# Bulk Modulus (GPa) = 60.47072 65.12071 62.79572
# Shear Modulus (GPa) = 26.44141 29.99365 28.21753
#
# Velocity S-wave (km/s) = 3.57660 3.80927 3.69477
# Velocity P-wave (km/s) = 6.80523 7.13106 6.97005
#
# Compressibility (1/GPa) = 0.01653693
#
# Stress axis : x y z
#
# Youngs Moduli (GPa) = 87.52847 60.00715 107.05117
#
# Poissons Ratio (x) = 0.22685 0.27264
# Poissons Ratio (y) = 0.33090 0.44102
# Poissons Ratio (z) = 0.22292 0.24721
#
# Static dielectric constant tensor:
#      x y z
#    x 3.923390 0.000000 0.069420 
#    y 0.000000 3.762400 0.000000 
#    z 0.069420 0.000000 3.549540 
# 
# 
# High freq. dielectric constant tensor:
#      x y z
#    x 1.821300 0.000000 0.003370 
#    y 0.000000 1.811840 0.000000 
#    z 0.003370 0.000000 1.801810 
# 
# From -- ./inp_files/228209.got.cif
#   From: 2010.06.25/outbox.cif.g09.slc.cpg/sg12_115_cif.got.tgz:228209.got - 2010.06.28 00:19:55.
