data_PCOD8110588
_publ_section_title
;
Structure prediction by ZEFSAII (Michael W. Deem and Ramdas Pophale) SiO2 
 PCOD8110588
Probable space group: C 2/M
;
_chemical_formula_sum "Si O2"
_cell_formula_units_Z 40
_cell_length_a 26.108641
_cell_length_b 9.794001
_cell_length_c 9.626260
_cell_angle_alpha 90.000000
_cell_angle_beta 125.444651
_cell_angle_gamma 90.000000
_cell_volume 2005.335211
_symmetry_space_group_name_H-M "C 2/M"
_symmetry_group_IT_number 12
_symmetry_cell_setting 'monoclinic'
loop_
_space_group_symop_operation_xyz
x,y,z
-x,y,-z
-x,-y,-z
x,-y,z
1/2+x,1/2+y,z
1/2-x,1/2+y,-z
1/2-x,1/2-y,-z
1/2+x,1/2-y,z
loop_
_atom_site_type_symbol
_atom_site_label
_atom_site_fract_x
_atom_site_fract_y
_atom_site_fract_z
Si Si1 0.038236 0.000000 0.803101
Si Si2 0.236316 0.000000 0.207748
Si Si3 0.458620 0.277086 0.798442
Si Si4 0.808042 0.280602 0.188020
Si Si5 0.121934 0.000000 0.207573
Si Si6 0.096284 0.500000 0.733274
Si Si7 0.150814 0.000000 0.796059
Si Si8 0.533334 0.000000 0.336308
O O1 0.996241 0.136343 0.741776
O O2 0.077754 0.000000 0.723866
O O3 0.081987 0.000000 0.005661
O O4 0.282393 0.867535 0.278908
O O5 0.195743 0.000000 0.284561
O O6 0.193736 0.000000 0.001921
O O7 0.395319 0.362198 0.735240
O O8 0.441578 0.131391 0.707128
O O9 0.500000 0.253893 0.000000
O O10 0.860253 0.365537 0.183082
O O11 0.836913 0.134365 0.278802
O O12 0.750000 0.250000 0.000000
O O13 0.064124 0.500000 0.533916
O O14 0.043060 0.500000 0.769802
#
# Coordination Sequence:
#
# PCOD8110588 Si02
#       8
#     4   4   8   8   4   4   4   4
#     4   8  14  26  46  69  98 127 161 212 262 303
#     4   8  15  27  45  70 100 126 155 212 274 302
#     4   9  17  30  49  74 101 136 180 216 249 303
#     4   9  17  31  51  73  97 131 177 220 254 302
#     4   8  15  29  48  70  97 131 169 216 265 296
#     4  10  22  36  51  75 113 148 165 204 283 332
#     4   9  14  24  45  73  95 121 163 211 256 301
#     4  11  21  34  51  77 114 145 168 209 270 332
#
# _framework density 19.94679
#
# number of rings (size 3 to 8) (size 9 to 14) (size 15 to 20)
#    0.000    3.000    0.000    3.300    0.000    1.600 
#    0.000    3.000    0.000   12.000    0.000    0.000 
#    0.000    0.000    0.000    0.000    0.000    0.000 
#
# Total GULP energy -247854.129563 kJ/mol
# GULP energy per Si atom -12392.706478 kJ/mol
# Density = 1.990139 g / cm^3
# Si number density = 19.946790 Si / 1000 Ang^3
#
#
#
# Elastic Constant Matrix: (Units=GPa)
#
#
# Indices 1 2 3 4 5 6 
#
# 1 158.1131 88.1928 10.3466 0.0000 14.4163 0.0000
# 2 88.1928 202.1686 12.0766 0.0000 2.9634 0.0000
# 3 10.3466 12.0766 19.8686 0.0000 1.6567 0.0000
# 4 0.0000 0.0000 0.0000 -11.7303 0.0000 -27.6006
# 5 14.4163 2.9634 1.6567 0.0000 17.5811 0.0000
# 6 0.0000 0.0000 0.0000 -27.6006 0.0000 -17.3630
#
#
#
# Elastic Compliance Matrix: (Units=1/GPa)
#
#
# Indices 1 2 3 4 5 6 
#
# 1 0.009175 -0.003790 -0.001915 0.000000 -0.006704 0.000000
# 2 -0.003790 0.006704 -0.002284 0.000000 0.002193 0.000000
# 3 -0.001915 -0.002284 0.052969 0.000000 -0.003036 0.000000
# 4 0.000000 0.000000 0.000000 0.031110 0.000000 -0.049453
# 5 -0.006704 0.002193 -0.003036 0.000000 0.062293 0.000000
# 6 0.000000 0.000000 0.000000 -0.049453 0.000000 0.021018
#
#
# Mechanical properties :
#
#
# Convention : Reuss Voigt Hill
#
# Bulk Modulus (GPa) = 18.91437 66.82025 42.86731
# Shear Modulus (GPa) = 23.05523 15.66652 19.36087
#
# Velocity S-wave (km/s) = 3.40345 2.80557 3.11887
# Velocity P-wave (km/s) = 4.99476 6.63829 5.87429
#
# Compressibility (1/GPa) = 0.05286985
#
# Stress axis : x y z
#
# Youngs Moduli (GPa) = 108.99090 149.16699 18.87881
#
# Poissons Ratio (x) = 0.56531 0.03616
# Poissons Ratio (y) = 0.41305 0.04312
# Poissons Ratio (z) = 0.20876 0.34071
#
# Static dielectric constant tensor:
#      x y z
#    x 3.998120 0.000000 0.378670 
#    y 0.000000 4.153660 0.000000 
#    z 0.378670 0.000000 3.006380 
# 
# 
# High freq. dielectric constant tensor:
#      x y z
#    x 1.773200 0.000000 0.024940 
#    y 0.000000 1.793850 0.000000 
#    z 0.024940 0.000000 1.723800 
# 
# From -- ./inp_files/180338.got.cif
#   From: 2010.06.25/outbox.cif.g09.slc.cpg/sg12_91_cif.got.tgz:180338.got - 2010.06.28 00:19:55.
