data_PCOD8110194
_publ_section_title
;
Structure prediction by ZEFSAII (Michael W. Deem and Ramdas Pophale) SiO2 
 PCOD8110194
Probable space group: C 2/M
;
_chemical_formula_sum "Si O2"
_cell_formula_units_Z 56
_cell_length_a 9.929833
_cell_length_b 21.830686
_cell_length_c 14.672229
_cell_angle_alpha 90.000000
_cell_angle_beta 58.607680
_cell_angle_gamma 90.000000
_cell_volume 2715.003070
_symmetry_space_group_name_H-M "C 2/M"
_symmetry_group_IT_number 12
_symmetry_cell_setting 'monoclinic'
loop_
_space_group_symop_operation_xyz
x,y,z
-x,y,-z
-x,-y,-z
x,-y,z
1/2+x,1/2+y,z
1/2-x,1/2+y,-z
1/2-x,1/2-y,-z
1/2+x,1/2-y,z
loop_
_atom_site_type_symbol
_atom_site_label
_atom_site_fract_x
_atom_site_fract_y
_atom_site_fract_z
Si Si1 0.653794 0.383832 0.110995
Si Si2 0.179707 0.194764 0.416668
Si Si3 0.878851 0.643249 0.191752
Si Si4 0.665930 0.431138 0.736747
Si Si5 0.567320 0.737081 0.073061
Si Si6 0.320458 0.928193 0.873294
Si Si7 0.178334 0.333011 0.442666
O O1 0.804655 0.381427 0.124118
O O2 0.524670 0.433792 0.186286
O O3 0.554769 0.320059 0.146660
O O4 0.720011 0.395413 0.986983
O O5 0.235626 0.155038 0.311213
O O6 0.199023 0.266944 0.386604
O O7 0.284468 0.174820 0.464592
O O8 0.000000 0.177898 0.500000
O O9 0.975210 0.705556 0.145517
O O10 0.997224 0.592300 0.188932
O O11 0.721162 0.500000 0.691824
O O12 0.746240 0.409578 0.802685
O O13 0.712159 0.384282 0.641013
O O14 0.500000 0.717479 0.000000
O O15 0.750000 0.750000 0.000000
O O16 0.311540 0.000000 0.893718
O O17 0.000000 0.356574 0.500000
#
# Coordination Sequence:
#
# PCOD8110194 Si02
#       7
#     8   8   8   8   8   8   8
#     4  12  24  39  62  89 133 167 205 255 309 384
#     4  10  22  40  63  91 122 158 206 254 318 380
#     4  12  24  40  62  92 126 167 208 256 315 376
#     4  11  24  41  65  93 119 165 215 260 319 367
#     4  12  22  39  59  96 132 165 208 253 315 378
#     4  11  24  42  62  89 126 167 212 257 308 380
#     4  10  21  41  64  89 121 158 203 262 320 373
#
# _framework density 20.626128999999999
#
# number of rings (size 3 to 8) (size 9 to 14) (size 15 to 20)
#    0.000    0.857    2.857    4.714    0.000    6.571 
#    0.000    0.714    0.000    1.714    0.000    0.000 
#    0.000    0.000    0.000    0.000    0.000    0.000 
#
# Total GULP energy -347322.671199 kJ/mol
# GULP energy per Si atom -12404.381114 kJ/mol
# Density = 2.057918 g / cm^3
# Si number density = 20.626129 Si / 1000 Ang^3
#
#
#
# Elastic Constant Matrix: (Units=GPa)
#
#
# Indices 1 2 3 4 5 6 
#
# 1 113.8376 31.6832 16.3487 0.0000 -11.5557 0.0000
# 2 31.6832 76.2779 32.7989 0.0000 -0.0405 0.0000
# 3 16.3487 32.7989 86.1799 0.0000 -13.5732 0.0000
# 4 0.0000 0.0000 0.0000 25.0816 0.0000 -0.0152
# 5 -11.5557 -0.0405 -13.5732 0.0000 29.9618 0.0000
# 6 0.0000 0.0000 0.0000 -0.0152 0.0000 27.2242
#
#
#
# Elastic Compliance Matrix: (Units=1/GPa)
#
#
# Indices 1 2 3 4 5 6 
#
# 1 0.010402 -0.004487 0.000394 0.000000 0.004184 0.000000
# 2 -0.004487 0.017847 -0.006687 0.000000 -0.004736 0.000000
# 3 0.000394 -0.006687 0.015179 0.000000 0.007019 0.000000
# 4 0.000000 0.000000 0.000000 0.039870 0.000000 0.000022
# 5 0.004184 -0.004736 0.007019 0.000000 0.038163 0.000000
# 6 0.000000 0.000000 0.000000 0.000022 0.000000 0.036732
#
#
# Mechanical properties :
#
#
# Convention : Reuss Voigt Hill
#
# Bulk Modulus (GPa) = 45.73246 48.66189 47.19718
# Shear Modulus (GPa) = 26.73187 29.48448 28.10818
#
# Velocity S-wave (km/s) = 3.60393 3.78494 3.69554
# Velocity P-wave (km/s) = 6.28793 6.53793 6.41415
#
# Compressibility (1/GPa) = 0.02186631
#
# Stress axis : x y z
#
# Youngs Moduli (GPa) = 96.13925 56.03289 65.87882
#
# Poissons Ratio (x) = 0.25145 -0.02593
# Poissons Ratio (y) = 0.43142 0.44052
# Poissons Ratio (z) = -0.03784 0.37468
#
# Static dielectric constant tensor:
#      x y z
#    x 3.971390 0.000000 0.004420 
#    y 0.000000 5.111190 0.000000 
#    z 0.004420 0.000000 3.616460 
# 
# 
# High freq. dielectric constant tensor:
#      x y z
#    x 1.824740 0.000000 -0.005280 
#    y 0.000000 1.803440 0.000000 
#    z -0.005280 0.000000 1.798270 
# 
# From -- ./inp_files/198803.got.cif
#   From: 2010.06.25/outbox.cif.g09.slc.cpg/sg12_100_cif.got.tgz:198803.got - 2010.06.28 00:19:55.
