data_PCOD8110132
_publ_section_title
;
Structure prediction by ZEFSAII (Michael W. Deem and Ramdas Pophale) SiO2 
 PCOD8110132
Probable space group: C 2/M
;
_chemical_formula_sum "Si O2"
_cell_formula_units_Z 64
_cell_length_a 12.876455
_cell_length_b 26.517073
_cell_length_c 15.765520
_cell_angle_alpha 90.000000
_cell_angle_beta 143.340153
_cell_angle_gamma 90.000000
_cell_volume 3214.033805
_symmetry_space_group_name_H-M "C 2/M"
_symmetry_group_IT_number 12
_symmetry_cell_setting 'monoclinic'
loop_
_space_group_symop_operation_xyz
x,y,z
-x,y,-z
-x,-y,-z
x,-y,z
1/2+x,1/2+y,z
1/2-x,1/2+y,-z
1/2-x,1/2-y,-z
1/2+x,1/2-y,z
loop_
_atom_site_type_symbol
_atom_site_label
_atom_site_fract_x
_atom_site_fract_y
_atom_site_fract_z
Si Si1 0.455263 0.298285 0.873962
Si Si2 0.154328 0.312494 0.249864
Si Si3 0.635706 0.444404 0.014235
Si Si4 0.657904 0.640266 0.777042
Si Si5 0.306304 0.134737 0.404987
Si Si6 0.555249 0.444464 0.288829
Si Si7 0.709715 0.149980 0.957009
Si Si8 0.819229 0.804633 0.528762
O O1 0.376498 0.242580 0.810747
O O2 0.318056 0.338199 0.745805
O O3 0.641531 0.307169 0.952194
O O4 0.500000 0.309601 0.000000
O O5 0.214322 0.353170 0.219085
O O6 0.304413 0.314425 0.418804
O O7 0.979727 0.328148 0.184691
O O8 0.721314 0.500000 0.088690
O O9 0.500000 0.431800 0.000000
O O10 0.552189 0.446612 0.867515
O O11 0.769699 0.397574 0.094425
O O12 0.540081 0.589294 0.700950
O O13 0.784154 0.635816 0.939953
O O14 0.521113 0.687348 0.688178
O O15 0.500000 0.131954 0.500000
O O16 0.239468 0.078520 0.380752
O O17 0.305978 0.161995 0.495158
O O18 0.582979 0.500000 0.345771
O O19 0.750000 0.750000 0.500000
#
# Coordination Sequence:
#
# PCOD8110132 Si02
#       8
#     8   8   8   8   8   8   8   8
#     4  12  24  39  57  87 126 166 196 242 305 363
#     4  12  25  36  61  86 120 165 207 251 289 352
#     4   9  17  32  59  86 115 155 194 243 314 369
#     4  10  21  41  58  86 118 158 208 245 301 354
#     4  11  24  39  61  93 122 154 202 252 299 370
#     4   9  19  39  64  85 118 160 200 253 310 360
#     4  11  21  39  56  85 123 154 205 248 298 354
#     4  11  22  40  59  83 121 161 204 244 298 357
#
# _framework density 19.912672000000001
#
# number of rings (size 3 to 8) (size 9 to 14) (size 15 to 20)
#    0.000    1.375    5.000    2.250    3.500    0.250 
#    0.000    0.625    0.000   12.000    0.000    0.000 
#    0.000    0.000    0.000    0.000    0.000    0.000 
#
# Total GULP energy -396477.173980 kJ/mol
# GULP energy per Si atom -12389.911687 kJ/mol
# Density = 1.986735 g / cm^3
# Si number density = 19.912672 Si / 1000 Ang^3
#
#
#
# Elastic Constant Matrix: (Units=GPa)
#
#
# Indices 1 2 3 4 5 6 
#
# 1 101.2123 39.9644 28.7800 -0.0001 1.7144 -0.0001
# 2 39.9644 119.1799 23.6292 0.0000 3.5444 0.0000
# 3 28.7800 23.6292 57.1400 -0.0001 -0.6570 -0.0001
# 4 -0.0001 0.0000 -0.0001 11.7595 -0.0001 -6.8093
# 5 1.7144 3.5444 -0.6570 -0.0001 41.7565 -0.0001
# 6 -0.0001 0.0000 -0.0001 -6.8093 -0.0001 23.7792
#
#
#
# Elastic Compliance Matrix: (Units=1/GPa)
#
#
# Indices 1 2 3 4 5 6 
#
# 1 0.012580 -0.003215 -0.005010 0.000000 -0.000322 0.000000
# 2 -0.003215 0.009991 -0.002521 0.000000 -0.000756 0.000000
# 3 -0.005010 -0.002521 0.021076 0.000000 0.000751 0.000000
# 4 0.000000 0.000000 0.000000 0.101941 0.000000 0.029191
# 5 -0.000322 -0.000756 0.000751 0.000000 0.024038 0.000000
# 6 0.000000 0.000000 0.000000 0.029191 0.000000 0.050413
#
#
# Mechanical properties :
#
#
# Convention : Reuss Voigt Hill
#
# Bulk Modulus (GPa) = 45.13936 51.36439 48.25188
# Shear Modulus (GPa) = 20.08713 27.80292 23.94502
#
# Velocity S-wave (km/s) = 3.17955 3.74069 3.47147
# Velocity P-wave (km/s) = 6.01641 6.67142 6.35236
#
# Compressibility (1/GPa) = 0.02215361
#
# Stress axis : x y z
#
# Youngs Moduli (GPa) = 79.49110 100.08825 47.44846
#
# Poissons Ratio (x) = 0.32183 0.23773
# Poissons Ratio (y) = 0.25560 0.11961
# Poissons Ratio (z) = 0.39827 0.25230
#
# Static dielectric constant tensor:
#      x y z
#    x 3.761490 0.000000 -0.232030 
#    y 0.000000 4.060230 0.000000 
#    z -0.232030 0.000000 3.652340 
# 
# 
# High freq. dielectric constant tensor:
#      x y z
#    x 1.779970 0.000000 -0.008880 
#    y 0.000000 1.770380 0.000000 
#    z -0.008880 0.000000 1.762660 
# 
# From -- ./inp_files/209411.got.cif
#   From: 2010.06.25/outbox.cif.g09.slc.cpg/sg12_105_cif.got.tgz:209411.got - 2010.06.28 00:19:55.
