data_PCOD8110358
_publ_section_title
;
Structure prediction by ZEFSAII (Michael W. Deem and Ramdas Pophale) SiO2 
 PCOD8110358
Probable space group: C 2/M
;
_chemical_formula_sum "Si O2"
_cell_formula_units_Z 60
_cell_length_a 21.923756
_cell_length_b 24.227657
_cell_length_c 11.722563
_cell_angle_alpha 90.000000
_cell_angle_beta 152.091860
_cell_angle_gamma 90.000000
_cell_volume 2914.380017
_symmetry_space_group_name_H-M "C 2/M"
_symmetry_group_IT_number 12
_symmetry_cell_setting 'monoclinic'
loop_
_space_group_symop_operation_xyz
x,y,z
-x,y,-z
-x,-y,-z
x,-y,z
1/2+x,1/2+y,z
1/2-x,1/2+y,-z
1/2-x,1/2-y,-z
1/2+x,1/2-y,z
loop_
_atom_site_type_symbol
_atom_site_label
_atom_site_fract_x
_atom_site_fract_y
_atom_site_fract_z
Si Si1 0.711907 0.656837 0.997147
Si Si2 0.867624 0.062359 0.978989
Si Si3 0.000000 0.688432 0.500000
Si Si4 0.007959 0.666125 0.878425
Si Si5 0.171518 0.565122 0.452396
Si Si6 0.841018 0.062274 0.518156
Si Si7 0.996659 0.236110 0.709787
Si Si8 0.702610 0.654274 0.716817
O O1 0.641585 0.707274 0.950472
O O2 0.668667 0.662035 0.793590
O O3 0.660907 0.598874 0.958085
O O4 0.867497 0.653349 0.270317
O O5 0.778479 0.077948 0.724663
O O6 0.841177 0.000000 0.973831
O O7 0.017635 0.071404 0.190784
O O8 0.013054 0.724601 0.412074
O O9 0.954023 0.726001 0.747880
O O10 0.943209 0.610130 0.719185
O O11 0.150392 0.670878 0.061586
O O12 0.000000 0.663545 0.000000
O O13 0.125825 0.500000 0.381785
O O14 0.232988 0.579999 0.431779
O O15 0.820314 0.092271 0.363590
O O16 0.819268 0.000000 0.447331
O O17 0.889015 0.189243 0.518457
#
# Coordination Sequence:
#
# PCOD8110358 Si02
#       8
#     8   8   4   8   8   8   8   8
#     4  12  24  42  69  93 130 175 217 270 326 394
#     4  10  22  41  67 101 132 169 218 270 327 388
#     4  12  22  40  65  90 121 172 220 254 314 396
#     4  12  26  44  66  98 135 167 216 277 323 384
#     4  10  22  44  70  96 133 176 215 263 328 394
#     4  10  21  41  70  98 130 172 219 269 326 389
#     4  12  24  44  66  93 128 175 219 266 321 385
#     4  12  24  43  65  98 131 170 221 269 325 390
#
# _framework density 20.587569999999999
#
# number of rings (size 3 to 8) (size 9 to 14) (size 15 to 20)
#    0.000    0.800    5.333    2.400    0.000    3.467 
#    2.400    1.667    0.000    0.000    0.000    0.000 
#    0.000    0.000    0.000    0.000    0.000    0.000 
#
# Total GULP energy -371850.933977 kJ/mol
# GULP energy per Si atom -12395.031133 kJ/mol
# Density = 2.054071 g / cm^3
# Si number density = 20.587570 Si / 1000 Ang^3
#
#
#
# Elastic Constant Matrix: (Units=GPa)
#
#
# Indices 1 2 3 4 5 6 
#
# 1 60.3493 45.2305 19.6712 0.0000 -2.5983 0.0000
# 2 45.2305 115.6881 39.5130 0.0000 5.1199 0.0000
# 3 19.6712 39.5130 85.4914 0.0000 9.0171 0.0000
# 4 0.0000 0.0000 0.0000 28.5846 0.0000 -13.2083
# 5 -2.5983 5.1199 9.0171 0.0000 41.1383 0.0000
# 6 0.0000 0.0000 0.0000 -13.2083 0.0000 32.8427
#
#
#
# Elastic Compliance Matrix: (Units=1/GPa)
#
#
# Indices 1 2 3 4 5 6 
#
# 1 0.023930 -0.008906 -0.001706 0.000000 0.002994 0.000000
# 2 -0.008906 0.013581 -0.004085 0.000000 -0.001357 0.000000
# 3 -0.001706 -0.004085 0.014265 0.000000 -0.002726 0.000000
# 4 0.000000 0.000000 0.000000 0.042969 0.000000 0.017281
# 5 0.002994 -0.001357 -0.002726 0.000000 0.025264 0.000000
# 6 0.000000 0.000000 0.000000 0.017281 0.000000 0.037398
#
#
# Mechanical properties :
#
#
# Convention : Reuss Voigt Hill
#
# Bulk Modulus (GPa) = 44.67578 52.26202 48.46890
# Shear Modulus (GPa) = 25.73876 30.98740 28.36308
#
# Velocity S-wave (km/s) = 3.53966 3.88384 3.71574
# Velocity P-wave (km/s) = 6.20106 6.74927 6.48096
#
# Compressibility (1/GPa) = 0.02238349
#
# Stress axis : x y z
#
# Youngs Moduli (GPa) = 41.78905 73.63265 70.10178
#
# Poissons Ratio (x) = 0.65575 0.11958
# Poissons Ratio (y) = 0.37216 0.28634
# Poissons Ratio (z) = 0.07128 0.30076
#
# Static dielectric constant tensor:
#      x y z
#    x 3.785350 0.000000 0.191490 
#    y 0.000000 3.694750 0.000000 
#    z 0.191490 0.000000 4.001670 
# 
# 
# High freq. dielectric constant tensor:
#      x y z
#    x 1.794620 0.000000 0.001970 
#    y 0.000000 1.813370 0.000000 
#    z 0.001970 0.000000 1.816310 
# 
# From -- ./inp_files/170397.got.cif
#   From: 2010.06.25/outbox.cif.g09.slc.cpg/sg12_86_cif.got.tgz:170397.got - 2010.06.28 00:19:55.
