data_PCOD8110962
_publ_section_title
;
Structure prediction by ZEFSAII (Michael W. Deem and Ramdas Pophale) SiO2 
 PCOD8110962
Probable space group: C 2/M
;
_chemical_formula_sum "Si O2"
_cell_formula_units_Z 52
_cell_length_a 12.013709
_cell_length_b 19.529277
_cell_length_c 14.287012
_cell_angle_alpha 90.000000
_cell_angle_beta 50.266963
_cell_angle_gamma 90.000000
_cell_volume 2577.796279
_symmetry_space_group_name_H-M "C 2/M"
_symmetry_group_IT_number 12
_symmetry_cell_setting 'monoclinic'
loop_
_space_group_symop_operation_xyz
x,y,z
-x,y,-z
-x,-y,-z
x,-y,z
1/2+x,1/2+y,z
1/2-x,1/2+y,-z
1/2-x,1/2-y,-z
1/2+x,1/2-y,z
loop_
_atom_site_type_symbol
_atom_site_label
_atom_site_fract_x
_atom_site_fract_y
_atom_site_fract_z
Si Si1 0.949642 0.616521 0.174525
Si Si2 0.295659 0.924703 0.084662
Si Si3 0.734604 0.000000 0.222014
Si Si4 0.136994 0.734340 0.145459
Si Si5 0.590093 0.000000 0.661758
Si Si6 0.342192 0.500000 0.377500
Si Si7 0.148349 0.859140 0.869727
Si Si8 0.499692 0.372417 0.237135
O O1 0.833114 0.625496 0.152483
O O2 0.887735 0.569376 0.290609
O O3 0.999817 0.691077 0.181672
O O4 0.088689 0.577268 0.059674
O O5 0.143900 0.907350 0.116487
O O6 0.292820 0.000000 0.130562
O O7 0.561770 0.000000 0.310710
O O8 0.786119 0.000000 0.301505
O O9 0.798040 0.934958 0.132186
O O10 0.224711 0.693906 0.176993
O O11 0.063787 0.799415 0.238076
O O12 0.250000 0.750000 0.000000
O O13 0.712175 0.000000 0.518322
O O14 0.434990 0.429002 0.344822
O O15 0.121666 0.855840 0.773554
O O16 0.000000 0.838674 0.000000
#
# Coordination Sequence:
#
# PCOD8110962 Si02
#       8
#     8   8   4   8   4   4   8   8
#     4  11  22  35  60  97 124 162 201 256 304 385
#     4  11  20  37  61  93 132 158 200 250 328 369
#     4  10  22  38  63  91 125 163 211 262 305 355
#     4  12  23  36  58  94 131 165 195 246 315 390
#     4  12  21  42  66  91 120 161 229 256 306 355
#     4  10  25  45  63  87 117 171 217 274 301 351
#     4  11  21  35  59  97 128 162 196 245 312 382
#     4  11  24  39  60  88 129 163 203 251 317 369
#
# _framework density 20.172270000000001
#
# number of rings (size 3 to 8) (size 9 to 14) (size 15 to 20)
#    0.000    0.923    6.923    0.923    2.154    0.000 
#    0.000    2.308    0.000    0.000    4.000    0.000 
#    0.000    0.000    0.000    0.000    0.000    0.000 
#
# Total GULP energy -322163.530355 kJ/mol
# GULP energy per Si atom -12390.905014 kJ/mol
# Density = 2.012636 g / cm^3
# Si number density = 20.172270 Si / 1000 Ang^3
#
#
#
# Elastic Constant Matrix: (Units=GPa)
#
#
# Indices 1 2 3 4 5 6 
#
# 1 81.0623 35.1080 19.0362 0.0000 -12.3036 -0.0001
# 2 35.1080 134.1829 34.6467 0.0001 -13.5677 0.0000
# 3 19.0362 34.6467 49.5436 0.0003 -3.2319 -0.0002
# 4 0.0000 0.0001 0.0003 14.4177 -0.0001 -10.7144
# 5 -12.3036 -13.5677 -3.2319 -0.0001 16.3090 0.0001
# 6 -0.0001 0.0000 -0.0002 -10.7144 0.0001 30.7658
#
#
#
# Elastic Compliance Matrix: (Units=1/GPa)
#
#
# Indices 1 2 3 4 5 6 
#
# 1 0.015572 -0.002141 -0.003886 0.000000 0.009196 0.000000
# 2 -0.002141 0.010097 -0.005872 0.000000 0.005621 0.000000
# 3 -0.003886 -0.005872 0.025605 0.000000 -0.002743 0.000000
# 4 0.000000 0.000000 0.000000 0.093578 0.000001 0.032589
# 5 0.009196 0.005621 -0.002743 0.000001 0.072386 0.000000
# 6 0.000000 0.000000 0.000000 0.032589 0.000000 0.043853
#
#
# Mechanical properties :
#
#
# Convention : Reuss Voigt Hill
#
# Bulk Modulus (GPa) = 36.39535 49.15230 42.77383
# Shear Modulus (GPa) = 17.00407 24.03168 20.51787
#
# Velocity S-wave (km/s) = 2.90650 3.45530 3.19271
# Velocity P-wave (km/s) = 5.41711 6.35122 5.90267
#
# Compressibility (1/GPa) = 0.02747604
#
# Stress axis : x y z
#
# Youngs Moduli (GPa) = 64.21854 99.03717 39.05525
#
# Poissons Ratio (x) = 0.21204 0.15177
# Poissons Ratio (y) = 0.13749 0.22933
# Poissons Ratio (z) = 0.24956 0.58153
#
# Static dielectric constant tensor:
#      x y z
#    x 3.963520 0.000000 -0.162240 
#    y 0.000000 4.030150 0.000000 
#    z -0.162240 0.000000 3.098440 
# 
# 
# High freq. dielectric constant tensor:
#      x y z
#    x 1.804120 0.000000 -0.014250 
#    y 0.000000 1.804440 0.000000 
#    z -0.014250 0.000000 1.721310 
# 
# From -- ./inp_files/207624.got.cif
#   From: 2010.06.25/outbox.cif.g09.slc.cpg/sg12_104_cif.got.tgz:207624.got - 2010.06.28 00:19:55.
