data_PCOD8110388
_publ_section_title
;
Structure prediction by ZEFSAII (Michael W. Deem and Ramdas Pophale) SiO2 
 PCOD8110388
Probable space group: C 2/M
;
_chemical_formula_sum "Si O2"
_cell_formula_units_Z 64
_cell_length_a 13.800809
_cell_length_b 17.791598
_cell_length_c 22.683393
_cell_angle_alpha 90.000000
_cell_angle_beta 32.777264
_cell_angle_gamma 90.000000
_cell_volume 3015.264455
_symmetry_space_group_name_H-M "C 2/M"
_symmetry_group_IT_number 12
_symmetry_cell_setting 'monoclinic'
loop_
_space_group_symop_operation_xyz
x,y,z
-x,y,-z
-x,-y,-z
x,-y,z
1/2+x,1/2+y,z
1/2-x,1/2+y,-z
1/2-x,1/2-y,-z
1/2+x,1/2-y,z
loop_
_atom_site_type_symbol
_atom_site_label
_atom_site_fract_x
_atom_site_fract_y
_atom_site_fract_z
Si Si1 0.630902 0.085231 0.256040
Si Si2 0.137637 0.723698 0.883156
Si Si3 0.608917 0.084257 0.827661
Si Si4 0.772675 0.413416 0.922811
Si Si5 0.702261 0.189315 0.573038
Si Si6 0.476422 0.687088 0.275662
Si Si7 0.941182 0.850889 0.160423
Si Si8 0.983267 0.087016 0.385782
O O1 0.722379 0.112184 0.147773
O O2 0.470463 0.139900 0.356856
O O3 0.790335 0.087260 0.222437
O O4 0.558197 0.000000 0.287620
O O5 0.073432 0.639418 0.900343
O O6 0.331398 0.724595 0.813014
O O7 0.135428 0.771797 0.824225
O O8 0.000000 0.758942 0.000000
O O9 0.472803 0.100738 0.844347
O O10 0.810553 0.096260 0.700640
O O11 0.583912 0.000000 0.865054
O O12 0.715631 0.500000 0.957325
O O13 0.631905 0.366180 0.032591
O O14 0.750000 0.250000 0.500000
O O15 0.662251 0.242060 0.650384
O O16 0.867865 0.131281 0.494681
O O17 0.465279 0.648963 0.217971
O O18 0.442834 0.622965 0.342141
O O19 0.925602 0.000000 0.413338
#
# Coordination Sequence:
#
# PCOD8110388 Si02
#       8
#     8   8   8   8   8   8   8   8
#     4  11  23  41  65  94 130 171 214 261 314 378
#     4  11  22  36  59  89 124 166 211 251 309 378
#     4   9  20  38  60  88 122 157 207 264 315 369
#     4  10  22  40  62  93 131 170 210 254 307 378
#     4  10  21  42  65  88 126 163 210 264 321 373
#     4  10  23  40  60  95 128 163 208 258 316 376
#     4  12  24  38  64  92 132 170 205 255 313 380
#     4   9  19  40  68  92 120 161 208 266 320 371
#
# _framework density 21.225335000000001
#
# number of rings (size 3 to 8) (size 9 to 14) (size 15 to 20)
#    0.000    1.750    1.250    2.625    1.750    3.250 
#    0.000    6.875    0.000    6.750    0.000    0.000 
#    0.000    0.000    0.000    0.000    0.000    0.000 
#
# Total GULP energy -396719.296147 kJ/mol
# GULP energy per Si atom -12397.478005 kJ/mol
# Density = 2.117703 g / cm^3
# Si number density = 21.225335 Si / 1000 Ang^3
#
#
#
# Elastic Constant Matrix: (Units=GPa)
#
#
# Indices 1 2 3 4 5 6 
#
# 1 103.9862 28.7687 42.5505 -0.0219 -2.3711 -0.0024
# 2 28.7687 96.9921 53.1417 -0.0430 -2.5290 0.0049
# 3 42.5505 53.1417 108.6602 -0.0802 -5.5589 0.0117
# 4 -0.0219 -0.0430 -0.0802 43.1008 0.0307 -3.6428
# 5 -2.3711 -2.5290 -5.5589 0.0307 24.5765 -0.0002
# 6 -0.0024 0.0049 0.0117 -3.6428 -0.0002 29.5259
#
#
#
# Elastic Compliance Matrix: (Units=1/GPa)
#
#
# Indices 1 2 3 4 5 6 
#
# 1 0.011570 -0.001297 -0.003891 -0.000003 0.000103 0.000002
# 2 -0.001297 0.014230 -0.006457 0.000002 -0.000121 0.000000
# 3 -0.003891 -0.006457 0.013994 0.000016 0.002125 -0.000003
# 4 -0.000003 0.000002 0.000016 0.023446 -0.000026 0.002893
# 5 0.000103 -0.000121 0.002125 -0.000026 0.041167 -0.000004
# 6 0.000002 0.000000 -0.000003 0.002893 -0.000004 0.034225
#
#
# Mechanical properties :
#
#
# Convention : Reuss Voigt Hill
#
# Bulk Modulus (GPa) = 60.59924 62.06227 61.33075
# Shear Modulus (GPa) = 29.86421 31.78581 30.82501
#
# Velocity S-wave (km/s) = 3.75508 3.87401 3.81501
# Velocity P-wave (km/s) = 6.88573 7.02237 6.95439
#
# Compressibility (1/GPa) = 0.01650186
#
# Stress axis : x y z
#
# Youngs Moduli (GPa) = 86.42965 70.27530 71.46135
#
# Poissons Ratio (x) = 0.09116 0.27806
# Poissons Ratio (y) = 0.11212 0.46146
# Poissons Ratio (z) = 0.33631 0.45380
#
# Static dielectric constant tensor:
#      x y z
#    x 3.558370 0.000000 -0.141750 
#    y 0.000000 4.099730 0.000050 
#    z -0.141750 0.000050 3.951630 
# 
# 
# High freq. dielectric constant tensor:
#      x y z
#    x 1.807510 0.000000 -0.014320 
#    y 0.000000 1.852830 0.000000 
#    z -0.014320 0.000000 1.833380 
# 
# From -- ./inp_files/340795.got.cif
#   From: 2010.06.25/outbox.cif.g09.slc.cpg/sg12_171_cif.got.tgz:340795.got - 2010.06.28 00:19:55.
