data_PCOD8110377
_publ_section_title
;
Structure prediction by ZEFSAII (Michael W. Deem and Ramdas Pophale) SiO2 
 PCOD8110377
Probable space group: C 2/M
;
_chemical_formula_sum "Si O2"
_cell_formula_units_Z 36
_cell_length_a 9.468418
_cell_length_b 26.114948
_cell_length_c 8.272761
_cell_angle_alpha 90.000000
_cell_angle_beta 133.961757
_cell_angle_gamma 90.000000
_cell_volume 1472.417260
_symmetry_space_group_name_H-M "C 2/M"
_symmetry_group_IT_number 12
_symmetry_cell_setting 'monoclinic'
loop_
_space_group_symop_operation_xyz
x,y,z
-x,y,-z
-x,-y,-z
x,-y,z
1/2+x,1/2+y,z
1/2-x,1/2+y,-z
1/2-x,1/2-y,-z
1/2+x,1/2-y,z
loop_
_atom_site_type_symbol
_atom_site_label
_atom_site_fract_x
_atom_site_fract_y
_atom_site_fract_z
Si Si1 0.000000 0.096196 0.000000
Si Si2 0.835497 0.734669 0.250091
Si Si3 0.555067 0.156470 0.224871
Si Si4 0.570678 0.314111 0.285998
Si Si5 0.415785 0.057676 0.260296
O O1 0.961154 0.130196 0.810517
O O2 0.819004 0.061289 0.909736
O O3 0.645185 0.725404 0.207328
O O4 0.000000 0.755998 0.500000
O O5 0.905647 0.680467 0.234647
O O6 0.855599 0.784559 0.142576
O O7 0.776724 0.176873 0.443213
O O8 0.520204 0.095393 0.214189
O O9 0.500000 0.173764 0.000000
O O10 0.500000 0.072514 0.500000
O O11 0.470664 0.000000 0.251195
#
# Coordination Sequence:
#
# PCOD8110377 Si02
#       5
#     4   8   8   8   8
#     4  12  23  42  74  98 132 170 235 276 334 412
#     4  10  21  42  62  94 137 186 229 272 331 407
#     4  11  22  42  67  95 136 178 221 280 343 402
#     4  11  24  42  67  97 141 183 233 274 337 410
#     4  11  23  45  73  99 131 173 227 287 346 407
#
# _framework density 24.449591000000002
#
# number of rings (size 3 to 8) (size 9 to 14) (size 15 to 20)
#    0.000    1.111    4.444    3.667    1.556    4.889 
#    0.000    3.333    0.000    1.333    0.000    0.000 
#    0.000    0.000    0.000    0.000    0.000    0.000 
#
# Total GULP energy -223026.732115 kJ/mol
# GULP energy per Si atom -12390.374006 kJ/mol
# Density = 2.439394 g / cm^3
# Si number density = 24.449591 Si / 1000 Ang^3
#
#
#
# Elastic Constant Matrix: (Units=GPa)
#
#
# Indices 1 2 3 4 5 6 
#
# 1 78.9422 28.7679 29.5675 0.0000 5.5808 0.0000
# 2 28.7679 105.1646 28.1017 0.0000 -2.8125 0.0000
# 3 29.5675 28.1017 114.2423 0.0000 9.6806 0.0000
# 4 0.0000 0.0000 0.0000 29.7600 0.0000 4.6867
# 5 5.5808 -2.8125 9.6806 0.0000 34.5288 0.0000
# 6 0.0000 0.0000 0.0000 4.6867 0.0000 52.4502
#
#
#
# Elastic Compliance Matrix: (Units=1/GPa)
#
#
# Indices 1 2 3 4 5 6 
#
# 1 0.015139 -0.003413 -0.002917 0.000000 -0.001907 0.000000
# 2 -0.003413 0.011031 -0.002001 0.000000 0.002011 0.000000
# 3 -0.002917 -0.002001 0.010217 0.000000 -0.002556 0.000000
# 4 0.000000 0.000000 0.000000 0.034082 0.000000 -0.003045
# 5 -0.001907 0.002011 -0.002556 0.000000 0.030150 0.000000
# 6 0.000000 0.000000 0.000000 -0.003045 0.000000 0.019338
#
#
# Mechanical properties :
#
#
# Convention : Reuss Voigt Hill
#
# Bulk Modulus (GPa) = 50.69498 52.35814 51.52656
# Shear Modulus (GPa) = 34.91827 37.47527 36.19677
#
# Velocity S-wave (km/s) = 3.78322 3.91929 3.85186
# Velocity P-wave (km/s) = 6.31373 6.47629 6.39553
#
# Compressibility (1/GPa) = 0.01972582
#
# Stress axis : x y z
#
# Youngs Moduli (GPa) = 66.05671 90.65518 97.87636
#
# Poissons Ratio (x) = 0.30938 0.28551
# Poissons Ratio (y) = 0.22543 0.19581
# Poissons Ratio (z) = 0.19269 0.18136
#
# Static dielectric constant tensor:
#      x y z
#    x 4.079030 0.000000 -0.000650 
#    y 0.000000 4.149960 0.000000 
#    z -0.000650 0.000000 5.490700 
# 
# 
# High freq. dielectric constant tensor:
#      x y z
#    x 1.959660 0.000000 0.006440 
#    y 0.000000 1.961740 0.000000 
#    z 0.006440 0.000000 2.010970 
# 
# From -- ./inp_files/41975.got.cif
#   From: 2010.06.25/outbox.cif.g09.slc.cpg/sg12_21_cif.got.tgz:41975.got - 2010.06.28 00:19:55.
