data_PCOD8110683
_publ_section_title
;
Structure prediction by ZEFSAII (Michael W. Deem and Ramdas Pophale) SiO2 
 PCOD8110683
Probable space group: C 2/M
;
_chemical_formula_sum "Si O2"
_cell_formula_units_Z 56
_cell_length_a 25.684083
_cell_length_b 13.642851
_cell_length_c 17.009370
_cell_angle_alpha 90.000000
_cell_angle_beta 31.098468
_cell_angle_gamma 90.000000
_cell_volume 3078.481356
_symmetry_space_group_name_H-M "C 2/M"
_symmetry_group_IT_number 12
_symmetry_cell_setting 'monoclinic'
loop_
_space_group_symop_operation_xyz
x,y,z
-x,y,-z
-x,-y,-z
x,-y,z
1/2+x,1/2+y,z
1/2-x,1/2+y,-z
1/2-x,1/2-y,-z
1/2+x,1/2-y,z
loop_
_atom_site_type_symbol
_atom_site_label
_atom_site_fract_x
_atom_site_fract_y
_atom_site_fract_z
Si Si1 0.460707 0.192852 0.430691
Si Si2 0.014501 0.758377 0.893299
Si Si3 0.127246 0.111693 0.015709
Si Si4 0.408422 0.114320 0.329636
Si Si5 0.043764 0.890062 0.640693
Si Si6 0.179491 0.113418 0.613691
Si Si7 0.356173 0.884986 0.713393
O O1 0.449338 0.140010 0.362297
O O2 0.447403 0.310562 0.439995
O O3 0.572054 0.171222 0.318909
O O4 0.376177 0.152092 0.598959
O O5 0.023113 0.666217 0.824097
O O6 0.113976 0.826253 0.761041
O O7 0.916096 0.820521 0.997035
O O8 0.000000 0.718777 0.000000
O O9 0.063328 0.125151 0.177871
O O10 0.120006 0.000000 0.995022
O O11 0.242315 0.140493 0.884593
O O12 0.293796 0.151996 0.467730
O O13 0.416798 0.000000 0.303190
O O14 0.133504 0.870469 0.586481
O O15 0.052055 0.000000 0.594650
O O16 0.174208 0.000000 0.645327
O O17 0.379662 0.000000 0.687500
#
# Coordination Sequence:
#
# PCOD8110683 Si02
#       7
#     8   8   8   8   8   8   8
#     4  11  20  36  59  79 107 140 179 226 266 317
#     4  11  22  34  53  81 112 140 175 221 266 319
#     4   9  19  37  56  79 110 140 175 222 273 316
#     4  11  22  36  55  78 106 148 185 215 260 319
#     4   9  18  35  57  82 108 140 178 218 265 321
#     4   9  19  35  55  81 109 138 178 222 264 314
#     4  10  22  37  55  83 109 137 178 228 274 307
#
# _framework density 18.190787
#
# number of rings (size 3 to 8) (size 9 to 14) (size 15 to 20)
#    0.000    2.000    2.857    3.429    2.000    2.000 
#    0.000    1.429    0.000    0.857    0.000    0.000 
#    0.000    0.000    0.000    0.000    0.000    0.000 
#
# Total GULP energy -347255.290415 kJ/mol
# GULP energy per Si atom -12401.974658 kJ/mol
# Density = 1.814938 g / cm^3
# Si number density = 18.190787 Si / 1000 Ang^3
#
#
#
# Elastic Constant Matrix: (Units=GPa)
#
#
# Indices 1 2 3 4 5 6 
#
# 1 92.3766 45.7349 49.9512 0.0000 1.7092 0.0000
# 2 45.7349 88.7958 31.2189 0.0000 4.3840 0.0000
# 3 49.9512 31.2189 58.1068 0.0000 -3.7836 0.0000
# 4 0.0000 0.0000 0.0000 23.5552 0.0000 3.1916
# 5 1.7092 4.3840 -3.7836 0.0000 30.8169 0.0000
# 6 0.0000 0.0000 0.0000 3.1916 0.0000 27.5899
#
#
#
# Elastic Compliance Matrix: (Units=1/GPa)
#
#
# Indices 1 2 3 4 5 6 
#
# 1 0.022666 -0.005726 -0.016569 0.000000 -0.002477 0.000000
# 2 -0.005726 0.015596 -0.003609 0.000000 -0.002344 0.000000
# 3 -0.016569 -0.003609 0.033755 0.000000 0.005577 0.000000
# 4 0.000000 0.000000 0.000000 0.043129 0.000000 -0.004989
# 5 -0.002477 -0.002344 0.005577 0.000000 0.033605 0.000000
# 6 0.000000 0.000000 0.000000 -0.004989 0.000000 0.036822
#
#
# Mechanical properties :
#
#
# Convention : Reuss Voigt Hill
#
# Bulk Modulus (GPa) = 49.48604 54.78768 52.13686
# Shear Modulus (GPa) = 20.48182 23.88400 22.18291
#
# Velocity S-wave (km/s) = 3.35915 3.62743 3.49586
# Velocity P-wave (km/s) = 6.50447 6.90855 6.70955
#
# Compressibility (1/GPa) = 0.02020772
#
# Stress axis : x y z
#
# Youngs Moduli (GPa) = 44.11962 64.11956 29.62497
#
# Poissons Ratio (x) = 0.36718 0.49086
# Poissons Ratio (y) = 0.25265 0.10692
# Poissons Ratio (z) = 0.73102 0.23141
#
# Static dielectric constant tensor:
#      x y z
#    x 3.262550 0.000000 -0.208570 
#    y 0.000000 3.486500 0.000000 
#    z -0.208570 0.000000 3.289780 
# 
# 
# High freq. dielectric constant tensor:
#      x y z
#    x 1.697700 0.000000 -0.014850 
#    y 0.000000 1.714330 0.000000 
#    z -0.014850 0.000000 1.689440 
# 
# From -- ./inp_files/246550.got.cif
#   From: 2010.06.25/outbox.cif.g09.slc.cpg/sg12_124_cif.got.tgz:246550.got - 2010.06.28 00:19:55.
