data_PCOD8110966
_publ_section_title
;
Structure prediction by ZEFSAII (Michael W. Deem and Ramdas Pophale) SiO2 
 PCOD8110966
Probable space group: C 2/M
;
_chemical_formula_sum "Si O2"
_cell_formula_units_Z 56
_cell_length_a 8.954672
_cell_length_b 26.500281
_cell_length_c 12.991605
_cell_angle_alpha 90.000000
_cell_angle_beta 69.660989
_cell_angle_gamma 90.000000
_cell_volume 2890.712397
_symmetry_space_group_name_H-M "C 2/M"
_symmetry_group_IT_number 12
_symmetry_cell_setting 'monoclinic'
loop_
_space_group_symop_operation_xyz
x,y,z
-x,y,-z
-x,-y,-z
x,-y,z
1/2+x,1/2+y,z
1/2-x,1/2+y,-z
1/2-x,1/2-y,-z
1/2+x,1/2-y,z
loop_
_atom_site_type_symbol
_atom_site_label
_atom_site_fract_x
_atom_site_fract_y
_atom_site_fract_z
Si Si1 0.931740 0.555077 0.408726
Si Si2 0.439332 0.441916 0.789485
Si Si3 0.337281 0.058436 0.982358
Si Si4 0.752836 0.722513 0.389959
Si Si5 0.210046 0.410301 0.227856
Si Si6 0.360369 0.385409 0.603629
Si Si7 0.573127 0.812241 0.366911
O O1 0.850048 0.500000 0.439560
O O2 0.808485 0.596279 0.399006
O O3 0.000000 0.574970 0.500000
O O4 0.078980 0.549081 0.295193
O O5 0.433474 0.500000 0.752830
O O6 0.614143 0.428696 0.787166
O O7 0.387408 0.404529 0.711827
O O8 0.314192 0.432789 0.909591
O O9 0.309284 0.094347 0.890468
O O10 0.347359 0.000000 0.945386
O O11 0.500000 0.074790 0.000000
O O12 0.750000 0.750000 0.500000
O O13 0.633023 0.675203 0.406484
O O14 0.695800 0.765798 0.326193
O O15 0.929037 0.701752 0.324110
O O16 0.168843 0.359673 0.300520
O O17 0.500000 0.408416 0.500000
O O18 0.500000 0.820543 0.500000
#
# Coordination Sequence:
#
# PCOD8110966 Si02
#       7
#     8   8   8   8   8   8   8
#     4  11  23  37  55  85 128 167 201 248 309 373
#     4  11  25  40  61  94 130 167 210 254 305 372
#     4  10  22  42  65  90 122 164 214 259 303 365
#     4  10  22  39  60  90 122 161 206 263 304 365
#     4  12  22  38  65  91 122 165 208 258 310 370
#     4  12  24  38  61  89 126 166 208 256 309 373
#     4  10  22  38  63  94 126 160 208 256 317 370
#
# _framework density 19.372388999999998
#
# number of rings (size 3 to 8) (size 9 to 14) (size 15 to 20)
#    0.000    1.143    1.429    5.571    8.000    4.571 
#    0.000    0.000    0.000    0.857    0.000    0.000 
#    0.000    0.000    0.000    0.000    0.000    0.000 
#
# Total GULP energy -347089.131534 kJ/mol
# GULP energy per Si atom -12396.040412 kJ/mol
# Density = 1.932830 g / cm^3
# Si number density = 19.372389 Si / 1000 Ang^3
#
#
#
# Elastic Constant Matrix: (Units=GPa)
#
#
# Indices 1 2 3 4 5 6 
#
# 1 118.9447 42.3841 52.7883 0.0000 -2.9157 0.0000
# 2 42.3841 122.1091 47.6110 0.0000 6.6288 0.0000
# 3 52.7883 47.6110 107.7014 0.0000 3.7634 0.0000
# 4 0.0000 0.0000 0.0000 13.1187 0.0000 13.7326
# 5 -2.9157 6.6288 3.7634 0.0000 36.2327 0.0000
# 6 0.0000 0.0000 0.0000 13.7326 0.0000 76.2212
#
#
#
# Elastic Compliance Matrix: (Units=1/GPa)
#
#
# Indices 1 2 3 4 5 6 
#
# 1 0.011290 -0.002216 -0.004617 0.000000 0.001793 0.000000
# 2 -0.002216 0.010397 -0.003450 0.000000 -0.001722 0.000000
# 3 -0.004617 -0.003450 0.013111 0.000000 -0.001102 0.000000
# 4 0.000000 0.000000 0.000000 0.093945 0.000000 -0.016926
# 5 0.001793 -0.001722 -0.001102 0.000000 0.028173 0.000000
# 6 0.000000 0.000000 0.000000 -0.016926 0.000000 0.016169
#
#
# Mechanical properties :
#
#
# Convention : Reuss Voigt Hill
#
# Bulk Modulus (GPa) = 70.25800 70.48021 70.36910
# Shear Modulus (GPa) = 25.20224 38.84596 32.02410
#
# Velocity S-wave (km/s) = 3.61076 4.48283 4.07022
# Velocity P-wave (km/s) = 7.33003 7.95331 7.64802
#
# Compressibility (1/GPa) = 0.01423326
#
# Stress axis : x y z
#
# Youngs Moduli (GPa) = 88.57618 96.17968 76.27036
#
# Poissons Ratio (x) = 0.21314 0.35210
# Poissons Ratio (y) = 0.19629 0.26313
# Poissons Ratio (z) = 0.40891 0.33181
#
# Static dielectric constant tensor:
#      x y z
#    x 2.057950 0.000000 0.112450 
#    y 0.000000 3.633850 0.000000 
#    z 0.112450 0.000000 3.378580 
# 
# 
# High freq. dielectric constant tensor:
#      x y z
#    x 1.777860 0.000000 -0.003000 
#    y 0.000000 1.755930 0.000000 
#    z -0.003000 0.000000 1.726110 
# 
# From -- ./inp_files/124210.got.cif
#   From: 2010.06.25/outbox.cif.g09.slc.cpg/sg12_63_cif.got.tgz:124210.got - 2010.06.28 00:19:55.
