data_PCOD8110668
_publ_section_title
;
Structure prediction by ZEFSAII (Michael W. Deem and Ramdas Pophale) SiO2 
 PCOD8110668
Probable space group: C 2/M
;
_chemical_formula_sum "Si O2"
_cell_formula_units_Z 56
_cell_length_a 14.948095
_cell_length_b 8.447227
_cell_length_c 24.560399
_cell_angle_alpha 90.000000
_cell_angle_beta 117.213556
_cell_angle_gamma 90.000000
_cell_volume 2757.958515
_symmetry_space_group_name_H-M "C 2/M"
_symmetry_group_IT_number 12
_symmetry_cell_setting 'monoclinic'
loop_
_space_group_symop_operation_xyz
x,y,z
-x,y,-z
-x,-y,-z
x,-y,z
1/2+x,1/2+y,z
1/2-x,1/2+y,-z
1/2-x,1/2-y,-z
1/2+x,1/2-y,z
loop_
_atom_site_type_symbol
_atom_site_label
_atom_site_fract_x
_atom_site_fract_y
_atom_site_fract_z
Si Si1 0.599183 0.173077 0.491708
Si Si2 0.432548 0.686699 0.715208
Si Si3 0.215303 0.689841 0.622769
Si Si4 0.763287 0.315256 0.063876
Si Si5 0.976993 0.815333 0.146106
Si Si6 0.027230 0.311314 0.638270
Si Si7 0.924679 0.315326 0.931047
O O1 0.500000 0.153728 0.500000
O O2 0.683674 0.257994 0.553519
O O3 0.564171 0.258671 0.425668
O O4 0.641178 0.000000 0.488073
O O5 0.427075 0.500000 0.710861
O O6 0.323414 0.759282 0.669901
O O7 0.463831 0.742457 0.783921
O O8 0.515537 0.747766 0.695890
O O9 0.214830 0.500000 0.620140
O O10 0.134915 0.747485 0.645633
O O11 0.737824 0.500000 0.057353
O O12 0.876299 0.287274 0.114811
O O13 0.688841 0.224423 0.083772
O O14 0.750000 0.250000 0.000000
O O15 0.048515 0.784273 0.114767
O O16 0.948900 0.000000 0.140973
O O17 0.022535 0.500000 0.635957
O O18 0.935742 0.500000 0.920991
O O19 0.000000 0.263849 0.000000
#
# Coordination Sequence:
#
# PCOD8110668 Si02
#       7
#     8   8   8   8   8   8   8
#     4   7  11  23  47  77 103 135 183 236 281 327
#     4  10  22  37  53  78 112 150 187 229 281 336
#     4   8  15  31  53  75 106 146 188 231 280 338
#     4  12  24  40  65  93 120 151 187 232 287 342
#     4  11  24  41  59  84 120 158 200 242 285 343
#     4   9  17  31  54  80 106 142 191 238 280 333
#     4  11  23  40  65  94 121 150 186 232 289 345
#
# _framework density 20.304874000000002
#
# number of rings (size 3 to 8) (size 9 to 14) (size 15 to 20)
#    0.000    2.286    1.429    3.857    0.000    3.429 
#    0.000    2.143    0.000    3.857    0.000    0.000 
#    0.000    0.000    0.000    0.000    0.000    0.000 
#
# Total GULP energy -347064.226701 kJ/mol
# GULP energy per Si atom -12395.150954 kJ/mol
# Density = 2.025866 g / cm^3
# Si number density = 20.304874 Si / 1000 Ang^3
#
#
#
# Elastic Constant Matrix: (Units=GPa)
#
#
# Indices 1 2 3 4 5 6 
#
# 1 86.9096 1.4384 32.4247 0.0000 -2.2618 0.0000
# 2 1.4384 27.6619 23.3298 0.0000 0.3892 0.0000
# 3 32.4247 23.3298 117.7249 0.0000 -6.0415 0.0000
# 4 0.0000 0.0000 0.0000 15.9285 0.0000 -1.2786
# 5 -2.2618 0.3892 -6.0415 0.0000 36.9716 0.0000
# 6 0.0000 0.0000 0.0000 -1.2786 0.0000 27.6771
#
#
#
# Elastic Compliance Matrix: (Units=1/GPa)
#
#
# Indices 1 2 3 4 5 6 
#
# 1 0.013004 0.002809 -0.004134 0.000000 0.000090 0.000000
# 2 0.002809 0.044142 -0.009617 0.000000 -0.001864 0.000000
# 3 -0.004134 -0.009617 0.011628 0.000000 0.001749 0.000000
# 4 0.000000 0.000000 0.000000 0.063014 0.000000 0.002911
# 5 0.000090 -0.001864 0.001749 0.000000 0.027359 0.000000
# 6 0.000000 0.000000 0.000000 0.002911 0.000000 0.036265
#
#
# Mechanical properties :
#
#
# Convention : Reuss Voigt Hill
#
# Bulk Modulus (GPa) = 21.32604 38.52023 29.92314
# Shear Modulus (GPa) = 21.46593 27.78903 24.62748
#
# Velocity S-wave (km/s) = 3.25496 3.70346 3.48643
# Velocity P-wave (km/s) = 4.96509 6.10734 5.56559
#
# Compressibility (1/GPa) = 0.04689103
#
# Stress axis : x y z
#
# Youngs Moduli (GPa) = 76.89757 22.65416 85.99569
#
# Poissons Ratio (x) = -0.06363 0.35548
# Poissons Ratio (y) = -0.21600 0.82703
# Poissons Ratio (z) = 0.31787 0.21787
#
# Static dielectric constant tensor:
#      x y z
#    x 3.740800 0.000000 0.156970 
#    y 0.000000 3.319770 0.000000 
#    z 0.156970 0.000000 4.625490 
# 
# 
# High freq. dielectric constant tensor:
#      x y z
#    x 1.793490 0.000000 -0.000280 
#    y 0.000000 1.759310 0.000000 
#    z -0.000280 0.000000 1.800030 
# 
# From -- ./inp_files/339104.got.cif
#   From: 2010.06.25/outbox.cif.g09.slc.cpg/sg12_170_cif.got.tgz:339104.got - 2010.06.28 00:19:55.
