data_PCOD8110422
_publ_section_title
;
Structure prediction by ZEFSAII (Michael W. Deem and Ramdas Pophale) SiO2 
 PCOD8110422
Probable space group: C 2/M
;
_chemical_formula_sum "Si O2"
_cell_formula_units_Z 48
_cell_length_a 18.044750
_cell_length_b 21.590025
_cell_length_c 5.712212
_cell_angle_alpha 90.000000
_cell_angle_beta 70.146530
_cell_angle_gamma 90.000000
_cell_volume 2093.132856
_symmetry_space_group_name_H-M "C 2/M"
_symmetry_group_IT_number 12
_symmetry_cell_setting 'monoclinic'
loop_
_space_group_symop_operation_xyz
x,y,z
-x,y,-z
-x,-y,-z
x,-y,z
1/2+x,1/2+y,z
1/2-x,1/2+y,-z
1/2-x,1/2-y,-z
1/2+x,1/2-y,z
loop_
_atom_site_type_symbol
_atom_site_label
_atom_site_fract_x
_atom_site_fract_y
_atom_site_fract_z
Si Si1 0.583399 0.260358 0.538838
Si Si2 0.697585 0.336069 0.123652
Si Si3 0.728874 0.428616 0.467667
Si Si4 0.835556 0.354343 0.681548
Si Si5 0.456517 0.070583 0.800379
Si Si6 0.586203 0.627940 0.869208
O O1 0.500000 0.266857 0.500000
O O2 0.659256 0.280733 0.307495
O O3 0.606991 0.187890 0.546591
O O4 0.579904 0.301173 0.777075
O O5 0.743129 0.387135 0.226451
O O6 0.762672 0.313378 0.865053
O O7 0.624346 0.370251 0.081507
O O8 0.738585 0.500000 0.393860
O O9 0.797173 0.410519 0.577165
O O10 0.639145 0.415591 0.648332
O O11 0.883228 0.383032 0.849709
O O12 0.500000 0.076833 0.500000
O O13 0.428130 0.000000 0.863249
O O14 0.500000 0.089789 0.000000
O O15 0.500000 0.598732 0.000000
#
# Coordination Sequence:
#
# PCOD8110422 Si02
#       6
#     8   8   8   8   8   8
#     4  11  22  41  67  96 132 172 217 279 340 413
#     4  10  23  41  64  94 133 172 221 276 346 402
#     4  10  24  42  65  96 134 175 226 279 337 406
#     4  11  24  41  65  99 133 175 229 275 345 412
#     4  10  23  44  68  97 139 186 238 293 345 409
#     4  10  21  42  68  95 131 172 219 276 345 411
#
# _framework density 22.932133
#
# number of rings (size 3 to 8) (size 9 to 14) (size 15 to 20)
#    0.000    1.667    1.667    1.500    2.333   11.000 
#    3.000    0.833    0.000    0.000    0.000    0.000 
#    0.000    0.000    0.000    0.000    0.000    0.000 
#
# Total GULP energy -297324.267453 kJ/mol
# GULP energy per Si atom -12388.511144 kJ/mol
# Density = 2.287994 g / cm^3
# Si number density = 22.932133 Si / 1000 Ang^3
#
#
#
# Elastic Constant Matrix: (Units=GPa)
#
#
# Indices 1 2 3 4 5 6 
#
# 1 130.8315 35.8166 29.8940 0.0000 12.8815 0.0000
# 2 35.8166 79.6470 2.1577 0.0000 -7.8661 0.0000
# 3 29.8940 2.1577 65.5401 0.0000 7.5222 0.0000
# 4 0.0000 0.0000 0.0000 2.0295 0.0000 3.7050
# 5 12.8815 -7.8661 7.5222 0.0000 31.7725 0.0000
# 6 0.0000 0.0000 0.0000 3.7050 0.0000 30.9264
#
#
#
# Elastic Compliance Matrix: (Units=1/GPa)
#
#
# Indices 1 2 3 4 5 6 
#
# 1 0.010381 -0.005002 -0.004055 0.000000 -0.004487 0.000000
# 2 -0.005002 0.015322 0.001140 0.000000 0.005551 0.000000
# 3 -0.004055 0.001140 0.017320 0.000000 -0.002174 0.000000
# 4 0.000000 0.000000 0.000000 0.630667 0.000000 -0.075555
# 5 -0.004487 0.005551 -0.002174 0.000000 0.035182 0.000000
# 6 0.000000 0.000000 0.000000 -0.075555 0.000000 0.041386
#
#
# Mechanical properties :
#
#
# Convention : Reuss Voigt Hill
#
# Bulk Modulus (GPa) = 36.78063 45.75058 41.26560
# Shear Modulus (GPa) = 6.45033 26.82238 16.63635
#
# Velocity S-wave (km/s) = 1.67896 3.42371 2.69636
# Velocity P-wave (km/s) = 4.45334 5.96849 5.26569
#
# Compressibility (1/GPa) = 0.02718823
#
# Stress axis : x y z
#
# Youngs Moduli (GPa) = 96.32945 65.26597 57.73823
#
# Poissons Ratio (x) = 0.32643 0.23415
# Poissons Ratio (y) = 0.48180 -0.06581
# Poissons Ratio (z) = 0.39065 -0.07439
#
# Static dielectric constant tensor:
#      x y z
#    x 4.974180 0.000000 -0.368310 
#    y 0.000000 3.831330 0.000000 
#    z -0.368310 0.000000 4.283400 
# 
# 
# High freq. dielectric constant tensor:
#      x y z
#    x 1.921970 0.000000 -0.006670 
#    y 0.000000 1.885620 0.000000 
#    z -0.006670 0.000000 1.902140 
# 
# From -- ./inp_files/16674.got.cif
#   From: 2010.06.25/outbox.cif.g09.slc.cpg/sg12_9_cif.got.tgz:16674.got - 2010.06.28 00:19:55.
