data_PCOD8110822
_publ_section_title
;
Structure prediction by ZEFSAII (Michael W. Deem and Ramdas Pophale) SiO2 
 PCOD8110822
Probable space group: C 2/M
;
_chemical_formula_sum "Si O2"
_cell_formula_units_Z 56
_cell_length_a 10.884729
_cell_length_b 15.671386
_cell_length_c 24.481888
_cell_angle_alpha 90.000000
_cell_angle_beta 140.129528
_cell_angle_gamma 90.000000
_cell_volume 2677.100477
_symmetry_space_group_name_H-M "C 2/M"
_symmetry_group_IT_number 12
_symmetry_cell_setting 'monoclinic'
loop_
_space_group_symop_operation_xyz
x,y,z
-x,y,-z
-x,-y,-z
x,-y,z
1/2+x,1/2+y,z
1/2-x,1/2+y,-z
1/2-x,1/2-y,-z
1/2+x,1/2-y,z
loop_
_atom_site_type_symbol
_atom_site_label
_atom_site_fract_x
_atom_site_fract_y
_atom_site_fract_z
Si Si1 0.790473 0.902604 0.352886
Si Si2 0.098214 0.659074 0.391205
Si Si3 0.416617 0.500000 0.884210
Si Si4 0.504758 0.593958 0.733030
Si Si5 0.099984 0.352572 0.183629
Si Si6 0.170010 0.848736 0.432440
Si Si7 0.349161 0.663136 0.786450
Si Si8 0.193906 0.500000 0.917678
O O1 0.712457 0.899671 0.387622
O O2 0.633841 0.859083 0.260079
O O3 0.991778 0.854814 0.413835
O O4 0.818598 0.000000 0.344155
O O5 0.189187 0.752525 0.417736
O O6 0.141770 0.624086 0.467872
O O7 0.876282 0.661848 0.301579
O O8 0.400946 0.585174 0.843190
O O9 0.250231 0.500000 0.873007
O O10 0.623197 0.500000 0.981790
O O11 0.494421 0.500000 0.755006
O O12 0.717582 0.613681 0.786524
O O13 0.359346 0.595469 0.631792
O O14 0.450792 0.658411 0.762473
O O15 0.075166 0.251901 0.160754
O O16 0.921142 0.412899 0.107119
#
# Coordination Sequence:
#
# PCOD8110822 Si02
#       8
#     8   8   4   8   8   8   8   4
#     4  11  21  38  61  92 122 165 229 279 314 378
#     4  11  23  36  58  90 127 173 220 273 323 370
#     4  11  28  47  69 105 138 159 203 268 327 393
#     4  11  22  42  61  94 131 173 220 271 310 379
#     4  11  22  41  74  95 124 174 218 259 325 388
#     4  10  22  38  57  87 127 171 227 275 315 367
#     4  12  25  43  65  96 137 175 212 261 327 394
#     4  11  24  49  77 102 128 160 210 267 322 392
#
# _framework density 20.918154999999999
#
# number of rings (size 3 to 8) (size 9 to 14) (size 15 to 20)
#    0.000    1.000    5.000    3.429    3.000    2.857 
#    0.000    2.143    0.000    0.000    0.000    0.000 
#    0.000    0.000    0.000    0.000    0.000    0.000 
#
# Total GULP energy -347141.161612 kJ/mol
# GULP energy per Si atom -12397.898629 kJ/mol
# Density = 2.087054 g / cm^3
# Si number density = 20.918155 Si / 1000 Ang^3
#
#
#
# Elastic Constant Matrix: (Units=GPa)
#
#
# Indices 1 2 3 4 5 6 
#
# 1 75.0612 20.2278 30.4244 0.0000 -3.9585 0.0000
# 2 20.2278 133.8541 36.1898 0.0000 3.3478 0.0000
# 3 30.4244 36.1898 89.2829 0.0000 0.7745 0.0000
# 4 0.0000 0.0000 0.0000 26.5914 0.0000 -0.2663
# 5 -3.9585 3.3478 0.7745 0.0000 21.1579 0.0000
# 6 0.0000 0.0000 0.0000 -0.2663 0.0000 30.3795
#
#
#
# Elastic Compliance Matrix: (Units=1/GPa)
#
#
# Indices 1 2 3 4 5 6 
#
# 1 0.015812 -0.001132 -0.004958 0.000000 0.003319 0.000000
# 2 -0.001132 0.008502 -0.003048 0.000000 -0.001446 0.000000
# 3 -0.004958 -0.003048 0.014134 0.000000 -0.000963 0.000000
# 4 0.000000 0.000000 0.000000 0.037609 0.000000 0.000330
# 5 0.003319 -0.001446 -0.000963 0.000000 0.048149 0.000000
# 6 0.000000 0.000000 0.000000 0.000330 0.000000 0.032920
#
#
# Mechanical properties :
#
#
# Convention : Reuss Voigt Hill
#
# Bulk Modulus (GPa) = 49.57416 52.43136 51.00276
# Shear Modulus (GPa) = 27.45349 29.71616 28.58483
#
# Velocity S-wave (km/s) = 3.62667 3.77316 3.70064
# Velocity P-wave (km/s) = 6.42554 6.64092 6.53411
#
# Compressibility (1/GPa) = 0.02017180
#
# Stress axis : x y z
#
# Youngs Moduli (GPa) = 63.24217 117.61786 70.75267
#
# Poissons Ratio (x) = 0.13314 0.35081
# Poissons Ratio (y) = 0.07159 0.21565
# Poissons Ratio (z) = 0.31357 0.35849
#
# Static dielectric constant tensor:
#      x y z
#    x 3.691310 0.000000 -0.023540 
#    y 0.000000 3.986960 0.000000 
#    z -0.023540 0.000000 3.725150 
# 
# 
# High freq. dielectric constant tensor:
#      x y z
#    x 1.818020 0.000000 -0.001720 
#    y 0.000000 1.830340 0.000000 
#    z -0.001720 0.000000 1.799930 
# 
# From -- ./inp_files/358262.got.cif
#   From: 2010.06.25/outbox.cif.g09.slc.cpg/sg12_180_cif.got.tgz:358262.got - 2010.06.28 00:19:55.
