data_PCOD8110313
_publ_section_title
;
Structure prediction by ZEFSAII (Michael W. Deem and Ramdas Pophale) SiO2 
 PCOD8110313
Probable space group: C 2/M
;
_chemical_formula_sum "Si O2"
_cell_formula_units_Z 64
_cell_length_a 17.607104
_cell_length_b 13.851629
_cell_length_c 14.298452
_cell_angle_alpha 90.000000
_cell_angle_beta 54.017644
_cell_angle_gamma 90.000000
_cell_volume 2821.841281
_symmetry_space_group_name_H-M "C 2/M"
_symmetry_group_IT_number 12
_symmetry_cell_setting 'monoclinic'
loop_
_space_group_symop_operation_xyz
x,y,z
-x,y,-z
-x,-y,-z
x,-y,z
1/2+x,1/2+y,z
1/2-x,1/2+y,-z
1/2-x,1/2-y,-z
1/2+x,1/2-y,z
loop_
_atom_site_type_symbol
_atom_site_label
_atom_site_fract_x
_atom_site_fract_y
_atom_site_fract_z
Si Si1 0.798345 0.309923 0.760627
Si Si2 0.018891 0.793404 0.186061
Si Si3 0.224873 0.608325 0.833429
Si Si4 0.714199 0.610050 0.003033
Si Si5 0.568345 0.891692 0.807511
Si Si6 0.672494 0.609734 0.695671
Si Si7 0.666447 0.111335 0.548311
Si Si8 0.497826 0.766513 0.602511
O O1 0.786715 0.195061 0.745193
O O2 0.737222 0.377978 0.739469
O O3 0.907169 0.337203 0.669957
O O4 0.770729 0.325731 0.888546
O O5 0.108632 0.849078 0.084320
O O6 0.014252 0.806855 0.302017
O O7 0.017648 0.681478 0.151503
O O8 0.922203 0.833535 0.214993
O O9 0.260446 0.500000 0.777467
O O10 0.227840 0.616941 0.943030
O O11 0.117522 0.621937 0.873335
O O12 0.706395 0.500000 0.974404
O O13 0.651217 0.873586 0.670162
O O14 0.526899 0.000000 0.827834
O O15 0.642950 0.500000 0.704317
O O16 0.729713 0.646174 0.561465
O O17 0.590328 0.169901 0.544527
O O18 0.655649 0.000000 0.527202
O O19 0.500000 0.712251 0.500000
#
# Coordination Sequence:
#
# PCOD8110313 Si02
#       8
#     8   8   8   8   8   8   8   8
#     4  12  23  43  67  96 129 173 225 265 329 383
#     4  11  23  41  65  93 137 173 215 270 318 395
#     4  10  21  41  68  92 126 168 218 272 321 379
#     4  11  25  44  67  96 133 176 220 271 319 384
#     4   9  19  39  66  96 125 169 219 269 329 386
#     4  11  23  40  64  96 130 174 217 267 328 391
#     4   9  20  37  61  95 132 166 214 272 327 388
#     4  11  23  39  65 100 129 170 216 269 331 390
#
# _framework density 22.680226999999999
#
# number of rings (size 3 to 8) (size 9 to 14) (size 15 to 20)
#    0.000    1.500    3.750    1.125    0.000    4.750 
#    0.000    1.875    0.000    3.375    0.000    0.000 
#    0.000    0.000    0.000    0.000    0.000    0.000 
#
# Total GULP energy -396658.076065 kJ/mol
# GULP energy per Si atom -12395.564877 kJ/mol
# Density = 2.262861 g / cm^3
# Si number density = 22.680227 Si / 1000 Ang^3
#
#
#
# Elastic Constant Matrix: (Units=GPa)
#
#
# Indices 1 2 3 4 5 6 
#
# 1 93.2410 15.4168 16.3372 0.0000 6.2994 0.0000
# 2 15.4168 95.4685 13.2169 0.0000 -3.5967 0.0000
# 3 16.3372 13.2169 66.5343 0.0000 0.8965 0.0000
# 4 0.0000 0.0000 0.0000 23.2619 0.0000 2.6983
# 5 6.2994 -3.5967 0.8965 0.0000 29.5758 0.0000
# 6 0.0000 0.0000 0.0000 2.6983 0.0000 22.6589
#
#
#
# Elastic Compliance Matrix: (Units=1/GPa)
#
#
# Indices 1 2 3 4 5 6 
#
# 1 0.011606 -0.001627 -0.002492 0.000000 -0.002594 0.000000
# 2 -0.001627 0.011055 -0.001820 0.000000 0.001746 0.000000
# 3 -0.002492 -0.001820 0.016006 0.000000 -0.000176 0.000000
# 4 0.000000 0.000000 0.000000 0.043591 0.000000 -0.005191
# 5 -0.002594 0.001746 -0.000176 0.000000 0.034582 0.000000
# 6 0.000000 0.000000 0.000000 -0.005191 0.000000 0.044751
#
#
# Mechanical properties :
#
#
# Convention : Reuss Voigt Hill
#
# Bulk Modulus (GPa) = 37.32855 38.35394 37.84125
# Shear Modulus (GPa) = 27.41274 29.11752 28.26513
#
# Velocity S-wave (km/s) = 3.48035 3.58694 3.53405
# Velocity P-wave (km/s) = 5.71357 5.83972 5.77699
#
# Compressibility (1/GPa) = 0.02678915
#
# Stress axis : x y z
#
# Youngs Moduli (GPa) = 86.16428 90.45554 62.47823
#
# Poissons Ratio (x) = 0.14717 0.15567
# Poissons Ratio (y) = 0.14019 0.11372
# Poissons Ratio (z) = 0.21469 0.16464
#
# Static dielectric constant tensor:
#      x y z
#    x 4.099090 0.000000 0.126260 
#    y 0.000000 4.180570 0.000000 
#    z 0.126260 0.000000 4.061760 
# 
# 
# High freq. dielectric constant tensor:
#      x y z
#    x 1.900080 0.000000 0.007990 
#    y 0.000000 1.888670 0.000000 
#    z 0.007990 0.000000 1.885220 
# 
# From -- ./inp_files/225661.got.cif
#   From: 2010.06.25/outbox.cif.g09.slc.cpg/sg12_113_cif.got.tgz:225661.got - 2010.06.28 00:19:55.
