data_PCOD8110718
_publ_section_title
;
Structure prediction by ZEFSAII (Michael W. Deem and Ramdas Pophale) SiO2 
 PCOD8110718
Probable space group: C 2/M
;
_chemical_formula_sum "Si O2"
_cell_formula_units_Z 64
_cell_length_a 34.919250
_cell_length_b 8.798565
_cell_length_c 15.508237
_cell_angle_alpha 90.000000
_cell_angle_beta 42.973097
_cell_angle_gamma 90.000000
_cell_volume 3247.908098
_symmetry_space_group_name_H-M "C 2/M"
_symmetry_group_IT_number 12
_symmetry_cell_setting 'monoclinic'
loop_
_space_group_symop_operation_xyz
x,y,z
-x,y,-z
-x,-y,-z
x,-y,z
1/2+x,1/2+y,z
1/2-x,1/2+y,-z
1/2-x,1/2-y,-z
1/2+x,1/2-y,z
loop_
_atom_site_type_symbol
_atom_site_label
_atom_site_fract_x
_atom_site_fract_y
_atom_site_fract_z
Si Si1 0.504932 0.319363 0.127105
Si Si2 0.788366 0.178145 0.009986
Si Si3 0.284937 0.679674 0.365534
Si Si4 0.606361 0.821077 0.235311
Si Si5 0.774902 0.677393 0.711575
Si Si6 0.911018 0.180796 0.154183
Si Si7 0.501553 0.321805 0.326015
Si Si8 0.381668 0.676804 0.602537
O O1 0.502855 0.500000 0.133973
O O2 0.447811 0.261088 0.174881
O O3 0.508416 0.255204 0.218178
O O4 0.559142 0.263566 0.983579
O O5 0.850939 0.246242 0.903125
O O6 0.791225 0.000000 0.988896
O O7 0.750000 0.250000 0.000000
O O8 0.764394 0.218148 0.143009
O O9 0.285818 0.500000 0.375156
O O10 0.250000 0.750000 0.500000
O O11 0.257674 0.728001 0.320216
O O12 0.348243 0.747104 0.263776
O O13 0.543687 0.764257 0.320033
O O14 0.624486 0.774680 0.301188
O O15 0.609892 0.000000 0.220732
O O16 0.790399 0.500000 0.684874
O O17 0.831747 0.775224 0.620964
O O18 0.909139 0.000000 0.156373
O O19 0.514976 0.500000 0.308471
O O20 0.439249 0.284963 0.459819
O O21 0.377407 0.500000 0.633419
#
# Coordination Sequence:
#
# PCOD8110718 Si02
#       8
#     8   8   8   8   8   8   8   8
#     4   8  15  30  55  85 110 141 185 242 295 342
#     4  11  22  39  64  91 120 156 201 252 300 356
#     4  10  22  38  59  88 121 158 196 240 293 354
#     4  12  25  40  59  85 120 161 197 240 298 360
#     4  10  23  40  60  88 121 161 202 243 304 366
#     4   8  15  30  55  83 112 144 187 234 286 344
#     4  10  22  37  59  88 115 148 199 252 298 347
#     4  11  23  39  61  87 117 155 199 251 299 351
#
# _framework density 19.704991
#
# number of rings (size 3 to 8) (size 9 to 14) (size 15 to 20)
#    0.000    2.000    1.250    3.000    3.500    3.500 
#    0.000    0.000    0.000    0.000    0.000    1.750 
#    0.000    0.000    0.000    0.000    0.000    0.000 
#
# Total GULP energy -396880.481653 kJ/mol
# GULP energy per Si atom -12402.515052 kJ/mol
# Density = 1.966014 g / cm^3
# Si number density = 19.704991 Si / 1000 Ang^3
#
#
#
# Elastic Constant Matrix: (Units=GPa)
#
#
# Indices 1 2 3 4 5 6 
#
# 1 129.1142 32.4777 71.9902 0.0002 -9.5629 0.0000
# 2 32.4777 59.3932 42.7604 -0.0028 -6.7539 0.0004
# 3 71.9902 42.7604 138.7052 -0.0002 -11.8031 0.0002
# 4 0.0002 -0.0028 -0.0002 26.5426 0.0001 -3.4513
# 5 -9.5629 -6.7539 -11.8031 0.0001 40.4032 0.0001
# 6 0.0000 0.0004 0.0002 -3.4513 0.0001 25.1376
#
#
#
# Elastic Compliance Matrix: (Units=1/GPa)
#
#
# Indices 1 2 3 4 5 6 
#
# 1 0.011202 -0.002440 -0.004995 0.000000 0.000784 0.000000
# 2 -0.002440 0.022287 -0.005472 0.000002 0.001549 0.000000
# 3 -0.004995 -0.005472 0.011599 0.000000 0.001291 0.000000
# 4 0.000000 0.000002 0.000000 0.038360 0.000000 0.005267
# 5 0.000784 0.001549 0.001291 0.000000 0.025572 0.000000
# 6 0.000000 0.000000 0.000000 0.005267 0.000000 0.040504
#
#
# Mechanical properties :
#
#
# Convention : Reuss Voigt Hill
#
# Bulk Modulus (GPa) = 51.88589 69.07435 60.48012
# Shear Modulus (GPa) = 27.50805 30.41564 28.96185
#
# Velocity S-wave (km/s) = 3.74035 3.93307 3.83792
# Velocity P-wave (km/s) = 6.71135 7.46697 7.09922
#
# Compressibility (1/GPa) = 0.01927306
#
# Stress axis : x y z
#
# Youngs Moduli (GPa) = 89.26931 44.86835 86.21424
#
# Poissons Ratio (x) = 0.10949 0.43064
# Poissons Ratio (y) = 0.21783 0.47181
# Poissons Ratio (z) = 0.44590 0.24554
#
# Static dielectric constant tensor:
#      x y z
#    x 3.756390 0.000000 0.019090 
#    y 0.000000 3.273480 0.000000 
#    z 0.019090 0.000000 3.880170 
# 
# 
# High freq. dielectric constant tensor:
#      x y z
#    x 1.777170 0.000000 -0.004600 
#    y 0.000000 1.736200 0.000000 
#    z -0.004600 0.000000 1.781520 
# 
# From -- ./inp_files/249889.got.cif
#   From: 2010.06.25/outbox.cif.g09.slc.cpg/sg12_125_cif.got.tgz:249889.got - 2010.06.28 00:19:55.
