data_PCOD8110866
_publ_section_title
;
Structure prediction by ZEFSAII (Michael W. Deem and Ramdas Pophale) SiO2 
 PCOD8110866
Probable space group: C 2/M
;
_chemical_formula_sum "Si O2"
_cell_formula_units_Z 64
_cell_length_a 12.901642
_cell_length_b 24.961359
_cell_length_c 9.558704
_cell_angle_alpha 90.000000
_cell_angle_beta 93.962583
_cell_angle_gamma 90.000000
_cell_volume 3070.950071
_symmetry_space_group_name_H-M "C 2/M"
_symmetry_group_IT_number 12
_symmetry_cell_setting 'monoclinic'
loop_
_space_group_symop_operation_xyz
x,y,z
-x,y,-z
-x,-y,-z
x,-y,z
1/2+x,1/2+y,z
1/2-x,1/2+y,-z
1/2-x,1/2-y,-z
1/2+x,1/2-y,z
loop_
_atom_site_type_symbol
_atom_site_label
_atom_site_fract_x
_atom_site_fract_y
_atom_site_fract_z
Si Si1 0.345956 0.729818 0.187079
Si Si2 0.121020 0.060940 0.984873
Si Si3 0.629672 0.824839 0.620445
Si Si4 0.388358 0.258704 0.886046
Si Si5 0.335906 0.367220 0.773649
Si Si6 0.884769 0.059215 0.538643
Si Si7 0.709453 0.612829 0.731088
Si Si8 0.415247 0.162414 0.693924
O O1 0.385961 0.765322 0.319355
O O2 0.235177 0.750732 0.127402
O O3 0.344708 0.669226 0.239899
O O4 0.422015 0.736572 0.055957
O O5 0.161304 0.068736 0.830456
O O6 0.144200 0.000000 0.030852
O O7 0.188009 0.102860 0.082397
O O8 0.000000 0.074164 0.000000
O O9 0.727781 0.854866 0.690094
O O10 0.639703 0.816693 0.454365
O O11 0.528369 0.860046 0.659074
O O12 0.407689 0.314896 0.806781
O O13 0.438663 0.209722 0.806912
O O14 0.397519 0.409306 0.684914
O O15 0.814790 0.093797 0.427363
O O16 0.000000 0.051217 0.500000
O O17 0.834569 0.000000 0.556069
O O18 0.835968 0.618916 0.754226
#
# Coordination Sequence:
#
# PCOD8110866 Si02
#       8
#     8   8   8   8   8   8   8   8
#     4   9  19  35  56  85 118 153 194 236 281 343
#     4  11  24  42  64  89 117 151 196 250 306 357
#     4  10  22  38  59  89 124 161 198 237 286 348
#     4   9  19  35  56  85 118 153 194 236 281 343
#     4  11  21  40  63  86 121 158 192 243 299 352
#     4  11  24  40  60  87 113 147 200 252 302 355
#     4  11  21  40  63  86 121 158 192 243 299 352
#     4  10  22  38  59  89 124 161 198 237 286 348
#
# _framework density 20.840457000000001
#
# number of rings (size 3 to 8) (size 9 to 14) (size 15 to 20)
#    0.000    1.750    2.500    1.500    3.500    6.000 
#    0.000    0.000    0.000    4.500    0.000    0.000 
#    0.000    0.000    0.000    0.000    0.000    0.000 
#
# Total GULP energy -396694.751145 kJ/mol
# GULP energy per Si atom -12396.710973 kJ/mol
# Density = 2.079302 g / cm^3
# Si number density = 20.840457 Si / 1000 Ang^3
#
#
#
# Elastic Constant Matrix: (Units=GPa)
#
#
# Indices 1 2 3 4 5 6 
#
# 1 45.5423 10.6538 10.4471 0.0000 -8.5759 0.0000
# 2 10.6538 96.9610 29.3303 0.0000 2.4301 0.0000
# 3 10.4471 29.3303 97.2608 0.0000 1.7451 0.0000
# 4 0.0000 0.0000 0.0000 13.3871 0.0000 -3.9140
# 5 -8.5759 2.4301 1.7451 0.0000 35.3048 0.0000
# 6 0.0000 0.0000 0.0000 -3.9140 0.0000 17.1680
#
#
#
# Elastic Compliance Matrix: (Units=1/GPa)
#
#
# Indices 1 2 3 4 5 6 
#
# 1 0.024085 -0.002183 -0.002038 0.000000 0.006101 0.000000
# 2 -0.002183 0.011560 -0.003231 0.000000 -0.001166 0.000000
# 3 -0.002038 -0.003231 0.011490 0.000000 -0.000841 0.000000
# 4 0.000000 0.000000 0.000000 0.080034 0.000000 0.018246
# 5 0.006101 -0.001166 -0.000841 0.000000 0.029929 0.000000
# 6 0.000000 0.000000 0.000000 0.018246 0.000000 0.062408
#
#
# Mechanical properties :
#
#
# Convention : Reuss Voigt Hill
#
# Bulk Modulus (GPa) = 31.02588 37.84740 34.43664
# Shear Modulus (GPa) = 20.39555 25.79416 23.09486
#
# Velocity S-wave (km/s) = 3.13174 3.52191 3.33254
# Velocity P-wave (km/s) = 5.29119 5.89393 5.60067
#
# Compressibility (1/GPa) = 0.03223116
#
# Stress axis : x y z
#
# Youngs Moduli (GPa) = 41.52007 86.50721 87.03299
#
# Poissons Ratio (x) = 0.18882 0.17740
# Poissons Ratio (y) = 0.09063 0.28117
# Poissons Ratio (z) = 0.08463 0.27947
#
# Static dielectric constant tensor:
#      x y z
#    x 3.811300 0.000000 -0.023470 
#    y 0.000000 3.712870 0.000000 
#    z -0.023470 0.000000 4.028910 
# 
# 
# High freq. dielectric constant tensor:
#      x y z
#    x 1.819100 0.000000 -0.005740 
#    y 0.000000 1.793200 0.000000 
#    z -0.005740 0.000000 1.834800 
# 
# From -- ./inp_files/65884.got.cif
#   From: 2010.06.25/outbox.cif.g09.slc.cpg/sg12_33_cif.got.tgz:65884.got - 2010.06.28 00:19:55.
