data_PCOD8110341
_publ_section_title
;
Structure prediction by ZEFSAII (Michael W. Deem and Ramdas Pophale) SiO2 
 PCOD8110341
Probable space group: C 2/M
;
_chemical_formula_sum "Si O2"
_cell_formula_units_Z 40
_cell_length_a 10.520810
_cell_length_b 15.020584
_cell_length_c 12.641188
_cell_angle_alpha 90.000000
_cell_angle_beta 77.396568
_cell_angle_gamma 90.000000
_cell_volume 1949.534153
_symmetry_space_group_name_H-M "C 2/M"
_symmetry_group_IT_number 12
_symmetry_cell_setting 'monoclinic'
loop_
_space_group_symop_operation_xyz
x,y,z
-x,y,-z
-x,-y,-z
x,-y,z
1/2+x,1/2+y,z
1/2-x,1/2+y,-z
1/2-x,1/2-y,-z
1/2+x,1/2-y,z
loop_
_atom_site_type_symbol
_atom_site_label
_atom_site_fract_x
_atom_site_fract_y
_atom_site_fract_z
Si Si1 0.395210 0.733317 0.432650
Si Si2 0.823600 0.103639 0.267455
Si Si3 0.531357 0.903101 0.325260
Si Si4 0.854386 0.769673 0.071643
Si Si5 0.928461 0.405159 0.124077
O O1 0.500000 0.699108 0.500000
O O2 0.250000 0.750000 0.500000
O O3 0.407641 0.661548 0.335130
O O4 0.435359 0.830993 0.388491
O O5 0.677523 0.112064 0.337921
O O6 0.829704 0.143440 0.147375
O O7 0.869309 0.000000 0.255860
O O8 0.535300 0.899872 0.196954
O O9 0.480811 0.000000 0.372933
O O10 0.837274 0.681697 0.149500
O O11 0.750000 0.750000 0.000000
O O12 0.000000 0.778736 0.000000
O O13 0.850736 0.500000 0.146611
O O14 0.000000 0.400812 0.000000
#
# Coordination Sequence:
#
# PCOD8110341 Si02
#       5
#     8   8   8   8   8
#     4  12  25  43  70  95 128 169 224 283 338 386
#     4  11  24  43  67  98 138 175 216 271 333 393
#     4  10  21  41  69  96 125 171 221 264 323 401
#     4  11  23  38  66  96 134 175 214 256 320 392
#     4   9  17  33  60  93 124 160 209 256 303 377
#
# _framework density 20.517723
#
# number of rings (size 3 to 8) (size 9 to 14) (size 15 to 20)
#    0.000    1.400    4.000    2.400    0.000    4.400 
#    0.000    0.000    0.000    0.000    0.000    0.000 
#    0.000    0.000    0.000    0.000    0.000    0.000 
#
# Total GULP energy -247768.099334 kJ/mol
# GULP energy per Si atom -12388.404967 kJ/mol
# Density = 2.047102 g / cm^3
# Si number density = 20.517723 Si / 1000 Ang^3
#
#
#
# Elastic Constant Matrix: (Units=GPa)
#
#
# Indices 1 2 3 4 5 6 
#
# 1 113.8283 52.6596 43.8502 0.0000 13.5007 0.0000
# 2 52.6596 192.0073 51.1354 0.0000 6.6903 0.0000
# 3 43.8502 51.1354 89.1790 0.0000 15.1002 0.0000
# 4 0.0000 0.0000 0.0000 14.1741 0.0000 -7.4699
# 5 13.5007 6.6903 15.1002 0.0000 37.0243 0.0000
# 6 0.0000 0.0000 0.0000 -7.4699 0.0000 23.1869
#
#
#
# Elastic Compliance Matrix: (Units=1/GPa)
#
#
# Indices 1 2 3 4 5 6 
#
# 1 0.011571 -0.001983 -0.004188 0.000000 -0.002153 0.000000
# 2 -0.001983 0.006491 -0.002869 0.000000 0.000720 0.000000
# 3 -0.004188 -0.002869 0.015652 0.000000 -0.004338 0.000000
# 4 0.000000 0.000000 0.000000 0.084979 0.000000 0.027377
# 5 -0.002153 0.000720 -0.004338 0.000000 0.029434 0.000000
# 6 0.000000 0.000000 0.000000 0.027377 0.000000 0.051948
#
#
# Mechanical properties :
#
#
# Convention : Reuss Voigt Hill
#
# Bulk Modulus (GPa) = 63.96068 76.70058 70.33063
# Shear Modulus (GPa) = 22.38476 31.36835 26.87656
#
# Velocity S-wave (km/s) = 3.30661 3.91428 3.62321
# Velocity P-wave (km/s) = 6.76899 7.60872 7.20110
#
# Compressibility (1/GPa) = 0.01563460
#
# Stress axis : x y z
#
# Youngs Moduli (GPa) = 86.42046 154.06090 63.88885
#
# Poissons Ratio (x) = 0.30553 0.26757
# Poissons Ratio (y) = 0.17139 0.18328
# Poissons Ratio (z) = 0.36193 0.44196
#
# Static dielectric constant tensor:
#      x y z
#    x 3.710640 0.000000 0.310700 
#    y 0.000000 4.500420 0.000000 
#    z 0.310700 0.000000 3.785340 
# 
# 
# High freq. dielectric constant tensor:
#      x y z
#    x 1.781300 0.000000 0.027550 
#    y 0.000000 1.825670 0.000000 
#    z 0.027550 0.000000 1.801180 
# 
# From -- ./inp_files/129598.got.cif
#   From: 2010.06.25/outbox.cif.g09.slc.cpg/sg12_65_cif.got.tgz:129598.got - 2010.06.28 00:19:55.
