data_PCOD8110308
_publ_section_title
;
Structure prediction by ZEFSAII (Michael W. Deem and Ramdas Pophale) SiO2 
 PCOD8110308
Probable space group: C 2/M
;
_chemical_formula_sum "Si O2"
_cell_formula_units_Z 48
_cell_length_a 12.075008
_cell_length_b 15.771251
_cell_length_c 11.921674
_cell_angle_alpha 90.000000
_cell_angle_beta 82.076268
_cell_angle_gamma 90.000000
_cell_volume 2248.663355
_symmetry_space_group_name_H-M "C 2/M"
_symmetry_group_IT_number 12
_symmetry_cell_setting 'monoclinic'
loop_
_space_group_symop_operation_xyz
x,y,z
-x,y,-z
-x,-y,-z
x,-y,z
1/2+x,1/2+y,z
1/2-x,1/2+y,-z
1/2-x,1/2-y,-z
1/2+x,1/2-y,z
loop_
_atom_site_type_symbol
_atom_site_label
_atom_site_fract_x
_atom_site_fract_y
_atom_site_fract_z
Si Si1 0.447885 0.500000 0.673072
Si Si2 0.989893 0.851372 0.823274
Si Si3 0.418619 0.902087 0.917526
Si Si4 0.322950 0.831703 0.514222
Si Si5 0.315000 0.500000 0.478290
Si Si6 0.490638 0.179414 0.689599
Si Si7 0.833077 0.900058 0.034531
O O1 0.433742 0.416067 0.746287
O O2 0.341827 0.500000 0.605807
O O3 0.567998 0.500000 0.599898
O O4 0.108753 0.885678 0.852669
O O5 0.011287 0.764891 0.755373
O O6 0.899870 0.842390 0.935908
O O7 0.466069 0.892011 0.785582
O O8 0.293249 0.864636 0.943622
O O9 0.409120 0.000000 0.946997
O O10 0.500000 0.858987 0.000000
O O11 0.250000 0.750000 0.500000
O O12 0.251901 0.915964 0.546665
O O13 0.401365 0.848384 0.395967
O O14 0.388807 0.810259 0.618274
O O15 0.841436 0.000000 0.002619
#
# Coordination Sequence:
#
# PCOD8110308 Si02
#       7
#     4   8   8   8   4   8   8
#     4  11  22  41  66 107 123 160 233 268 346 395
#     4  11  21  40  67  99 134 169 213 286 336 394
#     4  10  25  44  63  95 136 174 222 274 330 408
#     4  11  26  48  65 100 135 175 232 285 338 396
#     4  11  26  41  74  93 131 182 219 286 339 396
#     4  11  27  41  68  96 134 176 230 272 329 412
#     4  10  21  41  68 100 132 170 225 275 333 410
#
# _framework density 21.346014
#
# number of rings (size 3 to 8) (size 9 to 14) (size 15 to 20)
#    0.000    1.333    1.667    2.500    9.333    6.667 
#    0.000    0.000    0.000    0.000    0.000    0.000 
#    0.000    0.000    0.000    0.000    0.000    0.000 
#
# Total GULP energy -297634.253319 kJ/mol
# GULP energy per Si atom -12401.427222 kJ/mol
# Density = 2.129743 g / cm^3
# Si number density = 21.346014 Si / 1000 Ang^3
#
#
#
# Elastic Constant Matrix: (Units=GPa)
#
#
# Indices 1 2 3 4 5 6 
#
# 1 141.1955 19.3131 46.1270 0.0000 5.0278 0.0000
# 2 19.3131 72.9045 1.4758 0.0000 0.6666 0.0000
# 3 46.1270 1.4758 103.8782 0.0000 9.6837 0.0000
# 4 0.0000 0.0000 0.0000 42.7608 0.0000 0.6006
# 5 5.0278 0.6666 9.6837 0.0000 29.0946 0.0000
# 6 0.0000 0.0000 0.0000 0.6006 0.0000 18.9025
#
#
#
# Elastic Compliance Matrix: (Units=1/GPa)
#
#
# Indices 1 2 3 4 5 6 
#
# 1 0.008626 -0.002207 -0.003782 0.000000 -0.000181 0.000000
# 2 -0.002207 0.014287 0.000797 0.000000 -0.000211 0.000000
# 3 -0.003782 0.000797 0.011595 0.000000 -0.003224 0.000000
# 4 0.000000 0.000000 0.000000 0.023396 0.000000 -0.000743
# 5 -0.000181 -0.000211 -0.003224 0.000000 0.035480 0.000000
# 6 0.000000 0.000000 0.000000 -0.000743 0.000000 0.052927
#
#
# Mechanical properties :
#
#
# Convention : Reuss Voigt Hill
#
# Bulk Modulus (GPa) = 41.45301 50.20110 45.82705
# Shear Modulus (GPa) = 30.35123 34.88907 32.62015
#
# Velocity S-wave (km/s) = 3.77486 4.04722 3.91341
# Velocity P-wave (km/s) = 6.20170 6.73861 6.47572
#
# Compressibility (1/GPa) = 0.02412370
#
# Stress axis : x y z
#
# Youngs Moduli (GPa) = 115.92418 69.99357 86.24120
#
# Poissons Ratio (x) = 0.15447 0.32619
# Poissons Ratio (y) = 0.25584 -0.06871
# Poissons Ratio (z) = 0.43845 -0.05576
#
# Static dielectric constant tensor:
#      x y z
#    x 4.164090 0.000000 0.167970 
#    y 0.000000 2.712380 0.000000 
#    z 0.167970 0.000000 4.023400 
# 
# 
# High freq. dielectric constant tensor:
#      x y z
#    x 1.847940 0.000000 0.007570 
#    y 0.000000 1.831270 0.000000 
#    z 0.007570 0.000000 1.848900 
# 
# From -- ./inp_files/131714.got.cif
#   From: 2010.06.25/outbox.cif.g09.slc.cpg/sg12_66_cif.got.tgz:131714.got - 2010.06.28 00:19:55.
