data_PCOD8110131
_publ_section_title
;
Structure prediction by ZEFSAII (Michael W. Deem and Ramdas Pophale) SiO2 
 PCOD8110131
Probable space group: C 2/M
;
_chemical_formula_sum "Si O2"
_cell_formula_units_Z 28
_cell_length_a 15.918429
_cell_length_b 22.875303
_cell_length_c 5.205170
_cell_angle_alpha 90.000000
_cell_angle_beta 133.293441
_cell_angle_gamma 90.000000
_cell_volume 1379.572783
_symmetry_space_group_name_H-M "C 2/M"
_symmetry_group_IT_number 12
_symmetry_cell_setting 'monoclinic'
loop_
_space_group_symop_operation_xyz
x,y,z
-x,y,-z
-x,-y,-z
x,-y,z
1/2+x,1/2+y,z
1/2-x,1/2+y,-z
1/2-x,1/2-y,-z
1/2+x,1/2-y,z
loop_
_atom_site_type_symbol
_atom_site_label
_atom_site_fract_x
_atom_site_fract_y
_atom_site_fract_z
Si Si1 0.879111 0.314464 0.342027
Si Si2 0.654099 0.689179 0.599186
Si Si3 0.677849 0.375387 0.138326
Si Si4 0.078456 0.000000 0.915764
O O1 0.904231 0.253023 0.540525
O O2 0.815013 0.360325 0.398888
O O3 0.000000 0.341597 0.500000
O O4 0.793769 0.301958 0.920159
O O5 0.624637 0.651486 0.286401
O O6 0.608363 0.653974 0.754611
O O7 0.662853 0.444603 0.099934
O O8 0.000000 0.000000 0.500000
O O9 0.000000 0.000000 0.000000
#
# Coordination Sequence:
#
# PCOD8110131 Si02
#       4
#     8   8   8   4
#     4   9  20  36  61  88 120 155 189 240 301 348
#     4   9  20  37  58  88 122 149 192 243 288 357
#     4  10  21  41  55  86 120 147 200 244 281 356
#     4  12  26  42  65  85 113 163 200 246 298 343
#
# _framework density 20.296139
#
# number of rings (size 3 to 8) (size 9 to 14) (size 15 to 20)
#    1.714    0.571    0.000    2.571    0.000    4.571 
#    0.000    0.714    0.000    1.714    0.000    0.000 
#    0.000    0.000    0.000    0.000    0.000    0.000 
#
# Total GULP energy -173490.075396 kJ/mol
# GULP energy per Si atom -12392.148243 kJ/mol
# Density = 2.024994 g / cm^3
# Si number density = 20.296139 Si / 1000 Ang^3
#
#
#
# Elastic Constant Matrix: (Units=GPa)
#
#
# Indices 1 2 3 4 5 6 
#
# 1 17.0966 41.4403 67.2677 0.0000 -42.0002 0.0000
# 2 41.4403 180.1243 42.3319 0.0000 -17.5867 0.0000
# 3 67.2677 42.3319 57.1558 0.0000 -22.2060 0.0000
# 4 0.0000 0.0000 0.0000 18.9957 0.0000 -3.5242
# 5 -42.0002 -17.5867 -22.2060 0.0000 40.2276 0.0000
# 6 0.0000 0.0000 0.0000 -3.5242 0.0000 30.2923
#
#
#
# Elastic Compliance Matrix: (Units=1/GPa)
#
#
# Indices 1 2 3 4 5 6 
#
# 1 -0.014169 -0.000853 0.014532 0.000000 -0.007145 0.000000
# 2 -0.000853 0.006672 -0.004011 0.000000 -0.000188 0.000000
# 3 0.014532 -0.004011 0.010919 0.000000 0.019446 0.000000
# 4 0.000000 0.000000 0.000000 0.053805 0.000000 0.006260
# 5 -0.007145 -0.000188 0.019446 0.000000 0.028051 0.000000
# 6 0.000000 0.000000 0.000000 0.006260 0.000000 0.033740
#
#
# Mechanical properties :
#
#
# Convention : Reuss Voigt Hill
#
# Bulk Modulus (GPa) = 43.94007 61.82850 52.88428
# Shear Modulus (GPa) = 46.61200 24.79223 35.70212
#
# Velocity S-wave (km/s) = 4.79748 3.49882 4.19866
# Velocity P-wave (km/s) = 7.23769 6.84483 7.04400
#
# Compressibility (1/GPa) = 0.02275827
#
# Stress axis : x y z
#
# Youngs Moduli (GPa) = -70.57673 149.87490 91.58319
#
# Poissons Ratio (x) = 0.12784 -1.33086
# Poissons Ratio (y) = -0.06020 0.36732
# Poissons Ratio (z) = 1.02560 0.60111
#
# Static dielectric constant tensor:
#      x y z
#    x 3.550530 0.000000 -0.113020 
#    y 0.000000 3.516680 0.000000 
#    z -0.113020 0.000000 3.398220 
# 
# 
# High freq. dielectric constant tensor:
#      x y z
#    x 1.793820 0.000000 -0.007950 
#    y 0.000000 1.771790 0.000000 
#    z -0.007950 0.000000 1.775700 
# 
# From -- ./inp_files/5791.got.cif
#   From: 2010.06.25/outbox.cif.g09.slc.cpg/sg12_3_cif.got.tgz:5791.got - 2010.06.28 00:19:55.
