data_PCOD8110475
_publ_section_title
;
Structure prediction by ZEFSAII (Michael W. Deem and Ramdas Pophale) SiO2 
 PCOD8110475
Probable space group: C 2/M
;
_chemical_formula_sum "Si O2"
_cell_formula_units_Z 48
_cell_length_a 17.047911
_cell_length_b 31.110827
_cell_length_c 8.645827
_cell_angle_alpha 90.000000
_cell_angle_beta 30.636027
_cell_angle_gamma 90.000000
_cell_volume 2336.704562
_symmetry_space_group_name_H-M "C 2/M"
_symmetry_group_IT_number 12
_symmetry_cell_setting 'monoclinic'
loop_
_space_group_symop_operation_xyz
x,y,z
-x,y,-z
-x,-y,-z
x,-y,z
1/2+x,1/2+y,z
1/2-x,1/2+y,-z
1/2-x,1/2-y,-z
1/2+x,1/2-y,z
loop_
_atom_site_type_symbol
_atom_site_label
_atom_site_fract_x
_atom_site_fract_y
_atom_site_fract_z
Si Si1 0.589789 0.500000 0.097736
Si Si2 0.926294 0.671218 0.967691
Si Si3 0.770669 0.000000 0.819550
Si Si4 0.144293 0.427080 0.843694
Si Si5 0.640973 0.145449 0.357928
Si Si6 0.684346 0.294776 0.168410
Si Si7 0.655876 0.583002 0.783912
O O1 0.428863 0.500000 0.458068
O O2 0.717453 0.500000 0.015896
O O3 0.609404 0.541211 0.957986
O O4 0.056133 0.679532 0.615693
O O5 0.889927 0.620819 0.040220
O O6 0.767485 0.695329 0.191961
O O7 0.000000 0.689783 0.000000
O O8 0.679538 0.043393 0.931283
O O9 0.280324 0.429569 0.490631
O O10 0.000000 0.447146 0.000000
O O11 0.500000 0.124016 0.500000
O O12 0.725581 0.110520 0.318326
O O13 0.767207 0.168479 0.036270
O O14 0.500000 0.294430 0.500000
O O15 0.750000 0.250000 0.000000
O O16 0.500000 0.608760 0.000000
#
# Coordination Sequence:
#
# PCOD8110475 Si02
#       7
#     4   8   4   8   8   8   8
#     4  11  26  38  58  86 131 170 218 278 324 376
#     4  10  21  43  68  98 131 169 213 268 321 381
#     4  11  24  41  56  91 124 170 224 273 321 384
#     4  11  22  41  65  90 127 169 215 274 327 377
#     4  10  23  42  66  94 132 164 213 265 323 384
#     4  11  25  45  71 100 135 172 208 258 322 384
#     4  12  23  41  64  89 128 172 220 268 330 380
#
# _framework density 20.54175
#
# number of rings (size 3 to 8) (size 9 to 14) (size 15 to 20)
#    0.000    1.167    5.000    2.500    7.000    0.000 
#    0.000    5.417    0.000    0.000    0.000    0.000 
#    0.000    0.000    0.000    0.000    0.000    0.000 
#
# Total GULP energy -297464.200339 kJ/mol
# GULP energy per Si atom -12394.341681 kJ/mol
# Density = 2.049500 g / cm^3
# Si number density = 20.541750 Si / 1000 Ang^3
#
#
#
# Elastic Constant Matrix: (Units=GPa)
#
#
# Indices 1 2 3 4 5 6 
#
# 1 162.3956 37.9021 45.8536 0.0000 -24.5922 0.0000
# 2 37.9021 65.5707 14.2723 0.0000 -14.6386 0.0000
# 3 45.8536 14.2723 121.5715 0.0000 -18.3872 0.0000
# 4 0.0000 0.0000 0.0000 27.2639 0.0000 -5.1319
# 5 -24.5922 -14.6386 -18.3872 0.0000 42.3373 0.0000
# 6 0.0000 0.0000 0.0000 -5.1319 0.0000 25.3492
#
#
#
# Elastic Compliance Matrix: (Units=1/GPa)
#
#
# Indices 1 2 3 4 5 6 
#
# 1 0.007993 -0.003593 -0.002225 0.000000 0.002435 0.000000
# 2 -0.003593 0.018293 -0.000162 0.000000 0.004168 0.000000
# 3 -0.002225 -0.000162 0.009504 0.000000 0.002779 0.000000
# 4 0.000000 0.000000 0.000000 0.038132 0.000000 0.007720
# 5 0.002435 0.004168 0.002779 0.000000 0.027682 0.000000
# 6 0.000000 0.000000 0.000000 0.007720 0.000000 0.041012
#
#
# Mechanical properties :
#
#
# Convention : Reuss Voigt Hill
#
# Bulk Modulus (GPa) = 41.96179 60.62155 51.29167
# Shear Modulus (GPa) = 30.76569 35.75742 33.26156
#
# Velocity S-wave (km/s) = 3.87423 4.17672 4.02832
# Velocity P-wave (km/s) = 6.36277 7.26880 6.83082
#
# Compressibility (1/GPa) = 0.02383120
#
# Stress axis : x y z
#
# Youngs Moduli (GPa) = 125.10720 54.66547 105.21712
#
# Poissons Ratio (x) = 0.19639 0.23409
# Poissons Ratio (y) = 0.44945 0.01707
# Poissons Ratio (z) = 0.27834 0.00887
#
# Static dielectric constant tensor:
#      x y z
#    x 4.226940 0.000000 -0.062490 
#    y 0.000000 3.419760 0.000000 
#    z -0.062490 0.000000 4.026790 
# 
# 
# High freq. dielectric constant tensor:
#      x y z
#    x 1.827620 0.000000 -0.004160 
#    y 0.000000 1.775620 0.000000 
#    z -0.004160 0.000000 1.814760 
# 
# From -- ./inp_files/80635.got.cif
#   From: 2010.06.25/outbox.cif.g09.slc.cpg/sg12_41_cif.got.tgz:80635.got - 2010.06.28 00:19:55.
