data_PCOD8110783
_publ_section_title
;
Structure prediction by ZEFSAII (Michael W. Deem and Ramdas Pophale) SiO2 
 PCOD8110783
Probable space group: C 2/M
;
_chemical_formula_sum "Si O2"
_cell_formula_units_Z 48
_cell_length_a 28.262659
_cell_length_b 8.766770
_cell_length_c 10.217099
_cell_angle_alpha 90.000000
_cell_angle_beta 89.494807
_cell_angle_gamma 90.000000
_cell_volume 2531.415009
_symmetry_space_group_name_H-M "C 2/M"
_symmetry_group_IT_number 12
_symmetry_cell_setting 'monoclinic'
loop_
_space_group_symop_operation_xyz
x,y,z
-x,y,-z
-x,-y,-z
x,-y,z
1/2+x,1/2+y,z
1/2-x,1/2+y,-z
1/2-x,1/2-y,-z
1/2+x,1/2-y,z
loop_
_atom_site_type_symbol
_atom_site_label
_atom_site_fract_x
_atom_site_fract_y
_atom_site_fract_z
Si Si1 0.300435 0.681077 0.527659
Si Si2 0.801637 0.819069 0.015461
Si Si3 0.447955 0.180321 0.644025
Si Si4 0.356445 0.321449 0.269154
Si Si5 0.552087 0.819738 0.650174
Si Si6 0.647817 0.818539 0.229171
O O1 0.297501 0.500000 0.545934
O O2 0.250000 0.750000 0.500000
O O3 0.334336 0.728552 0.407645
O O4 0.318162 0.759713 0.658420
O O5 0.837398 0.757885 0.905939
O O6 0.797683 0.000000 0.006462
O O7 0.750000 0.750000 0.000000
O O8 0.822526 0.763369 0.153801
O O9 0.439877 0.244017 0.497452
O O10 0.499344 0.232050 0.697837
O O11 0.405994 0.236022 0.740007
O O12 0.447303 0.000000 0.632349
O O13 0.362296 0.500000 0.257852
O O14 0.408726 0.250101 0.254440
O O15 0.557121 0.000000 0.655230
O O16 0.652393 0.000000 0.218810
#
# Coordination Sequence:
#
# PCOD8110783 Si02
#       6
#     8   8   8   8   8   8
#     4  11  22  36  56  83 112 144 188 240 290 342
#     4  11  24  42  60  81 113 154 195 237 285 343
#     4   8  16  31  55  86 116 145 184 233 280 330
#     4  10  22  38  55  81 115 146 184 235 287 337
#     4   9  16  32  58  85 112 147 188 231 279 334
#     4  11  21  37  59  85 115 149 188 235 287 340
#
# _framework density 18.961728000000001
#
# number of rings (size 3 to 8) (size 9 to 14) (size 15 to 20)
#    0.000    2.000    1.667    3.500    0.000    3.333 
#    0.000    4.167    0.000    5.000    0.000    0.000 
#    0.000    0.000    0.000    0.000    0.000    0.000 
#
# Total GULP energy -297572.935634 kJ/mol
# GULP energy per Si atom -12398.872318 kJ/mol
# Density = 1.891857 g / cm^3
# Si number density = 18.961728 Si / 1000 Ang^3
#
#
#
# Elastic Constant Matrix: (Units=GPa)
#
#
# Indices 1 2 3 4 5 6 
#
# 1 145.3389 33.4240 25.0932 0.0000 6.8438 0.0000
# 2 33.4240 42.0214 27.7586 0.0000 3.7093 0.0000
# 3 25.0932 27.7586 61.8764 0.0000 2.1527 0.0000
# 4 0.0000 0.0000 0.0000 27.9203 0.0000 1.3557
# 5 6.8438 3.7093 2.1527 0.0000 35.5216 0.0000
# 6 0.0000 0.0000 0.0000 1.3557 0.0000 31.0650
#
#
#
# Elastic Compliance Matrix: (Units=1/GPa)
#
#
# Indices 1 2 3 4 5 6 
#
# 1 0.008467 -0.006260 -0.000593 0.000000 -0.000942 0.000000
# 2 -0.006260 0.038693 -0.014752 0.000000 -0.001940 0.000000
# 3 -0.000593 -0.014752 0.023010 0.000000 0.000260 0.000000
# 4 0.000000 0.000000 0.000000 0.035892 0.000000 -0.001566
# 5 -0.000942 -0.001940 0.000260 0.000000 0.028520 0.000000
# 6 0.000000 0.000000 0.000000 -0.001566 0.000000 0.032259
#
#
# Mechanical properties :
#
#
# Convention : Reuss Voigt Hill
#
# Bulk Modulus (GPa) = 37.09052 46.86537 41.97794
# Shear Modulus (GPa) = 22.82717 29.76544 26.29631
#
# Velocity S-wave (km/s) = 3.47343 3.96632 3.72803
# Velocity P-wave (km/s) = 5.97406 6.76351 6.38101
#
# Compressibility (1/GPa) = 0.02696107
#
# Stress axis : x y z
#
# Youngs Moduli (GPa) = 118.10936 25.84461 43.45854
#
# Poissons Ratio (x) = 0.16179 0.02575
# Poissons Ratio (y) = 0.73936 0.64110
# Poissons Ratio (z) = 0.06998 0.38126
#
# Static dielectric constant tensor:
#      x y z
#    x 3.912820 0.000000 -0.120270 
#    y 0.000000 3.332480 0.000000 
#    z -0.120270 0.000000 3.581050 
# 
# 
# High freq. dielectric constant tensor:
#      x y z
#    x 1.757710 0.000000 0.000780 
#    y 0.000000 1.724480 0.000000 
#    z 0.000780 0.000000 1.721750 
# 
# From -- ./inp_files/108590.got.cif
#   From: 2010.06.25/outbox.cif.g09.slc.cpg/sg12_55_cif.got.tgz:108590.got - 2010.06.28 00:19:55.
