data_PCOD8110765
_publ_section_title
;
Structure prediction by ZEFSAII (Michael W. Deem and Ramdas Pophale) SiO2 
 PCOD8110765
Probable space group: C 2/M
;
_chemical_formula_sum "Si O2"
_cell_formula_units_Z 56
_cell_length_a 18.935042
_cell_length_b 9.271218
_cell_length_c 24.274861
_cell_angle_alpha 90.000000
_cell_angle_beta 136.188303
_cell_angle_gamma 90.000000
_cell_volume 2950.177826
_symmetry_space_group_name_H-M "C 2/M"
_symmetry_group_IT_number 12
_symmetry_cell_setting 'monoclinic'
loop_
_space_group_symop_operation_xyz
x,y,z
-x,y,-z
-x,-y,-z
x,-y,z
1/2+x,1/2+y,z
1/2-x,1/2+y,-z
1/2-x,1/2-y,-z
1/2+x,1/2-y,z
loop_
_atom_site_type_symbol
_atom_site_label
_atom_site_fract_x
_atom_site_fract_y
_atom_site_fract_z
Si Si1 0.196334 0.668633 0.420771
Si Si2 0.614833 0.335627 0.075916
Si Si3 0.505056 0.833795 0.831401
Si Si4 0.282682 0.168675 0.686577
Si Si5 0.959845 0.663961 0.272934
Si Si6 0.783970 0.169922 0.234897
Si Si7 0.163489 0.163108 0.981449
O O1 0.214668 0.500000 0.439908
O O2 0.250000 0.750000 0.500000
O O3 0.248413 0.723966 0.392159
O O4 0.076161 0.705161 0.352703
O O5 0.608583 0.500000 0.094835
O O6 0.677505 0.237877 0.153981
O O7 0.500000 0.277010 0.000000
O O8 0.679007 0.331189 0.055551
O O9 0.392330 0.767766 0.764424
O O10 0.560715 0.818298 0.803643
O O11 0.556265 0.735083 0.906236
O O12 0.508079 0.000000 0.852594
O O13 0.204760 0.202325 0.692655
O O14 0.301724 0.000000 0.689615
O O15 0.936870 0.500000 0.278067
O O16 0.884082 0.767555 0.263009
O O17 0.778509 0.000000 0.220577
O O18 0.165988 0.000000 0.961066
O O19 0.250000 0.250000 0.000000
#
# Coordination Sequence:
#
# PCOD8110765 Si02
#       7
#     8   8   8   8   8   8   8
#     4   9  18  36  60  82 106 135 168 206 248 300
#     4  10  22  38  52  69 100 141 177 213 263 312
#     4   9  17  33  54  70  91 129 173 211 250 300
#     4   8  17  34  54  76 102 132 164 202 252 301
#     4   9  19  35  54  76 105 140 169 203 258 310
#     4  11  21  33  53  79 104 133 173 217 256 300
#     4  11  22  33  47  69  97 129 167 213 261 303
#
# _framework density 18.981907
#
# number of rings (size 3 to 8) (size 9 to 14) (size 15 to 20)
#    0.000    2.429    0.000    4.286    0.000    6.000 
#    0.000    5.000    0.000    4.286    0.000    0.000 
#    0.000    0.000    0.000    0.000    0.000    0.000 
#
# Total GULP energy -347056.542185 kJ/mol
# GULP energy per Si atom -12394.876507 kJ/mol
# Density = 1.893870 g / cm^3
# Si number density = 18.981907 Si / 1000 Ang^3
#
#
#
# Elastic Constant Matrix: (Units=GPa)
#
#
# Indices 1 2 3 4 5 6 
#
# 1 83.4606 34.7245 15.6789 0.0000 -10.8884 0.0000
# 2 34.7245 85.4106 38.8484 0.0000 -8.7109 0.0000
# 3 15.6789 38.8484 81.4555 0.0000 -15.5827 0.0000
# 4 0.0000 0.0000 0.0000 32.4365 0.0000 1.1093
# 5 -10.8884 -8.7109 -15.5827 0.0000 24.0917 0.0000
# 6 0.0000 0.0000 0.0000 1.1093 0.0000 25.7058
#
#
#
# Elastic Compliance Matrix: (Units=1/GPa)
#
#
# Indices 1 2 3 4 5 6 
#
# 1 0.014977 -0.006001 0.000980 0.000000 0.005233 0.000000
# 2 -0.006001 0.017374 -0.007358 0.000000 -0.001190 0.000000
# 3 0.000980 -0.007358 0.017316 0.000000 0.008982 0.000000
# 4 0.000000 0.000000 0.000000 0.030875 0.000000 -0.001332
# 5 0.005233 -0.001190 0.008982 0.000000 0.049253 0.000000
# 6 0.000000 0.000000 0.000000 -0.001332 0.000000 0.038959
#
#
# Mechanical properties :
#
#
# Convention : Reuss Voigt Hill
#
# Bulk Modulus (GPa) = 40.14793 47.64782 43.89787
# Shear Modulus (GPa) = 24.77518 27.18512 25.98015
#
# Velocity S-wave (km/s) = 3.61667 3.78849 3.70358
# Velocity P-wave (km/s) = 6.21587 6.65531 6.43934
#
# Compressibility (1/GPa) = 0.02490789
#
# Stress axis : x y z
#
# Youngs Moduli (GPa) = 66.76834 57.55851 57.75094
#
# Poissons Ratio (x) = 0.34543 -0.05662
# Poissons Ratio (y) = 0.40070 0.42496
# Poissons Ratio (z) = -0.06546 0.42354
#
# Static dielectric constant tensor:
#      x y z
#    x 3.533230 0.000000 -0.148540 
#    y 0.000000 3.358610 0.000000 
#    z -0.148540 0.000000 3.453680 
# 
# 
# High freq. dielectric constant tensor:
#      x y z
#    x 1.746770 0.000000 -0.010340 
#    y 0.000000 1.722550 0.000000 
#    z -0.010340 0.000000 1.723260 
# 
# From -- ./inp_files/342526.got.cif
#   From: 2010.06.25/outbox.cif.g09.slc.cpg/sg12_172_cif.got.tgz:342526.got - 2010.06.28 00:19:55.
