data_PCOD8110949
_publ_section_title
;
Structure prediction by ZEFSAII (Michael W. Deem and Ramdas Pophale) SiO2 
 PCOD8110949
Probable space group: C 2/M
;
_chemical_formula_sum "Si O2"
_cell_formula_units_Z 64
_cell_length_a 21.909251
_cell_length_b 23.358265
_cell_length_c 16.238362
_cell_angle_alpha 90.000000
_cell_angle_beta 157.493162
_cell_angle_gamma 90.000000
_cell_volume 3181.083740
_symmetry_space_group_name_H-M "C 2/M"
_symmetry_group_IT_number 12
_symmetry_cell_setting 'monoclinic'
loop_
_space_group_symop_operation_xyz
x,y,z
-x,y,-z
-x,-y,-z
x,-y,z
1/2+x,1/2+y,z
1/2-x,1/2+y,-z
1/2-x,1/2-y,-z
1/2+x,1/2-y,z
loop_
_atom_site_type_symbol
_atom_site_label
_atom_site_fract_x
_atom_site_fract_y
_atom_site_fract_z
Si Si1 0.256355 0.859615 0.364089
Si Si2 0.917916 0.868382 0.485581
Si Si3 0.088655 0.640161 0.030152
Si Si4 0.317451 0.248378 0.958148
Si Si5 0.916831 0.859973 0.009776
Si Si6 0.006068 0.935183 0.265600
Si Si7 0.985189 0.251322 0.636247
Si Si8 0.358355 0.065056 0.633614
O O1 0.181046 0.888662 0.187909
O O2 0.369139 0.805758 0.484013
O O3 0.356071 0.906320 0.540087
O O4 0.101075 0.842866 0.223910
O O5 0.000000 0.866161 0.500000
O O6 0.017473 0.907179 0.673663
O O7 0.891046 0.805195 0.490940
O O8 0.742037 0.895139 0.254081
O O9 0.158467 0.689338 0.058934
O O10 0.980730 0.597553 0.844167
O O11 0.000000 0.665519 0.000000
O O12 0.459054 0.254784 0.200444
O O13 0.328094 0.300193 0.908876
O O14 0.141687 0.254483 0.775458
O O15 0.898074 0.901219 0.065113
O O16 0.188059 0.932303 0.464666
O O17 0.943367 0.000000 0.191349
O O18 0.415578 0.000000 0.693422
#
# Coordination Sequence:
#
# PCOD8110949 Si02
#       8
#     8   8   8   8   8   8   8   8
#     4  10  22  38  63  94 123 160 200 255 307 361
#     4  12  24  40  61  91 128 159 203 250 310 370
#     4  12  24  38  62  96 123 161 206 251 303 368
#     4  11  23  39  63  91 125 164 200 249 309 371
#     4  10  22  38  62  95 122 156 209 250 301 370
#     4  10  22  42  64  88 122 164 206 258 308 356
#     4  11  23  40  62  88 129 165 197 247 314 372
#     4  10  22  42  64  90 122 161 211 258 303 355
#
# _framework density 20.118929000000001
#
# number of rings (size 3 to 8) (size 9 to 14) (size 15 to 20)
#    0.000    1.250    5.000    0.750    3.500    2.000 
#    0.000    2.500    0.000    0.000    0.000    1.750 
#    0.000    0.000    0.000    0.000    0.000    0.000 
#
# Total GULP energy -396694.659973 kJ/mol
# GULP energy per Si atom -12396.708124 kJ/mol
# Density = 2.007314 g / cm^3
# Si number density = 20.118929 Si / 1000 Ang^3
#
#
#
# Elastic Constant Matrix: (Units=GPa)
#
#
# Indices 1 2 3 4 5 6 
#
# 1 106.7796 47.0748 36.1503 0.0000 -22.1149 0.0000
# 2 47.0748 126.1278 30.3732 0.0000 -14.9439 0.0000
# 3 36.1503 30.3732 89.9685 0.0000 -20.9930 0.0000
# 4 0.0000 0.0000 0.0000 1.1793 0.0000 -4.4148
# 5 -22.1149 -14.9439 -20.9930 0.0000 30.5511 0.0000
# 6 0.0000 0.0000 0.0000 -4.4148 0.0000 8.8346
#
#
#
# Elastic Compliance Matrix: (Units=1/GPa)
#
#
# Indices 1 2 3 4 5 6 
#
# 1 0.013044 -0.003527 -0.002680 0.000000 0.005876 0.000000
# 2 -0.003527 0.009767 -0.001621 0.000000 0.001110 0.000000
# 3 -0.002680 -0.001621 0.014412 0.000000 0.007171 0.000000
# 4 0.000000 0.000000 0.000000 -0.973867 0.000000 -0.486657
# 5 0.005876 0.001110 0.007171 0.000000 0.042456 0.000000
# 6 0.000000 0.000000 0.000000 -0.486657 0.000000 -0.129998
#
#
# Mechanical properties :
#
#
# Convention : Reuss Voigt Hill
#
# Bulk Modulus (GPa) = 46.36503 61.11917 53.74210
# Shear Modulus (GPa) = -4.99330 22.06482 8.53576
#
# Velocity S-wave (km/s) = -1.57711 3.31527 2.06200
# Velocity P-wave (km/s) = 4.44737 6.71562 5.69556
#
# Compressibility (1/GPa) = 0.02156798
#
# Stress axis : x y z
#
# Youngs Moduli (GPa) = 76.66316 102.38792 69.38624
#
# Poissons Ratio (x) = 0.36113 0.18592
# Poissons Ratio (y) = 0.27039 0.11247
# Poissons Ratio (z) = 0.20542 0.16596
#
# Static dielectric constant tensor:
#      x y z
#    x 3.778570 0.000000 -0.259130 
#    y 0.000000 3.535780 0.000000 
#    z -0.259130 0.000000 3.841920 
# 
# 
# High freq. dielectric constant tensor:
#      x y z
#    x 1.793110 0.000000 -0.021360 
#    y 0.000000 1.766050 0.000000 
#    z -0.021360 0.000000 1.795440 
# 
# From -- ./inp_files/290967.got.cif
#   From: 2010.06.25/outbox.cif.g09.slc.cpg/sg12_146_cif.got.tgz:290967.got - 2010.06.28 00:19:55.
