data_PCOD8110925
_publ_section_title
;
Structure prediction by ZEFSAII (Michael W. Deem and Ramdas Pophale) SiO2 
 PCOD8110925
Probable space group: C 2/M
;
_chemical_formula_sum "Si O2"
_cell_formula_units_Z 56
_cell_length_a 17.412385
_cell_length_b 13.860625
_cell_length_c 12.203529
_cell_angle_alpha 90.000000
_cell_angle_beta 119.494444
_cell_angle_gamma 90.000000
_cell_volume 2563.581403
_symmetry_space_group_name_H-M "C 2/M"
_symmetry_group_IT_number 12
_symmetry_cell_setting 'monoclinic'
loop_
_space_group_symop_operation_xyz
x,y,z
-x,y,-z
-x,-y,-z
x,-y,z
1/2+x,1/2+y,z
1/2-x,1/2+y,-z
1/2-x,1/2-y,-z
1/2+x,1/2-y,z
loop_
_atom_site_type_symbol
_atom_site_label
_atom_site_fract_x
_atom_site_fract_y
_atom_site_fract_z
Si Si1 0.041277 0.613073 0.147317
Si Si2 0.790386 0.889523 0.909445
Si Si3 0.122518 0.108680 0.812415
Si Si4 0.924797 0.110496 0.621063
Si Si5 0.818006 0.773659 0.717211
Si Si6 0.914666 0.391030 0.259754
Si Si7 0.124527 0.768534 0.610929
O O1 0.065747 0.500000 0.166747
O O2 0.129857 0.672785 0.235642
O O3 0.973179 0.639839 0.196747
O O4 0.000000 0.640589 0.000000
O O5 0.830469 0.829579 0.838880
O O6 0.685879 0.880150 0.848084
O O7 0.819437 0.000000 0.912562
O O8 0.834665 0.845754 0.049382
O O9 0.158743 0.165794 0.734392
O O10 0.017214 0.115696 0.748700
O O11 0.155774 0.000000 0.821278
O O12 0.851403 0.157935 0.644357
O O13 0.935460 0.171277 0.515922
O O14 0.899076 0.000000 0.574893
O O15 0.714990 0.761556 0.614478
O O16 0.936698 0.500000 0.312261
O O17 0.930686 0.321702 0.376489
#
# Coordination Sequence:
#
# PCOD8110925 Si02
#       7
#     8   8   8   8   8   8   8
#     4  10  23  39  58  88 126 165 200 241 301 363
#     4   9  20  38  62  94 123 154 199 252 313 371
#     4  10  22  38  61  90 120 156 199 252 311 368
#     4  11  24  43  63  89 125 162 203 255 307 362
#     4  11  24  38  63  90 124 162 204 251 308 363
#     4   9  20  40  63  88 123 160 203 253 301 360
#     4  11  23  39  63  90 120 161 211 250 303 355
#
# _framework density 21.844438
#
# number of rings (size 3 to 8) (size 9 to 14) (size 15 to 20)
#    0.000    1.857    0.000    2.571    6.000    4.000 
#    0.000    2.857    0.000    3.429    0.000    0.000 
#    0.000    0.000    0.000    0.000    0.000    0.000 
#
# Total GULP energy -347248.217633 kJ/mol
# GULP energy per Si atom -12401.722058 kJ/mol
# Density = 2.179472 g / cm^3
# Si number density = 21.844438 Si / 1000 Ang^3
#
#
#
# Elastic Constant Matrix: (Units=GPa)
#
#
# Indices 1 2 3 4 5 6 
#
# 1 96.4623 30.6475 4.1169 0.0000 -21.5891 0.0000
# 2 30.6475 95.4314 22.0510 0.0000 -9.0797 0.0000
# 3 4.1169 22.0510 73.4151 0.0000 -9.5873 0.0000
# 4 0.0000 0.0000 0.0000 34.7765 0.0000 -23.2484
# 5 -21.5891 -9.0797 -9.5873 0.0000 24.3083 0.0000
# 6 0.0000 0.0000 0.0000 -23.2484 0.0000 -18.6242
#
#
#
# Elastic Compliance Matrix: (Units=1/GPa)
#
#
# Indices 1 2 3 4 5 6 
#
# 1 0.014177 -0.003864 0.001920 0.000000 0.011905 0.000000
# 2 -0.003864 0.012529 -0.003567 0.000000 -0.000159 0.000000
# 3 0.001920 -0.003567 0.015428 0.000000 0.006458 0.000000
# 4 0.000000 0.000000 0.000000 0.015675 0.000000 -0.019567
# 5 0.011905 -0.000159 0.006458 0.000000 0.054199 0.000000
# 6 0.000000 0.000000 0.000000 -0.019567 0.000000 -0.029269
#
#
# Mechanical properties :
#
#
# Convention : Reuss Voigt Hill
#
# Bulk Modulus (GPa) = 32.14168 42.10440 37.12304
# Shear Modulus (GPa) = 48.01629 21.99168 35.00399
#
# Velocity S-wave (km/s) = 4.69348 3.17636 4.00737
# Velocity P-wave (km/s) = 6.64210 5.72441 6.20026
#
# Compressibility (1/GPa) = 0.03111225
#
# Stress axis : x y z
#
# Youngs Moduli (GPa) = 70.53746 79.81643 64.81598
#
# Poissons Ratio (x) = 0.30840 -0.12446
# Poissons Ratio (y) = 0.27255 0.23121
# Poissons Ratio (z) = -0.13545 0.28472
#
# Static dielectric constant tensor:
#      x y z
#    x 3.871510 0.000000 -0.158310 
#    y 0.000000 4.318980 0.000000 
#    z -0.158310 0.000000 3.879130 
# 
# 
# High freq. dielectric constant tensor:
#      x y z
#    x 1.862430 0.000000 -0.006970 
#    y 0.000000 1.873080 0.000000 
#    z -0.006970 0.000000 1.854570 
# 
# From -- ./inp_files/156707.got.cif
#   From: 2010.06.25/outbox.cif.g09.slc.cpg/sg12_79_cif.got.tgz:156707.got - 2010.06.28 00:19:55.
