data_PCOD8110939
_publ_section_title
;
Structure prediction by ZEFSAII (Michael W. Deem and Ramdas Pophale) SiO2 
 PCOD8110939
Probable space group: C 2/M
;
_chemical_formula_sum "Si O2"
_cell_formula_units_Z 28
_cell_length_a 17.405630
_cell_length_b 9.473652
_cell_length_c 11.977914
_cell_angle_alpha 90.000000
_cell_angle_beta 35.511783
_cell_angle_gamma 90.000000
_cell_volume 1147.275152
_symmetry_space_group_name_H-M "C 2/M"
_symmetry_group_IT_number 12
_symmetry_cell_setting 'monoclinic'
loop_
_space_group_symop_operation_xyz
x,y,z
-x,y,-z
-x,-y,-z
x,-y,z
1/2+x,1/2+y,z
1/2-x,1/2+y,-z
1/2-x,1/2-y,-z
1/2+x,1/2-y,z
loop_
_atom_site_type_symbol
_atom_site_label
_atom_site_fract_x
_atom_site_fract_y
_atom_site_fract_z
Si Si1 0.000000 0.233460 0.500000
Si Si2 0.262939 0.846881 0.653431
Si Si3 0.377925 0.341935 0.867097
Si Si4 0.072209 0.658094 0.766150
O O1 0.130827 0.324512 0.373196
O O2 0.033862 0.143287 0.349782
O O3 0.151583 0.723574 0.778763
O O4 0.334485 0.851952 0.450413
O O5 0.196494 0.000000 0.753038
O O6 0.341014 0.500000 0.949311
O O7 0.453026 0.264174 0.879016
O O8 0.250000 0.250000 0.000000
O O9 0.022207 0.500000 0.856922
#
# Coordination Sequence:
#
# PCOD8110939 Si02
#       4
#     4   8   8   8
#     4  10  22  38  62  90 120 154 196 242 292 348
#     4   9  17  31  55  85 116 153 195 239 289 345
#     4  11  23  40  62  88 119 155 196 242 293 349
#     4   9  18  33  54  82 117 155 194 238 290 347
#
# _framework density 24.405653999999998
#
# number of rings (size 3 to 8) (size 9 to 14) (size 15 to 20)
#    0.000    2.286    0.000    2.571    0.000   11.429 
#    0.000    1.429    0.000    6.857    0.000    0.000 
#    0.000    0.000    0.000    0.000    0.000    0.000 
#
# Total GULP energy -173509.724481 kJ/mol
# GULP energy per Si atom -12393.551749 kJ/mol
# Density = 2.435011 g / cm^3
# Si number density = 24.405654 Si / 1000 Ang^3
#
#
#
# Elastic Constant Matrix: (Units=GPa)
#
#
# Indices 1 2 3 4 5 6 
#
# 1 170.4929 83.4879 27.9202 0.0000 -36.7828 0.0000
# 2 83.4879 255.4781 26.4951 0.0000 -49.9023 0.0000
# 3 27.9202 26.4951 35.2733 0.0000 -9.5035 0.0000
# 4 0.0000 0.0000 0.0000 22.8934 0.0000 -24.0460
# 5 -36.7828 -49.9023 -9.5035 0.0000 57.8371 0.0000
# 6 0.0000 0.0000 0.0000 -24.0460 0.0000 21.8327
#
#
#
# Elastic Compliance Matrix: (Units=1/GPa)
#
#
# Indices 1 2 3 4 5 6 
#
# 1 0.007997 -0.001575 -0.004335 0.000000 0.003015 0.000000
# 2 -0.001575 0.005249 -0.001826 0.000000 0.003227 0.000000
# 3 -0.004335 -0.001826 0.033467 0.000000 0.001167 0.000000
# 4 0.000000 0.000000 0.000000 -0.278519 0.000000 -0.306755
# 5 0.003015 0.003227 0.001167 0.000000 0.022183 0.000000
# 6 0.000000 0.000000 0.000000 -0.306755 0.000000 -0.292051
#
#
# Mechanical properties :
#
#
# Convention : Reuss Voigt Hill
#
# Bulk Modulus (GPa) = 32.00935 81.89451 56.95193
# Shear Modulus (GPa) = -10.50886 42.06872 15.77993
#
# Velocity S-wave (km/s) = -2.07732 4.15628 2.54553
# Velocity P-wave (km/s) = 2.71852 7.52737 5.65914
#
# Compressibility (1/GPa) = 0.03124087
#
# Stress axis : x y z
#
# Youngs Moduli (GPa) = 125.05033 190.52703 29.87990
#
# Poissons Ratio (x) = 0.30006 0.12952
# Poissons Ratio (y) = 0.19694 0.05457
# Poissons Ratio (z) = 0.54204 0.34799
#
# Static dielectric constant tensor:
#      x y z
#    x 4.595170 0.000000 -0.018010 
#    y 0.000000 4.586950 0.000000 
#    z -0.018010 0.000000 4.275290 
# 
# 
# High freq. dielectric constant tensor:
#      x y z
#    x 1.977520 0.000000 0.002860 
#    y 0.000000 1.970400 0.000000 
#    z 0.002860 0.000000 1.956330 
# 
# From -- ./inp_files/138514.got.cif
#   From: 2010.06.25/outbox.cif.g09.slc.cpg/sg12_70_cif.got.tgz:138514.got - 2010.06.28 00:19:55.
