data_PCOD8110111
_publ_section_title
;
Structure prediction by ZEFSAII (Michael W. Deem and Ramdas Pophale) SiO2 
 PCOD8110111
Probable space group: C 2/M
;
_chemical_formula_sum "Si O2"
_cell_formula_units_Z 48
_cell_length_a 13.726368
_cell_length_b 19.599904
_cell_length_c 11.938569
_cell_angle_alpha 90.000000
_cell_angle_beta 39.728741
_cell_angle_gamma 90.000000
_cell_volume 2052.896975
_symmetry_space_group_name_H-M "C 2/M"
_symmetry_group_IT_number 12
_symmetry_cell_setting 'monoclinic'
loop_
_space_group_symop_operation_xyz
x,y,z
-x,y,-z
-x,-y,-z
x,-y,z
1/2+x,1/2+y,z
1/2-x,1/2+y,-z
1/2-x,1/2-y,-z
1/2+x,1/2-y,z
loop_
_atom_site_type_symbol
_atom_site_label
_atom_site_fract_x
_atom_site_fract_y
_atom_site_fract_z
Si Si1 0.412481 0.141373 0.970515
Si Si2 0.802859 0.422551 0.848273
Si Si3 0.155772 0.421631 0.432591
Si Si4 0.066632 0.173462 0.322475
Si Si5 0.510404 0.421940 0.801489
Si Si6 0.404630 0.792627 0.366347
O O1 0.393288 0.089116 0.883883
O O2 0.522207 0.201097 0.823380
O O3 0.500000 0.108297 0.000000
O O4 0.248989 0.167681 0.156211
O O5 0.765953 0.500000 0.862524
O O6 0.899860 0.401905 0.648324
O O7 0.634472 0.388997 0.003803
O O8 0.107535 0.500000 0.510297
O O9 0.338883 0.417935 0.256591
O O10 0.111901 0.367956 0.567268
O O11 0.000000 0.152132 0.500000
O O12 0.973144 0.123417 0.323868
O O13 0.028187 0.252204 0.330928
O O14 0.478962 0.500000 0.791465
O O15 0.250000 0.750000 0.500000
#
# Coordination Sequence:
#
# PCOD8110111 Si02
#       6
#     8   8   8   8   8   8
#     4  11  26  46  65  94 138 184 232 279 341 408
#     4   9  20  40  68 102 136 176 229 284 346 407
#     4  10  21  40  69 103 139 178 223 282 349 415
#     4  11  24  44  69 100 137 180 233 283 339 410
#     4   9  18  38  67 102 140 178 222 278 343 415
#     4  12  25  45  68 103 140 179 229 284 346 414
#
# _framework density 23.381592000000001
#
# number of rings (size 3 to 8) (size 9 to 14) (size 15 to 20)
#    0.000    1.667    1.667    2.000    2.333    3.333 
#    6.000    1.667    0.000    0.000    0.000    0.000 
#    0.000    0.667    0.000    0.000    0.000    0.000 
#
# Total GULP energy -297369.054777 kJ/mol
# GULP energy per Si atom -12390.377282 kJ/mol
# Density = 2.332837 g / cm^3
# Si number density = 23.381592 Si / 1000 Ang^3
#
#
#
# Elastic Constant Matrix: (Units=GPa)
#
#
# Indices 1 2 3 4 5 6 
#
# 1 127.8717 37.8192 58.9187 -0.0073 0.4752 0.0008
# 2 37.8192 98.8016 46.0378 -0.0039 6.7017 0.0015
# 3 58.9187 46.0378 176.1894 -0.0095 12.5474 0.0044
# 4 -0.0073 -0.0039 -0.0095 31.2093 0.0053 2.3921
# 5 0.4752 6.7017 12.5474 0.0053 45.3567 -0.0013
# 6 0.0008 0.0015 0.0044 2.3921 -0.0013 36.5486
#
#
#
# Elastic Compliance Matrix: (Units=1/GPa)
#
#
# Indices 1 2 3 4 5 6 
#
# 1 0.009814 -0.002576 -0.002681 0.000001 0.001020 0.000000
# 2 -0.002576 0.012236 -0.002253 0.000000 -0.001158 0.000000
# 3 -0.002681 -0.002253 0.007279 0.000002 -0.001653 -0.000001
# 4 0.000001 0.000000 0.000002 0.032203 -0.000004 -0.002108
# 5 0.001020 -0.001158 -0.001653 -0.000004 0.022665 0.000001
# 6 0.000000 0.000000 -0.000001 -0.002108 0.000001 0.027499
#
#
# Mechanical properties :
#
#
# Convention : Reuss Voigt Hill
#
# Bulk Modulus (GPa) = 69.89602 76.49046 73.19324
# Shear Modulus (GPa) = 38.02675 39.96205 38.99440
#
# Velocity S-wave (km/s) = 4.03718 4.13864 4.08823
# Velocity P-wave (km/s) = 7.18960 7.45807 7.32506
#
# Compressibility (1/GPa) = 0.01430697
#
# Stress axis : x y z
#
# Youngs Moduli (GPa) = 101.89563 81.72659 137.38548
#
# Poissons Ratio (x) = 0.21056 0.36837
# Poissons Ratio (y) = 0.26252 0.30956
# Poissons Ratio (z) = 0.27321 0.18415
#
# Static dielectric constant tensor:
#      x y z
#    x 4.421300 -0.000020 -0.321450 
#    y -0.000020 4.062430 0.000010 
#    z -0.321450 0.000010 4.843210 
# 
# 
# High freq. dielectric constant tensor:
#      x y z
#    x 1.937950 0.000000 -0.023660 
#    y 0.000000 1.901020 0.000000 
#    z -0.023660 0.000000 1.963520 
# 
# From -- ./inp_files/147938.got.cif
#   From: 2010.06.25/outbox.cif.g09.slc.cpg/sg12_74_cif.got.tgz:147938.got - 2010.06.28 00:19:55.
