data_PCOD8110276
_publ_section_title
;
Structure prediction by ZEFSAII (Michael W. Deem and Ramdas Pophale) SiO2 
 PCOD8110276
Probable space group: C 2/M
;
_chemical_formula_sum "Si O2"
_cell_formula_units_Z 48
_cell_length_a 9.114935
_cell_length_b 25.939939
_cell_length_c 11.342634
_cell_angle_alpha 90.000000
_cell_angle_beta 63.527367
_cell_angle_gamma 90.000000
_cell_volume 2400.661854
_symmetry_space_group_name_H-M "C 2/M"
_symmetry_group_IT_number 12
_symmetry_cell_setting 'monoclinic'
loop_
_space_group_symop_operation_xyz
x,y,z
-x,y,-z
-x,-y,-z
x,-y,z
1/2+x,1/2+y,z
1/2-x,1/2+y,-z
1/2-x,1/2-y,-z
1/2+x,1/2-y,z
loop_
_atom_site_type_symbol
_atom_site_label
_atom_site_fract_x
_atom_site_fract_y
_atom_site_fract_z
Si Si1 0.208319 0.859595 0.667238
Si Si2 0.378766 0.865514 0.945476
Si Si3 0.671448 0.440265 0.872997
Si Si4 0.318112 0.680062 0.568871
Si Si5 0.534324 0.795765 0.291812
Si Si6 0.372317 0.685071 0.799250
O O1 0.184757 0.915164 0.737625
O O2 0.193384 0.863657 0.529677
O O3 0.377020 0.831212 0.641819
O O4 0.058978 0.825222 0.769721
O O5 0.308773 0.915347 0.906000
O O6 0.477940 0.828563 0.823269
O O7 0.500000 0.887558 0.000000
O O8 0.237433 0.829866 0.051428
O O9 0.709744 0.500000 0.842554
O O10 0.500000 0.430845 0.000000
O O11 0.500000 0.709379 0.500000
O O12 0.316290 0.654033 0.700025
O O13 0.157473 0.716776 0.606622
O O14 0.642631 0.745187 0.230876
#
# Coordination Sequence:
#
# PCOD8110276 Si02
#       6
#     8   8   8   8   8   8
#     4  10  22  36  60  86 120 153 203 248 289 355
#     4  11  22  38  60  88 123 155 198 256 302 352
#     4  10  21  41  67  90 113 149 198 256 317 362
#     4  10  22  37  55  79 120 165 202 242 285 344
#     4  11  22  35  57  86 122 169 204 245 283 347
#     4  11  21  37  54  88 123 164 201 236 290 351
#
# _framework density 19.994485999999998
#
# number of rings (size 3 to 8) (size 9 to 14) (size 15 to 20)
#    0.000    1.500    3.333    2.000    0.000    7.667 
#    0.000    0.000    0.000   13.500    0.000    0.000 
#    0.000    0.000    0.000    0.000    0.000    0.000 
#
# Total GULP energy -297355.151719 kJ/mol
# GULP energy per Si atom -12389.797988 kJ/mol
# Density = 1.994898 g / cm^3
# Si number density = 19.994486 Si / 1000 Ang^3
#
#
#
# Elastic Constant Matrix: (Units=GPa)
#
#
# Indices 1 2 3 4 5 6 
#
# 1 120.3731 37.8019 55.8429 0.0000 0.1380 0.0000
# 2 37.8019 110.4752 40.8193 0.0000 6.8585 0.0000
# 3 55.8429 40.8193 67.5233 0.0000 2.8969 0.0000
# 4 0.0000 0.0000 0.0000 17.9794 0.0000 -3.6841
# 5 0.1380 6.8585 2.8969 0.0000 41.2994 0.0000
# 6 0.0000 0.0000 0.0000 -3.6841 0.0000 18.7633
#
#
#
# Elastic Compliance Matrix: (Units=1/GPa)
#
#
# Indices 1 2 3 4 5 6 
#
# 1 0.013542 -0.000687 -0.010819 0.000000 0.000828 0.000000
# 2 -0.000687 0.011777 -0.006486 0.000000 -0.001498 0.000000
# 3 -0.010819 -0.006486 0.027714 0.000000 -0.000831 0.000000
# 4 0.000000 0.000000 0.000000 0.057951 0.000000 0.011378
# 5 0.000828 -0.001498 -0.000831 0.000000 0.024518 0.000000
# 6 0.000000 0.000000 0.000000 0.011378 0.000000 0.055530
#
#
# Mechanical properties :
#
#
# Convention : Reuss Voigt Hill
#
# Bulk Modulus (GPa) = 58.66322 63.03332 60.84827
# Shear Modulus (GPa) = 21.48703 26.53557 24.01130
#
# Velocity S-wave (km/s) = 3.28174 3.64695 3.46915
# Velocity P-wave (km/s) = 6.61537 7.02335 6.82241
#
# Compressibility (1/GPa) = 0.01704646
#
# Stress axis : x y z
#
# Youngs Moduli (GPa) = 73.84684 84.91305 36.08277
#
# Poissons Ratio (x) = 0.05838 0.39038
# Poissons Ratio (y) = 0.05077 0.23405
# Poissons Ratio (z) = 0.79895 0.55079
#
# Static dielectric constant tensor:
#      x y z
#    x 3.915910 0.000000 0.062130 
#    y 0.000000 3.129680 0.000000 
#    z 0.062130 0.000000 3.977810 
# 
# 
# High freq. dielectric constant tensor:
#      x y z
#    x 1.807700 0.000000 0.001050 
#    y 0.000000 1.714230 0.000000 
#    z 0.001050 0.000000 1.797970 
# 
# From -- ./inp_files/122416.got.cif
#   From: 2010.06.25/outbox.cif.g09.slc.cpg/sg12_62_cif.got.tgz:122416.got - 2010.06.28 00:19:55.
