data_PCOD8110900
_publ_section_title
;
Structure prediction by ZEFSAII (Michael W. Deem and Ramdas Pophale) SiO2 
 PCOD8110900
Probable space group: C 2/M
;
_chemical_formula_sum "Si O2"
_cell_formula_units_Z 48
_cell_length_a 12.705578
_cell_length_b 13.547496
_cell_length_c 15.575695
_cell_angle_alpha 90.000000
_cell_angle_beta 48.534841
_cell_angle_gamma 90.000000
_cell_volume 2009.049046
_symmetry_space_group_name_H-M "C 2/M"
_symmetry_group_IT_number 12
_symmetry_cell_setting 'monoclinic'
loop_
_space_group_symop_operation_xyz
x,y,z
-x,y,-z
-x,-y,-z
x,-y,z
1/2+x,1/2+y,z
1/2-x,1/2+y,-z
1/2-x,1/2-y,-z
1/2+x,1/2-y,z
loop_
_atom_site_type_symbol
_atom_site_label
_atom_site_fract_x
_atom_site_fract_y
_atom_site_fract_z
Si Si1 0.272399 0.744677 0.192661
Si Si2 0.765935 0.798812 0.605045
Si Si3 0.813476 0.613964 0.017616
Si Si4 0.348931 0.611235 0.401020
Si Si5 0.537422 0.114968 0.232661
Si Si6 0.994093 0.111479 0.849104
O O1 0.205324 0.806318 0.309002
O O2 0.333811 0.820363 0.090398
O O3 0.153489 0.672097 0.223942
O O4 0.405792 0.682178 0.152010
O O5 0.770152 0.683845 0.573652
O O6 0.878968 0.858137 0.484753
O O7 0.614780 0.844770 0.662091
O O8 0.810069 0.500000 0.049160
O O9 0.667462 0.640947 0.047067
O O10 0.937439 0.633762 0.882759
O O11 0.291202 0.500000 0.427982
O O12 0.485635 0.622802 0.265751
O O13 0.550142 0.000000 0.248485
O O14 0.025186 0.000000 0.862385
#
# Coordination Sequence:
#
# PCOD8110900 Si02
#       6
#     8   8   8   8   8   8
#     4  11  21  37  61  88 116 152 199 240 285 345
#     4  10  22  38  60  89 120 153 194 241 292 345
#     4  10  23  40  58  85 121 156 192 238 293 348
#     4   9  18  37  61  83 116 158 193 234 290 346
#     4  11  24  41  60  86 120 155 193 242 295 346
#     4   9  19  38  61  85 115 153 196 240 285 340
#
# _framework density 23.891901000000001
#
# number of rings (size 3 to 8) (size 9 to 14) (size 15 to 20)
#    0.000    2.000    0.000    3.500    0.000    4.667 
#    0.000   17.500    0.000   21.000    0.000    0.000 
#    0.000    0.000    0.000    0.000    0.000    0.000 
#
# Total GULP energy -297544.571773 kJ/mol
# GULP energy per Si atom -12397.690491 kJ/mol
# Density = 2.383752 g / cm^3
# Si number density = 23.891901 Si / 1000 Ang^3
#
#
#
# Elastic Constant Matrix: (Units=GPa)
#
#
# Indices 1 2 3 4 5 6 
#
# 1 58.0804 33.4307 40.8281 0.0000 18.3543 0.0000
# 2 33.4307 93.7900 36.9913 0.0000 7.3762 0.0000
# 3 40.8281 36.9913 92.2221 0.0000 11.7196 0.0000
# 4 0.0000 0.0000 0.0000 36.7368 0.0000 10.5367
# 5 18.3543 7.3762 11.7196 0.0000 32.5653 0.0000
# 6 0.0000 0.0000 0.0000 10.5367 0.0000 21.6868
#
#
#
# Elastic Compliance Matrix: (Units=1/GPa)
#
#
# Indices 1 2 3 4 5 6 
#
# 1 0.032044 -0.006480 -0.009933 0.000000 -0.013018 0.000000
# 2 -0.006480 0.014014 -0.002948 0.000000 0.001539 0.000000
# 3 -0.009933 -0.002948 0.016376 0.000000 0.000373 0.000000
# 4 0.000000 0.000000 0.000000 0.031628 0.000000 -0.015367
# 5 -0.013018 0.001539 0.000373 0.000000 0.037562 0.000000
# 6 0.000000 0.000000 0.000000 -0.015367 0.000000 0.053577
#
#
# Mechanical properties :
#
#
# Convention : Reuss Voigt Hill
#
# Bulk Modulus (GPa) = 42.17328 51.84363 47.00846
# Shear Modulus (GPa) = 21.56800 27.05393 24.31097
#
# Velocity S-wave (km/s) = 3.00781 3.36869 3.19335
# Velocity P-wave (km/s) = 5.45459 6.07265 5.77190
#
# Compressibility (1/GPa) = 0.02371170
#
# Stress axis : x y z
#
# Youngs Moduli (GPa) = 31.20743 71.35960 61.06639
#
# Poissons Ratio (x) = 0.46244 0.60654
# Poissons Ratio (y) = 0.20224 0.18000
# Poissons Ratio (z) = 0.30997 0.21034
#
# Static dielectric constant tensor:
#      x y z
#    x 3.795020 0.000000 0.147220 
#    y 0.000000 4.625410 0.000000 
#    z 0.147220 0.000000 4.773620 
# 
# 
# High freq. dielectric constant tensor:
#      x y z
#    x 1.905720 0.000000 0.007570 
#    y 0.000000 1.967460 0.000000 
#    z 0.007570 0.000000 1.967100 
# 
# From -- ./inp_files/204871.got.cif
#   From: 2010.06.25/outbox.cif.g09.slc.cpg/sg12_103_cif.got.tgz:204871.got - 2010.06.28 00:19:55.
