data_PCOD8110284
_publ_section_title
;
Structure prediction by ZEFSAII (Michael W. Deem and Ramdas Pophale) SiO2 
 PCOD8110284
Probable space group: C 2/M
;
_chemical_formula_sum "Si O2"
_cell_formula_units_Z 64
_cell_length_a 19.638836
_cell_length_b 8.586692
_cell_length_c 23.586574
_cell_angle_alpha 90.000000
_cell_angle_beta 127.576925
_cell_angle_gamma 90.000000
_cell_volume 3152.282349
_symmetry_space_group_name_H-M "C 2/M"
_symmetry_group_IT_number 12
_symmetry_cell_setting 'monoclinic'
loop_
_space_group_symop_operation_xyz
x,y,z
-x,y,-z
-x,-y,-z
x,-y,z
1/2+x,1/2+y,z
1/2-x,1/2+y,-z
1/2-x,1/2-y,-z
1/2+x,1/2-y,z
loop_
_atom_site_type_symbol
_atom_site_label
_atom_site_fract_x
_atom_site_fract_y
_atom_site_fract_z
Si Si1 0.217236 0.316477 0.309672
Si Si2 0.715112 0.184147 0.540324
Si Si3 0.103275 0.679781 0.799665
Si Si4 0.965797 0.181991 0.812386
Si Si5 0.726430 0.682219 0.047770
Si Si6 0.127388 0.820035 0.691099
Si Si7 0.546801 0.181576 0.966239
Si Si8 0.977785 0.328669 0.552811
O O1 0.223365 0.500000 0.318853
O O2 0.231509 0.245337 0.378932
O O3 0.124240 0.270407 0.239008
O O4 0.289896 0.258029 0.302045
O O5 0.750000 0.250000 0.500000
O O6 0.617290 0.242011 0.492492
O O7 0.721844 0.000000 0.544615
O O8 0.079871 0.500000 0.796983
O O9 0.195594 0.721275 0.871562
O O10 0.111841 0.717672 0.738411
O O11 0.028648 0.777537 0.792224
O O12 0.009583 0.225016 0.894122
O O13 0.946755 0.000000 0.801409
O O14 0.706243 0.500000 0.033409
O O15 0.750000 0.750000 0.000000
O O16 0.644358 0.773608 0.028737
O O17 0.041889 0.797894 0.611027
O O18 0.138733 0.000000 0.713334
O O19 0.538335 0.000000 0.947677
O O20 0.500000 0.228767 0.000000
O O21 0.983898 0.500000 0.586211
O O22 0.000000 0.355629 0.500000
#
# Coordination Sequence:
#
# PCOD8110284 Si02
#       8
#     8   8   8   8   8   8   8   8
#     4  11  25  45  66  93 132 172 213 266 324 383
#     4  11  24  42  66  95 128 170 216 266 322 381
#     4  11  25  44  67  95 131 171 214 263 321 381
#     4  12  26  44  68  95 129 170 216 267 320 385
#     4  11  23  41  68  97 127 168 215 269 322 378
#     4  11  25  42  66  97 129 169 216 264 318 380
#     4  11  25  44  67  96 132 172 213 263 322 383
#     4  10  21  41  67  92 124 166 212 264 320 377
#
# _framework density 20.302748999999999
#
# number of rings (size 3 to 8) (size 9 to 14) (size 15 to 20)
#    0.000    1.000    2.500    3.375    3.500    5.250 
#    0.000    0.000    0.000    0.000    0.000    0.000 
#    0.000    0.000    0.000    0.000    0.000    0.000 
#
# Total GULP energy -396907.461703 kJ/mol
# GULP energy per Si atom -12403.358178 kJ/mol
# Density = 2.025654 g / cm^3
# Si number density = 20.302749 Si / 1000 Ang^3
#
#
#
# Elastic Constant Matrix: (Units=GPa)
#
#
# Indices 1 2 3 4 5 6 
#
# 1 138.4439 28.7958 45.4681 0.0000 4.2243 0.0000
# 2 28.7958 45.8113 19.9669 0.0000 -1.1163 0.0000
# 3 45.4681 19.9669 98.4180 0.0000 4.5660 0.0000
# 4 0.0000 0.0000 0.0000 33.6683 0.0000 -2.5269
# 5 4.2243 -1.1163 4.5660 0.0000 36.7562 0.0000
# 6 0.0000 0.0000 0.0000 -2.5269 0.0000 3.4596
#
#
#
# Elastic Compliance Matrix: (Units=1/GPa)
#
#
# Indices 1 2 3 4 5 6 
#
# 1 0.009259 -0.004377 -0.003353 0.000000 -0.000780 0.000000
# 2 -0.004377 0.026081 -0.003348 0.000000 0.001711 0.000000
# 3 -0.003353 -0.003348 0.012448 0.000000 -0.001263 0.000000
# 4 0.000000 0.000000 0.000000 0.031424 0.000000 0.022953
# 5 -0.000780 0.001711 -0.001263 0.000000 0.027505 0.000000
# 6 0.000000 0.000000 0.000000 0.022953 0.000000 0.305817
#
#
# Mechanical properties :
#
#
# Convention : Reuss Voigt Hill
#
# Bulk Modulus (GPa) = 39.01689 52.34830 45.68259
# Shear Modulus (GPa) = 11.28071 27.33964 19.31017
#
# Velocity S-wave (km/s) = 2.35973 3.67358 3.08735
# Velocity P-wave (km/s) = 5.16562 6.62068 5.93789
#
# Compressibility (1/GPa) = 0.02562993
#
# Stress axis : x y z
#
# Youngs Moduli (GPa) = 108.00683 38.34169 80.33578
#
# Poissons Ratio (x) = 0.16783 0.26938
# Poissons Ratio (y) = 0.47278 0.26900
# Poissons Ratio (z) = 0.36216 0.12838
#
# Static dielectric constant tensor:
#      x y z
#    x 3.820120 0.000000 0.043980 
#    y 0.000000 3.720990 0.000000 
#    z 0.043980 0.000000 3.689900 
# 
# 
# High freq. dielectric constant tensor:
#      x y z
#    x 1.809270 0.000000 0.003400 
#    y 0.000000 1.801580 0.000000 
#    z 0.003400 0.000000 1.802240 
# 
# From -- ./inp_files/346176.got.cif
#   From: 2010.06.25/outbox.cif.g09.slc.cpg/sg12_174_cif.got.tgz:346176.got - 2010.06.28 00:19:55.
