data_PCOD8110330
_publ_section_title
;
Structure prediction by ZEFSAII (Michael W. Deem and Ramdas Pophale) SiO2 
 PCOD8110330
Probable space group: C 2/M
;
_chemical_formula_sum "Si O2"
_cell_formula_units_Z 64
_cell_length_a 21.723735
_cell_length_b 23.702108
_cell_length_c 17.693034
_cell_angle_alpha 90.000000
_cell_angle_beta 160.866212
_cell_angle_gamma 90.000000
_cell_volume 2986.068223
_symmetry_space_group_name_H-M "C 2/M"
_symmetry_group_IT_number 12
_symmetry_cell_setting 'monoclinic'
loop_
_space_group_symop_operation_xyz
x,y,z
-x,y,-z
-x,-y,-z
x,-y,z
1/2+x,1/2+y,z
1/2-x,1/2+y,-z
1/2-x,1/2-y,-z
1/2+x,1/2-y,z
loop_
_atom_site_type_symbol
_atom_site_label
_atom_site_fract_x
_atom_site_fract_y
_atom_site_fract_z
Si Si1 0.152984 0.635667 0.740175
Si Si2 0.700018 0.082305 0.452189
Si Si3 0.569861 0.561998 0.425309
Si Si4 0.219147 0.230984 0.818731
Si Si5 0.163844 0.562889 0.892409
Si Si6 0.514426 0.563707 0.931840
Si Si7 0.861823 0.703627 0.672464
Si Si8 0.848628 0.820430 0.423065
O O1 0.185781 0.702296 0.778189
O O2 0.088469 0.610072 0.745804
O O3 0.000000 0.619213 0.500000
O O4 0.349433 0.605204 0.954247
O O5 0.791753 0.054496 0.485119
O O6 0.487180 0.060466 0.214842
O O7 0.812679 0.065229 0.658047
O O8 0.700551 0.148678 0.443685
O O9 0.563111 0.500000 0.457739
O O10 0.644168 0.610821 0.568150
O O11 0.364665 0.580744 0.158759
O O12 0.213746 0.203124 0.729745
O O13 0.056739 0.203834 0.682726
O O14 0.418853 0.215658 0.084912
O O15 0.181141 0.500000 0.875912
O O16 0.594535 0.500000 0.024590
O O17 0.500000 0.586643 0.000000
O O18 0.750000 0.750000 0.500000
O O19 0.802504 0.701385 0.691563
#
# Coordination Sequence:
#
# PCOD8110330 Si02
#       8
#     8   8   8   8   8   8   8   8
#     4  12  24  39  60  89 125 173 218 263 318 381
#     4  11  22  40  62  95 129 166 210 269 325 383
#     4  10  21  41  68  97 126 164 214 269 333 393
#     4  11  24  46  64  91 133 171 216 271 325 385
#     4  11  23  38  62  92 128 168 212 267 320 385
#     4  11  23  39  61  88 128 174 217 266 319 383
#     4  11  25  39  67  97 124 171 220 264 326 392
#     4  10  23  44  67  93 130 172 209 275 328 380
#
# _framework density 21.432867000000002
#
# number of rings (size 3 to 8) (size 9 to 14) (size 15 to 20)
#    0.000    1.125    2.500    4.125    3.500    4.500 
#    0.000    1.250    0.000    7.500    0.000    0.000 
#    0.000    0.000    0.000    0.000    0.000    0.000 
#
# Total GULP energy -396790.628699 kJ/mol
# GULP energy per Si atom -12399.707147 kJ/mol
# Density = 2.138408 g / cm^3
# Si number density = 21.432867 Si / 1000 Ang^3
#
#
#
# Elastic Constant Matrix: (Units=GPa)
#
#
# Indices 1 2 3 4 5 6 
#
# 1 55.0108 23.7294 11.7310 0.0006 11.1892 -0.0011
# 2 23.7294 142.3885 21.0615 -0.0003 -11.4958 0.0002
# 3 11.7310 21.0615 82.0748 0.0021 19.7557 -0.0011
# 4 0.0006 -0.0003 0.0021 31.2674 0.0012 3.9675
# 5 11.1892 -11.4958 19.7557 0.0012 36.2194 -0.0011
# 6 -0.0011 0.0002 -0.0011 3.9675 -0.0011 1.1467
#
#
#
# Elastic Compliance Matrix: (Units=1/GPa)
#
#
# Indices 1 2 3 4 5 6 
#
# 1 0.021650 -0.004241 -0.000083 -0.000003 -0.007989 0.000024
# 2 -0.004241 0.008627 -0.002972 0.000001 0.005670 -0.000005
# 3 -0.000083 -0.002972 0.015171 -0.000003 -0.009193 0.000015
# 4 -0.000003 0.000001 -0.000003 0.057010 -0.000005 -0.197247
# 5 -0.007989 0.005670 -0.009193 -0.000005 0.036891 0.000038
# 6 0.000024 -0.000005 0.000015 -0.197247 0.000038 1.554500
#
#
# Mechanical properties :
#
#
# Convention : Reuss Voigt Hill
#
# Bulk Modulus (GPa) = 32.40864 43.61312 38.01088
# Shear Modulus (GPa) = 2.90913 28.59018 15.74965
#
# Velocity S-wave (km/s) = 1.16630 3.65628 2.71373
# Velocity P-wave (km/s) = 4.11916 6.18202 5.25285
#
# Compressibility (1/GPa) = 0.03085597
#
# Stress axis : x y z
#
# Youngs Moduli (GPa) = 46.18886 115.91290 65.91334
#
# Poissons Ratio (x) = 0.49156 0.00549
# Poissons Ratio (y) = 0.19587 0.19592
# Poissons Ratio (z) = 0.00385 0.34454
#
# Static dielectric constant tensor:
#      x y z
#    x 3.877290 0.000000 0.285020 
#    y 0.000000 3.905680 0.000000 
#    z 0.285020 0.000000 3.991840 
# 
# 
# High freq. dielectric constant tensor:
#      x y z
#    x 1.829740 0.000000 0.019390 
#    y 0.000000 1.860390 0.000000 
#    z 0.019390 0.000000 1.842420 
# 
# From -- ./inp_files/286473.got.cif
#   From: 2010.06.25/outbox.cif.g09.slc.cpg/sg12_144_cif.got.tgz:286473.got - 2010.06.28 00:19:55.
