data_PCOD8110421
_publ_section_title
;
Structure prediction by ZEFSAII (Michael W. Deem and Ramdas Pophale) SiO2 
 PCOD8110421
Probable space group: C 2/M
;
_chemical_formula_sum "Si O2"
_cell_formula_units_Z 56
_cell_length_a 18.617762
_cell_length_b 10.716190
_cell_length_c 13.548795
_cell_angle_alpha 90.000000
_cell_angle_beta 76.824992
_cell_angle_gamma 90.000000
_cell_volume 2631.989144
_symmetry_space_group_name_H-M "C 2/M"
_symmetry_group_IT_number 12
_symmetry_cell_setting 'monoclinic'
loop_
_space_group_symop_operation_xyz
x,y,z
-x,y,-z
-x,-y,-z
x,-y,z
1/2+x,1/2+y,z
1/2-x,1/2+y,-z
1/2-x,1/2-y,-z
1/2+x,1/2-y,z
loop_
_atom_site_type_symbol
_atom_site_label
_atom_site_fract_x
_atom_site_fract_y
_atom_site_fract_z
Si Si1 0.454631 0.857127 0.105277
Si Si2 0.687909 0.274286 0.885723
Si Si3 0.718733 0.359782 0.666583
Si Si4 0.115549 0.352429 0.404067
Si Si5 0.532524 0.264839 0.259842
Si Si6 0.331552 0.363050 0.898018
Si Si7 0.410377 0.354988 0.431879
O O1 0.367316 0.841469 0.113764
O O2 0.476584 0.798876 0.202123
O O3 0.475610 0.000000 0.105423
O O4 0.500000 0.796043 0.000000
O O5 0.687811 0.356265 0.787278
O O6 0.771430 0.233725 0.878662
O O7 0.657897 0.353193 0.987347
O O8 0.727944 0.500000 0.630601
O O9 0.800309 0.301329 0.631984
O O10 0.659693 0.302782 0.608707
O O11 0.109181 0.500000 0.438936
O O12 0.074716 0.339640 0.311779
O O13 0.077704 0.251435 0.488782
O O14 0.591290 0.343979 0.180145
O O15 0.484014 0.357005 0.342491
O O16 0.302310 0.500000 0.881585
O O17 0.400350 0.500000 0.473407
#
# Coordination Sequence:
#
# PCOD8110421 Si02
#       7
#     8   8   8   8   8   8   8
#     4  11  23  40  63  94 131 170 215 264 315 377
#     4  11  21  43  64  92 129 170 210 258 313 385
#     4  10  21  42  68  95 126 165 211 264 323 384
#     4  11  25  45  68  94 128 170 220 272 326 387
#     4  12  23  42  65  94 133 167 216 262 326 381
#     4  11  24  39  63  97 129 168 214 258 314 385
#     4  11  25  44  69  95 129 169 215 275 333 383
#
# _framework density 21.276682000000001
#
# number of rings (size 3 to 8) (size 9 to 14) (size 15 to 20)
#    0.000    1.000    4.286    2.571    0.000    3.429 
#    0.000    0.714    0.000    0.000    0.000    0.000 
#    0.000    0.000    0.000    0.000    0.000    0.000 
#
# Total GULP energy -347049.421033 kJ/mol
# GULP energy per Si atom -12394.622180 kJ/mol
# Density = 2.122826 g / cm^3
# Si number density = 21.276682 Si / 1000 Ang^3
#
#
#
# Elastic Constant Matrix: (Units=GPa)
#
#
# Indices 1 2 3 4 5 6 
#
# 1 100.7611 12.8691 28.7783 0.0000 -3.1101 0.0000
# 2 12.8691 92.5544 35.0539 0.0000 -0.9167 0.0000
# 3 28.7783 35.0539 110.1332 0.0000 -5.1638 0.0000
# 4 0.0000 0.0000 0.0000 24.4405 0.0000 -1.9587
# 5 -3.1101 -0.9167 -5.1638 0.0000 40.2492 0.0000
# 6 0.0000 0.0000 0.0000 -1.9587 0.0000 25.6002
#
#
#
# Elastic Compliance Matrix: (Units=1/GPa)
#
#
# Indices 1 2 3 4 5 6 
#
# 1 0.010754 -0.000494 -0.002630 0.000000 0.000482 0.000000
# 2 -0.000494 0.012310 -0.003800 0.000000 -0.000245 0.000000
# 3 -0.002630 -0.003800 0.011030 0.000000 0.001125 0.000000
# 4 0.000000 0.000000 0.000000 0.041168 0.000000 0.003150
# 5 0.000482 -0.000245 0.001125 0.000000 0.025021 0.000000
# 6 0.000000 0.000000 0.000000 0.003150 0.000000 0.039303
#
#
# Mechanical properties :
#
#
# Convention : Reuss Voigt Hill
#
# Bulk Modulus (GPa) = 49.39826 50.76126 50.07976
# Shear Modulus (GPa) = 31.21420 33.17448 32.19434
#
# Velocity S-wave (km/s) = 3.83438 3.95295 3.89411
# Velocity P-wave (km/s) = 6.54758 6.68909 6.61871
#
# Compressibility (1/GPa) = 0.02024363
#
# Stress axis : x y z
#
# Youngs Moduli (GPa) = 92.99172 81.23377 90.66553
#
# Poissons Ratio (x) = 0.04016 0.23845
# Poissons Ratio (y) = 0.04597 0.34457
# Poissons Ratio (z) = 0.24457 0.30873
#
# Static dielectric constant tensor:
#      x y z
#    x 4.140620 0.000000 0.020320 
#    y 0.000000 3.482140 0.000000 
#    z 0.020320 0.000000 3.920240 
# 
# 
# High freq. dielectric constant tensor:
#      x y z
#    x 1.853700 0.000000 0.000860 
#    y 0.000000 1.810850 0.000000 
#    z 0.000860 0.000000 1.840490 
# 
# From -- ./inp_files/165599.got.cif
#   From: 2010.06.25/outbox.cif.g09.slc.cpg/sg12_83_cif.got.tgz:165599.got - 2010.06.28 00:19:55.
