data_PCOD8110746
_publ_section_title
;
Structure prediction by ZEFSAII (Michael W. Deem and Ramdas Pophale) SiO2 
 PCOD8110746
Probable space group: C 2/M
;
_chemical_formula_sum "Si O2"
_cell_formula_units_Z 48
_cell_length_a 14.634770
_cell_length_b 17.032288
_cell_length_c 17.018268
_cell_angle_alpha 90.000000
_cell_angle_beta 31.625299
_cell_angle_gamma 90.000000
_cell_volume 2224.361707
_symmetry_space_group_name_H-M "C 2/M"
_symmetry_group_IT_number 12
_symmetry_cell_setting 'monoclinic'
loop_
_space_group_symop_operation_xyz
x,y,z
-x,y,-z
-x,-y,-z
x,-y,z
1/2+x,1/2+y,z
1/2-x,1/2+y,-z
1/2-x,1/2-y,-z
1/2+x,1/2-y,z
loop_
_atom_site_type_symbol
_atom_site_label
_atom_site_fract_x
_atom_site_fract_y
_atom_site_fract_z
Si Si1 0.715998 0.772759 0.435744
Si Si2 0.741348 0.000000 0.630138
Si Si3 0.204241 0.586745 0.344248
Si Si4 0.846940 0.295329 0.746817
Si Si5 0.126570 0.000000 0.290906
Si Si6 0.331986 0.861078 0.076635
Si Si7 0.481427 0.849795 0.218160
O O1 0.750000 0.750000 0.500000
O O2 0.769214 0.861966 0.372068
O O3 0.507772 0.762798 0.575040
O O4 0.838056 0.715107 0.294967
O O5 0.774131 0.000000 0.698897
O O6 0.627433 0.072773 0.686278
O O7 0.920158 0.000000 0.451398
O O8 0.294680 0.500000 0.277243
O O9 0.249056 0.635399 0.231639
O O10 0.000000 0.573365 0.500000
O O11 0.714365 0.225218 0.859045
O O12 0.918769 0.328269 0.775743
O O13 0.176567 0.077772 0.205528
O O14 0.500000 0.892241 0.000000
O O15 0.371226 0.859438 0.955456
#
# Coordination Sequence:
#
# PCOD8110746 Si02
#       7
#     8   4   8   8   4   8   8
#     4   9  19  38  59  89 123 158 212 263 315 375
#     4  11  23  40  65  94 125 161 218 277 336 389
#     4   9  18  34  58  88 117 159 207 259 311 373
#     4  10  22  37  62  90 124 167 216 264 321 391
#     4  11  24  41  62  95 126 166 214 282 334 391
#     4  12  22  39  61  92 128 171 215 264 335 393
#     4  11  22  38  62  92 125 167 212 271 328 400
#
# _framework density 21.579224
#
# number of rings (size 3 to 8) (size 9 to 14) (size 15 to 20)
#    0.000    1.667    1.667    3.250    1.167    0.000 
#    4.500    0.000    5.500    4.500    4.333    0.000 
#    0.000    0.000    0.000    0.000    0.000    0.000 
#
# Total GULP energy -297494.007971 kJ/mol
# GULP energy per Si atom -12395.583665 kJ/mol
# Density = 2.153011 g / cm^3
# Si number density = 21.579224 Si / 1000 Ang^3
#
#
#
# Elastic Constant Matrix: (Units=GPa)
#
#
# Indices 1 2 3 4 5 6 
#
# 1 62.4479 41.6960 32.8436 0.0172 23.4236 -0.0161
# 2 41.6960 190.8758 65.7907 0.0031 7.8719 -0.0076
# 3 32.8436 65.7907 130.7506 -0.0083 17.4233 -0.0109
# 4 0.0172 0.0031 -0.0083 35.7034 -0.0062 1.1183
# 5 23.4236 7.8719 17.4233 -0.0062 28.4092 0.0109
# 6 -0.0161 -0.0076 -0.0109 1.1183 0.0109 29.3006
#
#
#
# Elastic Compliance Matrix: (Units=1/GPa)
#
#
# Indices 1 2 3 4 5 6 
#
# 1 0.027729 -0.004539 -0.001963 -0.000018 -0.020401 0.000022
# 2 -0.004539 0.007083 -0.002898 0.000002 0.003557 -0.000003
# 3 -0.001963 -0.002898 0.010102 0.000003 -0.003775 0.000003
# 4 -0.000018 0.000002 0.000003 0.028042 0.000019 -0.001070
# 5 -0.020401 0.003557 -0.003775 0.000019 0.053350 -0.000032
# 6 0.000022 -0.000003 0.000003 -0.001070 -0.000032 0.034170
#
#
# Mechanical properties :
#
#
# Convention : Reuss Voigt Hill
#
# Bulk Modulus (GPa) = 38.29300 73.85942 56.07621
# Shear Modulus (GPa) = 26.59863 34.93223 30.76543
#
# Velocity S-wave (km/s) = 3.51465 4.02778 3.77994
# Velocity P-wave (km/s) = 5.85271 7.47878 6.71514
#
# Compressibility (1/GPa) = 0.02611443
#
# Stress axis : x y z
#
# Youngs Moduli (GPa) = 36.06361 141.19005 98.98909
#
# Poissons Ratio (x) = 0.64092 0.19427
# Poissons Ratio (y) = 0.16371 0.28683
# Poissons Ratio (z) = 0.07078 0.40911
#
# Static dielectric constant tensor:
#      x y z
#    x 3.691150 -0.000050 0.056840 
#    y -0.000050 4.238020 0.000100 
#    z 0.056840 0.000100 4.150260 
# 
# 
# High freq. dielectric constant tensor:
#      x y z
#    x 1.830460 0.000000 0.015720 
#    y 0.000000 1.855970 0.000000 
#    z 0.015720 0.000000 1.845800 
# 
# From -- ./inp_files/278064.got.cif
#   From: 2010.06.25/outbox.cif.g09.slc.cpg/sg12_140_cif.got.tgz:278064.got - 2010.06.28 00:19:55.
