data_PCOD8110141
_publ_section_title
;
Structure prediction by ZEFSAII (Michael W. Deem and Ramdas Pophale) SiO2 
 PCOD8110141
Probable space group: C 2/M
;
_chemical_formula_sum "Si O2"
_cell_formula_units_Z 36
_cell_length_a 26.749907
_cell_length_b 13.370988
_cell_length_c 9.200124
_cell_angle_alpha 90.000000
_cell_angle_beta 147.150767
_cell_angle_gamma 90.000000
_cell_volume 1784.939046
_symmetry_space_group_name_H-M "C 2/M"
_symmetry_group_IT_number 12
_symmetry_cell_setting 'monoclinic'
loop_
_space_group_symop_operation_xyz
x,y,z
-x,y,-z
-x,-y,-z
x,-y,z
1/2+x,1/2+y,z
1/2-x,1/2+y,-z
1/2-x,1/2-y,-z
1/2+x,1/2-y,z
loop_
_atom_site_type_symbol
_atom_site_label
_atom_site_fract_x
_atom_site_fract_y
_atom_site_fract_z
Si Si1 0.920702 0.500000 0.420502
Si Si2 0.977765 0.000000 0.200046
Si Si3 0.357788 0.500000 0.622011
Si Si4 0.788888 0.336023 0.698952
Si Si5 0.337621 0.794380 0.136553
Si Si6 0.064763 0.500000 0.023387
Si Si7 0.000000 0.156296 0.500000
O O1 0.854061 0.405118 0.239000
O O2 0.000000 0.500000 0.500000
O O3 0.979805 0.500000 0.707615
O O4 0.964457 0.093585 0.274806
O O5 0.074391 0.000000 0.350054
O O6 0.900848 0.000000 0.888054
O O7 0.296623 0.401969 0.458234
O O8 0.750000 0.250000 0.500000
O O9 0.830106 0.288648 0.944537
O O10 0.869687 0.402051 0.821828
O O11 0.422399 0.724185 0.383263
O O12 0.250000 0.750000 0.000000
O O13 0.000000 0.500000 0.000000
#
# Coordination Sequence:
#
# PCOD8110141 Si02
#       7
#     4   4   4   8   8   4   4
#     4  12  22  48  68  90 135 174 217 278 328 392
#     4  10  22  39  62  87 126 166 200 261 316 377
#     4  10  21  41  61  85 125 167 201 248 325 373
#     4  11  23  42  63  95 132 162 215 269 317 388
#     4  12  25  41  70  98 126 174 220 269 332 390
#     4  11  25  44  68  95 130 177 218 272 333 385
#     4  11  22  41  62  94 128 157 220 263 316 384
#
# _framework density 20.168755000000001
#
# number of rings (size 3 to 8) (size 9 to 14) (size 15 to 20)
#    0.000    0.889    3.333    3.333    3.111    1.778 
#    8.000    0.000    0.000    0.000    0.000    0.000 
#    0.000    0.000    0.000    0.000    0.000    0.000 
#
# Total GULP energy -223119.470363 kJ/mol
# GULP energy per Si atom -12395.526131 kJ/mol
# Density = 2.012285 g / cm^3
# Si number density = 20.168755 Si / 1000 Ang^3
#
#
#
# Elastic Constant Matrix: (Units=GPa)
#
#
# Indices 1 2 3 4 5 6 
#
# 1 127.6398 47.3890 36.0472 0.0000 13.4875 0.0000
# 2 47.3890 147.3701 51.2321 0.0000 9.5280 0.0000
# 3 36.0472 51.2321 101.7569 0.0000 -1.7573 0.0000
# 4 0.0000 0.0000 0.0000 -51.3259 0.0000 -36.7590
# 5 13.4875 9.5280 -1.7573 0.0000 47.9159 0.0000
# 6 0.0000 0.0000 0.0000 -36.7590 0.0000 1.1099
#
#
#
# Elastic Compliance Matrix: (Units=1/GPa)
#
#
# Indices 1 2 3 4 5 6 
#
# 1 0.009526 -0.002090 -0.002363 0.000000 -0.002353 0.000000
# 2 -0.002090 0.008840 -0.003733 0.000000 -0.001306 0.000000
# 3 -0.002363 -0.003733 0.012576 0.000000 0.001869 0.000000
# 4 0.000000 0.000000 0.000000 -0.000788 0.000000 -0.026104
# 5 -0.002353 -0.001306 0.001869 0.000000 0.021860 0.000000
# 6 0.000000 0.000000 0.000000 -0.026104 0.000000 0.036448
#
#
# Mechanical properties :
#
#
# Convention : Reuss Voigt Hill
#
# Bulk Modulus (GPa) = 68.63069 71.78927 70.20998
# Shear Modulus (GPa) = 45.58240 15.67988 30.63114
#
# Velocity S-wave (km/s) = 4.75916 2.79128 3.90133
# Velocity P-wave (km/s) = 8.01882 6.78674 7.42837
#
# Compressibility (1/GPa) = 0.01457074
#
# Stress axis : x y z
#
# Youngs Moduli (GPa) = 104.97144 113.12482 79.51521
#
# Poissons Ratio (x) = 0.23640 0.18791
# Poissons Ratio (y) = 0.21936 0.29682
# Poissons Ratio (z) = 0.24807 0.42228
#
# Static dielectric constant tensor:
#      x y z
#    x 3.530320 0.000000 0.012430 
#    y 0.000000 3.404710 0.000000 
#    z 0.012430 0.000000 3.789750 
# 
# 
# High freq. dielectric constant tensor:
#      x y z
#    x 1.792460 0.000000 -0.000350 
#    y 0.000000 1.799180 0.000000 
#    z -0.000350 0.000000 1.807180 
# 
# From -- ./inp_files/86474.got.cif
#   From: 2010.06.25/outbox.cif.g09.slc.cpg/sg12_44_cif.got.tgz:86474.got - 2010.06.28 00:19:55.
