data_PCOD8110517
_publ_section_title
;
Structure prediction by ZEFSAII (Michael W. Deem and Ramdas Pophale) SiO2 
 PCOD8110517
Probable space group: C 2/M
;
_chemical_formula_sum "Si O2"
_cell_formula_units_Z 44
_cell_length_a 15.349072
_cell_length_b 24.477141
_cell_length_c 9.047210
_cell_angle_alpha 90.000000
_cell_angle_beta 144.860546
_cell_angle_gamma 90.000000
_cell_volume 1956.385783
_symmetry_space_group_name_H-M "C 2/M"
_symmetry_group_IT_number 12
_symmetry_cell_setting 'monoclinic'
loop_
_space_group_symop_operation_xyz
x,y,z
-x,y,-z
-x,-y,-z
x,-y,z
1/2+x,1/2+y,z
1/2-x,1/2+y,-z
1/2-x,1/2-y,-z
1/2+x,1/2-y,z
loop_
_atom_site_type_symbol
_atom_site_label
_atom_site_fract_x
_atom_site_fract_y
_atom_site_fract_z
Si Si1 0.328034 0.903231 0.430706
Si Si2 0.278127 0.659486 0.172286
Si Si3 0.000000 0.894029 0.000000
Si Si4 0.461874 0.806357 0.779211
Si Si5 0.148097 0.437748 0.863351
Si Si6 0.467318 0.313464 0.694391
O O1 0.334084 0.843400 0.519410
O O2 0.475256 0.937568 0.690643
O O3 0.344059 0.902758 0.276328
O O4 0.159306 0.927975 0.235768
O O5 0.399162 0.690771 0.239794
O O6 0.315818 0.667846 0.398027
O O7 0.266514 0.593370 0.134433
O O8 0.116974 0.684561 0.904051
O O9 0.024295 0.856999 0.890808
O O10 0.419943 0.742938 0.706886
O O11 0.500000 0.823749 0.000000
O O12 0.200501 0.500000 0.912132
#
# Coordination Sequence:
#
# PCOD8110517 Si02
#       6
#     8   8   4   8   8   8
#     4  10  22  37  64  96 123 164 211 257 311 378
#     4  10  23  40  62  95 124 166 222 267 302 378
#     4  12  22  38  63  92 146 162 205 260 314 374
#     4  11  23  38  61  93 134 178 210 248 307 379
#     4  10  21  45  71  88 117 166 218 270 328 378
#     4  11  23  38  62  93 137 173 208 251 317 372
#
# _framework density 22.490452000000001
#
# number of rings (size 3 to 8) (size 9 to 14) (size 15 to 20)
#    0.000    1.455    2.727    2.727    2.545    7.273 
#    0.000    3.636    0.000   27.818    0.000    0.000 
#    0.000    0.000    0.000    0.000    0.000    0.000 
#
# Total GULP energy -272548.677464 kJ/mol
# GULP energy per Si atom -12388.576248 kJ/mol
# Density = 2.243926 g / cm^3
# Si number density = 22.490452 Si / 1000 Ang^3
#
#
#
# Elastic Constant Matrix: (Units=GPa)
#
#
# Indices 1 2 3 4 5 6 
#
# 1 65.7237 14.2201 27.5286 0.0000 8.4672 0.0000
# 2 14.2201 95.2619 27.6826 0.0000 -17.8384 0.0000
# 3 27.5286 27.6826 95.3823 0.0000 6.4191 0.0000
# 4 0.0000 0.0000 0.0000 19.6930 0.0000 0.8195
# 5 8.4672 -17.8384 6.4191 0.0000 50.9851 0.0000
# 6 0.0000 0.0000 0.0000 0.8195 0.0000 11.0972
#
#
#
# Elastic Compliance Matrix: (Units=1/GPa)
#
#
# Indices 1 2 3 4 5 6 
#
# 1 0.017877 -0.001979 -0.004376 0.000000 -0.003111 0.000000
# 2 -0.001979 0.012790 -0.003494 0.000000 0.005243 0.000000
# 3 -0.004376 -0.003494 0.012904 0.000000 -0.002120 0.000000
# 4 0.000000 0.000000 0.000000 0.050936 0.000000 -0.003762
# 5 -0.003111 0.005243 -0.002120 0.000000 0.022232 0.000000
# 6 0.000000 0.000000 0.000000 -0.003762 0.000000 0.090391
#
#
# Mechanical properties :
#
#
# Convention : Reuss Voigt Hill
#
# Bulk Modulus (GPa) = 41.88821 43.91451 42.90136
# Shear Modulus (GPa) = 21.29617 28.81749 25.05683
#
# Velocity S-wave (km/s) = 3.08051 3.58344 3.34145
# Velocity P-wave (km/s) = 5.59625 6.05719 5.83128
#
# Compressibility (1/GPa) = 0.02387307
#
# Stress axis : x y z
#
# Youngs Moduli (GPa) = 55.93776 78.18645 77.49752
#
# Poissons Ratio (x) = 0.15477 0.33911
# Poissons Ratio (y) = 0.11073 0.27074
# Poissons Ratio (z) = 0.24477 0.27315
#
# Static dielectric constant tensor:
#      x y z
#    x 4.067770 0.000000 0.208710 
#    y 0.000000 3.627670 0.000000 
#    z 0.208710 0.000000 4.421490 
# 
# 
# High freq. dielectric constant tensor:
#      x y z
#    x 1.893830 0.000000 0.015080 
#    y 0.000000 1.840860 0.000000 
#    z 0.015080 0.000000 1.899370 
# 
# From -- ./inp_files/67171.got.cif
#   From: 2010.06.25/outbox.cif.g09.slc.cpg/sg12_34_cif.got.tgz:67171.got - 2010.06.28 00:19:55.
