data_PCOD8110288
_publ_section_title
;
Structure prediction by ZEFSAII (Michael W. Deem and Ramdas Pophale) SiO2 
 PCOD8110288
Probable space group: C 2/M
;
_chemical_formula_sum "Si O2"
_cell_formula_units_Z 40
_cell_length_a 19.086894
_cell_length_b 8.637978
_cell_length_c 12.000437
_cell_angle_alpha 90.000000
_cell_angle_beta 103.143851
_cell_angle_gamma 90.000000
_cell_volume 1926.704781
_symmetry_space_group_name_H-M "C 2/M"
_symmetry_group_IT_number 12
_symmetry_cell_setting 'monoclinic'
loop_
_space_group_symop_operation_xyz
x,y,z
-x,y,-z
-x,-y,-z
x,-y,z
1/2+x,1/2+y,z
1/2-x,1/2+y,-z
1/2-x,1/2-y,-z
1/2+x,1/2-y,z
loop_
_atom_site_type_symbol
_atom_site_label
_atom_site_fract_x
_atom_site_fract_y
_atom_site_fract_z
Si Si1 0.327033 0.321005 0.044135
Si Si2 0.609595 0.817127 0.713501
Si Si3 0.561578 0.320862 0.097581
Si Si4 0.179169 0.183291 0.531630
Si Si5 0.043830 0.815986 0.337423
O O1 0.322378 0.500000 0.075944
O O2 0.373158 0.235512 0.154909
O O3 0.250000 0.250000 0.000000
O O4 0.362857 0.297728 0.936272
O O5 0.670535 0.748169 0.653584
O O6 0.531072 0.756669 0.648327
O O7 0.612101 0.000000 0.707285
O O8 0.541444 0.500000 0.105041
O O9 0.563004 0.249259 0.221516
O O10 0.500000 0.240354 0.000000
O O11 0.250000 0.250000 0.500000
O O12 0.108778 0.239213 0.438934
O O13 0.185867 0.000000 0.536804
O O14 0.035536 0.000000 0.337967
#
# Coordination Sequence:
#
# PCOD8110288 Si02
#       5
#     8   8   8   8   8
#     4  11  23  40  64  94 130 168 208 259 319 380
#     4  12  25  42  64  91 127 169 216 264 313 374
#     4   9  17  35  64  92 121 158 200 249 312 380
#     4  11  25  43  66  94 127 165 210 265 324 383
#     4  10  21  41  67  93 123 165 210 259 320 383
#
# _framework density 20.760835
#
# number of rings (size 3 to 8) (size 9 to 14) (size 15 to 20)
#    0.000    1.400    2.000    3.600    2.800    4.000 
#    0.000    3.000    0.000    0.000    0.000    0.000 
#    0.000    0.000    0.000    0.000    0.000    0.000 
#
# Total GULP energy -248044.152902 kJ/mol
# GULP energy per Si atom -12402.207645 kJ/mol
# Density = 2.071358 g / cm^3
# Si number density = 20.760835 Si / 1000 Ang^3
#
#
#
# Elastic Constant Matrix: (Units=GPa)
#
#
# Indices 1 2 3 4 5 6 
#
# 1 126.3531 44.7754 23.9259 0.0000 -3.2186 0.0000
# 2 44.7754 85.7846 25.2605 0.0000 0.4515 0.0000
# 3 23.9259 25.2605 78.7715 0.0000 -12.1632 0.0000
# 4 0.0000 0.0000 0.0000 24.6633 0.0000 0.0544
# 5 -3.2186 0.4515 -12.1632 0.0000 40.9268 0.0000
# 6 0.0000 0.0000 0.0000 0.0544 0.0000 37.8048
#
#
#
# Elastic Compliance Matrix: (Units=1/GPa)
#
#
# Indices 1 2 3 4 5 6 
#
# 1 0.009872 -0.004738 -0.001416 0.000000 0.000408 0.000000
# 2 -0.004738 0.015227 -0.003697 0.000000 -0.001639 0.000000
# 3 -0.001416 -0.003697 0.014988 0.000000 0.004384 0.000000
# 4 0.000000 0.000000 0.000000 0.040546 0.000000 -0.000058
# 5 0.000408 -0.001639 0.004384 0.000000 0.025787 0.000000
# 6 0.000000 0.000000 0.000000 -0.000058 0.000000 0.026452
#
#
# Mechanical properties :
#
#
# Convention : Reuss Voigt Hill
#
# Bulk Modulus (GPa) = 49.05701 53.20366 51.13033
# Shear Modulus (GPa) = 31.37382 33.80879 32.59131
#
# Velocity S-wave (km/s) = 3.89164 4.03983 3.96643
# Velocity P-wave (km/s) = 6.62374 6.88788 6.75710
#
# Compressibility (1/GPa) = 0.02038445
#
# Stress axis : x y z
#
# Youngs Moduli (GPa) = 101.29894 65.67157 66.72181
#
# Poissons Ratio (x) = 0.31113 0.09449
# Poissons Ratio (y) = 0.47993 0.24668
# Poissons Ratio (z) = 0.14346 0.24280
#
# Static dielectric constant tensor:
#      x y z
#    x 3.813790 0.000000 -0.015920 
#    y 0.000000 3.535870 0.000000 
#    z -0.015920 0.000000 4.177980 
# 
# 
# High freq. dielectric constant tensor:
#      x y z
#    x 1.823700 0.000000 -0.008390 
#    y 0.000000 1.791260 0.000000 
#    z -0.008390 0.000000 1.825920 
# 
# From -- ./inp_files/151711.got.cif
#   From: 2010.06.25/outbox.cif.g09.slc.cpg/sg12_76_cif.got.tgz:151711.got - 2010.06.28 00:19:55.
