data_PCOD8110213
_publ_section_title
;
Structure prediction by ZEFSAII (Michael W. Deem and Ramdas Pophale) SiO2 
 PCOD8110213
Probable space group: C 2/M
;
_chemical_formula_sum "Si O2"
_cell_formula_units_Z 52
_cell_length_a 16.930046
_cell_length_b 8.502125
_cell_length_c 22.030464
_cell_angle_alpha 90.000000
_cell_angle_beta 126.623500
_cell_angle_gamma 90.000000
_cell_volume 2545.034888
_symmetry_space_group_name_H-M "C 2/M"
_symmetry_group_IT_number 12
_symmetry_cell_setting 'monoclinic'
loop_
_space_group_symop_operation_xyz
x,y,z
-x,y,-z
-x,-y,-z
x,-y,z
1/2+x,1/2+y,z
1/2-x,1/2+y,-z
1/2-x,1/2-y,-z
1/2+x,1/2-y,z
loop_
_atom_site_type_symbol
_atom_site_label
_atom_site_fract_x
_atom_site_fract_y
_atom_site_fract_z
Si Si1 0.748003 0.000000 0.097299
Si Si2 0.957823 0.184011 0.332028
Si Si3 0.822556 0.321974 0.368998
Si Si4 0.655998 0.684846 0.490743
Si Si5 0.620385 0.672802 0.219268
Si Si6 0.389359 0.000000 0.075052
Si Si7 0.581196 0.264592 0.815952
Si Si8 0.601246 0.000000 0.138106
O O1 0.816786 0.145581 0.141391
O O2 0.654853 0.000000 0.098816
O O3 0.708445 0.000000 0.010235
O O4 0.870574 0.216147 0.338882
O O5 0.942151 0.288746 0.263920
O O6 0.061136 0.232397 0.408436
O O7 0.954566 0.000000 0.312069
O O8 0.860112 0.500000 0.378976
O O9 0.856333 0.260641 0.449372
O O10 0.704497 0.310371 0.309026
O O11 0.665405 0.500000 0.503200
O O12 0.750000 0.750000 0.500000
O O13 0.636688 0.500000 0.192513
O O14 0.516212 0.649348 0.204623
O O15 0.627596 0.833854 0.183451
O O16 0.390962 0.859800 0.121890
O O17 0.484071 0.000000 0.074171
#
# Coordination Sequence:
#
# PCOD8110213 Si02
#       8
#     4   8   8   8   8   4   8   4
#     4  12  21  42  70  92 130 167 206 274 333 393
#     4  11  23  41  62  90 125 166 213 261 320 381
#     4  11  24  39  61  92 127 164 211 268 320 376
#     4  11  24  41  62  88 126 168 215 264 317 380
#     4  10  21  41  64  95 133 174 223 267 322 389
#     4  10  25  42  64  99 127 165 217 261 334 404
#     4  11  22  41  67  92 128 168 215 267 324 391
#     4  10  23  40  68  97 132 176 216 269 329 393
#
# _framework density 20.431939
#
# number of rings (size 3 to 8) (size 9 to 14) (size 15 to 20)
#    0.000    1.231    1.538    3.923    3.231    5.538 
#    4.154    0.000    0.000    1.846    0.000    0.000 
#    0.000    0.000    0.000    0.000    0.000    0.000 
#
# Total GULP energy -322146.394061 kJ/mol
# GULP energy per Si atom -12390.245925 kJ/mol
# Density = 2.038544 g / cm^3
# Si number density = 20.431939 Si / 1000 Ang^3
#
#
#
# Elastic Constant Matrix: (Units=GPa)
#
#
# Indices 1 2 3 4 5 6 
#
# 1 107.3753 26.6013 49.8174 0.0000 -7.8946 0.0000
# 2 26.6013 88.7554 41.4311 0.0000 -1.2575 0.0000
# 3 49.8174 41.4311 151.2668 0.0000 -1.6646 0.0000
# 4 0.0000 0.0000 0.0000 8.1529 0.0000 -12.6171
# 5 -7.8946 -1.2575 -1.6646 0.0000 34.7554 0.0000
# 6 0.0000 0.0000 0.0000 -12.6171 0.0000 29.0650
#
#
#
# Elastic Compliance Matrix: (Units=1/GPa)
#
#
# Indices 1 2 3 4 5 6 
#
# 1 0.011454 -0.001893 -0.003228 0.000000 0.002379 0.000000
# 2 -0.001893 0.013234 -0.003003 0.000000 -0.000095 0.000000
# 3 -0.003228 -0.003003 0.008491 0.000000 -0.000435 0.000000
# 4 0.000000 0.000000 0.000000 0.373715 0.000000 0.162229
# 5 0.002379 -0.000095 -0.000435 0.000000 0.029289 0.000000
# 6 0.000000 0.000000 0.000000 0.162229 0.000000 0.104829
#
#
# Mechanical properties :
#
#
# Convention : Reuss Voigt Hill
#
# Bulk Modulus (GPa) = 59.05154 64.78858 61.92006
# Shear Modulus (GPa) = 8.88252 29.69785 19.29019
#
# Velocity S-wave (km/s) = 2.08730 3.81662 3.07599
# Velocity P-wave (km/s) = 5.89690 7.15544 6.55644
#
# Compressibility (1/GPa) = 0.01693436
#
# Stress axis : x y z
#
# Youngs Moduli (GPa) = 87.30218 75.56053 117.76541
#
# Poissons Ratio (x) = 0.14301 0.38012
# Poissons Ratio (y) = 0.16523 0.35360
# Poissons Ratio (z) = 0.28179 0.22688
#
# Static dielectric constant tensor:
#      x y z
#    x 3.765970 0.000000 0.143200 
#    y 0.000000 3.749700 0.000000 
#    z 0.143200 0.000000 3.798150 
# 
# 
# High freq. dielectric constant tensor:
#      x y z
#    x 1.806740 0.000000 0.012670 
#    y 0.000000 1.803440 0.000000 
#    z 0.012670 0.000000 1.803980 
# 
# From -- ./inp_files/314934.got.cif
#   From: 2010.06.25/outbox.cif.g09.slc.cpg/sg12_158_cif.got.tgz:314934.got - 2010.06.28 00:19:55.
