data_PCOD8110477
_publ_section_title
;
Structure prediction by ZEFSAII (Michael W. Deem and Ramdas Pophale) SiO2 
 PCOD8110477
Probable space group: C 2/M
;
_chemical_formula_sum "Si O2"
_cell_formula_units_Z 36
_cell_length_a 15.489409
_cell_length_b 17.046989
_cell_length_c 8.098836
_cell_angle_alpha 90.000000
_cell_angle_beta 53.792943
_cell_angle_gamma 90.000000
_cell_volume 1725.512677
_symmetry_space_group_name_H-M "C 2/M"
_symmetry_group_IT_number 12
_symmetry_cell_setting 'monoclinic'
loop_
_space_group_symop_operation_xyz
x,y,z
-x,y,-z
-x,-y,-z
x,-y,z
1/2+x,1/2+y,z
1/2-x,1/2+y,-z
1/2-x,1/2-y,-z
1/2+x,1/2-y,z
loop_
_atom_site_type_symbol
_atom_site_label
_atom_site_fract_x
_atom_site_fract_y
_atom_site_fract_z
Si Si1 0.999449 0.410167 0.307016
Si Si2 0.724368 0.911176 0.896674
Si Si3 0.542125 0.590365 0.273889
Si Si4 0.500000 0.313451 0.000000
Si Si5 0.333837 0.799958 0.305985
O O1 0.970652 0.500000 0.288288
O O2 0.000000 0.400088 0.500000
O O3 0.915663 0.349464 0.325920
O O4 0.118416 0.387245 0.115552
O O5 0.829947 0.898981 0.887682
O O6 0.736443 0.859611 0.720274
O O7 0.717080 0.000000 0.843480
O O8 0.500000 0.622163 0.500000
O O9 0.507318 0.500000 0.295624
O O10 0.491232 0.636117 0.177568
O O11 0.603689 0.258221 0.887035
O O12 0.250000 0.750000 0.500000
#
# Coordination Sequence:
#
# PCOD8110477 Si02
#       5
#     8   8   8   4   8
#     4  10  22  42  67  95 125 166 219 271 320 380
#     4  10  21  43  69  90 122 169 217 266 318 377
#     4  10  23  44  67  94 127 173 225 266 314 384
#     4  12  25  42  63  96 134 172 208 266 335 390
#     4  12  25  40  61  96 131 167 209 263 334 391
#
# _framework density 20.863364000000001
#
# number of rings (size 3 to 8) (size 9 to 14) (size 15 to 20)
#    0.000    1.333    2.222    2.333    3.111    5.333 
#    0.000    2.222    0.000    0.000    0.000    0.000 
#    0.000    0.000    0.000    0.000    0.000    0.000 
#
# Total GULP energy -223196.709152 kJ/mol
# GULP energy per Si atom -12399.817175 kJ/mol
# Density = 2.081588 g / cm^3
# Si number density = 20.863364 Si / 1000 Ang^3
#
#
#
# Elastic Constant Matrix: (Units=GPa)
#
#
# Indices 1 2 3 4 5 6 
#
# 1 74.2066 46.0465 30.6337 0.0000 4.7995 0.0000
# 2 46.0465 93.4649 53.1345 0.0000 5.6856 0.0000
# 3 30.6337 53.1345 117.5524 0.0000 2.2115 0.0000
# 4 0.0000 0.0000 0.0000 39.3860 0.0000 -16.0097
# 5 4.7995 5.6856 2.2115 0.0000 40.6247 0.0000
# 6 0.0000 0.0000 0.0000 -16.0097 0.0000 -46.0139
#
#
#
# Elastic Compliance Matrix: (Units=1/GPa)
#
#
# Indices 1 2 3 4 5 6 
#
# 1 0.019535 -0.008991 -0.001008 0.000000 -0.000995 0.000000
# 2 -0.008991 0.018650 -0.006064 0.000000 -0.001218 0.000000
# 3 -0.001008 -0.006064 0.011504 0.000000 0.000342 0.000000
# 4 0.000000 0.000000 0.000000 0.022244 0.000000 -0.007739
# 5 -0.000995 -0.001218 0.000342 0.000000 0.024885 0.000000
# 6 0.000000 0.000000 0.000000 -0.007739 0.000000 -0.019040
#
#
# Mechanical properties :
#
#
# Convention : Reuss Voigt Hill
#
# Bulk Modulus (GPa) = 56.93613 60.53926 58.73770
# Shear Modulus (GPa) = 43.19326 17.15999 30.17662
#
# Velocity S-wave (km/s) = 4.55498 2.87103 3.80727
# Velocity P-wave (km/s) = 7.41708 6.33012 6.89505
#
# Compressibility (1/GPa) = 0.01756354
#
# Stress axis : x y z
#
# Youngs Moduli (GPa) = 51.18950 53.61934 86.92471
#
# Poissons Ratio (x) = 0.48207 0.08765
# Poissons Ratio (y) = 0.46022 0.52712
# Poissons Ratio (z) = 0.05162 0.32515
#
# Static dielectric constant tensor:
#      x y z
#    x 2.788080 0.000000 0.250320 
#    y 0.000000 3.980830 0.000000 
#    z 0.250320 0.000000 3.373700 
# 
# 
# High freq. dielectric constant tensor:
#      x y z
#    x 1.812100 0.000000 -0.008630 
#    y 0.000000 1.828780 0.000000 
#    z -0.008630 0.000000 1.825520 
# 
# From -- ./inp_files/72773.got.cif
#   From: 2010.06.25/outbox.cif.g09.slc.cpg/sg12_37_cif.got.tgz:72773.got - 2010.06.28 00:19:55.
