data_PCOD8110254
_publ_section_title
;
Structure prediction by ZEFSAII (Michael W. Deem and Ramdas Pophale) SiO2 
 PCOD8110254
Probable space group: C 2/M
;
_chemical_formula_sum "Si O2"
_cell_formula_units_Z 64
_cell_length_a 14.568287
_cell_length_b 13.915369
_cell_length_c 18.202827
_cell_angle_alpha 90.000000
_cell_angle_beta 49.057803
_cell_angle_gamma 90.000000
_cell_volume 2787.419931
_symmetry_space_group_name_H-M "C 2/M"
_symmetry_group_IT_number 12
_symmetry_cell_setting 'monoclinic'
loop_
_space_group_symop_operation_xyz
x,y,z
-x,y,-z
-x,-y,-z
x,-y,z
1/2+x,1/2+y,z
1/2-x,1/2+y,-z
1/2-x,1/2-y,-z
1/2+x,1/2-y,z
loop_
_atom_site_type_symbol
_atom_site_label
_atom_site_fract_x
_atom_site_fract_y
_atom_site_fract_z
Si Si1 0.467041 0.111725 0.631066
Si Si2 0.444265 0.613788 0.706654
Si Si3 0.252004 0.158749 0.947908
Si Si4 0.491741 0.109450 0.227683
Si Si5 0.731938 0.385835 0.324435
Si Si6 0.367733 0.723674 0.484562
Si Si7 0.973068 0.894592 0.851295
Si Si8 0.794151 0.886855 0.188718
O O1 0.493360 0.154068 0.699153
O O2 0.551883 0.180890 0.537187
O O3 0.321787 0.126299 0.695910
O O4 0.503305 0.000000 0.598239
O O5 0.445782 0.500000 0.713704
O O6 0.323645 0.645310 0.725125
O O7 0.561717 0.646620 0.601384
O O8 0.443361 0.660578 0.789895
O O9 0.388602 0.118388 0.885515
O O10 0.223354 0.173818 0.876934
O O11 0.250000 0.250000 0.000000
O O12 0.146397 0.092015 0.036355
O O13 0.372369 0.148928 0.248896
O O14 0.467998 0.000000 0.258268
O O15 0.716257 0.500000 0.346292
O O16 0.661309 0.328187 0.424105
O O17 0.250000 0.750000 0.500000
O O18 0.085171 0.844574 0.835376
O O19 0.022478 0.000000 0.805730
O O20 0.804176 0.000000 0.161332
#
# Coordination Sequence:
#
# PCOD8110254 Si02
#       8
#     8   8   8   8   8   8   8   8
#     4   9  19  37  61  93 131 168 212 265 321 391
#     4  10  24  44  64  91 127 167 217 276 324 376
#     4  11  22  34  58  98 136 164 202 257 314 384
#     4   9  18  37  64  90 122 169 215 259 313 382
#     4  10  21  43  70  92 122 171 226 270 324 390
#     4  12  23  37  64  97 127 165 214 270 328 392
#     4  10  21  41  66  91 123 166 216 269 317 370
#     4   9  19  40  68  91 121 173 221 256 311 383
#
# _framework density 22.960301000000001
#
# number of rings (size 3 to 8) (size 9 to 14) (size 15 to 20)
#    0.000    2.000    1.250    3.000    3.500    2.500 
#    6.750    1.875    0.000    4.500    0.000    0.000 
#    0.000    0.000    0.000    0.000    0.000    0.000 
#
# Total GULP energy -396561.653466 kJ/mol
# GULP energy per Si atom -12392.551671 kJ/mol
# Density = 2.290804 g / cm^3
# Si number density = 22.960301 Si / 1000 Ang^3
#
#
#
# Elastic Constant Matrix: (Units=GPa)
#
#
# Indices 1 2 3 4 5 6 
#
# 1 196.7796 27.6281 96.2864 0.0000 -16.8963 0.0000
# 2 27.6281 37.2094 26.5064 0.0000 3.1298 0.0000
# 3 96.2864 26.5064 125.6571 0.0000 -17.6429 0.0000
# 4 0.0000 0.0000 0.0000 35.7249 0.0000 -0.4435
# 5 -16.8963 3.1298 -17.6429 0.0000 40.7824 0.0000
# 6 0.0000 0.0000 0.0000 -0.4435 0.0000 18.9955
#
#
#
# Elastic Compliance Matrix: (Units=1/GPa)
#
#
# Indices 1 2 3 4 5 6 
#
# 1 0.008289 -0.002160 -0.005739 0.000000 0.001117 0.000000
# 2 -0.002160 0.033466 -0.006271 0.000000 -0.006176 0.000000
# 3 -0.005739 -0.006271 0.014280 0.000000 0.004281 0.000000
# 4 0.000000 0.000000 0.000000 0.028000 0.000000 0.000654
# 5 0.001117 -0.006176 0.004281 0.000000 0.027309 0.000000
# 6 0.000000 0.000000 0.000000 0.000654 0.000000 0.052659
#
#
# Mechanical properties :
#
#
# Convention : Reuss Voigt Hill
#
# Bulk Modulus (GPa) = 36.10955 73.38758 54.74856
# Shear Modulus (GPa) = 24.80451 33.04890 28.92671
#
# Velocity S-wave (km/s) = 3.29039 3.79805 3.55330
# Velocity P-wave (km/s) = 5.49515 7.16001 6.38210
#
# Compressibility (1/GPa) = 0.02769351
#
# Stress axis : x y z
#
# Youngs Moduli (GPa) = 120.63647 29.88121 70.02876
#
# Poissons Ratio (x) = 0.06456 0.40191
# Poissons Ratio (y) = 0.26063 0.43916
# Poissons Ratio (z) = 0.69236 0.18739
#
# Static dielectric constant tensor:
#      x y z
#    x 4.256790 0.000000 0.422140 
#    y 0.000000 4.027520 0.000000 
#    z 0.422140 0.000000 3.612250 
# 
# 
# High freq. dielectric constant tensor:
#      x y z
#    x 1.918180 0.000000 -0.009540 
#    y 0.000000 1.904980 0.000000 
#    z -0.009540 0.000000 1.895990 
# 
# From -- ./inp_files/270667.got.cif
#   From: 2010.06.25/outbox.cif.g09.slc.cpg/sg12_136_cif.got.tgz:270667.got - 2010.06.28 00:19:55.
