data_PCOD8110197
_publ_section_title
;
Structure prediction by ZEFSAII (Michael W. Deem and Ramdas Pophale) SiO2 
 PCOD8110197
Probable space group: C 2/M
;
_chemical_formula_sum "Si O2"
_cell_formula_units_Z 56
_cell_length_a 11.769280
_cell_length_b 27.345623
_cell_length_c 9.601414
_cell_angle_alpha 90.000000
_cell_angle_beta 56.702172
_cell_angle_gamma 90.000000
_cell_volume 2582.794896
_symmetry_space_group_name_H-M "C 2/M"
_symmetry_group_IT_number 12
_symmetry_cell_setting 'monoclinic'
loop_
_space_group_symop_operation_xyz
x,y,z
-x,y,-z
-x,-y,-z
x,-y,z
1/2+x,1/2+y,z
1/2-x,1/2+y,-z
1/2-x,1/2-y,-z
1/2+x,1/2-y,z
loop_
_atom_site_type_symbol
_atom_site_label
_atom_site_fract_x
_atom_site_fract_y
_atom_site_fract_z
Si Si1 0.502872 0.319298 0.835239
Si Si2 0.188660 0.313962 0.388771
Si Si3 0.474864 0.216685 0.745853
Si Si4 0.878996 0.892490 0.698615
Si Si5 0.115081 0.000000 0.281835
Si Si6 0.114697 0.578642 0.516452
Si Si7 0.917697 0.375483 0.182917
Si Si8 0.831087 0.000000 0.426754
O O1 0.654979 0.311087 0.678616
O O2 0.434993 0.266995 0.849195
O O3 0.431417 0.361834 0.795074
O O4 0.500000 0.333235 0.000000
O O5 0.102887 0.280296 0.553091
O O6 0.142611 0.369785 0.427499
O O7 0.160675 0.297338 0.249210
O O8 0.510512 0.176402 0.837087
O O9 0.824092 0.945861 0.791038
O O10 0.744488 0.866437 0.727795
O O11 0.000000 0.897081 0.500000
O O12 0.121750 0.000000 0.444872
O O13 0.983071 0.000000 0.266415
O O14 0.058596 0.585832 0.709687
O O15 0.252179 0.547827 0.430976
O O16 0.000000 0.551590 0.500000
O O17 0.000000 0.399091 0.000000
#
# Coordination Sequence:
#
# PCOD8110197 Si02
#       8
#     8   8   8   8   4   8   8   4
#     4  12  28  39  63 100 133 168 218 271 330 392
#     4  10  21  41  64  89 128 169 222 264 321 385
#     4  10  22  42  64  88 129 175 215 269 316 391
#     4  12  24  44  71  96 127 175 229 269 321 394
#     4  11  20  42  67  96 125 168 226 280 310 380
#     4  11  20  40  62  95 126 166 214 273 321 388
#     4  11  23  40  65  95 132 174 213 266 332 387
#     4  11  19  34  66  98 124 159 220 279 321 374
#
# _framework density 21.681937999999999
#
# number of rings (size 3 to 8) (size 9 to 14) (size 15 to 20)
#    0.000    1.000    5.714    3.643    6.000    0.571 
#    0.000    1.786    0.000    1.714    0.000    0.000 
#    0.000    0.000    0.000    0.000    0.000    0.000 
#
# Total GULP energy -346867.203075 kJ/mol
# GULP energy per Si atom -12388.114396 kJ/mol
# Density = 2.163259 g / cm^3
# Si number density = 21.681938 Si / 1000 Ang^3
#
#
#
# Elastic Constant Matrix: (Units=GPa)
#
#
# Indices 1 2 3 4 5 6 
#
# 1 128.4441 15.6545 27.0566 0.0000 20.1455 0.0000
# 2 15.6545 95.4830 10.8998 0.0000 21.7874 0.0000
# 3 27.0566 10.8998 69.1710 0.0000 18.5306 0.0000
# 4 0.0000 0.0000 0.0000 61.8881 0.0000 18.8054
# 5 20.1455 21.7874 18.5306 0.0000 31.7423 0.0000
# 6 0.0000 0.0000 0.0000 18.8054 0.0000 38.6104
#
#
#
# Elastic Compliance Matrix: (Units=1/GPa)
#
#
# Indices 1 2 3 4 5 6 
#
# 1 0.008962 -0.000257 -0.002357 0.000000 -0.004136 0.000000
# 2 -0.000257 0.012434 0.000455 0.000000 -0.008637 0.000000
# 3 -0.002357 0.000455 0.017769 0.000000 -0.009190 0.000000
# 4 0.000000 0.000000 0.000000 0.018965 0.000000 -0.009237
# 5 -0.004136 -0.008637 -0.009190 0.000000 0.045422 0.000000
# 6 0.000000 0.000000 0.000000 -0.009237 0.000000 0.030399
#
#
# Mechanical properties :
#
#
# Convention : Reuss Voigt Hill
#
# Bulk Modulus (GPa) = 28.69647 44.47999 36.58823
# Shear Modulus (GPa) = 33.35916 42.41398 37.88657
#
# Velocity S-wave (km/s) = 3.92671 4.42768 4.18470
# Velocity P-wave (km/s) = 5.81573 6.83363 6.34512
#
# Compressibility (1/GPa) = 0.03484750
#
# Stress axis : x y z
#
# Youngs Moduli (GPa) = 111.58319 80.42419 56.27742
#
# Poissons Ratio (x) = 0.02063 0.13266
# Poissons Ratio (y) = 0.02863 -0.02560
# Poissons Ratio (z) = 0.26302 -0.03659
#
# Static dielectric constant tensor:
#      x y z
#    x 4.464460 0.000000 0.020670 
#    y 0.000000 3.921420 0.000000 
#    z 0.020670 0.000000 3.616180 
# 
# 
# High freq. dielectric constant tensor:
#      x y z
#    x 1.877980 0.000000 0.013530 
#    y 0.000000 1.850170 0.000000 
#    z 0.013530 0.000000 1.810250 
# 
# From -- ./inp_files/54646.got.cif
#   From: 2010.06.25/outbox.cif.g09.slc.cpg/sg12_28_cif.got.tgz:54646.got - 2010.06.28 00:19:55.
