data_PCOD8110762
_publ_section_title
;
Structure prediction by ZEFSAII (Michael W. Deem and Ramdas Pophale) SiO2 
 PCOD8110762
Probable space group: C 2/M
;
_chemical_formula_sum "Si O2"
_cell_formula_units_Z 64
_cell_length_a 23.719081
_cell_length_b 17.191245
_cell_length_c 8.615722
_cell_angle_alpha 90.000000
_cell_angle_beta 89.999860
_cell_angle_gamma 90.000000
_cell_volume 3513.151392
_symmetry_space_group_name_H-M "C 2/M"
_symmetry_group_IT_number 12
_symmetry_cell_setting 'monoclinic'
loop_
_space_group_symop_operation_xyz
x,y,z
-x,y,-z
-x,-y,-z
x,-y,z
1/2+x,1/2+y,z
1/2-x,1/2+y,-z
1/2-x,1/2-y,-z
1/2+x,1/2-y,z
loop_
_atom_site_type_symbol
_atom_site_label
_atom_site_fract_x
_atom_site_fract_y
_atom_site_fract_z
Si Si1 0.994425 0.915100 0.683522
Si Si2 0.119902 0.090341 0.688895
Si Si3 0.315620 0.272325 0.175421
Si Si4 0.005574 0.584900 0.683522
Si Si5 0.184380 0.727675 0.175424
Si Si6 0.119903 0.590341 0.311107
Si Si7 0.395758 0.319774 0.607369
Si Si8 0.395758 0.180226 0.392629
O O1 0.945863 0.851725 0.719759
O O2 0.000000 0.921818 0.500000
O O3 0.055977 0.891198 0.748276
O O4 0.977198 0.000000 0.751258
O O5 0.161648 0.140779 0.794600
O O6 0.126961 0.112461 0.506775
O O7 0.135156 0.000000 0.709071
O O8 0.250000 0.270109 0.214169
O O9 0.344903 0.209647 0.286967
O O10 0.328685 0.250000 0.999998
O O11 0.022801 0.500000 0.751258
O O12 0.054136 0.648275 0.719760
O O13 0.000000 0.578182 0.500000
O O14 0.944021 0.608802 0.748275
O O15 0.161650 0.640779 0.205404
O O16 0.155099 0.790353 0.286971
O O17 0.135157 0.500000 0.290933
O O18 0.126961 0.612461 0.493228
O O19 0.419888 0.250000 0.499999
#
# Coordination Sequence:
#
# PCOD8110762 Si02
#       8
#     8   8   8   8   8   8   8   8
#     4   8  14  27  48  76 106 128 151 194 252 304
#     4   9  18  33  55  80 102 128 164 205 250 299
#     4  10  22  38  51  67  99 140 175 208 249 295
#     4   8  14  27  48  76 106 128 151 194 252 304
#     4  10  22  38  51  67  99 140 175 208 249 295
#     4   9  18  33  55  80 102 128 164 205 250 299
#     4   9  17  29  52  78 101 129 165 205 245 292
#     4   9  17  29  52  78 101 129 165 205 245 292
#
# _framework density 18.217261000000001
#
# number of rings (size 3 to 8) (size 9 to 14) (size 15 to 20)
#    0.000    3.000    0.000    2.250    0.000   16.500 
#    0.000    5.000    0.000    8.250    0.000    0.000 
#    0.000    0.000    0.000    0.000    0.000    0.000 
#
# Total GULP energy -396591.240965 kJ/mol
# GULP energy per Si atom -12393.476280 kJ/mol
# Density = 1.817580 g / cm^3
# Si number density = 18.217261 Si / 1000 Ang^3
#
#
#
# Elastic Constant Matrix: (Units=GPa)
#
#
# Indices 1 2 3 4 5 6 
#
# 1 126.4839 83.8152 57.2242 0.0000 0.0025 0.0000
# 2 83.8152 128.8328 51.3350 0.0000 0.0019 0.0000
# 3 57.2242 51.3350 56.5533 0.0000 0.0016 0.0000
# 4 0.0000 0.0000 0.0000 14.1403 0.0000 -0.0001
# 5 0.0025 0.0019 0.0016 0.0000 9.9417 0.0000
# 6 0.0000 0.0000 0.0000 -0.0001 0.0000 15.8591
#
#
#
# Elastic Compliance Matrix: (Units=1/GPa)
#
#
# Indices 1 2 3 4 5 6 
#
# 1 0.017784 -0.006893 -0.011739 0.000000 -0.000001 0.000000
# 2 -0.006893 0.014832 -0.006489 0.000000 0.000000 0.000000
# 3 -0.011739 -0.006489 0.035451 0.000000 -0.000002 0.000000
# 4 0.000000 0.000000 0.000000 0.070720 0.000000 0.000000
# 5 -0.000001 0.000000 -0.000002 0.000000 0.100587 0.000000
# 6 0.000000 0.000000 0.000000 0.000000 0.000000 0.063055
#
#
# Mechanical properties :
#
#
# Convention : Reuss Voigt Hill
#
# Bulk Modulus (GPa) = 56.09688 77.40208 66.74948
# Shear Modulus (GPa) = 13.94267 15.95458 14.94863
#
# Velocity S-wave (km/s) = 2.76951 2.96259 2.86768
# Velocity P-wave (km/s) = 6.40991 7.36771 6.90544
#
# Compressibility (1/GPa) = 0.01782630
#
# Stress axis : x y z
#
# Youngs Moduli (GPa) = 56.22875 67.42334 28.20834
#
# Poissons Ratio (x) = 0.46472 0.33113
# Poissons Ratio (y) = 0.38756 0.18304
# Poissons Ratio (z) = 0.66006 0.43749
#
# Static dielectric constant tensor:
#      x y z
#    x 3.495240 0.000000 0.000000 
#    y 0.000000 3.598880 0.000000 
#    z 0.000000 0.000000 3.020870 
# 
# 
# High freq. dielectric constant tensor:
#      x y z
#    x 1.701410 0.000000 0.000000 
#    y 0.000000 1.716030 0.000000 
#    z 0.000000 0.000000 1.660410 
# 
# From -- ./inp_files/87986.got.cif
#   From: 2010.06.25/outbox.cif.g09.slc.cpg/sg12_44_cif.got.tgz:87986.got - 2010.06.28 00:19:55.
