data_PCOD8110865
_publ_section_title
;
Structure prediction by ZEFSAII (Michael W. Deem and Ramdas Pophale) SiO2 
 PCOD8110865
Probable space group: C 2/M
;
_chemical_formula_sum "Si O2"
_cell_formula_units_Z 64
_cell_length_a 18.252925
_cell_length_b 19.754707
_cell_length_c 17.827143
_cell_angle_alpha 90.000000
_cell_angle_beta 31.135061
_cell_angle_gamma 90.000000
_cell_volume 3323.712164
_symmetry_space_group_name_H-M "C 2/M"
_symmetry_group_IT_number 12
_symmetry_cell_setting 'monoclinic'
loop_
_space_group_symop_operation_xyz
x,y,z
-x,y,-z
-x,-y,-z
x,-y,z
1/2+x,1/2+y,z
1/2-x,1/2+y,-z
1/2-x,1/2-y,-z
1/2+x,1/2-y,z
loop_
_atom_site_type_symbol
_atom_site_label
_atom_site_fract_x
_atom_site_fract_y
_atom_site_fract_z
Si Si1 0.567865 0.180411 0.136598
Si Si2 0.912454 0.579840 0.373985
Si Si3 0.890365 0.788531 0.655564
Si Si4 0.079662 0.635344 0.358282
Si Si5 0.389067 0.320172 0.822418
Si Si6 0.595426 0.249077 0.847173
Si Si7 0.354768 0.426327 0.160724
Si Si8 0.637415 0.371344 0.696224
O O1 0.472851 0.117451 0.247810
O O2 0.562988 0.244013 0.197887
O O3 0.505485 0.197722 0.109762
O O4 0.732545 0.159976 0.987001
O O5 0.884781 0.500000 0.382668
O O6 0.772061 0.619862 0.523913
O O7 0.033555 0.589215 0.329793
O O8 0.950048 0.714454 0.626079
O O9 0.895108 0.831567 0.727775
O O10 0.733967 0.788792 0.757207
O O11 0.000000 0.821247 0.500000
O O12 0.246681 0.629134 0.224597
O O13 0.000000 0.605048 0.500000
O O14 0.497688 0.371429 0.767412
O O15 0.646958 0.306390 0.743475
O O16 0.500000 0.276880 0.000000
O O17 0.312995 0.500000 0.166148
O O18 0.364281 0.432749 0.243022
O O19 0.500000 0.400289 0.000000
#
# Coordination Sequence:
#
# PCOD8110865 Si02
#       8
#     8   8   8   8   8   8   8   8
#     4  10  23  39  59  90 120 160 202 247 305 362
#     4  12  25  41  60  84 122 170 213 247 289 350
#     4  11  21  35  59  92 120 153 189 239 307 368
#     4  11  21  37  56  82 118 158 201 235 277 349
#     4  10  22  38  59  88 127 151 192 253 309 369
#     4  11  21  37  62  89 121 154 195 249 308 369
#     4  11  23  35  51  78 114 158 202 236 278 342
#     4  11  23  36  57  85 121 159 193 246 300 356
#
# _framework density 19.255578
#
# number of rings (size 3 to 8) (size 9 to 14) (size 15 to 20)
#    0.000    1.125    5.000    1.875    3.500    1.500 
#    0.000    0.625    0.000    0.375    0.000    0.875 
#    0.000    0.000    0.000    0.000    0.000    0.000 
#
# Total GULP energy -396669.426841 kJ/mol
# GULP energy per Si atom -12395.919589 kJ/mol
# Density = 1.921175 g / cm^3
# Si number density = 19.255578 Si / 1000 Ang^3
#
#
#
# Elastic Constant Matrix: (Units=GPa)
#
#
# Indices 1 2 3 4 5 6 
#
# 1 112.5330 19.4243 42.7335 -0.0047 -7.8110 0.0030
# 2 19.4243 52.7631 30.8542 -0.0093 3.0882 0.0064
# 3 42.7335 30.8542 135.5842 -0.0001 -4.1797 0.0001
# 4 -0.0047 -0.0093 -0.0001 26.0871 0.0101 -0.0771
# 5 -7.8110 3.0882 -4.1797 0.0101 36.7446 -0.0055
# 6 0.0030 0.0064 0.0001 -0.0771 -0.0055 23.9335
#
#
#
# Elastic Compliance Matrix: (Units=1/GPa)
#
#
# Indices 1 2 3 4 5 6 
#
# 1 0.010469 -0.002407 -0.002686 0.000000 0.002122 0.000000
# 2 -0.002407 0.022631 -0.004481 0.000009 -0.002924 -0.000006
# 3 -0.002686 -0.004481 0.009268 -0.000002 0.000860 0.000002
# 4 0.000000 0.000009 -0.000002 0.038333 -0.000011 0.000124
# 5 0.002122 -0.002924 0.000860 -0.000011 0.028010 0.000007
# 6 0.000000 -0.000006 0.000002 0.000124 0.000007 0.041783
#
#
# Mechanical properties :
#
#
# Convention : Reuss Voigt Hill
#
# Bulk Modulus (GPa) = 43.07000 54.10047 48.58524
# Shear Modulus (GPa) = 28.18748 31.21094 29.69921
#
# Velocity S-wave (km/s) = 3.83019 4.03038 3.93156
# Velocity P-wave (km/s) = 6.47894 7.05802 6.77467
#
# Compressibility (1/GPa) = 0.02321802
#
# Stress axis : x y z
#
# Youngs Moduli (GPa) = 95.51746 44.18809 107.89244
#
# Poissons Ratio (x) = 0.10638 0.28985
# Poissons Ratio (y) = 0.22995 0.48349
# Poissons Ratio (z) = 0.25660 0.19802
#
# Static dielectric constant tensor:
#      x y z
#    x 3.674190 0.000000 0.029870 
#    y 0.000000 3.114830 0.000050 
#    z 0.029870 0.000050 3.655540 
# 
# 
# High freq. dielectric constant tensor:
#      x y z
#    x 1.751500 0.000000 -0.005840 
#    y 0.000000 1.697370 0.000000 
#    z -0.005840 0.000000 1.766380 
# 
# From -- ./inp_files/279106.got.cif
#   From: 2010.06.25/outbox.cif.g09.slc.cpg/sg12_140_cif.got.tgz:279106.got - 2010.06.28 00:19:55.
