data_PCOD8110374
_publ_section_title
;
Structure prediction by ZEFSAII (Michael W. Deem and Ramdas Pophale) SiO2 
 PCOD8110374
Probable space group: C 2/M
;
_chemical_formula_sum "Si O2"
_cell_formula_units_Z 44
_cell_length_a 16.636186
_cell_length_b 25.666837
_cell_length_c 13.438211
_cell_angle_alpha 90.000000
_cell_angle_beta 157.237200
_cell_angle_gamma 90.000000
_cell_volume 2220.165542
_symmetry_space_group_name_H-M "C 2/M"
_symmetry_group_IT_number 12
_symmetry_cell_setting 'monoclinic'
loop_
_space_group_symop_operation_xyz
x,y,z
-x,y,-z
-x,-y,-z
x,-y,z
1/2+x,1/2+y,z
1/2-x,1/2+y,-z
1/2-x,1/2-y,-z
1/2+x,1/2-y,z
loop_
_atom_site_type_symbol
_atom_site_label
_atom_site_fract_x
_atom_site_fract_y
_atom_site_fract_z
Si Si1 0.133160 0.194526 0.061745
Si Si2 0.469957 0.888303 0.857798
Si Si3 0.491747 0.363819 0.724356
Si Si4 0.500000 0.882141 0.500000
Si Si5 0.354614 0.938682 0.139037
Si Si6 0.197863 0.197010 0.794062
O O1 0.302224 0.153838 0.293547
O O2 0.244828 0.242388 0.134449
O O3 0.971097 0.162697 0.808372
O O4 0.000000 0.217662 0.000000
O O5 0.534231 0.924436 0.838528
O O6 0.230341 0.872944 0.576196
O O7 0.500000 0.916912 0.000000
O O8 0.604421 0.835700 0.017053
O O9 0.634057 0.321936 0.829873
O O10 0.617939 0.418149 0.870333
O O11 0.478920 0.916479 0.375995
O O12 0.347370 0.000000 0.140829
O O13 0.000000 0.186254 0.500000
#
# Coordination Sequence:
#
# PCOD8110374 Si02
#       6
#     8   8   8   4   8   8
#     4  11  22  36  59  91 122 159 202 241 291 358
#     4  11  22  39  62  87 121 160 198 251 299 353
#     4  10  23  40  59  86 122 160 201 247 297 354
#     4  10  21  42  62  88 128 158 195 248 300 360
#     4  10  23  41  65  91 117 156 203 253 307 357
#     4  11  21  37  59  86 122 163 200 238 294 358
#
# _framework density 19.818342000000001
#
# number of rings (size 3 to 8) (size 9 to 14) (size 15 to 20)
#    0.000    1.455    2.727    2.455    0.000    1.818 
#    0.000    0.909    0.000    6.000    0.000    0.000 
#    0.000    0.000    0.000    0.000    0.000    0.000 
#
# Total GULP energy -272771.118409 kJ/mol
# GULP energy per Si atom -12398.687200 kJ/mol
# Density = 1.977323 g / cm^3
# Si number density = 19.818342 Si / 1000 Ang^3
#
#
#
# Elastic Constant Matrix: (Units=GPa)
#
#
# Indices 1 2 3 4 5 6 
#
# 1 85.4367 36.2857 28.8998 0.0002 -9.6733 0.0001
# 2 36.2857 139.5656 47.5424 0.0001 -3.2891 0.0000
# 3 28.8998 47.5424 127.9745 0.0002 -12.8963 0.0003
# 4 0.0002 0.0001 0.0002 8.7825 0.0000 -4.6105
# 5 -9.6733 -3.2891 -12.8963 0.0000 29.4885 0.0001
# 6 0.0001 0.0000 0.0003 -4.6105 0.0001 16.9646
#
#
#
# Elastic Compliance Matrix: (Units=1/GPa)
#
#
# Indices 1 2 3 4 5 6 
#
# 1 0.013932 -0.002963 -0.001693 0.000000 0.003499 0.000000
# 2 -0.002963 0.008839 -0.002734 0.000000 -0.001182 0.000000
# 3 -0.001693 -0.002734 0.009546 0.000000 0.003315 0.000000
# 4 0.000000 0.000000 0.000000 0.132810 0.000000 0.036094
# 5 0.003499 -0.001182 0.003315 0.000000 0.036377 0.000000
# 6 0.000000 0.000000 0.000000 0.036094 0.000000 0.068755
#
#
# Mechanical properties :
#
#
# Convention : Reuss Voigt Hill
#
# Bulk Modulus (GPa) = 57.01981 64.27030 60.64505
# Shear Modulus (GPa) = 17.18902 27.06373 22.12638
#
# Velocity S-wave (km/s) = 2.94824 3.69940 3.34497
# Velocity P-wave (km/s) = 6.35792 7.12373 6.75169
#
# Compressibility (1/GPa) = 0.01753777
#
# Stress axis : x y z
#
# Youngs Moduli (GPa) = 71.77830 113.13788 104.75768
#
# Poissons Ratio (x) = 0.33523 0.17733
# Poissons Ratio (y) = 0.21268 0.28636
# Poissons Ratio (z) = 0.12150 0.30927
#
# Static dielectric constant tensor:
#      x y z
#    x 3.767320 0.000000 -0.137590 
#    y 0.000000 3.377120 0.000000 
#    z -0.137590 0.000000 3.621500 
# 
# 
# High freq. dielectric constant tensor:
#      x y z
#    x 1.787300 0.000000 -0.007270 
#    y 0.000000 1.757550 0.000000 
#    z -0.007270 0.000000 1.782800 
# 
# From -- ./inp_files/11654.got.cif
#   From: 2010.06.25/outbox.cif.g09.slc.cpg/sg12_6_cif.got.tgz:11654.got - 2010.06.28 00:19:55.
