data_PCOD8110098
_publ_section_title
;
Structure prediction by ZEFSAII (Michael W. Deem and Ramdas Pophale) SiO2 
 PCOD8110098
Probable space group: C 2/M
;
_chemical_formula_sum "Si O2"
_cell_formula_units_Z 40
_cell_length_a 12.138695
_cell_length_b 20.081287
_cell_length_c 8.531458
_cell_angle_alpha 90.000000
_cell_angle_beta 120.173021
_cell_angle_gamma 90.000000
_cell_volume 1797.867189
_symmetry_space_group_name_H-M "C 2/M"
_symmetry_group_IT_number 12
_symmetry_cell_setting 'monoclinic'
loop_
_space_group_symop_operation_xyz
x,y,z
-x,y,-z
-x,-y,-z
x,-y,z
1/2+x,1/2+y,z
1/2-x,1/2+y,-z
1/2-x,1/2-y,-z
1/2+x,1/2-y,z
loop_
_atom_site_type_symbol
_atom_site_label
_atom_site_fract_x
_atom_site_fract_y
_atom_site_fract_z
Si Si1 0.977741 0.576897 0.306041
Si Si2 0.685554 0.573368 0.080847
Si Si3 0.320382 0.831004 0.687570
Si Si4 0.082616 0.116536 0.697320
Si Si5 0.871174 0.814896 0.717291
O O1 0.017002 0.500000 0.316017
O O2 0.832424 0.590381 0.155072
O O3 0.000000 0.600798 0.500000
O O4 0.062741 0.617960 0.243816
O O5 0.673085 0.500000 0.152330
O O6 0.621585 0.630171 0.140713
O O7 0.611133 0.567979 0.862522
O O8 0.217971 0.856722 0.737763
O O9 0.258977 0.825283 0.471419
O O10 0.372519 0.759835 0.786465
O O11 0.000000 0.080015 0.500000
O O12 0.994022 0.177765 0.692541
#
# Coordination Sequence:
#
# PCOD8110098 Si02
#       5
#     8   8   8   8   8
#     4  10  21  40  68  96 129 174 217 263 323 388
#     4  11  24  43  67  96 131 175 224 265 318 397
#     4  10  22  40  67  96 134 168 214 277 319 386
#     4  10  24  43  61  94 130 171 220 271 333 375
#     4  10  22  40  66  96 130 176 217 260 330 393
#
# _framework density 22.248584000000001
#
# number of rings (size 3 to 8) (size 9 to 14) (size 15 to 20)
#    0.000    1.800    2.000    0.600    2.800    5.200 
#    3.600    6.000    0.000    0.000    0.000    0.000 
#    0.000    0.000    0.000    0.000    0.000    0.000 
#
# Total GULP energy -247972.583782 kJ/mol
# GULP energy per Si atom -12398.629189 kJ/mol
# Density = 2.219795 g / cm^3
# Si number density = 22.248584 Si / 1000 Ang^3
#
#
#
# Elastic Constant Matrix: (Units=GPa)
#
#
# Indices 1 2 3 4 5 6 
#
# 1 155.1207 69.0428 25.1168 0.0000 4.9591 0.0000
# 2 69.0428 129.6428 30.3262 0.0000 -10.5197 0.0000
# 3 25.1168 30.3262 112.5798 0.0000 1.1673 0.0000
# 4 0.0000 0.0000 0.0000 20.5895 0.0000 -1.6332
# 5 4.9591 -10.5197 1.1673 0.0000 28.5789 0.0000
# 6 0.0000 0.0000 0.0000 -1.6332 0.0000 24.8929
#
#
#
# Elastic Compliance Matrix: (Units=1/GPa)
#
#
# Indices 1 2 3 4 5 6 
#
# 1 0.008789 -0.004797 -0.000635 0.000000 -0.003265 0.000000
# 2 -0.004797 0.011139 -0.001982 0.000000 0.005013 0.000000
# 3 -0.000635 -0.001982 0.009569 0.000000 -0.001010 0.000000
# 4 0.000000 0.000000 0.000000 0.048823 0.000000 0.003203
# 5 -0.003265 0.005013 -0.001010 0.000000 0.037444 0.000000
# 6 0.000000 0.000000 0.000000 0.003203 0.000000 0.040382
#
#
# Mechanical properties :
#
#
# Convention : Reuss Voigt Hill
#
# Bulk Modulus (GPa) = 68.17504 71.81278 69.99391
# Shear Modulus (GPa) = 28.43126 33.00274 30.71700
#
# Velocity S-wave (km/s) = 3.57864 3.85562 3.71971
# Velocity P-wave (km/s) = 6.91263 7.22279 7.06941
#
# Compressibility (1/GPa) = 0.01466812
#
# Stress axis : x y z
#
# Youngs Moduli (GPa) = 113.78014 89.77678 104.50800
#
# Poissons Ratio (x) = 0.43067 0.06634
# Poissons Ratio (y) = 0.54581 0.20716
# Poissons Ratio (z) = 0.07222 0.17796
#
# Static dielectric constant tensor:
#      x y z
#    x 3.944830 0.000000 0.150990 
#    y 0.000000 3.774620 0.000000 
#    z 0.150990 0.000000 4.043960 
# 
# 
# High freq. dielectric constant tensor:
#      x y z
#    x 1.885040 0.000000 0.014640 
#    y 0.000000 1.858820 0.000000 
#    z 0.014640 0.000000 1.874970 
# 
# From -- ./inp_files/50956.got.cif
#   From: 2010.06.25/outbox.cif.g09.slc.cpg/sg12_26_cif.got.tgz:50956.got - 2010.06.28 00:19:55.
