data_PCOD8110151
_publ_section_title
;
Structure prediction by ZEFSAII (Michael W. Deem and Ramdas Pophale) SiO2 
 PCOD8110151
Probable space group: C 2/M
;
_chemical_formula_sum "Si O2"
_cell_formula_units_Z 64
_cell_length_a 8.648705
_cell_length_b 18.726339
_cell_length_c 20.575308
_cell_angle_alpha 90.000000
_cell_angle_beta 85.105113
_cell_angle_gamma 90.000000
_cell_volume 3320.194346
_symmetry_space_group_name_H-M "C 2/M"
_symmetry_group_IT_number 12
_symmetry_cell_setting 'monoclinic'
loop_
_space_group_symop_operation_xyz
x,y,z
-x,y,-z
-x,-y,-z
x,-y,z
1/2+x,1/2+y,z
1/2-x,1/2+y,-z
1/2-x,1/2-y,-z
1/2+x,1/2-y,z
loop_
_atom_site_type_symbol
_atom_site_label
_atom_site_fract_x
_atom_site_fract_y
_atom_site_fract_z
Si Si1 0.361605 0.418805 0.200800
Si Si2 0.808925 0.311173 0.318392
Si Si3 0.369632 0.798106 0.758021
Si Si4 0.633483 0.214846 0.954220
Si Si5 0.075467 0.187466 0.128769
Si Si6 0.135499 0.923131 0.544852
Si Si7 0.157871 0.314739 0.529465
Si Si8 0.463338 0.419305 0.672899
O O1 0.317934 0.500000 0.179950
O O2 0.214053 0.365475 0.204496
O O3 0.497083 0.387923 0.149590
O O4 0.422790 0.420688 0.271113
O O5 0.736474 0.236268 0.295487
O O6 0.847917 0.311255 0.392917
O O7 0.689580 0.374232 0.306082
O O8 0.969577 0.327146 0.276329
O O9 0.407255 0.737953 0.809547
O O10 0.749035 0.169515 0.903595
O O11 0.538873 0.274954 0.918370
O O12 0.500000 0.170640 0.000000
O O13 0.750000 0.250000 0.000000
O O14 0.274009 0.886976 0.501679
O O15 0.000000 0.933781 0.500000
O O16 0.062677 0.882889 0.610529
O O17 0.199645 0.000000 0.566280
O O18 0.250000 0.250000 0.500000
O O19 0.000000 0.303615 0.500000
O O20 0.411904 0.500000 0.655646
#
# Coordination Sequence:
#
# PCOD8110151 Si02
#       8
#     8   8   8   8   8   8   8   8
#     4  11  24  40  61  92 128 165 203 253 316 365
#     4  12  23  38  59  83 117 150 202 259 311 373
#     4  12  23  38  63  90 119 160 205 255 307 359
#     4   9  19  33  61 101 128 158 204 248 280 334
#     4  11  18  37  63  94 124 163 206 249 288 352
#     4  10  21  41  62  78 106 149 195 244 307 382
#     4  12  27  38  55  82 112 146 193 253 318 375
#     4  10  22  40  61  85 116 155 198 249 317 385
#
# _framework density 19.275979
#
# number of rings (size 3 to 8) (size 9 to 14) (size 15 to 20)
#    0.000    1.125    5.000    1.125    5.250    0.750 
#    0.000    0.000    0.000    3.750    0.000    0.000 
#    0.000    0.000    0.000    0.000    0.000    0.000 
#
# Total GULP energy -396509.210084 kJ/mol
# GULP energy per Si atom -12390.912815 kJ/mol
# Density = 1.923211 g / cm^3
# Si number density = 19.275979 Si / 1000 Ang^3
#
#
#
# Elastic Constant Matrix: (Units=GPa)
#
#
# Indices 1 2 3 4 5 6 
#
# 1 117.6738 40.2029 42.7504 0.0000 -20.8298 0.0000
# 2 40.2029 94.7932 20.5883 0.0000 -14.7250 0.0000
# 3 42.7504 20.5883 81.9094 0.0000 -22.2223 0.0000
# 4 0.0000 0.0000 0.0000 11.2354 0.0000 2.9845
# 5 -20.8298 -14.7250 -22.2223 0.0000 44.5415 0.0000
# 6 0.0000 0.0000 0.0000 2.9845 0.0000 29.4041
#
#
#
# Elastic Compliance Matrix: (Units=1/GPa)
#
#
# Indices 1 2 3 4 5 6 
#
# 1 0.011814 -0.003684 -0.004709 0.000000 0.001958 0.000000
# 2 -0.003684 0.012584 -0.000670 0.000000 0.002103 0.000000
# 3 -0.004709 -0.000670 0.016397 0.000000 0.005757 0.000000
# 4 0.000000 0.000000 0.000000 0.091471 0.000000 -0.009284
# 5 0.001958 0.002103 0.005757 0.000000 0.026934 0.000000
# 6 0.000000 0.000000 0.000000 -0.009284 0.000000 0.034951
#
#
# Mechanical properties :
#
#
# Convention : Reuss Voigt Hill
#
# Bulk Modulus (GPa) = 44.11214 55.71774 49.91494
# Shear Modulus (GPa) = 22.74474 29.75852 26.25163
#
# Velocity S-wave (km/s) = 3.43877 3.93340 3.69437
# Velocity P-wave (km/s) = 6.22102 7.04251 6.64447
#
# Compressibility (1/GPa) = 0.02266950
#
# Stress axis : x y z
#
# Youngs Moduli (GPa) = 84.64683 79.46787 60.98858
#
# Poissons Ratio (x) = 0.29272 0.28719
# Poissons Ratio (y) = 0.31180 0.04085
# Poissons Ratio (z) = 0.39859 0.05323
#
# Static dielectric constant tensor:
#      x y z
#    x 3.720590 0.000000 -0.205280 
#    y 0.000000 -1.200240 0.000000 
#    z -0.205280 0.000000 3.751870 
# 
# 
# High freq. dielectric constant tensor:
#      x y z
#    x 1.761760 0.000000 -0.007100 
#    y 0.000000 1.721530 0.000000 
#    z -0.007100 0.000000 1.763880 
# 
# From -- ./inp_files/300786.got.cif
#   From: 2010.06.25/outbox.cif.g09.slc.cpg/sg12_151_cif.got.tgz:300786.got - 2010.06.28 00:19:55.
