data_PCOD8110712
_publ_section_title
;
Structure prediction by ZEFSAII (Michael W. Deem and Ramdas Pophale) SiO2 
 PCOD8110712
Probable space group: C 2/M
;
_chemical_formula_sum "Si O2"
_cell_formula_units_Z 64
_cell_length_a 18.437276
_cell_length_b 14.188772
_cell_length_c 12.488528
_cell_angle_alpha 90.000000
_cell_angle_beta 91.408188
_cell_angle_gamma 90.000000
_cell_volume 3266.041035
_symmetry_space_group_name_H-M "C 2/M"
_symmetry_group_IT_number 12
_symmetry_cell_setting 'monoclinic'
loop_
_space_group_symop_operation_xyz
x,y,z
-x,y,-z
-x,-y,-z
x,-y,z
1/2+x,1/2+y,z
1/2-x,1/2+y,-z
1/2-x,1/2-y,-z
1/2+x,1/2-y,z
loop_
_atom_site_type_symbol
_atom_site_label
_atom_site_fract_x
_atom_site_fract_y
_atom_site_fract_z
Si Si1 0.637714 0.108838 0.090681
Si Si2 0.928893 0.767976 0.055891
Si Si3 0.923997 0.685145 0.273215
Si Si4 0.275630 0.608741 0.560477
Si Si5 0.207851 0.109012 0.990358
Si Si6 0.730732 0.893043 0.791190
Si Si7 0.571231 0.894258 0.314043
Si Si8 0.366557 0.777820 0.495107
O O1 0.724239 0.125650 0.086293
O O2 0.615849 0.136295 0.210536
O O3 0.618063 0.000000 0.065669
O O4 0.593782 0.170133 0.002406
O O5 0.950764 0.755939 0.181489
O O6 0.863207 0.840663 0.054496
O O7 0.000000 0.810054 0.000000
O O8 0.848294 0.647007 0.228793
O O9 0.913069 0.732691 0.388743
O O10 0.985169 0.605032 0.287001
O O11 0.284061 0.500000 0.523600
O O12 0.280433 0.617536 0.688731
O O13 0.340184 0.671554 0.516028
O O14 0.198842 0.647793 0.517423
O O15 0.187572 0.000000 0.999389
O O16 0.228954 0.155049 0.106718
O O17 0.718298 0.000000 0.824205
O O18 0.585168 0.817539 0.406683
O O19 0.592929 0.000000 0.351407
#
# Coordination Sequence:
#
# PCOD8110712 Si02
#       8
#     8   8   8   8   8   8   8   8
#     4  10  22  38  60  90 117 152 193 243 302 358
#     4  12  24  39  60  86 123 161 194 244 301 360
#     4  11  22  36  56  87 118 158 197 239 303 364
#     4   9  19  36  58  86 116 155 202 251 300 347
#     4  10  22  39  61  89 118 156 206 251 293 353
#     4   9  18  33  57  85 114 149 198 250 295 351
#     4  11  23  38  59  86 123 157 190 244 312 371
#     4  10  22  37  58  85 120 156 199 249 295 360
#
# _framework density 19.595589
#
# number of rings (size 3 to 8) (size 9 to 14) (size 15 to 20)
#    0.000    1.750    2.500    1.500    1.750    5.000 
#    0.000    1.875    0.000    2.250    0.000    0.000 
#    0.000    0.000    0.000    0.000    0.000    0.000 
#
# Total GULP energy -396738.517813 kJ/mol
# GULP energy per Si atom -12398.078682 kJ/mol
# Density = 1.955099 g / cm^3
# Si number density = 19.595589 Si / 1000 Ang^3
#
#
#
# Elastic Constant Matrix: (Units=GPa)
#
#
# Indices 1 2 3 4 5 6 
#
# 1 85.2630 38.4483 38.4184 0.0000 -14.3899 0.0000
# 2 38.4483 86.4614 43.8440 0.0000 -6.0688 0.0000
# 3 38.4184 43.8440 132.2063 0.0000 -17.0257 0.0000
# 4 0.0000 0.0000 0.0000 18.7358 0.0000 0.6574
# 5 -14.3899 -6.0688 -17.0257 0.0000 31.2925 0.0000
# 6 0.0000 0.0000 0.0000 0.6574 0.0000 29.9077
#
#
#
# Elastic Compliance Matrix: (Units=1/GPa)
#
#
# Indices 1 2 3 4 5 6 
#
# 1 0.016144 -0.005740 -0.002124 0.000000 0.005155 0.000000
# 2 -0.005740 0.015946 -0.003830 0.000000 -0.001631 0.000000
# 3 -0.002124 -0.003830 0.009925 0.000000 0.003681 0.000000
# 4 0.000000 0.000000 0.000000 0.053415 0.000000 -0.001174
# 5 0.005155 -0.001631 0.003681 0.000000 0.036013 0.000000
# 6 0.000000 0.000000 0.000000 -0.001174 0.000000 0.033462
#
#
# Mechanical properties :
#
#
# Convention : Reuss Voigt Hill
#
# Bulk Modulus (GPa) = 53.68572 60.59468 57.14020
# Shear Modulus (GPa) = 25.70651 28.20188 26.95419
#
# Velocity S-wave (km/s) = 3.62588 3.79779 3.71283
# Velocity P-wave (km/s) = 6.70713 7.08665 6.89950
#
# Compressibility (1/GPa) = 0.01862693
#
# Stress axis : x y z
#
# Youngs Moduli (GPa) = 61.94307 62.71049 100.75190
#
# Poissons Ratio (x) = 0.35997 0.21398
# Poissons Ratio (y) = 0.35556 0.38591
# Poissons Ratio (z) = 0.13156 0.24020
#
# Static dielectric constant tensor:
#      x y z
#    x 3.487320 0.000000 -0.158450 
#    y 0.000000 3.406050 0.000000 
#    z -0.158450 0.000000 3.859080 
# 
# 
# High freq. dielectric constant tensor:
#      x y z
#    x 1.757660 0.000000 -0.008140 
#    y 0.000000 1.743780 0.000000 
#    z -0.008140 0.000000 1.775650 
# 
# From -- ./inp_files/156608.got.cif
#   From: 2010.06.25/outbox.cif.g09.slc.cpg/sg12_79_cif.got.tgz:156608.got - 2010.06.28 00:19:55.
