data_PCOD8110634
_publ_section_title
;
Structure prediction by ZEFSAII (Michael W. Deem and Ramdas Pophale) SiO2 
 PCOD8110634
Probable space group: C 2/M
;
_chemical_formula_sum "Si O2"
_cell_formula_units_Z 28
_cell_length_a 10.036874
_cell_length_b 28.087145
_cell_length_c 5.256495
_cell_angle_alpha 90.000000
_cell_angle_beta 107.441433
_cell_angle_gamma 90.000000
_cell_volume 1413.713961
_symmetry_space_group_name_H-M "C 2/M"
_symmetry_group_IT_number 12
_symmetry_cell_setting 'monoclinic'
loop_
_space_group_symop_operation_xyz
x,y,z
-x,y,-z
-x,-y,-z
x,-y,z
1/2+x,1/2+y,z
1/2-x,1/2+y,-z
1/2-x,1/2-y,-z
1/2+x,1/2-y,z
loop_
_atom_site_type_symbol
_atom_site_label
_atom_site_fract_x
_atom_site_fract_y
_atom_site_fract_z
Si Si1 0.500000 0.717590 0.000000
Si Si2 0.853331 0.848552 0.272370
Si Si3 0.576987 0.808966 0.289573
Si Si4 0.092318 0.948698 0.803720
O O1 0.374395 0.685493 0.039986
O O2 0.570099 0.751246 0.257726
O O3 0.735800 0.827094 0.388966
O O4 0.808181 0.902172 0.160083
O O5 0.000000 0.850693 0.500000
O O6 0.500000 0.825864 0.500000
O O7 0.500000 0.832385 0.000000
O O8 0.000000 0.951132 0.500000
O O9 0.173152 0.000000 0.873517
O O10 0.000000 0.940858 0.000000
#
# Coordination Sequence:
#
# PCOD8110634 Si02
#       4
#     4   8   8   8
#     4  10  22  36  59  82 115 148 192 234 272 328
#     4  11  22  36  62  85 111 148 195 230 278 333
#     4  10  25  40  54  79 122 154 183 229 281 330
#     4   9  18  33  54  84 112 135 176 237 285 320
#
# _framework density 19.805985
#
# number of rings (size 3 to 8) (size 9 to 14) (size 15 to 20)
#    0.857    1.143    1.429    1.714    4.000    2.286 
#    0.000    0.000    0.000    1.714    0.000    0.000 
#    0.000    0.000    0.000    0.000    0.000    0.000 
#
# Total GULP energy -173438.764407 kJ/mol
# GULP energy per Si atom -12388.483172 kJ/mol
# Density = 1.976091 g / cm^3
# Si number density = 19.805985 Si / 1000 Ang^3
#
#
#
# Elastic Constant Matrix: (Units=GPa)
#
#
# Indices 1 2 3 4 5 6 
#
# 1 142.7432 71.3917 39.9705 0.0000 -26.9513 0.0000
# 2 71.3917 162.1228 16.0959 0.0000 -7.9453 0.0000
# 3 39.9705 16.0959 88.5328 0.0000 -28.2097 0.0000
# 4 0.0000 0.0000 0.0000 1.9217 0.0000 6.8977
# 5 -26.9513 -7.9453 -28.2097 0.0000 35.3614 0.0000
# 6 0.0000 0.0000 0.0000 6.8977 0.0000 -3.2868
#
#
#
# Elastic Compliance Matrix: (Units=1/GPa)
#
#
# Indices 1 2 3 4 5 6 
#
# 1 0.010826 -0.004266 -0.002398 0.000000 0.005380 0.000000
# 2 -0.004266 0.007974 0.000015 0.000000 -0.001448 0.000000
# 3 -0.002398 0.000015 0.015814 0.000000 0.010791 0.000000
# 4 0.000000 0.000000 0.000000 0.060985 0.000000 0.127984
# 5 0.005380 -0.001448 0.010791 0.000000 0.040663 0.000000
# 6 0.000000 0.000000 0.000000 0.127984 0.000000 -0.035657
#
#
# Mechanical properties :
#
#
# Convention : Reuss Voigt Hill
#
# Bulk Modulus (GPa) = 46.91247 72.03500 59.47374
# Shear Modulus (GPa) = 41.31931 24.52864 32.92397
#
# Velocity S-wave (km/s) = 4.57245 3.52297 4.08158
# Velocity P-wave (km/s) = 7.18428 7.27995 7.23227
#
# Compressibility (1/GPa) = 0.02131630
#
# Stress axis : x y z
#
# Youngs Moduli (GPa) = 92.36756 125.40499 63.23658
#
# Poissons Ratio (x) = 0.53494 0.15164
# Poissons Ratio (y) = 0.39401 -0.00094
# Poissons Ratio (z) = 0.22150 -0.00186
#
# Static dielectric constant tensor:
#      x y z
#    x 3.273380 0.000000 -0.317820 
#    y 0.000000 4.379560 0.000000 
#    z -0.317820 0.000000 3.470420 
# 
# 
# High freq. dielectric constant tensor:
#      x y z
#    x 1.729660 0.000000 -0.035880 
#    y 0.000000 1.780210 0.000000 
#    z -0.035880 0.000000 1.769080 
# 
# From -- ./inp_files/3349.got.cif
#   From: 2010.06.25/outbox.cif.g09.slc.cpg/sg12_2_cif.got.tgz:3349.got - 2010.06.28 00:19:55.
