data_PCOD8110671
_publ_section_title
;
Structure prediction by ZEFSAII (Michael W. Deem and Ramdas Pophale) SiO2 
 PCOD8110671
Probable space group: C 2/M
;
_chemical_formula_sum "Si O2"
_cell_formula_units_Z 32
_cell_length_a 19.071941
_cell_length_b 13.291813
_cell_length_c 14.085036
_cell_angle_alpha 90.000000
_cell_angle_beta 28.402900
_cell_angle_gamma 90.000000
_cell_volume 1698.406652
_symmetry_space_group_name_H-M "C 2/M"
_symmetry_group_IT_number 12
_symmetry_cell_setting 'monoclinic'
loop_
_space_group_symop_operation_xyz
x,y,z
-x,y,-z
-x,-y,-z
x,-y,z
1/2+x,1/2+y,z
1/2-x,1/2+y,-z
1/2-x,1/2-y,-z
1/2+x,1/2-y,z
loop_
_atom_site_type_symbol
_atom_site_label
_atom_site_fract_x
_atom_site_fract_y
_atom_site_fract_z
Si Si1 0.634049 0.885220 0.412383
Si Si2 0.907075 0.737175 0.359569
Si Si3 0.802184 0.239873 0.077953
Si Si4 0.881010 0.881496 0.814184
O O1 0.500000 0.867220 0.500000
O O2 0.591179 0.856976 0.570766
O O3 0.769562 0.813615 0.217346
O O4 0.687508 0.000000 0.348064
O O5 0.750000 0.750000 0.500000
O O6 0.953987 0.837670 0.363102
O O7 0.029129 0.719301 0.130793
O O8 0.688402 0.332329 0.198121
O O9 0.776047 0.154017 0.027049
O O10 0.887531 0.000000 0.795392
#
# Coordination Sequence:
#
# PCOD8110671 Si02
#       4
#     8   8   8   8
#     4  11  20  36  64  91 112 153 208 248 290 347
#     4  10  22  37  53  86 128 154 187 245 306 354
#     4   9  19  36  57  84 118 148 202 246 289 342
#     4   9  17  35  58  79 114 156 193 237 296 350
#
# _framework density 18.841189
#
# number of rings (size 3 to 8) (size 9 to 14) (size 15 to 20)
#    1.500    0.750    2.500    0.750    0.000    5.000 
#    0.000    3.750    0.000    0.000    0.000    5.250 
#    0.000    0.000    0.000    0.000    0.000    0.000 
#
# Total GULP energy -198229.681850 kJ/mol
# GULP energy per Si atom -12389.355116 kJ/mol
# Density = 1.879831 g / cm^3
# Si number density = 18.841189 Si / 1000 Ang^3
#
#
#
# Elastic Constant Matrix: (Units=GPa)
#
#
# Indices 1 2 3 4 5 6 
#
# 1 59.5155 37.2224 46.6399 0.0000 -20.8132 0.0000
# 2 37.2224 128.7823 45.3240 0.0000 -12.4121 0.0000
# 3 46.6399 45.3240 116.7031 -0.0001 -12.3531 0.0000
# 4 0.0000 0.0000 -0.0001 25.9573 0.0000 7.5359
# 5 -20.8132 -12.4121 -12.3531 0.0000 39.3220 0.0000
# 6 0.0000 0.0000 0.0000 7.5359 0.0000 12.7089
#
#
#
# Elastic Compliance Matrix: (Units=1/GPa)
#
#
# Indices 1 2 3 4 5 6 
#
# 1 0.031317 -0.004549 -0.009461 0.000000 0.012168 0.000000
# 2 -0.004549 0.009780 -0.001974 0.000000 0.000059 0.000000
# 3 -0.009461 -0.001974 0.012951 0.000000 -0.001562 0.000000
# 4 0.000000 0.000000 0.000000 0.046536 0.000000 -0.027594
# 5 0.012168 0.000059 -0.001562 0.000000 0.031399 0.000000
# 6 0.000000 0.000000 0.000000 -0.027594 0.000000 0.095047
#
#
# Mechanical properties :
#
#
# Convention : Reuss Voigt Hill
#
# Bulk Modulus (GPa) = 45.28985 62.59704 53.94345
# Shear Modulus (GPa) = 18.77162 27.31862 23.04512
#
# Velocity S-wave (km/s) = 3.15986 3.81194 3.50111
# Velocity P-wave (km/s) = 6.11578 7.25742 6.71092
#
# Compressibility (1/GPa) = 0.02208000
#
# Stress axis : x y z
#
# Youngs Moduli (GPa) = 31.93166 102.24559 77.21370
#
# Poissons Ratio (x) = 0.46513 0.73051
# Poissons Ratio (y) = 0.14526 0.15243
# Poissons Ratio (z) = 0.30210 0.20184
#
# Static dielectric constant tensor:
#      x y z
#    x 3.140840 0.000000 0.057940 
#    y 0.000000 3.225020 0.000000 
#    z 0.057940 0.000000 3.421890 
# 
# 
# High freq. dielectric constant tensor:
#      x y z
#    x 1.695110 0.000000 0.002460 
#    y 0.000000 1.715680 0.000000 
#    z 0.002460 0.000000 1.727940 
# 
# From -- ./inp_files/222834.got.cif
#   From: 2010.06.25/outbox.cif.g09.slc.cpg/sg12_112_cif.got.tgz:222834.got - 2010.06.28 00:19:55.
