data_PCOD8110223
_publ_section_title
;
Structure prediction by ZEFSAII (Michael W. Deem and Ramdas Pophale) SiO2 
 PCOD8110223
Probable space group: C 2/M
;
_chemical_formula_sum "Si O2"
_cell_formula_units_Z 48
_cell_length_a 15.987228
_cell_length_b 8.738866
_cell_length_c 17.244373
_cell_angle_alpha 90.000000
_cell_angle_beta 90.120623
_cell_angle_gamma 90.000000
_cell_volume 2409.210207
_symmetry_space_group_name_H-M "C 2/M"
_symmetry_group_IT_number 12
_symmetry_cell_setting 'monoclinic'
loop_
_space_group_symop_operation_xyz
x,y,z
-x,y,-z
-x,-y,-z
x,-y,z
1/2+x,1/2+y,z
1/2-x,1/2+y,-z
1/2-x,1/2-y,-z
1/2+x,1/2-y,z
loop_
_atom_site_type_symbol
_atom_site_label
_atom_site_fract_x
_atom_site_fract_y
_atom_site_fract_z
Si Si1 0.908381 0.674951 0.838519
Si Si2 0.926986 0.828207 0.150845
Si Si3 0.662947 0.675664 0.010359
Si Si4 0.091946 0.818381 0.320243
Si Si5 0.242549 0.316880 0.415149
Si Si6 0.899946 0.826580 0.319611
O O1 0.880342 0.500000 0.829333
O O2 0.881628 0.738132 0.920970
O O3 0.874210 0.769506 0.764870
O O4 0.007627 0.691969 0.840737
O O5 0.871330 0.816076 0.228913
O O6 0.968212 0.000000 0.149348
O O7 0.878968 0.799138 0.072321
O O8 0.669139 0.500000 0.033269
O O9 0.750000 0.750000 0.000000
O O10 0.154233 0.742008 0.381582
O O11 0.994984 0.759429 0.332617
O O12 0.096582 0.000000 0.327784
O O13 0.240925 0.500000 0.415084
O O14 0.250000 0.250000 0.500000
O O15 0.324176 0.250760 0.368567
O O16 0.905797 0.000000 0.347722
#
# Coordination Sequence:
#
# PCOD8110223 Si02
#       6
#     8   8   8   8   8   8
#     4  11  22  37  58  84 116 155 197 243 296 356
#     4   9  19  38  60  81 110 153 199 245 297 352
#     4  11  23  36  54  83 118 156 200 248 297 349
#     4  10  21  41  65  90 118 156 203 251 302 361
#     4  11  23  40  63  92 124 159 197 245 302 368
#     4   8  18  38  63  86 116 159 201 240 299 366
#
# _framework density 19.923542999999999
#
# number of rings (size 3 to 8) (size 9 to 14) (size 15 to 20)
#    0.000    2.000    0.000    4.500    2.333    4.000 
#    0.000   11.667    0.000    0.000    0.000    0.000 
#    0.000    0.000    0.000    0.000    0.000    0.000 
#
# Total GULP energy -297336.074242 kJ/mol
# GULP energy per Si atom -12389.003093 kJ/mol
# Density = 1.987820 g / cm^3
# Si number density = 19.923543 Si / 1000 Ang^3
#
#
#
# Elastic Constant Matrix: (Units=GPa)
#
#
# Indices 1 2 3 4 5 6 
#
# 1 71.5195 30.6066 41.6327 0.0000 -10.5874 0.0000
# 2 30.6066 82.2290 41.2353 0.0000 3.5230 0.0000
# 3 41.6327 41.2353 123.8480 0.0000 -15.7987 0.0000
# 4 0.0000 0.0000 0.0000 33.8417 0.0000 1.8127
# 5 -10.5874 3.5230 -15.7987 0.0000 26.4449 0.0000
# 6 0.0000 0.0000 0.0000 1.8127 0.0000 30.5343
#
#
#
# Elastic Compliance Matrix: (Units=1/GPa)
#
#
# Indices 1 2 3 4 5 6 
#
# 1 0.019582 -0.005587 -0.003927 0.000000 0.006238 0.000000
# 2 -0.005587 0.016898 -0.004677 0.000000 -0.007282 0.000000
# 3 -0.003927 -0.004677 0.011724 0.000000 0.006055 0.000000
# 4 0.000000 0.000000 0.000000 0.029644 0.000000 -0.001760
# 5 0.006238 -0.007282 0.006055 0.000000 0.044900 0.000000
# 6 0.000000 0.000000 0.000000 -0.001760 0.000000 0.032855
#
#
# Mechanical properties :
#
#
# Convention : Reuss Voigt Hill
#
# Bulk Modulus (GPa) = 50.44656 56.06065 53.25360
# Shear Modulus (GPa) = 26.23406 29.10562 27.66984
#
# Velocity S-wave (km/s) = 3.63262 3.82627 3.73071
# Velocity P-wave (km/s) = 6.55512 6.90793 6.73384
#
# Compressibility (1/GPa) = 0.01982296
#
# Stress axis : x y z
#
# Youngs Moduli (GPa) = 51.06604 59.17838 85.29403
#
# Poissons Ratio (x) = 0.33062 0.33494
# Poissons Ratio (y) = 0.28530 0.39893
# Poissons Ratio (z) = 0.20053 0.27678
#
# Static dielectric constant tensor:
#      x y z
#    x 3.769570 0.000000 -0.059050 
#    y 0.000000 3.558640 0.000000 
#    z -0.059050 0.000000 3.664680 
# 
# 
# High freq. dielectric constant tensor:
#      x y z
#    x 1.773080 0.000000 -0.001240 
#    y 0.000000 1.764350 0.000000 
#    z -0.001240 0.000000 1.791280 
# 
# From -- ./inp_files/267726.got.cif
#   From: 2010.06.25/outbox.cif.g09.slc.cpg/sg12_134_cif.got.tgz:267726.got - 2010.06.28 00:19:55.
