data_PCOD8110706
_publ_section_title
;
Structure prediction by ZEFSAII (Michael W. Deem and Ramdas Pophale) SiO2 
 PCOD8110706
Probable space group: C 2/M
;
_chemical_formula_sum "Si O2"
_cell_formula_units_Z 64
_cell_length_a 29.891900
_cell_length_b 9.011505
_cell_length_c 15.481613
_cell_angle_alpha 90.000000
_cell_angle_beta 132.202769
_cell_angle_gamma 90.000000
_cell_volume 3089.240300
_symmetry_space_group_name_H-M "C 2/M"
_symmetry_group_IT_number 12
_symmetry_cell_setting 'monoclinic'
loop_
_space_group_symop_operation_xyz
x,y,z
-x,y,-z
-x,-y,-z
x,-y,z
1/2+x,1/2+y,z
1/2-x,1/2+y,-z
1/2-x,1/2-y,-z
1/2+x,1/2-y,z
loop_
_atom_site_type_symbol
_atom_site_label
_atom_site_fract_x
_atom_site_fract_y
_atom_site_fract_z
Si Si1 0.566390 0.675292 0.606804
Si Si2 0.715547 0.329237 0.098371
Si Si3 0.979818 0.169277 0.123031
Si Si4 0.126516 0.165343 0.139875
Si Si5 0.610606 0.323337 0.847259
Si Si6 0.603877 0.826655 0.276027
Si Si7 0.297646 0.323888 0.497047
Si Si8 0.685995 0.326310 0.675314
O O1 0.500000 0.743950 0.500000
O O2 0.559221 0.500000 0.608393
O O3 0.592979 0.740997 0.730969
O O4 0.614850 0.715879 0.594858
O O5 0.732316 0.500000 0.106329
O O6 0.674743 0.304387 0.129196
O O7 0.777301 0.242181 0.196440
O O8 0.677000 0.266490 0.966176
O O9 0.941204 0.227733 0.153964
O O10 0.034553 0.281517 0.183404
O O11 0.002419 0.000000 0.166887
O O12 0.940661 0.178490 0.985416
O O13 0.136019 0.285899 0.227088
O O14 0.134935 0.000000 0.190103
O O15 0.614048 0.500000 0.854158
O O16 0.635952 0.734003 0.393122
O O17 0.611630 0.000000 0.303329
O O18 0.293299 0.500000 0.500609
O O19 0.250000 0.250000 0.500000
O O20 0.289094 0.273607 0.385845
O O21 0.693535 0.500000 0.694589
#
# Coordination Sequence:
#
# PCOD8110706 Si02
#       8
#     8   8   8   8   8   8   8   8
#     4   9  18  33  57  87 116 145 185 238 284 326
#     4   9  18  34  57  83 112 148 184 225 279 340
#     4   9  18  33  55  80 108 145 189 236 281 332
#     4   9  18  34  54  78 108 147 193 235 280 333
#     4   8  16  32  56  84 112 145 189 230 274 335
#     4  12  24  34  50  78 111 148 189 233 285 344
#     4  11  24  41  59  81 111 146 190 238 286 338
#     4  10  22  37  57  88 114 142 189 239 284 335
#
# _framework density 20.717065999999999
#
# number of rings (size 3 to 8) (size 9 to 14) (size 15 to 20)
#    0.000    2.375    0.000    4.125    1.750    6.000 
#    0.000    1.875    0.000    1.125    0.000    0.000 
#    0.000    0.000    0.000    0.000    0.000    0.000 
#
# Total GULP energy -396663.780856 kJ/mol
# GULP energy per Si atom -12395.743152 kJ/mol
# Density = 2.066991 g / cm^3
# Si number density = 20.717066 Si / 1000 Ang^3
#
#
#
# Elastic Constant Matrix: (Units=GPa)
#
#
# Indices 1 2 3 4 5 6 
#
# 1 74.7990 23.5590 45.8418 0.0000 4.4141 0.0000
# 2 23.5590 53.9584 32.2242 0.0000 -0.4282 0.0000
# 3 45.8418 32.2242 134.6065 0.0000 2.7030 0.0000
# 4 0.0000 0.0000 0.0000 24.8999 0.0000 5.5431
# 5 4.4141 -0.4282 2.7030 0.0000 35.0144 0.0000
# 6 0.0000 0.0000 0.0000 5.5431 0.0000 17.4821
#
#
#
# Elastic Compliance Matrix: (Units=1/GPa)
#
#
# Indices 1 2 3 4 5 6 
#
# 1 0.018066 -0.004962 -0.004925 0.000000 -0.001958 0.000000
# 2 -0.004962 0.023003 -0.003841 0.000000 0.001203 0.000000
# 3 -0.004925 -0.003841 0.010030 0.000000 -0.000200 0.000000
# 4 0.000000 0.000000 0.000000 0.043211 0.000000 -0.013701
# 5 -0.001958 0.001203 -0.000200 0.000000 0.028837 0.000000
# 6 0.000000 0.000000 0.000000 -0.013701 0.000000 0.061545
#
#
# Mechanical properties :
#
#
# Convention : Reuss Voigt Hill
#
# Bulk Modulus (GPa) = 42.29770 51.84600 47.07185
# Shear Modulus (GPa) = 22.72422 26.26187 24.49304
#
# Velocity S-wave (km/s) = 3.31552 3.56426 3.44214
# Velocity P-wave (km/s) = 5.92605 6.48218 6.21034
#
# Compressibility (1/GPa) = 0.02364195
#
# Stress axis : x y z
#
# Youngs Moduli (GPa) = 55.35199 43.47307 99.70049
#
# Poissons Ratio (x) = 0.21571 0.49107
# Poissons Ratio (y) = 0.27466 0.38296
# Poissons Ratio (z) = 0.27263 0.16698
#
# Static dielectric constant tensor:
#      x y z
#    x 3.746460 0.000000 -0.022330 
#    y 0.000000 3.308240 0.000000 
#    z -0.022330 0.000000 4.136260 
# 
# 
# High freq. dielectric constant tensor:
#      x y z
#    x 1.812900 0.000000 0.004820 
#    y 0.000000 1.765270 0.000000 
#    z 0.004820 0.000000 1.822280 
# 
# From -- ./inp_files/250131.got.cif
#   From: 2010.06.25/outbox.cif.g09.slc.cpg/sg12_126_cif.got.tgz:250131.got - 2010.06.28 00:19:55.
