data_PCOD8110335
_publ_section_title
;
Structure prediction by ZEFSAII (Michael W. Deem and Ramdas Pophale) SiO2 
 PCOD8110335
Probable space group: C 2/M
;
_chemical_formula_sum "Si O2"
_cell_formula_units_Z 48
_cell_length_a 14.654843
_cell_length_b 14.273919
_cell_length_c 12.804284
_cell_angle_alpha 90.000000
_cell_angle_beta 56.984430
_cell_angle_gamma 90.000000
_cell_volume 2245.920781
_symmetry_space_group_name_H-M "C 2/M"
_symmetry_group_IT_number 12
_symmetry_cell_setting 'monoclinic'
loop_
_space_group_symop_operation_xyz
x,y,z
-x,y,-z
-x,-y,-z
x,-y,z
1/2+x,1/2+y,z
1/2-x,1/2+y,-z
1/2-x,1/2-y,-z
1/2+x,1/2-y,z
loop_
_atom_site_type_symbol
_atom_site_label
_atom_site_fract_x
_atom_site_fract_y
_atom_site_fract_z
Si Si1 0.674706 0.393974 0.669960
Si Si2 0.450137 0.752271 0.137358
Si Si3 0.766198 0.605996 0.218654
Si Si4 0.395284 0.892879 0.629270
Si Si5 0.657866 0.246946 0.148578
Si Si6 0.600598 0.606439 0.497595
O O1 0.632398 0.500000 0.710660
O O2 0.633672 0.330005 0.788585
O O3 0.804855 0.390687 0.594450
O O4 0.628725 0.347986 0.591504
O O5 0.385220 0.848587 0.156022
O O6 0.540057 0.760138 0.170460
O O7 0.500000 0.717414 0.000000
O O8 0.781939 0.500000 0.168962
O O9 0.681963 0.656029 0.192559
O O10 0.712474 0.610629 0.365327
O O11 0.500000 0.852642 0.500000
O O12 0.349649 0.835336 0.758828
O O13 0.416613 0.000000 0.653897
O O14 0.750000 0.250000 0.000000
O O15 0.500000 0.657875 0.500000
O O16 0.563969 0.500000 0.540911
#
# Coordination Sequence:
#
# PCOD8110335 Si02
#       6
#     8   8   8   8   8   8
#     4  10  21  41  68  98 133 171 219 278 340 406
#     4  12  25  44  67  96 135 173 233 284 337 413
#     4  11  25  45  68  99 137 181 227 279 346 411
#     4  10  23  43  69 102 138 179 227 283 350 415
#     4  12  25  46  68  98 139 181 234 289 348 421
#     4   9  19  37  62  96 131 167 216 267 330 408
#
# _framework density 21.372081000000001
#
# number of rings (size 3 to 8) (size 9 to 14) (size 15 to 20)
#    0.000    1.333    3.333    1.000    2.333    6.667 
#    0.000    0.000    0.000    0.000    0.000    0.000 
#    0.000    0.000    0.000    0.000    0.000    0.000 
#
# Total GULP energy -297323.165260 kJ/mol
# GULP energy per Si atom -12388.465219 kJ/mol
# Density = 2.132344 g / cm^3
# Si number density = 21.372081 Si / 1000 Ang^3
#
#
#
# Elastic Constant Matrix: (Units=GPa)
#
#
# Indices 1 2 3 4 5 6 
#
# 1 148.4163 46.9676 34.6034 0.0000 7.5768 0.0000
# 2 46.9676 113.1077 54.4976 0.0000 7.2887 0.0000
# 3 34.6034 54.4976 130.7167 0.0000 -0.5106 0.0000
# 4 0.0000 0.0000 0.0000 97.9507 0.0000 -33.6691
# 5 7.5768 7.2887 -0.5106 0.0000 33.9642 0.0000
# 6 0.0000 0.0000 0.0000 -33.6691 0.0000 40.3626
#
#
#
# Elastic Compliance Matrix: (Units=1/GPa)
#
#
# Indices 1 2 3 4 5 6 
#
# 1 0.007887 -0.002741 -0.000950 0.000000 -0.001186 0.000000
# 2 -0.002741 0.012223 -0.004378 0.000000 -0.002077 0.000000
# 3 -0.000950 -0.004378 0.009732 0.000000 0.001298 0.000000
# 4 0.000000 0.000000 0.000000 0.014313 0.000000 0.011940
# 5 -0.001186 -0.002077 0.001298 0.000000 0.030173 0.000000
# 6 0.000000 0.000000 0.000000 0.011940 0.000000 0.034735
#
#
# Mechanical properties :
#
#
# Convention : Reuss Voigt Hill
#
# Bulk Modulus (GPa) = 72.97338 73.81976 73.39657
# Shear Modulus (GPa) = 38.52994 51.53365 45.03180
#
# Velocity S-wave (km/s) = 4.25057 4.91579 4.59523
# Velocity P-wave (km/s) = 7.63598 8.17528 7.91022
#
# Compressibility (1/GPa) = 0.01370363
#
# Stress axis : x y z
#
# Youngs Moduli (GPa) = 126.78755 81.81420 102.75385
#
# Poissons Ratio (x) = 0.22426 0.09759
# Poissons Ratio (y) = 0.34754 0.44989
# Poissons Ratio (z) = 0.12041 0.35821
#
# Static dielectric constant tensor:
#      x y z
#    x 5.250410 0.000000 -0.334040 
#    y 0.000000 3.880280 0.000000 
#    z -0.334040 0.000000 4.123090 
# 
# 
# High freq. dielectric constant tensor:
#      x y z
#    x 1.857060 0.000000 0.000400 
#    y 0.000000 1.828600 0.000000 
#    z 0.000400 0.000000 1.841100 
# 
# From -- ./inp_files/143563.got.cif
#   From: 2010.06.25/outbox.cif.g09.slc.cpg/sg12_72_cif.got.tgz:143563.got - 2010.06.28 00:19:55.
