data_PCOD8110775
_publ_section_title
;
Structure prediction by ZEFSAII (Michael W. Deem and Ramdas Pophale) SiO2 
 PCOD8110775
Probable space group: C 2/M
;
_chemical_formula_sum "Si O2"
_cell_formula_units_Z 36
_cell_length_a 17.534844
_cell_length_b 15.570826
_cell_length_c 19.014842
_cell_angle_alpha 90.000000
_cell_angle_beta 22.761637
_cell_angle_gamma 90.000000
_cell_volume 2008.644369
_symmetry_space_group_name_H-M "C 2/M"
_symmetry_group_IT_number 12
_symmetry_cell_setting 'monoclinic'
loop_
_space_group_symop_operation_xyz
x,y,z
-x,y,-z
-x,-y,-z
x,-y,z
1/2+x,1/2+y,z
1/2-x,1/2+y,-z
1/2-x,1/2-y,-z
1/2+x,1/2-y,z
loop_
_atom_site_type_symbol
_atom_site_label
_atom_site_fract_x
_atom_site_fract_y
_atom_site_fract_z
Si Si1 0.290999 0.638104 0.709029
Si Si2 0.705078 0.672034 0.794933
Si Si3 0.603263 0.904748 0.499995
Si Si4 0.081131 0.500000 0.794712
Si Si5 0.670411 0.500000 0.205372
Si Si6 0.748921 0.000000 0.500038
O O1 0.500000 0.663503 0.500000
O O2 0.178530 0.725510 0.821524
O O3 0.169680 0.584401 0.755233
O O4 0.320109 0.584404 0.755055
O O5 0.742252 0.643551 0.682541
O O6 0.892564 0.643446 0.682644
O O7 0.500000 0.632516 0.000000
O O8 0.695467 0.914044 0.500066
O O9 0.566767 0.000000 0.499824
O O10 0.121648 0.500000 0.678176
O O11 0.847853 0.500000 0.000013
O O12 0.477961 0.500000 0.321777
#
# Coordination Sequence:
#
# PCOD8110775 Si02
#       6
#     8   8   8   4   4   4
#     4  11  19  37  63  84 110 144 181 233 280 319
#     4  11  20  36  61  86 109 140 186 239 274 314
#     4   9  22  38  54  83 112 145 189 223 274 331
#     4  11  21  37  59  86 112 143 186 225 270 334
#     4  11  21  37  59  86 112 143 186 225 270 334
#     4  10  22  38  54  80 114 156 182 212 280 328
#
# _framework density 17.922535
#
# number of rings (size 3 to 8) (size 9 to 14) (size 15 to 20)
#    0.667    0.889    4.444    4.667    0.000    3.556 
#    0.000    4.444    0.000    5.333    0.000    0.000 
#    0.000    0.000    0.000    0.000    0.000    0.000 
#
# Total GULP energy -223108.023359 kJ/mol
# GULP energy per Si atom -12394.890187 kJ/mol
# Density = 1.788174 g / cm^3
# Si number density = 17.922535 Si / 1000 Ang^3
#
#
#
# Elastic Constant Matrix: (Units=GPa)
#
#
# Indices 1 2 3 4 5 6 
#
# 1 152.3882 38.8044 64.6298 -0.0104 10.1775 -0.0166
# 2 38.8044 105.5057 24.1090 -0.0451 1.0905 -0.0876
# 3 64.6298 24.1090 170.7927 -0.0724 -12.2432 -0.1009
# 4 -0.0104 -0.0451 -0.0724 10.2476 -0.0201 0.9184
# 5 10.1775 1.0905 -12.2432 -0.0201 -19.8560 -0.0087
# 6 -0.0166 -0.0876 -0.1009 0.9184 -0.0087 20.6103
#
#
#
# Elastic Compliance Matrix: (Units=1/GPa)
#
#
# Indices 1 2 3 4 5 6 
#
# 1 0.007769 -0.002403 -0.002226 -0.000007 0.005223 -0.000012
# 2 -0.002403 0.010501 -0.000594 0.000036 -0.000289 0.000038
# 3 -0.002226 -0.000594 0.006414 0.000028 -0.005129 0.000024
# 4 -0.000007 0.000036 0.000028 0.097975 -0.000116 -0.004366
# 5 0.005223 -0.000289 -0.005129 -0.000116 -0.044539 -0.000036
# 6 -0.000012 0.000038 0.000024 -0.004366 -0.000036 0.048714
#
#
# Mechanical properties :
#
#
# Convention : Reuss Voigt Hill
#
# Bulk Modulus (GPa) = 70.23489 75.97477 73.10483
# Shear Modulus (GPa) = 35.20488 22.27663 28.74075
#
# Velocity S-wave (km/s) = 4.43683 3.52936 4.00885
# Velocity P-wave (km/s) = 8.09447 7.68708 7.89340
#
# Compressibility (1/GPa) = 0.01423794
#
# Stress axis : x y z
#
# Youngs Moduli (GPa) = 128.70889 95.23275 155.91482
#
# Poissons Ratio (x) = 0.22883 0.34714
# Poissons Ratio (y) = 0.30926 0.09256
# Poissons Ratio (z) = 0.28657 0.05654
#
# Static dielectric constant tensor:
#      x y z
#    x 3.138200 -0.000040 -0.020480 
#    y -0.000040 3.267790 0.000200 
#    z -0.020480 0.000200 3.390290 
# 
# 
# High freq. dielectric constant tensor:
#      x y z
#    x 1.676760 -0.000010 -0.002550 
#    y -0.000010 1.690890 0.000020 
#    z -0.002550 0.000020 1.708610 
# 
# From -- ./inp_files/284377.got.cif
#   From: 2010.06.25/outbox.cif.g09.slc.cpg/sg12_143_cif.got.tgz:284377.got - 2010.06.28 00:19:55.
