data_PCOD8110282
_publ_section_title
;
Structure prediction by ZEFSAII (Michael W. Deem and Ramdas Pophale) SiO2 
 PCOD8110282
Probable space group: C 2/M
;
_chemical_formula_sum "Si O2"
_cell_formula_units_Z 64
_cell_length_a 12.030542
_cell_length_b 20.506772
_cell_length_c 12.435379
_cell_angle_alpha 90.000000
_cell_angle_beta 74.560370
_cell_angle_gamma 90.000000
_cell_volume 2957.186277
_symmetry_space_group_name_H-M "C 2/M"
_symmetry_group_IT_number 12
_symmetry_cell_setting 'monoclinic'
loop_
_space_group_symop_operation_xyz
x,y,z
-x,y,-z
-x,-y,-z
x,-y,z
1/2+x,1/2+y,z
1/2-x,1/2+y,-z
1/2-x,1/2-y,-z
1/2+x,1/2-y,z
loop_
_atom_site_type_symbol
_atom_site_label
_atom_site_fract_x
_atom_site_fract_y
_atom_site_fract_z
Si Si1 0.199635 0.873756 0.167138
Si Si2 0.798778 0.654456 0.727116
Si Si3 0.325308 0.687187 0.453559
Si Si4 0.506875 0.924872 0.617301
Si Si5 0.237302 0.926527 0.377650
Si Si6 0.869569 0.140563 0.039077
Si Si7 0.965422 0.769939 0.728452
Si Si8 0.408046 0.218896 0.098068
O O1 0.211815 0.928825 0.255729
O O2 0.303149 0.824761 0.157495
O O3 0.077565 0.838556 0.215450
O O4 0.197938 0.895111 0.042408
O O5 0.734051 0.649974 0.630496
O O6 0.703541 0.627722 0.834930
O O7 0.907300 0.607172 0.713340
O O8 0.851993 0.726886 0.729699
O O9 0.250000 0.750000 0.500000
O O10 0.333593 0.632069 0.546179
O O11 0.453769 0.714415 0.395360
O O12 0.500000 0.893481 0.500000
O O13 0.628689 0.910136 0.639863
O O14 0.477437 0.000000 0.618060
O O15 0.208286 0.000000 0.429161
O O16 0.872755 0.219741 0.030441
O O17 0.000000 0.112325 0.000000
O O18 0.044446 0.739149 0.798981
O O19 0.500000 0.179524 0.000000
#
# Coordination Sequence:
#
# PCOD8110282 Si02
#       8
#     8   8   8   8   8   8   8   8
#     4  12  22  40  62  88 130 172 210 272 325 395
#     4  12  22  36  64  96 131 172 213 268 340 394
#     4  12  24  39  60  96 135 168 219 281 332 394
#     4  10  21  41  67  92 119 160 213 266 322 399
#     4  11  26  46  66  92 129 177 225 271 338 408
#     4  11  21  39  62  97 134 173 217 269 340 405
#     4  12  22  35  57  95 133 166 211 269 332 394
#     4  11  19  34  59  96 132 162 206 263 338 397
#
# _framework density 21.642192999999999
#
# number of rings (size 3 to 8) (size 9 to 14) (size 15 to 20)
#    0.000    0.625    6.250    4.125    0.000    1.500 
#    0.000    1.875    0.000    4.875    0.000    0.000 
#    0.000    0.000    0.000    0.000    0.000    0.000 
#
# Total GULP energy -396550.178612 kJ/mol
# GULP energy per Si atom -12392.193082 kJ/mol
# Density = 2.159293 g / cm^3
# Si number density = 21.642193 Si / 1000 Ang^3
#
#
#
# Elastic Constant Matrix: (Units=GPa)
#
#
# Indices 1 2 3 4 5 6 
#
# 1 72.8822 15.5903 37.6085 0.0000 -3.9609 0.0000
# 2 15.5903 59.1322 35.7584 0.0000 -6.6309 0.0000
# 3 37.6085 35.7584 127.4036 0.0000 -5.9937 0.0000
# 4 0.0000 0.0000 0.0000 24.0476 0.0000 2.8427
# 5 -3.9609 -6.6309 -5.9937 0.0000 57.8754 0.0000
# 6 0.0000 0.0000 0.0000 2.8427 0.0000 20.0549
#
#
#
# Elastic Compliance Matrix: (Units=1/GPa)
#
#
# Indices 1 2 3 4 5 6 
#
# 1 0.016336 -0.001627 -0.004343 0.000000 0.000482 0.000000
# 2 -0.001627 0.020708 -0.005251 0.000000 0.001717 0.000000
# 3 -0.004343 -0.005251 0.010614 0.000000 0.000200 0.000000
# 4 0.000000 0.000000 0.000000 0.042293 0.000000 -0.005995
# 5 0.000482 0.001717 0.000200 0.000000 0.017529 0.000000
# 6 0.000000 0.000000 0.000000 -0.005995 0.000000 0.050713
#
#
# Mechanical properties :
#
#
# Convention : Reuss Voigt Hill
#
# Bulk Modulus (GPa) = 39.65611 48.59251 44.12431
# Shear Modulus (GPa) = 26.44931 31.75962 29.10447
#
# Velocity S-wave (km/s) = 3.49967 3.83493 3.67113
# Velocity P-wave (km/s) = 5.89013 6.48925 6.19693
#
# Compressibility (1/GPa) = 0.02521680
#
# Stress axis : x y z
#
# Youngs Moduli (GPa) = 61.21449 48.28993 94.21175
#
# Poissons Ratio (x) = 0.07855 0.40916
# Poissons Ratio (y) = 0.09958 0.49473
# Poissons Ratio (z) = 0.26586 0.25358
#
# Static dielectric constant tensor:
#      x y z
#    x 4.071190 0.000000 -0.093340 
#    y 0.000000 3.553940 0.000000 
#    z -0.093340 0.000000 4.233580 
# 
# 
# High freq. dielectric constant tensor:
#      x y z
#    x 1.864460 0.000000 -0.001690 
#    y 0.000000 1.799130 0.000000 
#    z -0.001690 0.000000 1.863390 
# 
# From -- ./inp_files/135923.got.cif
#   From: 2010.06.25/outbox.cif.g09.slc.cpg/sg12_68_cif.got.tgz:135923.got - 2010.06.28 00:19:55.
