data_PCOD8110696
_publ_section_title
;
Structure prediction by ZEFSAII (Michael W. Deem and Ramdas Pophale) SiO2 
 PCOD8110696
Probable space group: C 2/M
;
_chemical_formula_sum "Si O2"
_cell_formula_units_Z 64
_cell_length_a 31.813124
_cell_length_b 18.420637
_cell_length_c 8.729590
_cell_angle_alpha 90.000000
_cell_angle_beta 142.291727
_cell_angle_gamma 90.000000
_cell_volume 3128.971429
_symmetry_space_group_name_H-M "C 2/M"
_symmetry_group_IT_number 12
_symmetry_cell_setting 'monoclinic'
loop_
_space_group_symop_operation_xyz
x,y,z
-x,y,-z
-x,-y,-z
x,-y,z
1/2+x,1/2+y,z
1/2-x,1/2+y,-z
1/2-x,1/2-y,-z
1/2+x,1/2-y,z
loop_
_atom_site_type_symbol
_atom_site_label
_atom_site_fract_x
_atom_site_fract_y
_atom_site_fract_z
Si Si1 0.509981 0.314643 0.850537
Si Si2 0.132966 0.582405 0.733490
Si Si3 0.787925 0.337678 0.499546
Si Si4 0.019742 0.343903 0.235264
Si Si5 0.838862 0.824110 0.652027
Si Si6 0.386871 0.414794 0.498500
Si Si7 0.894914 0.415676 0.010917
Si Si8 0.763967 0.919775 0.933996
O O1 0.487679 0.237254 0.716071
O O2 0.460595 0.381292 0.659507
O O3 0.500000 0.304105 0.000000
O O4 0.590354 0.329185 0.044399
O O5 0.104623 0.500000 0.646611
O O6 0.096646 0.629022 0.493506
O O7 0.214056 0.584670 0.936609
O O8 0.122418 0.617260 0.871587
O O9 0.818937 0.258462 0.556802
O O10 0.725019 0.351573 0.434036
O O11 0.850549 0.383165 0.745551
O O12 0.759349 0.361475 0.254981
O O13 0.000000 0.349472 0.000000
O O14 0.973441 0.398237 0.201159
O O15 0.851066 0.872105 0.535611
O O16 0.395830 0.500000 0.567962
O O17 0.340269 0.404385 0.214552
O O18 0.880232 0.500000 0.971399
O O19 0.760180 0.000000 0.848488
#
# Coordination Sequence:
#
# PCOD8110696 Si02
#       8
#     8   8   8   8   8   8   8   8
#     4   9  20  39  61  88 120 155 200 257 304 366
#     4  10  22  37  56  87 123 163 208 248 296 367
#     4  11  22  39  61  91 127 162 204 253 310 375
#     4  11  21  36  58  86 123 163 203 253 303 366
#     4  10  22  40  62  89 124 159 203 257 313 375
#     4  10  22  42  66  92 120 160 211 264 316 372
#     4  11  22  38  59  85 122 166 205 250 305 366
#     4  10  22  40  61  90 125 160 205 253 305 370
#
# _framework density 20.454006
#
# number of rings (size 3 to 8) (size 9 to 14) (size 15 to 20)
#    0.000    1.750    1.250    2.625    3.500    7.750 
#    4.500    0.625    0.000    1.500    0.000    0.000 
#    0.000    0.000    0.000    0.000    0.000    0.000 
#
# Total GULP energy -396641.814076 kJ/mol
# GULP energy per Si atom -12395.056690 kJ/mol
# Density = 2.040745 g / cm^3
# Si number density = 20.454006 Si / 1000 Ang^3
#
#
#
# Elastic Constant Matrix: (Units=GPa)
#
#
# Indices 1 2 3 4 5 6 
#
# 1 53.4734 37.7655 32.5828 0.0000 4.0350 0.0000
# 2 37.7655 61.5563 27.9660 0.0000 -1.1423 0.0000
# 3 32.5828 27.9660 91.5642 0.0000 7.5446 0.0000
# 4 0.0000 0.0000 0.0000 26.9227 0.0000 2.4006
# 5 4.0350 -1.1423 7.5446 0.0000 35.1634 0.0000
# 6 0.0000 0.0000 0.0000 2.4006 0.0000 22.9983
#
#
#
# Elastic Compliance Matrix: (Units=1/GPa)
#
#
# Indices 1 2 3 4 5 6 
#
# 1 0.037043 -0.019656 -0.006897 0.000000 -0.003409 0.000000
# 2 -0.019656 0.029416 -0.002295 0.000000 0.003704 0.000000
# 3 -0.006897 -0.002295 0.014270 0.000000 -0.002345 0.000000
# 4 0.000000 0.000000 0.000000 0.037492 0.000000 -0.003914
# 5 -0.003409 0.003704 -0.002345 0.000000 0.029453 0.000000
# 6 0.000000 0.000000 0.000000 -0.003914 0.000000 0.043890
#
#
# Mechanical properties :
#
#
# Convention : Reuss Voigt Hill
#
# Bulk Modulus (GPa) = 43.41763 44.80251 44.11007
# Shear Modulus (GPa) = 19.45995 24.23551 21.84773
#
# Velocity S-wave (km/s) = 3.08782 3.44594 3.27179
# Velocity P-wave (km/s) = 5.82974 6.14689 5.99042
#
# Compressibility (1/GPa) = 0.02303212
#
# Stress axis : x y z
#
# Youngs Moduli (GPa) = 26.99575 33.99527 70.07812
#
# Poissons Ratio (x) = 0.66821 0.48334
# Poissons Ratio (y) = 0.53063 0.16083
# Poissons Ratio (z) = 0.18620 0.07802
#
# Static dielectric constant tensor:
#      x y z
#    x 3.704800 0.000000 0.280970 
#    y 0.000000 3.799710 0.000000 
#    z 0.280970 0.000000 3.837160 
# 
# 
# High freq. dielectric constant tensor:
#      x y z
#    x 1.789500 0.000000 0.016660 
#    y 0.000000 1.799590 0.000000 
#    z 0.016660 0.000000 1.805100 
# 
# From -- ./inp_files/112901.got.cif
#   From: 2010.06.25/outbox.cif.g09.slc.cpg/sg12_57_cif.got.tgz:112901.got - 2010.06.28 00:19:55.
