data_PCOD8110721
_publ_section_title
;
Structure prediction by ZEFSAII (Michael W. Deem and Ramdas Pophale) SiO2 
 PCOD8110721
Probable space group: C 2/M
;
_chemical_formula_sum "Si O2"
_cell_formula_units_Z 36
_cell_length_a 10.651315
_cell_length_b 25.920616
_cell_length_c 7.596779
_cell_angle_alpha 90.000000
_cell_angle_beta 124.903893
_cell_angle_gamma 90.000000
_cell_volume 1720.092234
_symmetry_space_group_name_H-M "C 2/M"
_symmetry_group_IT_number 12
_symmetry_cell_setting 'monoclinic'
loop_
_space_group_symop_operation_xyz
x,y,z
-x,y,-z
-x,-y,-z
x,-y,z
1/2+x,1/2+y,z
1/2-x,1/2+y,-z
1/2-x,1/2-y,-z
1/2+x,1/2-y,z
loop_
_atom_site_type_symbol
_atom_site_label
_atom_site_fract_x
_atom_site_fract_y
_atom_site_fract_z
Si Si1 0.368542 0.058048 0.033517
Si Si2 0.675903 0.823229 0.459463
Si Si3 0.651579 0.643178 0.729869
Si Si4 0.519848 0.729903 0.212043
Si Si5 0.500000 0.091080 0.500000
O O1 0.433028 0.057828 0.285085
O O2 0.312839 0.000000 0.946951
O O3 0.500000 0.074440 0.000000
O O4 0.221180 0.095778 0.898476
O O5 0.715113 0.838105 0.291159
O O6 0.536448 0.781399 0.345702
O O7 0.821866 0.800261 0.670624
O O8 0.635196 0.873779 0.534420
O O9 0.500000 0.625378 0.500000
O O10 0.612851 0.692280 0.822762
O O11 0.500000 0.749335 0.000000
#
# Coordination Sequence:
#
# PCOD8110721 Si02
#       5
#     8   8   8   8   4
#     4  11  24  44  69  96 126 167 219 276 326 373
#     4  10  23  36  58  95 127 173 211 254 316 382
#     4  10  22  43  64  92 135 170 215 264 319 383
#     4  10  22  37  59  89 133 174 213 252 313 384
#     4  12  23  40  66  94 132 168 213 268 316 396
#
# _framework density 20.929112
#
# number of rings (size 3 to 8) (size 9 to 14) (size 15 to 20)
#    0.000    1.556    2.222    1.667   10.889    1.333 
#    0.000    0.000    0.000    6.000    0.000    0.000 
#    0.000    0.000    0.000    0.000    0.000    0.000 
#
# Total GULP energy -223135.714137 kJ/mol
# GULP energy per Si atom -12396.428563 kJ/mol
# Density = 2.088148 g / cm^3
# Si number density = 20.929112 Si / 1000 Ang^3
#
#
#
# Elastic Constant Matrix: (Units=GPa)
#
#
# Indices 1 2 3 4 5 6 
#
# 1 84.5850 34.4276 23.0016 0.0000 -12.6027 0.0000
# 2 34.4276 98.8578 20.7932 0.0000 9.4119 0.0000
# 3 23.0016 20.7932 79.4477 0.0000 -14.3510 0.0000
# 4 0.0000 0.0000 0.0000 10.4804 0.0000 9.2554
# 5 -12.6027 9.4119 -14.3510 0.0000 25.0990 0.0000
# 6 0.0000 0.0000 0.0000 9.2554 0.0000 29.3497
#
#
#
# Elastic Compliance Matrix: (Units=1/GPa)
#
#
# Indices 1 2 3 4 5 6 
#
# 1 0.016187 -0.006298 -0.001275 0.000000 0.009761 0.000000
# 2 -0.006298 0.014118 -0.003790 0.000000 -0.010624 0.000000
# 3 -0.001275 -0.003790 0.015712 0.000000 0.009765 0.000000
# 4 0.000000 0.000000 0.000000 0.132245 0.000000 -0.041704
# 5 0.009761 -0.010624 0.009765 0.000000 0.054310 0.000000
# 6 0.000000 0.000000 0.000000 -0.041704 0.000000 0.047223
#
#
# Mechanical properties :
#
#
# Convention : Reuss Voigt Hill
#
# Bulk Modulus (GPa) = 42.93830 46.59281 44.76556
# Shear Modulus (GPa) = 16.11418 25.29703 20.70560
#
# Velocity S-wave (km/s) = 2.77779 3.48041 3.14876
# Velocity P-wave (km/s) = 5.55417 6.20174 5.88686
#
# Compressibility (1/GPa) = 0.02328923
#
# Stress axis : x y z
#
# Youngs Moduli (GPa) = 61.77828 70.83323 63.64581
#
# Poissons Ratio (x) = 0.44613 0.08114
# Poissons Ratio (y) = 0.38910 0.24125
# Poissons Ratio (z) = 0.07876 0.26849
#
# Static dielectric constant tensor:
#      x y z
#    x 3.754610 0.000000 -0.073290 
#    y 0.000000 3.741630 0.000000 
#    z -0.073290 0.000000 3.782760 
# 
# 
# High freq. dielectric constant tensor:
#      x y z
#    x 1.814610 0.000000 -0.009690 
#    y 0.000000 1.813720 0.000000 
#    z -0.009690 0.000000 1.823460 
# 
# From -- ./inp_files/52138.got.cif
#   From: 2010.06.25/outbox.cif.g09.slc.cpg/sg12_27_cif.got.tgz:52138.got - 2010.06.28 00:19:55.
