data_PCOD8110953
_publ_section_title
;
Structure prediction by ZEFSAII (Michael W. Deem and Ramdas Pophale) SiO2 
 PCOD8110953
Probable space group: C 2/M
;
_chemical_formula_sum "Si O2"
_cell_formula_units_Z 48
_cell_length_a 7.683945
_cell_length_b 23.341674
_cell_length_c 10.800210
_cell_angle_alpha 90.000000
_cell_angle_beta 102.090449
_cell_angle_gamma 90.000000
_cell_volume 1894.115893
_symmetry_space_group_name_H-M "C 2/M"
_symmetry_group_IT_number 12
_symmetry_cell_setting 'monoclinic'
loop_
_space_group_symop_operation_xyz
x,y,z
-x,y,-z
-x,-y,-z
x,-y,z
1/2+x,1/2+y,z
1/2-x,1/2+y,-z
1/2-x,1/2-y,-z
1/2+x,1/2-y,z
loop_
_atom_site_type_symbol
_atom_site_label
_atom_site_fract_x
_atom_site_fract_y
_atom_site_fract_z
Si Si1 0.145670 0.433553 0.368280
Si Si2 0.908884 0.935553 0.185962
Si Si3 0.264219 0.103427 0.344480
Si Si4 0.519515 0.776837 0.838268
Si Si5 0.108828 0.215125 0.405820
Si Si6 0.212916 0.174152 0.953880
O O1 0.095967 0.500000 0.358778
O O2 0.293458 0.417998 0.288911
O O3 0.224024 0.417843 0.512902
O O4 0.960521 0.399918 0.311401
O O5 0.855514 0.891230 0.069177
O O6 0.118151 0.933906 0.249679
O O7 0.863083 0.000000 0.134050
O O8 0.196647 0.168719 0.328917
O O9 0.506782 0.761187 0.691102
O O10 0.342423 0.807895 0.859669
O O11 0.545913 0.716811 0.916591
O O12 0.687188 0.818351 0.898432
O O13 0.250000 0.250000 0.500000
O O14 0.000000 0.184165 0.500000
#
# Coordination Sequence:
#
# PCOD8110953 Si02
#       6
#     8   8   8   8   8   8
#     4  10  22  38  62  95 139 193 234 281 355 425
#     4  11  22  40  68 103 139 180 242 301 353 426
#     4  11  22  39  61  94 144 191 235 292 352 429
#     4  10  22  43  67  91 138 179 233 288 344 431
#     4  12  26  38  61 102 142 183 232 295 361 420
#     4  10  22  43  69  99 130 185 237 287 351 425
#
# _framework density 25.341639000000001
#
# number of rings (size 3 to 8) (size 9 to 14) (size 15 to 20)
#    0.000    1.333    1.667    4.500    4.667    2.667 
#    0.000    1.667    0.000    0.000    0.000    9.333 
#    0.000    0.000    0.000    0.000    0.000    0.000 
#
# Total GULP energy -297502.611730 kJ/mol
# GULP energy per Si atom -12395.942155 kJ/mol
# Density = 2.528396 g / cm^3
# Si number density = 25.341639 Si / 1000 Ang^3
#
#
#
# Elastic Constant Matrix: (Units=GPa)
#
#
# Indices 1 2 3 4 5 6 
#
# 1 114.6673 27.4013 32.7321 0.0000 18.8550 0.0000
# 2 27.4013 133.1180 39.5985 0.0000 28.6162 0.0000
# 3 32.7321 39.5985 134.4787 0.0000 33.2308 0.0000
# 4 0.0000 0.0000 0.0000 33.4225 0.0000 12.3636
# 5 18.8550 28.6162 33.2308 0.0000 34.6337 0.0000
# 6 0.0000 0.0000 0.0000 12.3636 0.0000 31.1588
#
#
#
# Elastic Compliance Matrix: (Units=1/GPa)
#
#
# Indices 1 2 3 4 5 6 
#
# 1 0.009865 -0.000921 -0.001299 0.000000 -0.003363 0.000000
# 2 -0.000921 0.009342 -0.000974 0.000000 -0.006283 0.000000
# 3 -0.001299 -0.000974 0.010048 0.000000 -0.008129 0.000000
# 4 0.000000 0.000000 0.000000 0.035067 0.000000 -0.013915
# 5 -0.003363 -0.006283 -0.008129 0.000000 0.043695 0.000000
# 6 0.000000 0.000000 0.000000 -0.013915 0.000000 0.037615
#
#
# Mechanical properties :
#
#
# Convention : Reuss Voigt Hill
#
# Bulk Modulus (GPa) = 43.73227 64.63642 54.18434
# Shear Modulus (GPa) = 31.31998 38.67847 34.99922
#
# Velocity S-wave (km/s) = 3.51936 3.91100 3.72034
# Velocity P-wave (km/s) = 5.81456 6.77908 6.31526
#
# Compressibility (1/GPa) = 0.02286641
#
# Stress axis : x y z
#
# Youngs Moduli (GPa) = 101.37084 107.04194 99.52442
#
# Poissons Ratio (x) = 0.09862 0.12926
# Poissons Ratio (y) = 0.09339 0.09695
# Poissons Ratio (z) = 0.13166 0.10427
#
# Static dielectric constant tensor:
#      x y z
#    x 4.526010 0.000000 0.331210 
#    y 0.000000 4.316850 0.000000 
#    z 0.331210 0.000000 4.195820 
# 
# 
# High freq. dielectric constant tensor:
#      x y z
#    x 2.029750 0.000000 0.003610 
#    y 0.000000 2.003580 0.000000 
#    z 0.003610 0.000000 2.004900 
# 
# From -- ./inp_files/122587.got.cif
#   From: 2010.06.25/outbox.cif.g09.slc.cpg/sg12_62_cif.got.tgz:122587.got - 2010.06.28 00:19:55.
