data_PCOD8110693
_publ_section_title
;
Structure prediction by ZEFSAII (Michael W. Deem and Ramdas Pophale) SiO2 
 PCOD8110693
Probable space group: C 2/M
;
_chemical_formula_sum "Si O2"
_cell_formula_units_Z 32
_cell_length_a 15.092515
_cell_length_b 9.759065
_cell_length_c 15.695835
_cell_angle_alpha 90.000000
_cell_angle_beta 45.371955
_cell_angle_gamma 90.000000
_cell_volume 1645.282201
_symmetry_space_group_name_H-M "C 2/M"
_symmetry_group_IT_number 12
_symmetry_cell_setting 'monoclinic'
loop_
_space_group_symop_operation_xyz
x,y,z
-x,y,-z
-x,-y,-z
x,-y,z
1/2+x,1/2+y,z
1/2-x,1/2+y,-z
1/2-x,1/2-y,-z
1/2+x,1/2-y,z
loop_
_atom_site_type_symbol
_atom_site_label
_atom_site_fract_x
_atom_site_fract_y
_atom_site_fract_z
Si Si1 0.363521 0.845550 0.116936
Si Si2 0.076868 0.149850 0.611345
Si Si3 0.849882 0.655469 0.736121
Si Si4 0.738510 0.250116 0.649020
O O1 0.262075 0.742064 0.143147
O O2 0.346346 0.844222 0.231435
O O3 0.343617 0.000000 0.095964
O O4 0.500000 0.791495 0.000000
O O5 0.175106 0.156070 0.468089
O O6 0.149075 0.156950 0.651956
O O7 0.979420 0.272546 0.670888
O O8 0.011595 0.000000 0.649984
O O9 0.853012 0.500000 0.768571
O O10 0.826845 0.654914 0.649336
#
# Coordination Sequence:
#
# PCOD8110693 Si02
#       4
#     8   8   8   8
#     4   9  19  38  61  82 108 147 191 232 277 329
#     4  11  21  36  59  86 116 149 186 228 280 337
#     4  10  22  37  56  85 117 148 185 230 281 334
#     4   9  22  36  58  84 115 147 186 229 281 327
#
# _framework density 19.449551
#
# number of rings (size 3 to 8) (size 9 to 14) (size 15 to 20)
#    1.500    0.750    0.000    3.000    0.000    8.500 
#    0.000    1.250    0.000    0.000    0.000    0.000 
#    0.000    0.000    0.000    0.000    0.000    0.000 
#
# Total GULP energy -198241.149570 kJ/mol
# GULP energy per Si atom -12390.071848 kJ/mol
# Density = 1.940528 g / cm^3
# Si number density = 19.449551 Si / 1000 Ang^3
#
#
#
# Elastic Constant Matrix: (Units=GPa)
#
#
# Indices 1 2 3 4 5 6 
#
# 1 53.0365 28.2980 14.4838 0.0000 -26.4743 0.0000
# 2 28.2980 149.8513 43.3867 0.0000 -21.9261 0.0000
# 3 14.4838 43.3867 102.8752 0.0000 -22.5738 0.0000
# 4 0.0000 0.0000 0.0000 23.1271 0.0000 -15.6920
# 5 -26.4743 -21.9261 -22.5738 0.0000 18.4644 0.0000
# 6 0.0000 0.0000 0.0000 -15.6920 0.0000 14.7250
#
#
#
# Elastic Compliance Matrix: (Units=1/GPa)
#
#
# Indices 1 2 3 4 5 6 
#
# 1 0.092386 -0.000614 0.022082 0.000000 0.158731 0.000000
# 2 -0.000614 0.008326 -0.001980 0.000000 0.006586 0.000000
# 3 0.022082 -0.001980 0.018966 0.000000 0.052498 0.000000
# 4 0.000000 0.000000 0.000000 0.156140 0.000000 0.166394
# 5 0.158731 0.006586 0.052498 0.000000 0.353749 0.000000
# 6 0.000000 0.000000 0.000000 0.166394 0.000000 0.245233
#
#
# Mechanical properties :
#
#
# Convention : Reuss Voigt Hill
#
# Bulk Modulus (GPa) = 6.30299 53.12223 29.71261
# Shear Modulus (GPa) = 5.62613 25.90293 15.76453
#
# Velocity S-wave (km/s) = 1.70263 3.65334 2.85008
# Velocity P-wave (km/s) = 2.66702 6.72072 5.11278
#
# Compressibility (1/GPa) = 0.15865474
#
# Stress axis : x y z
#
# Youngs Moduli (GPa) = 10.82409 120.10345 52.72564
#
# Poissons Ratio (x) = 0.07380 -1.16430
# Poissons Ratio (y) = 0.00665 0.10439
# Poissons Ratio (z) = -0.23902 0.23779
#
# Static dielectric constant tensor:
#      x y z
#    x 3.327400 0.000000 -0.085280 
#    y 0.000000 3.293220 0.000000 
#    z -0.085280 0.000000 3.388510 
# 
# 
# High freq. dielectric constant tensor:
#      x y z
#    x 1.737550 0.000000 -0.014340 
#    y 0.000000 1.754740 0.000000 
#    z -0.014340 0.000000 1.744970 
# 
# From -- ./inp_files/187095.got.cif
#   From: 2010.06.25/outbox.cif.g09.slc.cpg/sg12_94_cif.got.tgz:187095.got - 2010.06.28 00:19:55.
