data_PCOD8110484
_publ_section_title
;
Structure prediction by ZEFSAII (Michael W. Deem and Ramdas Pophale) SiO2 
 PCOD8110484
Probable space group: C 2/M
;
_chemical_formula_sum "Si O2"
_cell_formula_units_Z 64
_cell_length_a 19.291281
_cell_length_b 8.814173
_cell_length_c 30.999621
_cell_angle_alpha 90.000000
_cell_angle_beta 143.108062
_cell_angle_gamma 90.000000
_cell_volume 3164.265626
_symmetry_space_group_name_H-M "C 2/M"
_symmetry_group_IT_number 12
_symmetry_cell_setting 'monoclinic'
loop_
_space_group_symop_operation_xyz
x,y,z
-x,y,-z
-x,-y,-z
x,-y,z
1/2+x,1/2+y,z
1/2-x,1/2+y,-z
1/2-x,1/2-y,-z
1/2+x,1/2-y,z
loop_
_atom_site_type_symbol
_atom_site_label
_atom_site_fract_x
_atom_site_fract_y
_atom_site_fract_z
Si Si1 0.973777 0.321618 0.377250
Si Si2 0.400647 0.679112 0.483987
Si Si3 0.235600 0.677137 0.121407
Si Si4 0.319482 0.321713 0.995207
Si Si5 0.182043 0.826921 0.332572
Si Si6 0.536275 0.672360 0.716548
Si Si7 0.936384 0.674709 0.890312
Si Si8 0.270587 0.177029 0.729067
O O1 0.979269 0.500000 0.385814
O O2 0.999067 0.278235 0.340619
O O3 0.850276 0.261855 0.330534
O O4 0.072175 0.246925 0.455663
O O5 0.500000 0.727950 0.500000
O O6 0.389755 0.500000 0.482158
O O7 0.279547 0.745353 0.408756
O O8 0.246255 0.500000 0.115524
O O9 0.234909 0.768980 0.076863
O O10 0.344850 0.731991 0.203588
O O11 0.118916 0.709657 0.090461
O O12 0.307283 0.500000 0.993081
O O13 0.250000 0.250000 0.000000
O O14 0.453799 0.278369 0.063768
O O15 0.158695 0.740815 0.276160
O O16 0.061544 0.817679 0.296684
O O17 0.219180 0.000000 0.342591
O O18 0.553843 0.500000 0.708430
O O19 0.976013 0.500000 0.907310
O O20 0.840227 0.711813 0.806955
O O21 0.246384 0.000000 0.710887
#
# Coordination Sequence:
#
# PCOD8110484 Si02
#       8
#     8   8   8   8   8   8   8   8
#     4  12  24  39  65  96 127 163 212 267 314 369
#     4  11  23  40  64  89 122 171 215 259 318 381
#     4  10  21  43  70  94 127 170 211 254 311 379
#     4  12  27  44  64  95 133 169 212 262 315 370
#     4  11  24  40  63  96 129 164 210 265 320 375
#     4  10  23  44  66  93 130 169 207 254 319 381
#     4  10  22  42  69  96 126 169 213 255 311 378
#     4  11  22  40  65  94 128 167 212 258 315 381
#
# _framework density 20.225861999999999
#
# number of rings (size 3 to 8) (size 9 to 14) (size 15 to 20)
#    0.000    1.125    2.500    3.750    1.750    5.500 
#    0.000    0.000    0.000    0.000    0.000    0.000 
#    0.000    0.000    0.000    0.000    0.000    0.000 
#
# Total GULP energy -397000.954991 kJ/mol
# GULP energy per Si atom -12406.279843 kJ/mol
# Density = 2.017983 g / cm^3
# Si number density = 20.225862 Si / 1000 Ang^3
#
#
#
# Elastic Constant Matrix: (Units=GPa)
#
#
# Indices 1 2 3 4 5 6 
#
# 1 111.5882 53.7090 41.1303 0.0000 -13.7920 0.0001
# 2 53.7090 128.0381 44.0195 -0.0001 -12.4766 0.0002
# 3 41.1303 44.0195 84.2636 0.0000 -13.0796 -0.0001
# 4 0.0000 -0.0001 0.0000 32.3689 0.0000 -2.3220
# 5 -13.7920 -12.4766 -13.0796 0.0000 36.4422 0.0000
# 6 0.0001 0.0002 -0.0001 -2.3220 0.0000 34.1775
#
#
#
# Elastic Compliance Matrix: (Units=1/GPa)
#
#
# Indices 1 2 3 4 5 6 
#
# 1 0.012394 -0.003691 -0.003801 0.000000 0.002063 0.000000
# 2 -0.003691 0.010704 -0.003641 0.000000 0.000961 0.000000
# 3 -0.003801 -0.003641 0.016105 0.000000 0.003095 0.000000
# 4 0.000000 0.000000 0.000000 0.031045 0.000000 0.002109
# 5 0.002063 0.000961 0.003095 0.000000 0.029661 0.000000
# 6 0.000000 0.000000 0.000000 0.002109 0.000000 0.029402
#
#
# Mechanical properties :
#
#
# Convention : Reuss Voigt Hill
#
# Bulk Modulus (GPa) = 59.04305 66.84528 62.94416
# Shear Modulus (GPa) = 31.80160 32.93312 32.36736
#
# Velocity S-wave (km/s) = 3.96956 4.03956 4.00471
# Velocity P-wave (km/s) = 7.08979 7.40800 7.25064
#
# Compressibility (1/GPa) = 0.01693680
#
# Stress axis : x y z
#
# Youngs Moduli (GPa) = 80.68277 93.42388 62.09074
#
# Poissons Ratio (x) = 0.34484 0.23603
# Poissons Ratio (y) = 0.29781 0.22606
# Poissons Ratio (z) = 0.30670 0.34014
#
# Static dielectric constant tensor:
#      x y z
#    x 3.825820 0.000000 -0.122900 
#    y 0.000000 3.745090 0.000000 
#    z -0.122900 0.000000 3.816440 
# 
# 
# High freq. dielectric constant tensor:
#      x y z
#    x 1.798110 0.000000 -0.006650 
#    y 0.000000 1.791200 0.000000 
#    z -0.006650 0.000000 1.801810 
# 
# From -- ./inp_files/378313.got.cif
#   From: 2010.06.25/outbox.cif.g09.slc.cpg/sg12_190_cif.got.tgz:378313.got - 2010.06.28 00:19:55.
