data_PCOD8110584
_publ_section_title
;
Structure prediction by ZEFSAII (Michael W. Deem and Ramdas Pophale) SiO2 
 PCOD8110584
Probable space group: C 2/M
;
_chemical_formula_sum "Si O2"
_cell_formula_units_Z 44
_cell_length_a 23.673723
_cell_length_b 19.283271
_cell_length_c 14.189005
_cell_angle_alpha 90.000000
_cell_angle_beta 159.872495
_cell_angle_gamma 90.000000
_cell_volume 2228.933414
_symmetry_space_group_name_H-M "C 2/M"
_symmetry_group_IT_number 12
_symmetry_cell_setting 'monoclinic'
loop_
_space_group_symop_operation_xyz
x,y,z
-x,y,-z
-x,-y,-z
x,-y,z
1/2+x,1/2+y,z
1/2-x,1/2+y,-z
1/2-x,1/2-y,-z
1/2+x,1/2-y,z
loop_
_atom_site_type_symbol
_atom_site_label
_atom_site_fract_x
_atom_site_fract_y
_atom_site_fract_z
Si Si1 0.380800 0.000000 0.038913
Si Si2 0.388232 0.387754 0.076009
Si Si3 0.158869 0.500000 0.350488
Si Si4 0.732647 0.637646 0.718528
Si Si5 0.330416 0.000000 0.177864
Si Si6 0.188925 0.741874 0.797302
Si Si7 0.023907 0.000000 0.926542
Si Si8 0.500000 0.876345 0.000000
O O1 0.291281 0.064600 0.850679
O O2 0.579525 0.000000 0.331038
O O3 0.372407 0.000000 0.135533
O O4 0.563728 0.372474 0.397510
O O5 0.393547 0.430191 0.985463
O O6 0.277318 0.431759 0.973803
O O7 0.297029 0.315643 0.913107
O O8 0.342580 0.500000 0.606775
O O9 0.107364 0.573230 0.230181
O O10 0.708430 0.687630 0.769406
O O11 0.874110 0.668135 0.868595
O O12 0.500000 0.000000 0.500000
O O13 0.000000 0.718288 0.500000
O O14 0.250000 0.750000 0.000000
O O15 0.000000 0.000000 0.000000
#
# Coordination Sequence:
#
# PCOD8110584 Si02
#       8
#     4   8   4   8   4   8   4   4
#     4  10  22  35  67 100 122 165 220 274 327 392
#     4  11  24  43  66  93 130 176 221 277 337 405
#     4   9  17  34  64  91 126 157 199 268 328 382
#     4  11  22  42  68  97 127 173 224 278 334 397
#     4  11  24  39  60  92 132 163 215 276 334 402
#     4  12  25  45  67  95 138 180 225 277 341 403
#     4  11  23  42  67  97 134 170 219 278 347 398
#     4   9  18  38  64  94 122 155 214 270 316 385
#
# _framework density 19.740383000000001
#
# number of rings (size 3 to 8) (size 9 to 14) (size 15 to 20)
#    0.000    1.273    3.636    3.273    2.545    0.727 
#    4.909    0.909    0.000    0.000    0.000    0.000 
#    0.000    0.000    0.000    0.000    0.000    0.000 
#
# Total GULP energy -272542.282960 kJ/mol
# GULP energy per Si atom -12388.285589 kJ/mol
# Density = 1.969545 g / cm^3
# Si number density = 19.740383 Si / 1000 Ang^3
#
#
#
# Elastic Constant Matrix: (Units=GPa)
#
#
# Indices 1 2 3 4 5 6 
#
# 1 144.6807 39.5774 41.2654 0.0000 0.8307 0.0000
# 2 39.5774 99.7293 28.2840 0.0000 2.7674 0.0000
# 3 41.2654 28.2840 105.5305 0.0000 9.2483 0.0000
# 4 0.0000 0.0000 0.0000 27.3601 0.0000 10.7822
# 5 0.8307 2.7674 9.2483 0.0000 31.5504 0.0000
# 6 0.0000 0.0000 0.0000 10.7822 0.0000 21.8807
#
#
#
# Elastic Compliance Matrix: (Units=1/GPa)
#
#
# Indices 1 2 3 4 5 6 
#
# 1 0.008372 -0.002593 -0.002647 0.000000 0.000783 0.000000
# 2 -0.002593 0.011656 -0.002080 0.000000 -0.000344 0.000000
# 3 -0.002647 -0.002080 0.011338 0.000000 -0.003071 0.000000
# 4 0.000000 0.000000 0.000000 0.045358 0.000000 -0.022351
# 5 0.000783 -0.000344 -0.003071 0.000000 0.032605 0.000000
# 6 0.000000 0.000000 0.000000 -0.022351 0.000000 0.056716
#
#
# Mechanical properties :
#
#
# Convention : Reuss Voigt Hill
#
# Bulk Modulus (GPa) = 59.79171 63.13267 61.46219
# Shear Modulus (GPa) = 26.84431 32.21249 29.52840
#
# Velocity S-wave (km/s) = 3.69164 4.04395 3.87180
# Velocity P-wave (km/s) = 6.96604 7.33864 7.15476
#
# Compressibility (1/GPa) = 0.01672473
#
# Stress axis : x y z
#
# Youngs Moduli (GPa) = 119.45044 85.79528 88.20223
#
# Poissons Ratio (x) = 0.22249 0.23348
# Poissons Ratio (y) = 0.30977 0.18343
# Poissons Ratio (z) = 0.31620 0.17843
#
# Static dielectric constant tensor:
#      x y z
#    x 4.074510 0.000000 0.115140 
#    y 0.000000 3.596520 0.000000 
#    z 0.115140 0.000000 3.873300 
# 
# 
# High freq. dielectric constant tensor:
#      x y z
#    x 1.782310 0.000000 0.020160 
#    y 0.000000 1.756180 0.000000 
#    z 0.020160 0.000000 1.781460 
# 
# From -- ./inp_files/241433.got.cif
#   From: 2010.06.25/outbox.cif.g09.slc.cpg/sg12_121_cif.got.tgz:241433.got - 2010.06.28 00:19:55.
