data_PCOD8110453
_publ_section_title
;
Structure prediction by ZEFSAII (Michael W. Deem and Ramdas Pophale) SiO2 
 PCOD8110453
Probable space group: C 2/M
;
_chemical_formula_sum "Si O2"
_cell_formula_units_Z 52
_cell_length_a 19.457091
_cell_length_b 21.343725
_cell_length_c 5.306848
_cell_angle_alpha 90.000000
_cell_angle_beta 85.384879
_cell_angle_gamma 90.000000
_cell_volume 2196.718286
_symmetry_space_group_name_H-M "C 2/M"
_symmetry_group_IT_number 12
_symmetry_cell_setting 'monoclinic'
loop_
_space_group_symop_operation_xyz
x,y,z
-x,y,-z
-x,-y,-z
x,-y,z
1/2+x,1/2+y,z
1/2-x,1/2+y,-z
1/2-x,1/2-y,-z
1/2+x,1/2-y,z
loop_
_atom_site_type_symbol
_atom_site_label
_atom_site_fract_x
_atom_site_fract_y
_atom_site_fract_z
Si Si1 0.129016 0.390521 0.896227
Si Si2 0.500000 0.745437 0.500000
Si Si3 0.893300 0.857545 0.641891
Si Si4 0.743085 0.820732 0.599683
Si Si5 0.000000 0.680410 0.000000
Si Si6 0.608466 0.430328 0.877817
Si Si7 0.763189 0.566815 0.767981
Si Si8 0.546829 0.000000 0.731328
O O1 0.176395 0.331265 0.793844
O O2 0.095106 0.437435 0.699310
O O3 0.065593 0.360460 0.068254
O O4 0.175972 0.435631 0.048824
O O5 0.566169 0.706283 0.400774
O O6 0.477415 0.783217 0.258474
O O7 0.813800 0.839726 0.716967
O O8 0.904387 0.898526 0.388141
O O9 0.925161 0.892925 0.877008
O O10 0.750000 0.750000 0.500000
O O11 0.728138 0.869959 0.386039
O O12 0.576605 0.500000 0.877264
O O13 0.689052 0.432506 0.923455
O O14 0.768043 0.500000 0.613112
O O15 0.500000 0.000000 0.500000
O O16 0.500000 0.000000 0.000000
#
# Coordination Sequence:
#
# PCOD8110453 Si02
#       8
#     8   4   8   8   4   8   8   4
#     4  12  26  45  74 105 144 196 250 312 371 434
#     4  12  28  52  69  95 144 198 238 292 384 450
#     4  11  23  45  69 101 139 190 236 297 368 450
#     4  11  26  43  70 107 144 191 253 316 372 443
#     4  12  30  45  70  98 143 194 246 298 362 452
#     4  10  21  42  71 107 141 173 231 298 365 434
#     4  10  23  42  70 106 145 191 239 304 374 442
#     4  12  30  50  76 112 158 197 259 305 371 452
#
# _framework density 23.671675
#
# number of rings (size 3 to 8) (size 9 to 14) (size 15 to 20)
#    0.000    0.923    3.077    2.308    8.615    2.462 
#    0.000    2.308    0.000    0.000    0.000    0.000 
#    0.000    0.000    0.000    0.000    0.000    0.000 
#
# Total GULP energy -322210.239279 kJ/mol
# GULP energy per Si atom -12392.701511 kJ/mol
# Density = 2.361780 g / cm^3
# Si number density = 23.671675 Si / 1000 Ang^3
#
#
#
# Elastic Constant Matrix: (Units=GPa)
#
#
# Indices 1 2 3 4 5 6 
#
# 1 68.6622 10.2690 8.4642 0.0000 -7.5828 0.0000
# 2 10.2690 148.3368 38.9846 0.0000 -0.9803 0.0000
# 3 8.4642 38.9846 104.8245 0.0000 3.4959 0.0000
# 4 0.0000 0.0000 0.0000 29.5074 0.0000 -10.2163
# 5 -7.5828 -0.9803 3.4959 0.0000 36.0103 0.0000
# 6 0.0000 0.0000 0.0000 -10.2163 0.0000 18.3297
#
#
#
# Elastic Compliance Matrix: (Units=1/GPa)
#
#
# Indices 1 2 3 4 5 6 
#
# 1 0.015168 -0.000751 -0.001055 0.000000 0.003276 0.000000
# 2 -0.000751 0.007517 -0.002745 0.000000 0.000313 0.000000
# 3 -0.001055 -0.002745 0.010690 0.000000 -0.001335 0.000000
# 4 0.000000 0.000000 0.000000 0.041993 0.000000 0.023406
# 5 0.003276 0.000313 -0.001335 0.000000 0.028598 0.000000
# 6 0.000000 0.000000 0.000000 0.023406 0.000000 0.067601
#
#
# Mechanical properties :
#
#
# Convention : Reuss Voigt Hill
#
# Bulk Modulus (GPa) = 41.19783 48.58435 44.89109
# Shear Modulus (GPa) = 26.48840 34.37655 30.43247
#
# Velocity S-wave (km/s) = 3.34876 3.81494 3.58943
# Velocity P-wave (km/s) = 5.69156 6.32249 6.01530
#
# Compressibility (1/GPa) = 0.02427313
#
# Stress axis : x y z
#
# Youngs Moduli (GPa) = 65.92741 133.03172 93.54153
#
# Poissons Ratio (x) = 0.09994 0.09865
# Poissons Ratio (y) = 0.04953 0.25681
# Poissons Ratio (z) = 0.06953 0.36522
#
# Static dielectric constant tensor:
#      x y z
#    x 4.625660 0.000000 0.429860 
#    y 0.000000 4.390010 0.000000 
#    z 0.429860 0.000000 6.285180 
# 
# 
# High freq. dielectric constant tensor:
#      x y z
#    x 1.953950 0.000000 -0.002340 
#    y 0.000000 1.953840 0.000000 
#    z -0.002340 0.000000 1.916490 
# 
# From -- ./inp_files/21201.got.cif
#   From: 2010.06.25/outbox.cif.g09.slc.cpg/sg12_11_cif.got.tgz:21201.got - 2010.06.28 00:19:55.
