data_PCOD8110390
_publ_section_title
;
Structure prediction by ZEFSAII (Michael W. Deem and Ramdas Pophale) SiO2 
 PCOD8110390
Probable space group: C 2/M
;
_chemical_formula_sum "Si O2"
_cell_formula_units_Z 48
_cell_length_a 11.465398
_cell_length_b 21.663105
_cell_length_c 9.332939
_cell_angle_alpha 90.000000
_cell_angle_beta 82.200308
_cell_angle_gamma 90.000000
_cell_volume 2296.633637
_symmetry_space_group_name_H-M "C 2/M"
_symmetry_group_IT_number 12
_symmetry_cell_setting 'monoclinic'
loop_
_space_group_symop_operation_xyz
x,y,z
-x,y,-z
-x,-y,-z
x,-y,z
1/2+x,1/2+y,z
1/2-x,1/2+y,-z
1/2-x,1/2-y,-z
1/2+x,1/2-y,z
loop_
_atom_site_type_symbol
_atom_site_label
_atom_site_fract_x
_atom_site_fract_y
_atom_site_fract_z
Si Si1 0.743452 0.071821 0.452034
Si Si2 0.654563 0.429842 0.089658
Si Si3 0.742730 0.732138 0.834514
Si Si4 0.557884 0.155661 0.344023
Si Si5 0.182223 0.637057 0.743187
Si Si6 0.094021 0.885351 0.805268
O O1 0.636222 0.096855 0.373568
O O2 0.752415 0.107103 0.600178
O O3 0.865365 0.086492 0.352035
O O4 0.724762 0.000000 0.483267
O O5 0.644503 0.500000 0.145873
O O6 0.776636 0.398939 0.120740
O O7 0.547335 0.388262 0.168565
O O8 0.650773 0.428733 0.918633
O O9 0.713874 0.791236 0.744211
O O10 0.636131 0.684592 0.825102
O O11 0.866130 0.705839 0.754850
O O12 0.750000 0.750000 0.000000
O O13 0.500000 0.184150 0.500000
O O14 0.457753 0.130193 0.253704
#
# Coordination Sequence:
#
# PCOD8110390 Si02
#       6
#     8   8   8   8   8   8
#     4  10  21  42  65  90 127 170 213 264 328 386
#     4  11  22  39  62  95 129 166 218 269 322 383
#     4  11  23  43  65  91 130 166 222 265 323 381
#     4   9  23  41  63  94 126 167 210 264 328 388
#     4  11  24  39  62  96 122 167 211 265 322 377
#     4  10  22  40  63  89 124 177 210 266 326 386
#
# _framework density 20.900155999999999
#
# number of rings (size 3 to 8) (size 9 to 14) (size 15 to 20)
#    0.000    1.667    1.667    2.500    2.333   11.000 
#    0.000    1.667    0.000    3.000    0.000    0.000 
#    0.000    0.000    0.000    0.000    0.000    0.000 
#
# Total GULP energy -297643.521590 kJ/mol
# GULP energy per Si atom -12401.813400 kJ/mol
# Density = 2.085259 g / cm^3
# Si number density = 20.900156 Si / 1000 Ang^3
#
#
#
# Elastic Constant Matrix: (Units=GPa)
#
#
# Indices 1 2 3 4 5 6 
#
# 1 53.5058 29.8413 17.2075 0.0000 7.5345 0.0000
# 2 29.8413 151.7231 37.3662 0.0000 -3.4875 0.0000
# 3 17.2075 37.3662 63.1780 0.0000 -9.8726 0.0000
# 4 0.0000 0.0000 0.0000 38.4836 0.0000 1.1088
# 5 7.5345 -3.4875 -9.8726 0.0000 40.6685 0.0000
# 6 0.0000 0.0000 0.0000 1.1088 0.0000 22.1834
#
#
#
# Elastic Compliance Matrix: (Units=1/GPa)
#
#
# Indices 1 2 3 4 5 6 
#
# 1 0.023071 -0.003394 -0.005186 0.000000 -0.005824 0.000000
# 2 -0.003394 0.008222 -0.003877 0.000000 0.000393 0.000000
# 3 -0.005186 -0.003877 0.020406 0.000000 0.005582 0.000000
# 4 0.000000 0.000000 0.000000 0.026023 0.000000 -0.001301
# 5 -0.005824 0.000393 0.005582 0.000000 0.027057 0.000000
# 6 0.000000 0.000000 0.000000 -0.001301 0.000000 0.045144
#
#
# Mechanical properties :
#
#
# Convention : Reuss Voigt Hill
#
# Bulk Modulus (GPa) = 37.33592 48.58189 42.95890
# Shear Modulus (GPa) = 27.20849 32.53323 29.87086
#
# Velocity S-wave (km/s) = 3.61201 3.94966 3.78460
# Velocity P-wave (km/s) = 5.94123 6.64040 6.30052
#
# Compressibility (1/GPa) = 0.02678386
#
# Stress axis : x y z
#
# Youngs Moduli (GPa) = 43.34515 121.61829 49.00437
#
# Poissons Ratio (x) = 0.41280 0.25415
# Poissons Ratio (y) = 0.14712 0.19000
# Poissons Ratio (z) = 0.22480 0.47155
#
# Static dielectric constant tensor:
#      x y z
#    x 3.793690 0.000000 -0.042030 
#    y 0.000000 3.790530 0.000000 
#    z -0.042030 0.000000 3.897730 
# 
# 
# High freq. dielectric constant tensor:
#      x y z
#    x 1.815790 0.000000 0.001170 
#    y 0.000000 1.819530 0.000000 
#    z 0.001170 0.000000 1.821790 
# 
# From -- ./inp_files/50726.got.cif
#   From: 2010.06.25/outbox.cif.g09.slc.cpg/sg12_26_cif.got.tgz:50726.got - 2010.06.28 00:19:55.
