data_PCOD8110572
_publ_section_title
;
Structure prediction by ZEFSAII (Michael W. Deem and Ramdas Pophale) SiO2 
 PCOD8110572
Probable space group: C 2/M
;
_chemical_formula_sum "Si O2"
_cell_formula_units_Z 56
_cell_length_a 16.259293
_cell_length_b 22.673619
_cell_length_c 9.128222
_cell_angle_alpha 90.000000
_cell_angle_beta 121.459816
_cell_angle_gamma 90.000000
_cell_volume 2870.522716
_symmetry_space_group_name_H-M "C 2/M"
_symmetry_group_IT_number 12
_symmetry_cell_setting 'monoclinic'
loop_
_space_group_symop_operation_xyz
x,y,z
-x,y,-z
-x,-y,-z
x,-y,z
1/2+x,1/2+y,z
1/2-x,1/2+y,-z
1/2-x,1/2-y,-z
1/2+x,1/2-y,z
loop_
_atom_site_type_symbol
_atom_site_label
_atom_site_fract_x
_atom_site_fract_y
_atom_site_fract_z
Si Si1 0.915685 0.372891 0.598426
Si Si2 0.106068 0.372345 0.099507
Si Si3 0.098939 0.830678 0.180326
Si Si4 0.270708 0.764859 0.852401
Si Si5 0.253297 0.432015 0.728529
Si Si6 0.088634 0.764106 0.477783
Si Si7 0.609027 0.934603 0.821978
O O1 0.870245 0.390074 0.713431
O O2 0.847867 0.410489 0.432243
O O3 0.909069 0.302905 0.573723
O O4 0.028358 0.389606 0.681644
O O5 0.176631 0.326433 0.091737
O O6 0.110733 0.429512 0.999792
O O7 0.000000 0.342937 0.000000
O O8 0.163055 0.785361 0.151854
O O9 0.155042 0.893332 0.233500
O O10 0.084430 0.807754 0.333272
O O11 0.000000 0.839805 0.000000
O O12 0.180899 0.774926 0.663285
O O13 0.250000 0.750000 0.000000
O O14 0.276998 0.500000 0.710376
O O15 0.219471 0.424447 0.866847
O O16 0.000000 0.778722 0.500000
O O17 0.574365 0.000000 0.748055
#
# Coordination Sequence:
#
# PCOD8110572 Si02
#       7
#     8   8   8   8   8   8   8
#     4  11  21  37  60  90 128 159 197 249 306 370
#     4  10  22  35  57  85 125 161 201 243 300 364
#     4  12  25  42  63  90 124 163 209 255 306 363
#     4  12  23  38  62  89 124 164 202 251 309 363
#     4  11  23  41  63  87 118 162 211 255 300 357
#     4  12  25  40  62  94 129 159 202 255 311 373
#     4  10  22  38  59  91 126 162 201 243 301 371
#
# _framework density 19.508642999999999
#
# number of rings (size 3 to 8) (size 9 to 14) (size 15 to 20)
#    0.000    0.857    2.857    5.143    6.000    4.571 
#    0.000    0.000    0.000    0.429    0.000    0.000 
#    0.000    0.000    0.000    0.000    0.000    0.000 
#
# Total GULP energy -347033.834682 kJ/mol
# GULP energy per Si atom -12394.065524 kJ/mol
# Density = 1.946424 g / cm^3
# Si number density = 19.508643 Si / 1000 Ang^3
#
#
#
# Elastic Constant Matrix: (Units=GPa)
#
#
# Indices 1 2 3 4 5 6 
#
# 1 119.0728 50.3261 57.7329 0.0000 -5.8758 0.0000
# 2 50.3261 101.4834 40.0871 0.0000 3.1917 0.0000
# 3 57.7329 40.0871 106.1810 0.0000 -6.5870 0.0000
# 4 0.0000 0.0000 0.0000 24.8826 0.0000 -7.8430
# 5 -5.8758 3.1917 -6.5870 0.0000 30.5607 0.0000
# 6 0.0000 0.0000 0.0000 -7.8430 0.0000 37.2409
#
#
#
# Elastic Compliance Matrix: (Units=1/GPa)
#
#
# Indices 1 2 3 4 5 6 
#
# 1 0.012875 -0.004372 -0.005238 0.000000 0.001803 0.000000
# 2 -0.004372 0.013211 -0.002785 0.000000 -0.002821 0.000000
# 3 -0.005238 -0.002785 0.013453 0.000000 0.002183 0.000000
# 4 0.000000 0.000000 0.000000 0.043046 0.000000 0.009066
# 5 0.001803 -0.002821 0.002183 0.000000 0.033834 0.000000
# 6 0.000000 0.000000 0.000000 0.009066 0.000000 0.028761
#
#
# Mechanical properties :
#
#
# Convention : Reuss Voigt Hill
#
# Bulk Modulus (GPa) = 67.80670 69.22549 68.51609
# Shear Modulus (GPa) = 28.59003 30.44293 29.51648
#
# Velocity S-wave (km/s) = 3.83235 3.95458 3.89394
# Velocity P-wave (km/s) = 7.37667 7.51087 7.44407
#
# Compressibility (1/GPa) = 0.01474781
#
# Stress axis : x y z
#
# Youngs Moduli (GPa) = 77.67175 75.69430 74.33452
#
# Poissons Ratio (x) = 0.33096 0.38934
# Poissons Ratio (y) = 0.33961 0.20704
# Poissons Ratio (z) = 0.40682 0.21083
#
# Static dielectric constant tensor:
#      x y z
#    x 4.091320 0.000000 -0.223080 
#    y 0.000000 3.589490 0.000000 
#    z -0.223080 0.000000 3.781890 
# 
# 
# High freq. dielectric constant tensor:
#      x y z
#    x 1.770360 0.000000 -0.017180 
#    y 0.000000 1.750890 0.000000 
#    z -0.017180 0.000000 1.767010 
# 
# From -- ./inp_files/65953.got.cif
#   From: 2010.06.25/outbox.cif.g09.slc.cpg/sg12_33_cif.got.tgz:65953.got - 2010.06.28 00:19:55.
