data_PCOD8110258
_publ_section_title
;
Structure prediction by ZEFSAII (Michael W. Deem and Ramdas Pophale) SiO2 
 PCOD8110258
Probable space group: C 2/M
;
_chemical_formula_sum "Si O2"
_cell_formula_units_Z 60
_cell_length_a 25.882808
_cell_length_b 9.107695
_cell_length_c 11.309105
_cell_angle_alpha 90.000000
_cell_angle_beta 80.037244
_cell_angle_gamma 90.000000
_cell_volume 2625.725052
_symmetry_space_group_name_H-M "C 2/M"
_symmetry_group_IT_number 12
_symmetry_cell_setting 'monoclinic'
loop_
_space_group_symop_operation_xyz
x,y,z
-x,y,-z
-x,-y,-z
x,-y,z
1/2+x,1/2+y,z
1/2-x,1/2+y,-z
1/2-x,1/2-y,-z
1/2+x,1/2-y,z
loop_
_atom_site_type_symbol
_atom_site_label
_atom_site_fract_x
_atom_site_fract_y
_atom_site_fract_z
Si Si1 0.229360 0.670843 0.197176
Si Si2 0.500000 0.772030 0.500000
Si Si3 0.934073 0.839492 0.182953
Si Si4 0.957436 0.154516 0.742544
Si Si5 0.702210 0.322996 0.446070
Si Si6 0.312319 0.838316 0.038887
Si Si7 0.896537 0.335723 0.406338
Si Si8 0.568918 0.162327 0.033234
O O1 0.228569 0.500000 0.235811
O O2 0.207798 0.774106 0.308384
O O3 0.194372 0.704350 0.095905
O O4 0.288189 0.719390 0.138020
O O5 0.460148 0.685796 0.601950
O O6 0.455711 0.855004 0.438945
O O7 0.896958 0.732178 0.273757
O O8 0.958379 0.765397 0.054076
O O9 0.983157 0.868564 0.245122
O O10 0.907894 0.000000 0.165609
O O11 0.926673 0.000000 0.772744
O O12 0.930653 0.279580 0.832526
O O13 0.704245 0.500000 0.457563
O O14 0.750000 0.250000 0.500000
O O15 0.644904 0.264451 0.506502
O O16 0.287266 0.000000 0.070357
O O17 0.373091 0.840983 0.042098
O O18 0.873424 0.500000 0.406171
O O19 0.543781 0.000000 0.044918
#
# Coordination Sequence:
#
# PCOD8110258 Si02
#       8
#     8   4   8   8   8   8   8   8
#     4  10  21  41  66  92 125 165 213 268 325 389
#     4  10  24  44  70 102 136 178 222 272 332 398
#     4  10  22  41  62  88 125 169 215 268 326 389
#     4  10  22  40  62  89 126 168 216 268 324 386
#     4  12  27  46  69  99 135 179 226 276 333 397
#     4   9  21  40  61  90 126 166 208 261 325 387
#     4  11  24  44  70 100 135 176 223 276 333 397
#     4  11  23  37  60  92 126 164 212 266 324 389
#
# _framework density 22.850832
#
# number of rings (size 3 to 8) (size 9 to 14) (size 15 to 20)
#    0.000    1.600    0.000    3.600    3.733    8.000 
#    0.000    0.000    0.000    0.000    0.000    0.000 
#    0.000    0.000    0.000    0.000    0.000    0.000 
#
# Total GULP energy -371654.307083 kJ/mol
# GULP energy per Si atom -12388.476903 kJ/mol
# Density = 2.279882 g / cm^3
# Si number density = 22.850832 Si / 1000 Ang^3
#
#
#
# Elastic Constant Matrix: (Units=GPa)
#
#
# Indices 1 2 3 4 5 6 
#
# 1 53.0831 13.2680 15.4600 0.0000 -11.4892 0.0000
# 2 13.2680 192.9505 75.8148 0.0000 -8.1147 0.0000
# 3 15.4600 75.8148 147.1553 0.0000 -9.4665 0.0000
# 4 0.0000 0.0000 0.0000 36.4103 0.0000 -6.1462
# 5 -11.4892 -8.1147 -9.4665 0.0000 24.4782 0.0000
# 6 0.0000 0.0000 0.0000 -6.1462 0.0000 22.5584
#
#
#
# Elastic Compliance Matrix: (Units=1/GPa)
#
#
# Indices 1 2 3 4 5 6 
#
# 1 0.021392 -0.000541 -0.001368 0.000000 0.009332 0.000000
# 2 -0.000541 0.006530 -0.003266 0.000000 0.000648 0.000000
# 3 -0.001368 -0.003266 0.008728 0.000000 0.001650 0.000000
# 4 0.000000 0.000000 0.000000 0.028789 0.000000 0.007844
# 5 0.009332 0.000648 0.001650 0.000000 0.046086 0.000000
# 6 0.000000 0.000000 0.000000 0.007844 0.000000 0.046466
#
#
# Mechanical properties :
#
#
# Convention : Reuss Voigt Hill
#
# Bulk Modulus (GPa) = 38.02287 66.91938 52.47112
# Shear Modulus (GPa) = 28.23123 35.93244 32.08184
#
# Velocity S-wave (km/s) = 3.51872 3.96975 3.75102
# Velocity P-wave (km/s) = 5.76058 7.09653 6.46317
#
# Compressibility (1/GPa) = 0.02629996
#
# Stress axis : x y z
#
# Youngs Moduli (GPa) = 46.74656 153.13010 114.57223
#
# Poissons Ratio (x) = 0.08282 0.15679
# Poissons Ratio (y) = 0.02528 0.37419
# Poissons Ratio (z) = 0.06397 0.50012
#
# Static dielectric constant tensor:
#      x y z
#    x 3.931820 0.000000 0.039710 
#    y 0.000000 4.482740 0.000000 
#    z 0.039710 0.000000 4.160870 
# 
# 
# High freq. dielectric constant tensor:
#      x y z
#    x 1.887210 0.000000 -0.000110 
#    y 0.000000 1.909390 0.000000 
#    z -0.000110 0.000000 1.911610 
# 
# From -- ./inp_files/187372.got.cif
#   From: 2010.06.25/outbox.cif.g09.slc.cpg/sg12_94_cif.got.tgz:187372.got - 2010.06.28 00:19:55.
