data_PCOD8110735
_publ_section_title
;
Structure prediction by ZEFSAII (Michael W. Deem and Ramdas Pophale) SiO2 
 PCOD8110735
Probable space group: C 2/M
;
_chemical_formula_sum "Si O2"
_cell_formula_units_Z 48
_cell_length_a 14.500376
_cell_length_b 26.570282
_cell_length_c 8.311641
_cell_angle_alpha 90.000000
_cell_angle_beta 136.914157
_cell_angle_gamma 90.000000
_cell_volume 2187.470753
_symmetry_space_group_name_H-M "C 2/M"
_symmetry_group_IT_number 12
_symmetry_cell_setting 'monoclinic'
loop_
_space_group_symop_operation_xyz
x,y,z
-x,y,-z
-x,-y,-z
x,-y,z
1/2+x,1/2+y,z
1/2-x,1/2+y,-z
1/2-x,1/2-y,-z
1/2+x,1/2-y,z
loop_
_atom_site_type_symbol
_atom_site_label
_atom_site_fract_x
_atom_site_fract_y
_atom_site_fract_z
Si Si1 0.460619 0.642642 0.617292
Si Si2 0.256061 0.321580 0.917359
Si Si3 0.111262 0.404315 0.524300
Si Si4 0.525787 0.175213 0.846165
Si Si5 0.627041 0.444506 0.277117
Si Si6 0.663915 0.251638 0.550014
O O1 0.500000 0.616299 0.500000
O O2 0.372625 0.601010 0.596544
O O3 0.371865 0.690905 0.459772
O O4 0.589619 0.660908 0.882464
O O5 0.177485 0.358697 0.701770
O O6 0.185160 0.324304 0.003339
O O7 0.245328 0.267436 0.812721
O O8 0.228182 0.443778 0.628102
O O9 0.000000 0.430653 0.500000
O O10 0.040193 0.379497 0.276358
O O11 0.468281 0.218400 0.653928
O O12 0.500000 0.188206 0.000000
O O13 0.614781 0.500000 0.342181
O O14 0.500000 0.436207 0.000000
O O15 0.750000 0.250000 0.500000
#
# Coordination Sequence:
#
# PCOD8110735 Si02
#       6
#     8   8   8   8   8   8
#     4  12  26  40  66  93 130 179 215 268 330 383
#     4  10  22  42  58  90 138 167 217 264 311 402
#     4   9  19  41  66  92 129 170 210 268 329 388
#     4  10  22  37  61  91 129 172 213 260 315 388
#     4  11  24  44  70  97 126 167 223 280 330 387
#     4  11  25  38  59  91 129 177 213 259 324 387
#
# _framework density 21.943152000000001
#
# number of rings (size 3 to 8) (size 9 to 14) (size 15 to 20)
#    0.000    1.500    1.667    4.500    7.000    2.000 
#    0.000    0.000    0.000    0.500    0.000    0.000 
#    0.000    0.000    0.000    0.000    0.000    0.000 
#
# Total GULP energy -297519.712568 kJ/mol
# GULP energy per Si atom -12396.654690 kJ/mol
# Density = 2.189321 g / cm^3
# Si number density = 21.943152 Si / 1000 Ang^3
#
#
#
# Elastic Constant Matrix: (Units=GPa)
#
#
# Indices 1 2 3 4 5 6 
#
# 1 134.4764 43.9741 35.7668 0.0000 2.2983 0.0000
# 2 43.9741 103.0277 27.8404 0.0000 4.9198 0.0000
# 3 35.7668 27.8404 78.2865 0.0000 3.1926 0.0000
# 4 0.0000 0.0000 0.0000 -1.1264 0.0000 -4.0423
# 5 2.2983 4.9198 3.1926 0.0000 38.2111 0.0000
# 6 0.0000 0.0000 0.0000 -4.0423 0.0000 9.4117
#
#
#
# Elastic Compliance Matrix: (Units=1/GPa)
#
#
# Indices 1 2 3 4 5 6 
#
# 1 0.009290 -0.003122 -0.003138 0.000000 0.000105 0.000000
# 2 -0.003122 0.011831 -0.002736 0.000000 -0.001107 0.000000
# 3 -0.003138 -0.002736 0.015210 0.000000 -0.000730 0.000000
# 4 0.000000 0.000000 0.000000 -0.349347 0.000000 -0.150041
# 5 0.000105 -0.001107 -0.000730 0.000000 0.026368 0.000000
# 6 0.000000 0.000000 0.000000 -0.150041 0.000000 0.041809
#
#
# Mechanical properties :
#
#
# Convention : Reuss Voigt Hill
#
# Bulk Modulus (GPa) = 54.53015 58.99480 56.76248
# Shear Modulus (GPa) = -22.65169 23.17992 0.26412
#
# Velocity S-wave (km/s) = -3.21641 3.25370 0.34731
# Velocity P-wave (km/s) = 3.33329 6.40773 5.10734
#
# Compressibility (1/GPa) = 0.01833848
#
# Stress axis : x y z
#
# Youngs Moduli (GPa) = 107.64128 84.52488 65.74589
#
# Poissons Ratio (x) = 0.26390 0.20633
# Poissons Ratio (y) = 0.33607 0.17986
# Poissons Ratio (z) = 0.33782 0.23124
#
# Static dielectric constant tensor:
#      x y z
#    x 4.251690 0.000000 0.414700 
#    y 0.000000 3.901170 0.000000 
#    z 0.414700 0.000000 4.078830 
# 
# 
# High freq. dielectric constant tensor:
#      x y z
#    x 1.874290 0.000000 0.011200 
#    y 0.000000 1.834150 0.000000 
#    z 0.011200 0.000000 1.865490 
# 
# From -- ./inp_files/67420.got.cif
#   From: 2010.06.25/outbox.cif.g09.slc.cpg/sg12_34_cif.got.tgz:67420.got - 2010.06.28 00:19:55.
