data_PCOD8110552
_publ_section_title
;
Structure prediction by ZEFSAII (Michael W. Deem and Ramdas Pophale) SiO2 
 PCOD8110552
Probable space group: C 2/M
;
_chemical_formula_sum "Si O2"
_cell_formula_units_Z 48
_cell_length_a 35.156209
_cell_length_b 17.407401
_cell_length_c 11.003678
_cell_angle_alpha 90.000000
_cell_angle_beta 157.038373
_cell_angle_gamma 90.000000
_cell_volume 2627.035787
_symmetry_space_group_name_H-M "C 2/M"
_symmetry_group_IT_number 12
_symmetry_cell_setting 'monoclinic'
loop_
_space_group_symop_operation_xyz
x,y,z
-x,y,-z
-x,-y,-z
x,-y,z
1/2+x,1/2+y,z
1/2-x,1/2+y,-z
1/2-x,1/2-y,-z
1/2+x,1/2-y,z
loop_
_atom_site_type_symbol
_atom_site_label
_atom_site_fract_x
_atom_site_fract_y
_atom_site_fract_z
Si Si1 0.591252 0.588473 0.355661
Si Si2 0.280306 0.325854 0.442700
Si Si3 0.550019 0.209002 0.017142
Si Si4 0.542582 0.688210 0.434753
Si Si5 0.795509 0.590467 0.552903
Si Si6 0.651296 0.691415 0.992442
O O1 0.618197 0.500000 0.444523
O O2 0.684496 0.632758 0.576309
O O3 0.566152 0.617982 0.415246
O O4 0.500000 0.604167 0.000000
O O5 0.362619 0.270242 0.739456
O O6 0.256288 0.390199 0.472046
O O7 0.184493 0.276015 0.132890
O O8 0.594208 0.124315 0.124910
O O9 0.500000 0.214321 0.000000
O O10 0.470736 0.232477 0.681354
O O11 0.631876 0.696891 0.791036
O O12 0.445294 0.666522 0.221175
O O13 0.801124 0.500000 0.550426
O O14 0.734964 0.628184 0.263591
#
# Coordination Sequence:
#
# PCOD8110552 Si02
#       6
#     8   8   8   8   8   8
#     4  11  21  33  55  85 112 141 179 226 280 327
#     4  11  18  37  58  82 104 145 190 230 262 324
#     4  11  19  37  61  80 105 146 195 227 262 321
#     4  11  19  37  56  83 111 144 181 233 271 325
#     4  11  22  37  57  83 115 144 182 228 276 332
#     4  10  22  34  59  82 110 145 187 225 277 325
#
# _framework density 18.271543999999999
#
# number of rings (size 3 to 8) (size 9 to 14) (size 15 to 20)
#    0.000    1.167    6.667    1.500    0.000    3.667 
#    0.000    1.667    0.000    3.000    0.000    0.000 
#    0.000    0.000    0.000    0.000    0.000    0.000 
#
# Total GULP energy -297649.313684 kJ/mol
# GULP energy per Si atom -12402.054737 kJ/mol
# Density = 1.822996 g / cm^3
# Si number density = 18.271544 Si / 1000 Ang^3
#
#
#
# Elastic Constant Matrix: (Units=GPa)
#
#
# Indices 1 2 3 4 5 6 
#
# 1 89.2457 33.2062 36.5567 0.0000 -20.7064 0.0000
# 2 33.2062 124.1506 48.0144 0.0000 -11.1153 0.0000
# 3 36.5567 48.0144 70.3014 0.0000 -25.2777 0.0000
# 4 0.0000 0.0000 0.0000 14.4679 0.0000 5.7388
# 5 -20.7064 -11.1153 -25.2777 0.0000 28.4125 0.0000
# 6 0.0000 0.0000 0.0000 5.7388 0.0000 28.5673
#
#
#
# Elastic Compliance Matrix: (Units=1/GPa)
#
#
# Indices 1 2 3 4 5 6 
#
# 1 0.015149 -0.001804 -0.004308 0.000000 0.006502 0.000000
# 2 -0.001804 0.011400 -0.008406 0.000000 -0.004334 0.000000
# 3 -0.004308 -0.008406 0.029252 0.000000 0.019597 0.000000
# 4 0.000000 0.000000 0.000000 0.075103 0.000000 -0.015087
# 5 0.006502 -0.004334 0.019597 0.000000 0.055674 0.000000
# 6 0.000000 0.000000 0.000000 -0.015087 0.000000 0.038036
#
#
# Mechanical properties :
#
#
# Convention : Reuss Voigt Hill
#
# Bulk Modulus (GPa) = 37.36082 57.69470 47.52776
# Shear Modulus (GPa) = 19.04238 25.35088 22.19663
#
# Velocity S-wave (km/s) = 3.23180 3.72889 3.48921
# Velocity P-wave (km/s) = 5.86668 7.08409 6.50393
#
# Compressibility (1/GPa) = 0.02676600
#
# Stress axis : x y z
#
# Youngs Moduli (GPa) = 66.00941 87.71679 34.18566
#
# Poissons Ratio (x) = 0.15823 0.14726
# Poissons Ratio (y) = 0.11907 0.28738
# Poissons Ratio (z) = 0.28434 0.73738
#
# Static dielectric constant tensor:
#      x y z
#    x 3.449430 0.000000 -0.055900 
#    y 0.000000 3.255900 0.000000 
#    z -0.055900 0.000000 3.443350 
# 
# 
# High freq. dielectric constant tensor:
#      x y z
#    x 1.722000 0.000000 -0.001860 
#    y 0.000000 1.691030 0.000000 
#    z -0.001860 0.000000 1.689770 
# 
# From -- ./inp_files/112952.got.cif
#   From: 2010.06.25/outbox.cif.g09.slc.cpg/sg12_57_cif.got.tgz:112952.got - 2010.06.28 00:19:55.
