data_PCOD8110964
_publ_section_title
;
Structure prediction by ZEFSAII (Michael W. Deem and Ramdas Pophale) SiO2 
 PCOD8110964
Probable space group: C 2/M
;
_chemical_formula_sum "Si O2"
_cell_formula_units_Z 52
_cell_length_a 20.837481
_cell_length_b 17.418919
_cell_length_c 14.646004
_cell_angle_alpha 90.000000
_cell_angle_beta 30.484591
_cell_angle_gamma 90.000000
_cell_volume 2696.845672
_symmetry_space_group_name_H-M "C 2/M"
_symmetry_group_IT_number 12
_symmetry_cell_setting 'monoclinic'
loop_
_space_group_symop_operation_xyz
x,y,z
-x,y,-z
-x,-y,-z
x,-y,z
1/2+x,1/2+y,z
1/2-x,1/2+y,-z
1/2-x,1/2-y,-z
1/2+x,1/2-y,z
loop_
_atom_site_type_symbol
_atom_site_label
_atom_site_fract_x
_atom_site_fract_y
_atom_site_fract_z
Si Si1 0.642386 0.338255 0.415913
Si Si2 0.624149 0.588866 0.254287
Si Si3 0.591839 0.089352 0.585251
Si Si4 0.319261 0.089516 0.855514
Si Si5 0.179377 0.315498 0.643927
Si Si6 0.743549 0.171519 0.251965
Si Si7 0.500000 0.732131 0.000000
O O1 0.495610 0.355840 0.616768
O O2 0.685909 0.390490 0.276775
O O3 0.722884 0.357894 0.407504
O O4 0.663932 0.249169 0.364730
O O5 0.581332 0.500000 0.306177
O O6 0.726349 0.606166 0.052605
O O7 0.456943 0.119395 0.715240
O O8 0.622622 0.122869 0.645823
O O9 0.697805 0.109699 0.381598
O O10 0.586363 0.000000 0.606496
O O11 0.275055 0.140474 0.825957
O O12 0.320403 0.000000 0.826297
O O13 0.250000 0.250000 0.500000
O O14 0.062547 0.283157 0.844682
O O15 0.893215 0.180692 0.083190
#
# Coordination Sequence:
#
# PCOD8110964 Si02
#       7
#     8   8   8   8   8   8   4
#     4  10  22  38  63  93 118 163 196 257 317 359
#     4  10  23  42  62  93 125 156 210 261 305 371
#     4  11  24  42  63  91 129 168 205 254 312 375
#     4  10  24  41  62  90 126 165 204 257 308 369
#     4  11  23  43  65  91 130 162 209 260 313 370
#     4  11  23  40  65  91 126 161 211 254 313 367
#     4  10  24  42  64  96 124 162 210 274 300 368
#
# _framework density 19.281786
#
# number of rings (size 3 to 8) (size 9 to 14) (size 15 to 20)
#    0.000    1.538    3.077    1.846   10.769    3.077 
#    0.000    3.462    0.000    0.000    0.000    0.000 
#    0.000    0.000    0.000    0.000    0.000    0.000 
#
# Total GULP energy -322435.506240 kJ/mol
# GULP energy per Si atom -12401.365625 kJ/mol
# Density = 1.923790 g / cm^3
# Si number density = 19.281786 Si / 1000 Ang^3
#
#
#
# Elastic Constant Matrix: (Units=GPa)
#
#
# Indices 1 2 3 4 5 6 
#
# 1 182.4754 56.6124 69.0539 0.0000 -6.7817 0.0001
# 2 56.6124 61.6721 36.0036 0.0000 -9.2534 0.0000
# 3 69.0539 36.0036 128.7148 0.0000 -0.0935 0.0000
# 4 0.0000 0.0000 0.0000 31.4764 0.0000 -0.1425
# 5 -6.7817 -9.2534 -0.0935 0.0000 37.2755 0.0000
# 6 0.0001 0.0000 0.0000 -0.1425 0.0000 22.4813
#
#
#
# Elastic Compliance Matrix: (Units=1/GPa)
#
#
# Indices 1 2 3 4 5 6 
#
# 1 0.008441 -0.006098 -0.002823 0.000000 0.000015 0.000000
# 2 -0.006098 0.024683 -0.003629 0.000000 0.005009 0.000000
# 3 -0.002823 -0.003629 0.010297 0.000000 -0.001389 0.000000
# 4 0.000000 0.000000 0.000000 0.031771 0.000000 0.000201
# 5 0.000015 0.005009 -0.001389 0.000000 0.028070 0.000000
# 6 0.000000 0.000000 0.000000 0.000201 0.000000 0.044483
#
#
# Mechanical properties :
#
#
# Convention : Reuss Voigt Hill
#
# Bulk Modulus (GPa) = 54.58062 77.35580 65.96821
# Shear Modulus (GPa) = 27.94057 32.32614 30.13335
#
# Velocity S-wave (km/s) = 3.81079 4.09896 3.95750
# Velocity P-wave (km/s) = 6.90877 7.91250 7.42761
#
# Compressibility (1/GPa) = 0.01832152
#
# Stress axis : x y z
#
# Youngs Moduli (GPa) = 118.47086 40.51399 97.11140
#
# Poissons Ratio (x) = 0.24707 0.27411
# Poissons Ratio (y) = 0.72248 0.35240
# Poissons Ratio (z) = 0.33440 0.14702
#
# Static dielectric constant tensor:
#      x y z
#    x 3.706970 0.000000 -0.041640 
#    y 0.000000 3.473010 0.000000 
#    z -0.041640 0.000000 3.608220 
# 
# 
# High freq. dielectric constant tensor:
#      x y z
#    x 1.765460 0.000000 0.006130 
#    y 0.000000 1.745080 0.000000 
#    z 0.006130 0.000000 1.761940 
# 
# From -- ./inp_files/234426.got.cif
#   From: 2010.06.25/outbox.cif.g09.slc.cpg/sg12_118_cif.got.tgz:234426.got - 2010.06.28 00:19:55.
