data_PCOD8110192
_publ_section_title
;
Structure prediction by ZEFSAII (Michael W. Deem and Ramdas Pophale) SiO2 
 PCOD8110192
Probable space group: C 2/M
;
_chemical_formula_sum "Si O2"
_cell_formula_units_Z 48
_cell_length_a 16.763374
_cell_length_b 15.664350
_cell_length_c 16.411947
_cell_angle_alpha 90.000000
_cell_angle_beta 144.758683
_cell_angle_gamma 90.000000
_cell_volume 2486.714099
_symmetry_space_group_name_H-M "C 2/M"
_symmetry_group_IT_number 12
_symmetry_cell_setting 'monoclinic'
loop_
_space_group_symop_operation_xyz
x,y,z
-x,y,-z
-x,-y,-z
x,-y,z
1/2+x,1/2+y,z
1/2-x,1/2+y,-z
1/2-x,1/2-y,-z
1/2+x,1/2-y,z
loop_
_atom_site_type_symbol
_atom_site_label
_atom_site_fract_x
_atom_site_fract_y
_atom_site_fract_z
Si Si1 0.839243 0.899863 0.376615
Si Si2 0.204504 0.402194 0.621723
Si Si3 0.185813 0.739571 0.358262
Si Si4 0.627379 0.815224 0.893267
Si Si5 0.084499 0.404154 0.693205
Si Si6 0.632149 0.901380 0.066103
O O1 0.768063 0.838182 0.383495
O O2 0.770553 0.879763 0.231954
O O3 0.000000 0.877148 0.500000
O O4 0.818736 0.000000 0.384915
O O5 0.245213 0.500000 0.630520
O O6 0.314220 0.330764 0.688063
O O7 0.191340 0.397600 0.708012
O O8 0.064311 0.370742 0.460560
O O9 0.250000 0.750000 0.500000
O O10 0.024720 0.722292 0.229147
O O11 0.647830 0.856827 0.822527
O O12 0.750000 0.750000 0.000000
O O13 0.650053 0.877938 0.987401
O O14 0.062523 0.500000 0.703245
O O15 0.601346 0.000000 0.041186
O O16 0.500000 0.855763 0.000000
#
# Coordination Sequence:
#
# PCOD8110192 Si02
#       6
#     8   8   8   8   8   8
#     4  10  24  43  68  96 125 162 208 261 318 378
#     4   9  20  39  65  91 118 161 214 258 302 357
#     4  12  25  39  64  93 125 167 202 260 316 367
#     4  12  26  38  58  94 129 163 207 255 313 374
#     4   9  19  39  64  88 117 161 208 257 303 361
#     4  10  21  41  64  88 121 167 210 256 315 380
#
# _framework density 19.302582000000001
#
# number of rings (size 3 to 8) (size 9 to 14) (size 15 to 20)
#    0.000    1.667    3.333    1.500    7.000    1.333 
#    0.000    1.667    0.000    2.000    0.000    0.000 
#    0.000    0.000    0.000    0.000    0.000    0.000 
#
# Total GULP energy -297449.334955 kJ/mol
# GULP energy per Si atom -12393.722290 kJ/mol
# Density = 1.925865 g / cm^3
# Si number density = 19.302582 Si / 1000 Ang^3
#
#
#
# Elastic Constant Matrix: (Units=GPa)
#
#
# Indices 1 2 3 4 5 6 
#
# 1 98.1486 47.6550 70.0723 0.0002 -14.5971 0.0002
# 2 47.6550 73.7664 49.4689 0.0002 -6.1590 0.0001
# 3 70.0723 49.4689 143.8767 0.0003 -6.0850 0.0003
# 4 0.0002 0.0002 0.0003 24.7032 0.0002 -6.3124
# 5 -14.5971 -6.1590 -6.0850 0.0002 44.3763 0.0002
# 6 0.0002 0.0001 0.0003 -6.3124 0.0002 35.9987
#
#
#
# Elastic Compliance Matrix: (Units=1/GPa)
#
#
# Indices 1 2 3 4 5 6 
#
# 1 0.019237 -0.007673 -0.006546 0.000000 0.004365 0.000000
# 2 -0.007673 0.020797 -0.003418 0.000000 -0.000106 0.000000
# 3 -0.006546 -0.003418 0.011268 0.000000 -0.001083 0.000000
# 4 0.000000 0.000000 0.000000 0.042379 0.000000 0.007431
# 5 0.004365 -0.000106 -0.001083 0.000000 0.023807 0.000000
# 6 0.000000 0.000000 0.000000 0.007431 0.000000 0.029082
#
#
# Mechanical properties :
#
#
# Convention : Reuss Voigt Hill
#
# Bulk Modulus (GPa) = 62.39417 72.24267 67.31842
# Shear Modulus (GPa) = 26.71126 30.92201 28.81663
#
# Velocity S-wave (km/s) = 3.72401 4.00679 3.86799
# Velocity P-wave (km/s) = 7.13340 7.67552 7.40942
#
# Compressibility (1/GPa) = 0.01602714
#
# Stress axis : x y z
#
# Youngs Moduli (GPa) = 51.98302 48.08475 88.74745
#
# Poissons Ratio (x) = 0.36897 0.58095
# Poissons Ratio (y) = 0.39888 0.30333
# Poissons Ratio (z) = 0.34029 0.16435
#
# Static dielectric constant tensor:
#      x y z
#    x 3.871600 0.000000 -0.470410 
#    y 0.000000 3.611350 0.000000 
#    z -0.470410 0.000000 3.867130 
# 
# 
# High freq. dielectric constant tensor:
#      x y z
#    x 1.752880 0.000000 -0.013050 
#    y 0.000000 1.752990 0.000000 
#    z -0.013050 0.000000 1.751980 
# 
# From -- ./inp_files/278249.got.cif
#   From: 2010.06.25/outbox.cif.g09.slc.cpg/sg12_140_cif.got.tgz:278249.got - 2010.06.28 00:19:55.
