data_PCOD8110071
_publ_section_title
;
Structure prediction by ZEFSAII (Michael W. Deem and Ramdas Pophale) SiO2 
 PCOD8110071
Probable space group: C 2/M
;
_chemical_formula_sum "Si O2"
_cell_formula_units_Z 64
_cell_length_a 14.880864
_cell_length_b 27.164300
_cell_length_c 8.465305
_cell_angle_alpha 90.000000
_cell_angle_beta 112.260182
_cell_angle_gamma 90.000000
_cell_volume 3166.891050
_symmetry_space_group_name_H-M "C 2/M"
_symmetry_group_IT_number 12
_symmetry_cell_setting 'monoclinic'
loop_
_space_group_symop_operation_xyz
x,y,z
-x,y,-z
-x,-y,-z
x,-y,z
1/2+x,1/2+y,z
1/2-x,1/2+y,-z
1/2-x,1/2-y,-z
1/2+x,1/2-y,z
loop_
_atom_site_type_symbol
_atom_site_label
_atom_site_fract_x
_atom_site_fract_y
_atom_site_fract_z
Si Si1 0.230433 0.799461 0.390479
Si Si2 0.394434 0.136213 0.364418
Si Si3 0.095547 0.871081 0.481423
Si Si4 0.717542 0.631821 0.857191
Si Si5 0.768716 0.555544 0.151987
Si Si6 0.103762 0.202942 0.004287
Si Si7 0.433630 0.444620 0.815285
Si Si8 0.405708 0.185375 0.035909
O O1 0.250000 0.750000 0.500000
O O2 0.328764 0.831376 0.440489
O O3 0.143940 0.827355 0.418757
O O4 0.189152 0.790323 0.188837
O O5 0.500000 0.128540 0.500000
O O6 0.350111 0.082061 0.311151
O O7 0.404011 0.161375 0.203753
O O8 0.171977 0.889112 0.665289
O O9 0.060285 0.914764 0.343253
O O10 0.000000 0.849083 0.500000
O O11 0.749554 0.584133 0.976623
O O12 0.637297 0.663813 0.896656
O O13 0.809739 0.666919 0.878220
O O14 0.801202 0.500000 0.132612
O O15 0.675611 0.556203 0.200044
O O16 0.091033 0.256869 0.923292
O O17 0.000000 0.183907 0.000000
O O18 0.470085 0.500000 0.802877
O O19 0.500000 0.421800 0.000000
O O20 0.500000 0.168919 0.000000
#
# Coordination Sequence:
#
# PCOD8110071 Si02
#       8
#     8   8   8   8   8   8   8   8
#     4  12  26  42  62  94 133 174 220 267 314 383
#     4  11  25  43  67  94 128 168 218 272 320 383
#     4  12  25  38  62  95 133 170 212 263 321 383
#     4  11  22  39  61  90 127 166 209 270 318 378
#     4  10  21  43  68  92 122 167 216 268 331 390
#     4  11  22  40  63  88 128 172 217 254 316 386
#     4  10  21  40  67  95 129 169 211 261 328 399
#     4  10  23  39  63  90 121 170 214 262 317 378
#
# _framework density 20.209094
#
# number of rings (size 3 to 8) (size 9 to 14) (size 15 to 20)
#    0.000    1.125    3.750    2.625    7.000    2.500 
#    0.000    0.000    0.000    6.000    0.000    0.000 
#    0.000    0.000    0.000    0.000    0.000    0.000 
#
# Total GULP energy -396825.704345 kJ/mol
# GULP energy per Si atom -12400.803261 kJ/mol
# Density = 2.016310 g / cm^3
# Si number density = 20.209094 Si / 1000 Ang^3
#
#
#
# Elastic Constant Matrix: (Units=GPa)
#
#
# Indices 1 2 3 4 5 6 
#
# 1 130.3554 54.6634 34.6762 0.0000 7.6363 0.0000
# 2 54.6634 125.8974 40.6673 0.0000 -2.5326 0.0000
# 3 34.6762 40.6673 116.8173 0.0000 14.0367 0.0000
# 4 0.0000 0.0000 0.0000 26.4560 0.0000 4.4425
# 5 7.6363 -2.5326 14.0367 0.0000 36.2878 0.0000
# 6 0.0000 0.0000 0.0000 4.4425 0.0000 24.0325
#
#
#
# Elastic Compliance Matrix: (Units=1/GPa)
#
#
# Indices 1 2 3 4 5 6 
#
# 1 0.009740 -0.003832 -0.001341 0.000000 -0.001798 0.000000
# 2 -0.003832 0.010586 -0.002867 0.000000 0.002654 0.000000
# 3 -0.001341 -0.002867 0.010431 0.000000 -0.003953 0.000000
# 4 0.000000 0.000000 0.000000 0.039009 0.000000 -0.007211
# 5 -0.001798 0.002654 -0.003953 0.000000 0.029650 0.000000
# 6 0.000000 0.000000 0.000000 -0.007211 0.000000 0.042943
#
#
# Mechanical properties :
#
#
# Convention : Reuss Voigt Hill
#
# Bulk Modulus (GPa) = 68.12921 70.34265 69.23593
# Shear Modulus (GPa) = 30.61213 33.55948 32.08580
#
# Velocity S-wave (km/s) = 3.89623 4.07948 3.98891
# Velocity P-wave (km/s) = 7.35025 7.55464 7.45314
#
# Compressibility (1/GPa) = 0.01467799
#
# Stress axis : x y z
#
# Youngs Moduli (GPa) = 102.66477 94.46204 95.86372
#
# Poissons Ratio (x) = 0.36199 0.12857
# Poissons Ratio (y) = 0.39343 0.27482
# Poissons Ratio (z) = 0.13769 0.27080
#
# Static dielectric constant tensor:
#      x y z
#    x 0.688120 0.000000 -2.807330 
#    y 0.000000 3.867190 0.000000 
#    z -2.807330 0.000000 1.188720 
# 
# 
# High freq. dielectric constant tensor:
#      x y z
#    x 1.799390 0.000000 0.005340 
#    y 0.000000 1.784490 0.000000 
#    z 0.005340 0.000000 1.793330 
# 
# From -- ./inp_files/67040.got.cif
#   From: 2010.06.25/outbox.cif.g09.slc.cpg/sg12_34_cif.got.tgz:67040.got - 2010.06.28 00:19:55.
