data_PCOD8110672
_publ_section_title
;
Structure prediction by ZEFSAII (Michael W. Deem and Ramdas Pophale) SiO2 
 PCOD8110672
Probable space group: C 2/M
;
_chemical_formula_sum "Si O2"
_cell_formula_units_Z 48
_cell_length_a 16.423337
_cell_length_b 32.088742
_cell_length_c 5.076408
_cell_angle_alpha 90.000000
_cell_angle_beta 71.807406
_cell_angle_gamma 90.000000
_cell_volume 2541.557250
_symmetry_space_group_name_H-M "C 2/M"
_symmetry_group_IT_number 12
_symmetry_cell_setting 'monoclinic'
loop_
_space_group_symop_operation_xyz
x,y,z
-x,y,-z
-x,-y,-z
x,-y,z
1/2+x,1/2+y,z
1/2-x,1/2+y,-z
1/2-x,1/2-y,-z
1/2+x,1/2-y,z
loop_
_atom_site_type_symbol
_atom_site_label
_atom_site_fract_x
_atom_site_fract_y
_atom_site_fract_z
Si Si1 0.100445 0.452057 0.363044
Si Si2 0.053029 0.332446 0.703469
Si Si3 0.799429 0.159806 0.722600
Si Si4 0.663469 0.907454 0.781963
Si Si5 0.677951 0.228823 0.735638
Si Si6 0.101630 0.187026 0.898715
O O1 0.112527 0.500000 0.271901
O O2 0.157382 0.443833 0.568804
O O3 0.000000 0.441887 0.500000
O O4 0.138380 0.423826 0.093313
O O5 0.093209 0.375306 0.753525
O O6 0.120800 0.295854 0.577659
O O7 0.000000 0.342120 0.500000
O O8 0.000000 0.313857 0.000000
O O9 0.756737 0.114727 0.705573
O O10 0.723572 0.193388 0.871154
O O11 0.858151 0.174084 0.420374
O O12 0.859758 0.156759 0.916905
O O13 0.750000 0.250000 0.500000
O O14 0.624816 0.264490 0.944995
O O15 0.000000 0.181229 0.000000
#
# Coordination Sequence:
#
# PCOD8110672 Si02
#       6
#     8   8   8   8   8   8
#     4  11  22  36  56  84 116 147 177 211 256 312
#     4  11  22  34  51  73  98 136 185 222 256 302
#     4  10  22  37  54  77 106 143 183 224 271 322
#     4  11  21  37  56  77 111 146 178 218 261 312
#     4   9  21  35  50  71 102 140 179 225 272 312
#     4  11  21  36  55  77 106 139 182 232 281 323
#
# _framework density 18.886057000000001
#
# number of rings (size 3 to 8) (size 9 to 14) (size 15 to 20)
#    0.000    1.500    0.000    6.000    0.000   13.333 
#    0.000    0.000    0.000    0.000    0.000    0.000 
#    0.000   46.667    0.000    0.000    0.000    0.000 
#
# Total GULP energy -297483.628122 kJ/mol
# GULP energy per Si atom -12395.151172 kJ/mol
# Density = 1.884307 g / cm^3
# Si number density = 18.886057 Si / 1000 Ang^3
#
#
#
# Elastic Constant Matrix: (Units=GPa)
#
#
# Indices 1 2 3 4 5 6 
#
# 1 125.9242 42.0058 43.7858 0.0000 4.9016 0.0000
# 2 42.0058 76.7221 26.0503 0.0000 -7.9770 0.0000
# 3 43.7858 26.0503 100.5633 0.0000 6.3576 0.0000
# 4 0.0000 0.0000 0.0000 22.1597 0.0000 -0.4987
# 5 4.9016 -7.9770 6.3576 0.0000 31.8148 0.0000
# 6 0.0000 0.0000 0.0000 -0.4987 0.0000 25.7271
#
#
#
# Elastic Compliance Matrix: (Units=1/GPa)
#
#
# Indices 1 2 3 4 5 6 
#
# 1 0.010860 -0.005074 -0.003269 0.000000 -0.002292 0.000000
# 2 -0.005074 0.017291 -0.002626 0.000000 0.005642 0.000000
# 3 -0.003269 -0.002626 0.012212 0.000000 -0.002595 0.000000
# 4 0.000000 0.000000 0.000000 0.045147 0.000000 0.000875
# 5 -0.002292 0.005642 -0.002595 0.000000 0.033718 0.000000
# 6 0.000000 0.000000 0.000000 0.000875 0.000000 0.038886
#
#
# Mechanical properties :
#
#
# Convention : Reuss Voigt Hill
#
# Bulk Modulus (GPa) = 54.28022 58.54372 56.41197
# Shear Modulus (GPa) = 26.85375 28.69818 27.77597
#
# Velocity S-wave (km/s) = 3.77488 3.90236 3.83915
# Velocity P-wave (km/s) = 6.91396 7.16730 7.04177
#
# Compressibility (1/GPa) = 0.01842292
#
# Stress axis : x y z
#
# Youngs Moduli (GPa) = 92.08217 57.83505 81.88809
#
# Poissons Ratio (x) = 0.29346 0.26770
# Poissons Ratio (y) = 0.46724 0.21507
# Poissons Ratio (z) = 0.30103 0.15190
#
# Static dielectric constant tensor:
#      x y z
#    x 3.583530 0.000000 -0.006170 
#    y 0.000000 3.687870 0.000000 
#    z -0.006170 0.000000 3.367780 
# 
# 
# High freq. dielectric constant tensor:
#      x y z
#    x 1.729260 0.000000 0.008310 
#    y 0.000000 1.719780 0.000000 
#    z 0.008310 0.000000 1.732260 
# 
# From -- ./inp_files/12796.got.cif
#   From: 2010.06.25/outbox.cif.g09.slc.cpg/sg12_7_cif.got.tgz:12796.got - 2010.06.28 00:19:55.
