data_PCOD8110337
_publ_section_title
;
Structure prediction by ZEFSAII (Michael W. Deem and Ramdas Pophale) SiO2 
 PCOD8110337
Probable space group: C 2/M
;
_chemical_formula_sum "Si O2"
_cell_formula_units_Z 40
_cell_length_a 14.273283
_cell_length_b 17.729655
_cell_length_c 10.170071
_cell_angle_alpha 90.000000
_cell_angle_beta 133.902157
_cell_angle_gamma 90.000000
_cell_volume 1854.373467
_symmetry_space_group_name_H-M "C 2/M"
_symmetry_group_IT_number 12
_symmetry_cell_setting 'monoclinic'
loop_
_space_group_symop_operation_xyz
x,y,z
-x,y,-z
-x,-y,-z
x,-y,z
1/2+x,1/2+y,z
1/2-x,1/2+y,-z
1/2-x,1/2-y,-z
1/2+x,1/2-y,z
loop_
_atom_site_type_symbol
_atom_site_label
_atom_site_fract_x
_atom_site_fract_y
_atom_site_fract_z
Si Si1 0.853021 0.586350 0.853213
Si Si2 0.759897 0.414023 0.054585
Si Si3 0.020767 0.304450 0.664087
Si Si4 0.504582 0.670419 0.854592
Si Si5 0.761193 0.339150 0.513371
O O1 0.858333 0.500000 0.811613
O O2 0.763847 0.631806 0.664829
O O3 0.783467 0.596762 0.923518
O O4 0.000000 0.619073 0.000000
O O5 0.787368 0.500000 0.124534
O O6 0.853286 0.357240 0.223308
O O7 0.611991 0.394046 0.943964
O O8 0.037935 0.240040 0.790668
O O9 0.000000 0.267057 0.500000
O O10 0.897891 0.359544 0.576639
O O11 0.366931 0.629987 0.685203
O O12 0.500000 0.700648 0.000000
O O13 0.750000 0.250000 0.500000
#
# Coordination Sequence:
#
# PCOD8110337 Si02
#       5
#     8   8   8   8   8
#     4  10  21  41  69 100 133 178 225 278 331 400
#     4  11  25  43  69 100 138 181 225 274 340 406
#     4  11  24  42  70 102 132 177 231 283 335 395
#     4  11  26  44  68 101 139 182 221 279 343 399
#     4  10  23  37  65  97 135 170 223 274 334 389
#
# _framework density 21.570629
#
# number of rings (size 3 to 8) (size 9 to 14) (size 15 to 20)
#    0.000    1.400    2.000    1.800   11.200    1.600 
#    0.000    4.000    0.000    0.000    0.000    0.000 
#    0.000    0.000    0.000    0.000    0.000    0.000 
#
# Total GULP energy -248013.211736 kJ/mol
# GULP energy per Si atom -12400.660587 kJ/mol
# Density = 2.152153 g / cm^3
# Si number density = 21.570629 Si / 1000 Ang^3
#
#
#
# Elastic Constant Matrix: (Units=GPa)
#
#
# Indices 1 2 3 4 5 6 
#
# 1 92.5221 19.5744 43.1813 0.0000 7.1420 0.0000
# 2 19.5744 75.0029 48.3066 0.0000 -10.3673 0.0000
# 3 43.1813 48.3066 154.8844 0.0000 -4.8788 0.0000
# 4 0.0000 0.0000 0.0000 29.4617 0.0000 -3.7081
# 5 7.1420 -10.3673 -4.8788 0.0000 55.6157 0.0000
# 6 0.0000 0.0000 0.0000 -3.7081 0.0000 31.6061
#
#
#
# Elastic Compliance Matrix: (Units=1/GPa)
#
#
# Indices 1 2 3 4 5 6 
#
# 1 0.012783 -0.001630 -0.003125 0.000000 -0.002220 0.000000
# 2 -0.001630 0.017294 -0.004845 0.000000 0.003008 0.000000
# 3 -0.003125 -0.004845 0.008847 0.000000 0.000274 0.000000
# 4 0.000000 0.000000 0.000000 0.034451 0.000000 0.004042
# 5 -0.002220 0.003008 0.000274 0.000000 0.018850 0.000000
# 6 0.000000 0.000000 0.000000 0.004042 0.000000 0.032114
#
#
# Mechanical properties :
#
#
# Convention : Reuss Voigt Hill
#
# Bulk Modulus (GPa) = 50.69808 60.50378 55.60093
# Shear Modulus (GPa) = 33.30779 37.42651 35.36715
#
# Velocity S-wave (km/s) = 3.93380 4.16993 4.05359
# Velocity P-wave (km/s) = 6.64736 7.16202 6.90948
#
# Compressibility (1/GPa) = 0.01972461
#
# Stress axis : x y z
#
# Youngs Moduli (GPa) = 78.22834 57.82251 113.02705
#
# Poissons Ratio (x) = 0.09425 0.35326
# Poissons Ratio (y) = 0.12751 0.54758
# Poissons Ratio (z) = 0.24450 0.28013
#
# Static dielectric constant tensor:
#      x y z
#    x 4.397230 0.000000 0.448360 
#    y 0.000000 3.635290 0.000000 
#    z 0.448360 0.000000 4.329260 
# 
# 
# High freq. dielectric constant tensor:
#      x y z
#    x 1.860000 0.000000 0.003930 
#    y 0.000000 1.819470 0.000000 
#    z 0.003930 0.000000 1.857400 
# 
# From -- ./inp_files/63801.got.cif
#   From: 2010.06.25/outbox.cif.g09.slc.cpg/sg12_32_cif.got.tgz:63801.got - 2010.06.28 00:19:55.
