data_PCOD8110719
_publ_section_title
;
Structure prediction by ZEFSAII (Michael W. Deem and Ramdas Pophale) SiO2 
 PCOD8110719
Probable space group: C 2/M
;
_chemical_formula_sum "Si O2"
_cell_formula_units_Z 36
_cell_length_a 16.866500
_cell_length_b 21.159029
_cell_length_c 8.203699
_cell_angle_alpha 90.000000
_cell_angle_beta 37.627136
_cell_angle_gamma 90.000000
_cell_volume 1787.436223
_symmetry_space_group_name_H-M "C 2/M"
_symmetry_group_IT_number 12
_symmetry_cell_setting 'monoclinic'
loop_
_space_group_symop_operation_xyz
x,y,z
-x,y,-z
-x,-y,-z
x,-y,z
1/2+x,1/2+y,z
1/2-x,1/2+y,-z
1/2-x,1/2-y,-z
1/2+x,1/2-y,z
loop_
_atom_site_type_symbol
_atom_site_label
_atom_site_fract_x
_atom_site_fract_y
_atom_site_fract_z
Si Si1 0.500000 0.370150 0.000000
Si Si2 0.189212 0.656491 0.991861
Si Si3 0.724446 0.427195 0.431235
Si Si4 0.215185 0.798950 0.834542
Si Si5 0.428202 0.152347 0.273221
O O1 0.407358 0.415075 0.256150
O O2 0.419832 0.325357 0.010350
O O3 0.278741 0.613259 0.730632
O O4 0.194925 0.728609 0.925643
O O5 0.238606 0.653524 0.096423
O O6 0.038974 0.633197 0.224058
O O7 0.735133 0.500000 0.366175
O O8 0.848808 0.408958 0.340311
O O9 0.326730 0.797946 0.514177
O O10 0.500000 0.184352 0.000000
#
# Coordination Sequence:
#
# PCOD8110719 Si02
#       5
#     4   8   8   8   8
#     4  10  23  38  64  84 121 158 200 250 292 354
#     4  10  22  37  59  88 122 156 195 251 297 353
#     4  10  22  40  61  88 121 161 201 240 293 355
#     4  10  22  38  58  90 121 153 199 247 306 347
#     4   9  20  36  60  85 113 153 195 245 293 346
#
# _framework density 20.140578999999999
#
# number of rings (size 3 to 8) (size 9 to 14) (size 15 to 20)
#    0.000    2.222    0.000    1.000    7.778    9.333 
#    0.000    6.667    0.000   10.667    0.000    0.000 
#    0.000    0.000    0.000    0.000    0.000    0.000 
#
# Total GULP energy -223176.231723 kJ/mol
# GULP energy per Si atom -12398.679540 kJ/mol
# Density = 2.009474 g / cm^3
# Si number density = 20.140579 Si / 1000 Ang^3
#
#
#
# Elastic Constant Matrix: (Units=GPa)
#
#
# Indices 1 2 3 4 5 6 
#
# 1 147.3914 46.0964 53.9825 0.0000 -10.4094 -0.0001
# 2 46.0964 88.4871 32.8493 0.0000 5.2380 0.0000
# 3 53.9825 32.8493 125.6812 0.0001 -8.1272 -0.0001
# 4 0.0000 0.0000 0.0001 20.1697 0.0000 4.6834
# 5 -10.4094 5.2380 -8.1272 0.0000 25.3244 0.0001
# 6 -0.0001 0.0000 -0.0001 4.6834 0.0001 20.5288
#
#
#
# Elastic Compliance Matrix: (Units=1/GPa)
#
#
# Indices 1 2 3 4 5 6 
#
# 1 0.009314 -0.004080 -0.002688 0.000000 0.003810 0.000000
# 2 -0.004080 0.014654 -0.002433 0.000000 -0.005489 0.000000
# 3 -0.002688 -0.002433 0.009914 0.000000 0.002580 0.000000
# 4 0.000000 0.000000 0.000000 0.052353 0.000000 -0.011944
# 5 0.003810 -0.005489 0.002580 0.000000 0.043017 0.000000
# 6 0.000000 0.000000 0.000000 -0.011944 0.000000 0.051437
#
#
# Mechanical properties :
#
#
# Convention : Reuss Voigt Hill
#
# Bulk Modulus (GPa) = 64.59363 69.71292 67.15327
# Shear Modulus (GPa) = 24.47979 28.44669 26.46324
#
# Velocity S-wave (km/s) = 3.49011 3.76228 3.62874
# Velocity P-wave (km/s) = 6.95573 7.31856 7.13945
#
# Compressibility (1/GPa) = 0.01548140
#
# Stress axis : x y z
#
# Youngs Moduli (GPa) = 107.36396 68.23868 100.86905
#
# Poissons Ratio (x) = 0.27840 0.27113
# Poissons Ratio (y) = 0.43802 0.24540
# Poissons Ratio (z) = 0.28858 0.16601
#
# Static dielectric constant tensor:
#      x y z
#    x 4.174390 0.000000 -0.084820 
#    y 0.000000 3.233530 0.000000 
#    z -0.084820 0.000000 3.843510 
# 
# 
# High freq. dielectric constant tensor:
#      x y z
#    x 1.794120 0.000000 -0.004840 
#    y 0.000000 1.752600 0.000000 
#    z -0.004840 0.000000 1.801790 
# 
# From -- ./inp_files/63995.got.cif
#   From: 2010.06.25/outbox.cif.g09.slc.cpg/sg12_32_cif.got.tgz:63995.got - 2010.06.28 00:19:55.
