data_PCOD8110976
_publ_section_title
;
Structure prediction by ZEFSAII (Michael W. Deem and Ramdas Pophale) SiO2 
 PCOD8110976
Probable space group: C 2/M
;
_chemical_formula_sum "Si O2"
_cell_formula_units_Z 40
_cell_length_a 8.854204
_cell_length_b 21.273030
_cell_length_c 12.822558
_cell_angle_alpha 90.000000
_cell_angle_beta 127.524536
_cell_angle_gamma 90.000000
_cell_volume 1915.479166
_symmetry_space_group_name_H-M "C 2/M"
_symmetry_group_IT_number 12
_symmetry_cell_setting 'monoclinic'
loop_
_space_group_symop_operation_xyz
x,y,z
-x,y,-z
-x,-y,-z
x,-y,z
1/2+x,1/2+y,z
1/2-x,1/2+y,-z
1/2-x,1/2-y,-z
1/2+x,1/2-y,z
loop_
_atom_site_type_symbol
_atom_site_label
_atom_site_fract_x
_atom_site_fract_y
_atom_site_fract_z
Si Si1 0.808983 0.927565 0.858658
Si Si2 0.384178 0.826633 0.108341
Si Si3 0.742321 0.293054 0.837542
Si Si4 0.615600 0.689095 0.443565
Si Si5 0.724911 0.070011 0.588477
O O1 0.628522 0.891338 0.833095
O O2 0.819923 0.913059 0.740027
O O3 0.765396 0.000000 0.859958
O O4 0.000000 0.906305 0.000000
O O5 0.252206 0.778156 0.117691
O O6 0.603279 0.802722 0.190583
O O7 0.296689 0.838135 0.956681
O O8 0.531035 0.307590 0.712785
O O9 0.500000 0.687499 0.500000
O O10 0.750000 0.750000 0.500000
O O11 0.725929 0.623387 0.475678
O O12 0.500000 0.069243 0.500000
O O13 0.795401 0.000000 0.582872
#
# Coordination Sequence:
#
# PCOD8110976 Si02
#       5
#     8   8   8   8   8
#     4  10  22  40  67  93 121 164 210 256 307 373
#     4  10  22  38  64  88 125 159 199 259 312 376
#     4  10  23  39  57  95 123 160 203 254 320 363
#     4  12  26  40  63  93 127 167 209 264 307 375
#     4  10  24  44  65  91 126 168 212 257 315 381
#
# _framework density 20.882503
#
# number of rings (size 3 to 8) (size 9 to 14) (size 15 to 20)
#    0.000    1.600    0.000    3.000   16.800    0.400 
#    0.000    3.000    0.000    0.000    0.000    0.000 
#    0.000    0.000    0.000    0.000    0.000    0.000 
#
# Total GULP energy -247948.661120 kJ/mol
# GULP energy per Si atom -12397.433056 kJ/mol
# Density = 2.083497 g / cm^3
# Si number density = 20.882503 Si / 1000 Ang^3
#
#
#
# Elastic Constant Matrix: (Units=GPa)
#
#
# Indices 1 2 3 4 5 6 
#
# 1 125.4336 86.2972 13.6160 0.0000 0.4465 0.0000
# 2 86.2972 142.3326 24.0402 0.0000 -7.2029 0.0000
# 3 13.6160 24.0402 80.6190 0.0000 15.7289 0.0000
# 4 0.0000 0.0000 0.0000 21.1933 0.0000 -6.4337
# 5 0.4465 -7.2029 15.7289 0.0000 27.0052 0.0000
# 6 0.0000 0.0000 0.0000 -6.4337 0.0000 43.5151
#
#
#
# Elastic Compliance Matrix: (Units=1/GPa)
#
#
# Indices 1 2 3 4 5 6 
#
# 1 0.013890 -0.008719 0.000849 0.000000 -0.003050 0.000000
# 2 -0.008719 0.013210 -0.003590 0.000000 0.005759 0.000000
# 3 0.000849 -0.003590 0.015254 0.000000 -0.009856 0.000000
# 4 0.000000 0.000000 0.000000 0.049402 0.000000 0.007304
# 5 -0.003050 0.005759 -0.009856 0.000000 0.044357 0.000000
# 6 0.000000 0.000000 0.000000 0.007304 0.000000 0.024060
#
#
# Mechanical properties :
#
#
# Convention : Reuss Voigt Hill
#
# Bulk Modulus (GPa) = 51.45693 66.25466 58.85580
# Shear Modulus (GPa) = 26.37525 33.30483 29.84004
#
# Velocity S-wave (km/s) = 3.55777 3.99791 3.78425
# Velocity P-wave (km/s) = 6.44761 7.28748 6.88037
#
# Compressibility (1/GPa) = 0.01943373
#
# Stress axis : x y z
#
# Youngs Moduli (GPa) = 71.99536 75.69953 65.55603
#
# Poissons Ratio (x) = 0.66004 -0.05567
# Poissons Ratio (y) = 0.62774 0.23535
# Poissons Ratio (z) = -0.06114 0.27177
#
# Static dielectric constant tensor:
#      x y z
#    x 3.532180 0.000000 -0.163520 
#    y 0.000000 3.913860 0.000000 
#    z -0.163520 0.000000 3.943490 
# 
# 
# High freq. dielectric constant tensor:
#      x y z
#    x 1.806330 0.000000 -0.001690 
#    y 0.000000 1.812380 0.000000 
#    z -0.001690 0.000000 1.832440 
# 
# From -- ./inp_files/170357.got.cif
#   From: 2010.06.25/outbox.cif.g09.slc.cpg/sg12_86_cif.got.tgz:170357.got - 2010.06.28 00:19:55.
