data_PCOD8110542
_publ_section_title
;
Structure prediction by ZEFSAII (Michael W. Deem and Ramdas Pophale) SiO2 
 PCOD8110542
Probable space group: C 2/M
;
_chemical_formula_sum "Si O2"
_cell_formula_units_Z 40
_cell_length_a 5.205018
_cell_length_b 28.386853
_cell_length_c 14.419802
_cell_angle_alpha 90.000000
_cell_angle_beta 101.275071
_cell_angle_gamma 90.000000
_cell_volume 2089.463925
_symmetry_space_group_name_H-M "C 2/M"
_symmetry_group_IT_number 12
_symmetry_cell_setting 'monoclinic'
loop_
_space_group_symop_operation_xyz
x,y,z
-x,y,-z
-x,-y,-z
x,-y,z
1/2+x,1/2+y,z
1/2-x,1/2+y,-z
1/2-x,1/2-y,-z
1/2+x,1/2-y,z
loop_
_atom_site_type_symbol
_atom_site_label
_atom_site_fract_x
_atom_site_fract_y
_atom_site_fract_z
Si Si1 0.575751 0.412314 0.106449
Si Si2 0.560520 0.220450 0.610223
Si Si3 0.393032 0.051744 0.810668
Si Si4 0.557570 0.855766 0.759656
Si Si5 0.068363 0.720064 0.109256
O O1 0.341557 0.441843 0.133956
O O2 0.654173 0.367522 0.177197
O O3 0.830824 0.446045 0.114441
O O4 0.500000 0.392778 0.000000
O O5 0.500000 0.208058 0.500000
O O6 0.329531 0.251002 0.639441
O O7 0.586008 0.170834 0.664461
O O8 0.398320 0.094503 0.734747
O O9 0.364403 0.000000 0.761372
O O10 0.399638 0.825941 0.825408
O O11 0.337850 0.748242 0.135420
O O12 0.000000 0.704451 0.000000
#
# Coordination Sequence:
#
# PCOD8110542 Si02
#       5
#     8   8   8   8   8
#     4  10  23  35  54  81 112 155 196 235 278 331
#     4  10  22  40  64  91 116 144 188 238 287 345
#     4  10  23  38  55  82 114 153 196 241 283 331
#     4  10  24  35  61  80 116 151 187 236 287 335
#     4  10  22  34  49  74 108 145 181 218 265 333
#
# _framework density 19.143664999999999
#
# number of rings (size 3 to 8) (size 9 to 14) (size 15 to 20)
#    1.200    0.800    0.000    2.400    8.400    3.200 
#    0.000    0.000    0.000    0.600    0.000    1.400 
#    0.000    0.000    0.000    0.000    0.000    0.000 
#
# Total GULP energy -247846.725046 kJ/mol
# GULP energy per Si atom -12392.336252 kJ/mol
# Density = 1.910009 g / cm^3
# Si number density = 19.143665 Si / 1000 Ang^3
#
#
#
# Elastic Constant Matrix: (Units=GPa)
#
#
# Indices 1 2 3 4 5 6 
#
# 1 127.6814 41.4153 35.4223 0.0000 -21.4316 0.0000
# 2 41.4153 156.4063 69.4657 0.0000 -5.7148 0.0000
# 3 35.4223 69.4657 72.1204 0.0000 -6.6263 0.0000
# 4 0.0000 0.0000 0.0000 22.6327 0.0000 -1.6827
# 5 -21.4316 -5.7148 -6.6263 0.0000 18.5017 0.0000
# 6 0.0000 0.0000 0.0000 -1.6827 0.0000 6.0531
#
#
#
# Elastic Compliance Matrix: (Units=1/GPa)
#
#
# Indices 1 2 3 4 5 6 
#
# 1 0.010976 -0.000978 -0.003421 0.000000 0.011187 0.000000
# 2 -0.000978 0.011264 -0.010499 0.000000 -0.001414 0.000000
# 3 -0.003421 -0.010499 0.025847 0.000000 0.002051 0.000000
# 4 0.000000 0.000000 0.000000 0.045116 0.000000 0.012541
# 5 0.011187 -0.001414 0.002051 0.000000 0.067305 0.000000
# 6 0.000000 0.000000 0.000000 0.012541 0.000000 0.168690
#
#
# Mechanical properties :
#
#
# Convention : Reuss Voigt Hill
#
# Bulk Modulus (GPa) = 54.67203 72.09055 63.38129
# Shear Modulus (GPa) = 13.69524 23.43116 18.56320
#
# Velocity S-wave (km/s) = 2.67758 3.50232 3.11734
# Velocity P-wave (km/s) = 6.17900 7.35489 6.79244
#
# Compressibility (1/GPa) = 0.01829089
#
# Stress axis : x y z
#
# Youngs Moduli (GPa) = 91.10707 88.77991 38.68994
#
# Poissons Ratio (x) = 0.08686 0.13235
# Poissons Ratio (y) = 0.08913 0.40619
# Poissons Ratio (z) = 0.31166 0.93207
#
# Static dielectric constant tensor:
#      x y z
#    x 3.614020 0.000000 -0.088950 
#    y 0.000000 3.456010 0.000000 
#    z -0.088950 0.000000 3.201430 
# 
# 
# High freq. dielectric constant tensor:
#      x y z
#    x 1.759830 0.000000 -0.016110 
#    y 0.000000 1.741590 0.000000 
#    z -0.016110 0.000000 1.702350 
# 
# From -- ./inp_files/192154.got.cif
#   From: 2010.06.25/outbox.cif.g09.slc.cpg/sg12_97_cif.got.tgz:192154.got - 2010.06.28 00:19:55.
