data_PCOD8110418
_publ_section_title
;
Structure prediction by ZEFSAII (Michael W. Deem and Ramdas Pophale) SiO2 
 PCOD8110418
Probable space group: C 2/M
;
_chemical_formula_sum "Si O2"
_cell_formula_units_Z 64
_cell_length_a 18.464302
_cell_length_b 14.183601
_cell_length_c 18.834601
_cell_angle_alpha 90.000000
_cell_angle_beta 139.902527
_cell_angle_gamma 90.000000
_cell_volume 3177.037265
_symmetry_space_group_name_H-M "C 2/M"
_symmetry_group_IT_number 12
_symmetry_cell_setting 'monoclinic'
loop_
_space_group_symop_operation_xyz
x,y,z
-x,y,-z
-x,-y,-z
x,-y,z
1/2+x,1/2+y,z
1/2-x,1/2+y,-z
1/2-x,1/2-y,-z
1/2+x,1/2-y,z
loop_
_atom_site_type_symbol
_atom_site_label
_atom_site_fract_x
_atom_site_fract_y
_atom_site_fract_z
Si Si1 0.251878 0.393058 0.312832
Si Si2 0.375651 0.216687 0.110863
Si Si3 0.888375 0.898475 0.873164
Si Si4 0.067227 0.217475 0.349466
Si Si5 0.065104 0.235665 0.618304
Si Si6 0.833825 0.394641 0.214954
Si Si7 0.274787 0.889421 0.543127
Si Si8 0.962327 0.705805 0.890937
O O1 0.285132 0.500000 0.322018
O O2 0.331055 0.330193 0.323189
O O3 0.263455 0.370866 0.404695
O O4 0.124409 0.376003 0.192980
O O5 0.466125 0.289903 0.215144
O O6 0.360576 0.130470 0.153647
O O7 0.428675 0.187368 0.075698
O O8 0.250000 0.250000 0.000000
O O9 0.796919 0.879221 0.865715
O O10 0.902037 0.808398 0.830865
O O11 0.863462 0.000000 0.814853
O O12 0.000000 0.910451 0.000000
O O13 0.172569 0.146513 0.415032
O O14 0.114143 0.325947 0.387881
O O15 0.015507 0.183811 0.385833
O O16 0.099986 0.332687 0.679625
O O17 0.000000 0.265013 0.500000
O O18 0.874504 0.500000 0.257958
O O19 0.301279 0.000000 0.548544
O O20 0.000000 0.698150 0.000000
#
# Coordination Sequence:
#
# PCOD8110418 Si02
#       8
#     8   8   8   8   8   8   8   8
#     4  11  23  40  65  93 124 167 217 266 325 384
#     4  11  23  39  63  92 130 175 213 257 319 383
#     4   9  17  33  60  88 113 152 201 247 301 366
#     4  10  22  39  66  94 128 167 209 261 320 381
#     4  11  22  39  63  93 130 159 205 259 318 377
#     4  10  22  40  63  90 124 164 205 251 313 381
#     4  10  21  42  68  95 124 164 214 264 322 384
#     4  11  22  39  64  90 129 167 213 264 321 374
#
# _framework density 20.144552999999998
#
# number of rings (size 3 to 8) (size 9 to 14) (size 15 to 20)
#    0.000    1.625    3.750    1.500    1.750    3.750 
#    0.000    1.250    0.000    0.750    0.000    0.000 
#    0.000    0.000    0.000    0.000    0.000    0.000 
#
# Total GULP energy -396506.803899 kJ/mol
# GULP energy per Si atom -12390.837622 kJ/mol
# Density = 2.009870 g / cm^3
# Si number density = 20.144553 Si / 1000 Ang^3
#
#
#
# Elastic Constant Matrix: (Units=GPa)
#
#
# Indices 1 2 3 4 5 6 
#
# 1 129.6663 29.5347 38.8997 0.0000 7.6302 0.0000
# 2 29.5347 80.0388 24.3152 0.0000 5.6446 0.0000
# 3 38.8997 24.3152 127.4380 0.0000 7.2995 0.0000
# 4 0.0000 0.0000 0.0000 17.5953 0.0000 14.3656
# 5 7.6302 5.6446 7.2995 0.0000 29.5058 0.0000
# 6 0.0000 0.0000 0.0000 14.3656 0.0000 28.8416
#
#
#
# Elastic Compliance Matrix: (Units=1/GPa)
#
#
# Indices 1 2 3 4 5 6 
#
# 1 0.009033 -0.002576 -0.002191 0.000000 -0.001301 0.000000
# 2 -0.002576 0.014107 -0.001815 0.000000 -0.001584 0.000000
# 3 -0.002191 -0.001815 0.008936 0.000000 -0.001297 0.000000
# 4 0.000000 0.000000 0.000000 0.095785 0.000000 -0.047709
# 5 -0.001301 -0.001584 -0.001297 0.000000 0.034852 0.000000
# 6 0.000000 0.000000 0.000000 -0.047709 0.000000 0.058435
#
#
# Mechanical properties :
#
#
# Convention : Reuss Voigt Hill
#
# Bulk Modulus (GPa) = 52.87337 58.07137 55.47237
# Shear Modulus (GPa) = 20.77997 31.48143 26.13070
#
# Velocity S-wave (km/s) = 3.21525 3.95749 3.60552
# Velocity P-wave (km/s) = 6.33149 7.05494 6.70298
#
# Compressibility (1/GPa) = 0.01891311
#
# Stress axis : x y z
#
# Youngs Moduli (GPa) = 110.70884 70.88483 111.90241
#
# Poissons Ratio (x) = 0.18258 0.24520
# Poissons Ratio (y) = 0.28515 0.20308
# Poissons Ratio (z) = 0.24259 0.12864
#
# Static dielectric constant tensor:
#      x y z
#    x 2.374330 0.000000 0.199620 
#    y 0.000000 3.942780 0.000000 
#    z 0.199620 0.000000 3.649230 
# 
# 
# High freq. dielectric constant tensor:
#      x y z
#    x 1.798750 0.000000 0.018110 
#    y 0.000000 1.770110 0.000000 
#    z 0.018110 0.000000 1.784850 
# 
# From -- ./inp_files/278199.got.cif
#   From: 2010.06.25/outbox.cif.g09.slc.cpg/sg12_140_cif.got.tgz:278199.got - 2010.06.28 00:19:55.
