data_PCOD8110112
_publ_section_title
;
Structure prediction by ZEFSAII (Michael W. Deem and Ramdas Pophale) SiO2 
 PCOD8110112
Probable space group: C 2/M
;
_chemical_formula_sum "Si O2"
_cell_formula_units_Z 32
_cell_length_a 6.930956
_cell_length_b 21.868266
_cell_length_c 11.478988
_cell_angle_alpha 90.000000
_cell_angle_beta 129.509717
_cell_angle_gamma 90.000000
_cell_volume 1342.321113
_symmetry_space_group_name_H-M "C 2/M"
_symmetry_group_IT_number 12
_symmetry_cell_setting 'monoclinic'
loop_
_space_group_symop_operation_xyz
x,y,z
-x,y,-z
-x,-y,-z
x,-y,z
1/2+x,1/2+y,z
1/2-x,1/2+y,-z
1/2-x,1/2-y,-z
1/2+x,1/2-y,z
loop_
_atom_site_type_symbol
_atom_site_label
_atom_site_fract_x
_atom_site_fract_y
_atom_site_fract_z
Si Si1 0.776631 0.430865 0.719590
Si Si2 0.760179 0.891489 0.550881
Si Si3 0.894439 0.327677 0.109926
Si Si4 0.074150 0.799935 0.204808
O O1 0.870550 0.500000 0.733932
O O2 0.501765 0.433851 0.674235
O O3 0.762355 0.389984 0.596667
O O4 0.976025 0.392632 0.870731
O O5 0.500000 0.918953 0.500000
O O6 0.821176 0.824991 0.631492
O O7 0.731740 0.333062 0.164692
O O8 0.100971 0.273587 0.207516
O O9 0.721593 0.314244 0.930231
#
# Coordination Sequence:
#
# PCOD8110112 Si02
#       4
#     8   8   8   8
#     4  11  25  43  64  93 130 169 215 260 308 384
#     4  11  22  42  65  94 123 168 211 260 320 365
#     4  10  21  42  65  97 128 163 215 259 324 373
#     4  10  21  40  69  94 128 165 206 273 318 374
#
# _framework density 23.839303999999998
#
# number of rings (size 3 to 8) (size 9 to 14) (size 15 to 20)
#    0.000    1.500    2.500    3.000    0.000    6.000 
#    4.500    6.250    0.000    0.000    0.000    0.000 
#    0.000    0.000    0.000    0.000    0.000    0.000 
#
# Total GULP energy -198265.020845 kJ/mol
# GULP energy per Si atom -12391.563803 kJ/mol
# Density = 2.378504 g / cm^3
# Si number density = 23.839304 Si / 1000 Ang^3
#
#
#
# Elastic Constant Matrix: (Units=GPa)
#
#
# Indices 1 2 3 4 5 6 
#
# 1 95.3834 49.9082 36.6926 0.0000 14.8830 0.0000
# 2 49.9082 161.9530 69.3247 0.0000 8.9630 0.0000
# 3 36.6926 69.3247 73.8886 0.0000 8.8255 0.0000
# 4 0.0000 0.0000 0.0000 17.7020 0.0000 3.9526
# 5 14.8830 8.9630 8.8255 0.0000 38.1521 0.0000
# 6 0.0000 0.0000 0.0000 3.9526 0.0000 22.4702
#
#
#
# Elastic Compliance Matrix: (Units=1/GPa)
#
#
# Indices 1 2 3 4 5 6 
#
# 1 0.013932 -0.002198 -0.004390 0.000000 -0.003903 0.000000
# 2 -0.002198 0.010667 -0.008967 0.000000 0.000426 0.000000
# 3 -0.004390 -0.008967 0.024344 0.000000 -0.001812 0.000000
# 4 0.000000 0.000000 0.000000 0.058800 0.000000 -0.010343
# 5 -0.003903 0.000426 -0.001812 0.000000 0.028052 0.000000
# 6 0.000000 0.000000 0.000000 -0.010343 0.000000 0.046323
#
#
# Mechanical properties :
#
#
# Convention : Reuss Voigt Hill
#
# Bulk Modulus (GPa) = 56.07973 71.45289 63.76631
# Shear Modulus (GPa) = 22.81300 27.35150 25.08225
#
# Velocity S-wave (km/s) = 3.09682 3.39090 3.24719
# Velocity P-wave (km/s) = 6.03010 6.73563 6.39261
#
# Compressibility (1/GPa) = 0.01783175
#
# Stress axis : x y z
#
# Youngs Moduli (GPa) = 71.77771 93.74702 41.07817
#
# Poissons Ratio (x) = 0.20608 0.18033
# Poissons Ratio (y) = 0.15778 0.36836
# Poissons Ratio (z) = 0.31510 0.84067
#
# Static dielectric constant tensor:
#      x y z
#    x 4.515220 0.000000 0.352300 
#    y 0.000000 3.811600 0.000000 
#    z 0.352300 0.000000 4.362410 
# 
# 
# High freq. dielectric constant tensor:
#      x y z
#    x 1.961640 0.000000 0.012320 
#    y 0.000000 1.909860 0.000000 
#    z 0.012320 0.000000 1.936550 
# 
# From -- ./inp_files/196666.got.cif
#   From: 2010.06.25/outbox.cif.g09.slc.cpg/sg12_99_cif.got.tgz:196666.got - 2010.06.28 00:19:55.
