data_PCOD8110139
_publ_section_title
;
Structure prediction by ZEFSAII (Michael W. Deem and Ramdas Pophale) SiO2 
 PCOD8110139
Probable space group: C 2/M
;
_chemical_formula_sum "Si O2"
_cell_formula_units_Z 56
_cell_length_a 20.180170
_cell_length_b 8.913904
_cell_length_c 17.473425
_cell_angle_alpha 90.000000
_cell_angle_beta 71.795671
_cell_angle_gamma 90.000000
_cell_volume 2985.869701
_symmetry_space_group_name_H-M "C 2/M"
_symmetry_group_IT_number 12
_symmetry_cell_setting 'monoclinic'
loop_
_space_group_symop_operation_xyz
x,y,z
-x,y,-z
-x,-y,-z
x,-y,z
1/2+x,1/2+y,z
1/2-x,1/2+y,-z
1/2-x,1/2-y,-z
1/2+x,1/2-y,z
loop_
_atom_site_type_symbol
_atom_site_label
_atom_site_fract_x
_atom_site_fract_y
_atom_site_fract_z
Si Si1 0.322139 0.322471 0.155353
Si Si2 0.581741 0.172806 0.178027
Si Si3 0.808998 0.824307 0.575452
Si Si4 0.179446 0.823212 0.256899
Si Si5 0.578714 0.825988 0.760189
Si Si6 0.678323 0.824522 0.000683
Si Si7 0.156489 0.326005 0.583035
O O1 0.319746 0.500000 0.147462
O O2 0.244578 0.264414 0.198626
O O3 0.374155 0.277417 0.203755
O O4 0.349774 0.249739 0.066892
O O5 0.611147 0.278332 0.234223
O O6 0.501155 0.213104 0.195138
O O7 0.591221 0.000000 0.199297
O O8 0.619848 0.207096 0.084913
O O9 0.833317 0.773451 0.650828
O O10 0.858961 0.753727 0.492455
O O11 0.729610 0.768159 0.592159
O O12 0.814569 0.000000 0.564676
O O13 0.194238 0.000000 0.245579
O O14 0.595767 0.788368 0.665485
O O15 0.596343 0.000000 0.771170
O O16 0.691148 0.000000 0.983266
O O17 0.750000 0.750000 0.000000
O O18 0.160668 0.500000 0.563624
#
# Coordination Sequence:
#
# PCOD8110139 Si02
#       7
#     8   8   8   8   8   8   8
#     4  12  24  37  59  88 116 151 196 240 285 342
#     4  10  23  40  61  86 115 151 193 238 288 347
#     4   9  18  32  53  84 113 144 188 234 284 336
#     4  11  21  37  60  85 116 153 192 240 289 339
#     4  10  21  41  61  83 118 155 191 236 290 342
#     4  11  22  38  60  88 117 150 192 241 291 337
#     4   9  17  32  55  82 112 148 187 231 285 337
#
# _framework density 18.755004
#
# number of rings (size 3 to 8) (size 9 to 14) (size 15 to 20)
#    0.000    1.714    2.857    2.143    0.000    3.429 
#    0.000    3.571    0.000    4.286    0.000    0.000 
#    0.000    0.000    0.000    0.000    0.000    0.000 
#
# Total GULP energy -347291.348698 kJ/mol
# GULP energy per Si atom -12403.262454 kJ/mol
# Density = 1.871232 g / cm^3
# Si number density = 18.755004 Si / 1000 Ang^3
#
#
#
# Elastic Constant Matrix: (Units=GPa)
#
#
# Indices 1 2 3 4 5 6 
#
# 1 51.6358 21.1740 23.5920 0.0000 -4.1454 0.0000
# 2 21.1740 77.0374 41.8648 0.0000 6.4872 0.0000
# 3 23.5920 41.8648 118.2349 0.0000 5.9561 0.0000
# 4 0.0000 0.0000 0.0000 33.5520 0.0000 6.2781
# 5 -4.1454 6.4872 5.9561 0.0000 32.6251 0.0000
# 6 0.0000 0.0000 0.0000 6.2781 0.0000 28.0302
#
#
#
# Elastic Compliance Matrix: (Units=1/GPa)
#
#
# Indices 1 2 3 4 5 6 
#
# 1 0.023217 -0.005103 -0.003054 0.000000 0.004522 0.000000
# 2 -0.005103 0.017350 -0.004964 0.000000 -0.003192 0.000000
# 3 -0.003054 -0.004964 0.010895 0.000000 -0.001390 0.000000
# 4 0.000000 0.000000 0.000000 0.031108 0.000000 -0.006968
# 5 0.004522 -0.003192 -0.001390 0.000000 0.032114 0.000000
# 6 0.000000 0.000000 0.000000 -0.006968 0.000000 0.037236
#
#
# Mechanical properties :
#
#
# Convention : Reuss Voigt Hill
#
# Bulk Modulus (GPa) = 39.65034 46.68554 43.16794
# Shear Modulus (GPa) = 26.79983 29.52660 28.16321
#
# Velocity S-wave (km/s) = 3.78424 3.97209 3.87930
# Velocity P-wave (km/s) = 6.34673 6.78108 6.56750
#
# Compressibility (1/GPa) = 0.02522046
#
# Stress axis : x y z
#
# Youngs Moduli (GPa) = 43.07180 57.63784 91.78669
#
# Poissons Ratio (x) = 0.29410 0.28029
# Poissons Ratio (y) = 0.21978 0.45565
# Poissons Ratio (z) = 0.13153 0.28613
#
# Static dielectric constant tensor:
#      x y z
#    x 3.302530 0.000000 0.067470 
#    y 0.000000 3.445130 0.000000 
#    z 0.067470 0.000000 3.787780 
# 
# 
# High freq. dielectric constant tensor:
#      x y z
#    x 1.705890 0.000000 0.006940 
#    y 0.000000 1.728080 0.000000 
#    z 0.006940 0.000000 1.745000 
# 
# From -- ./inp_files/274998.got.cif
#   From: 2010.06.25/outbox.cif.g09.slc.cpg/sg12_138_cif.got.tgz:274998.got - 2010.06.28 00:19:55.
