data_PCOD8110869
_publ_section_title
;
Structure prediction by ZEFSAII (Michael W. Deem and Ramdas Pophale) SiO2 
 PCOD8110869
Probable space group: C 2/M
;
_chemical_formula_sum "Si O2"
_cell_formula_units_Z 40
_cell_length_a 9.063718
_cell_length_b 21.266169
_cell_length_c 14.363928
_cell_angle_alpha 90.000000
_cell_angle_beta 135.441507
_cell_angle_gamma 90.000000
_cell_volume 1942.591039
_symmetry_space_group_name_H-M "C 2/M"
_symmetry_group_IT_number 12
_symmetry_cell_setting 'monoclinic'
loop_
_space_group_symop_operation_xyz
x,y,z
-x,y,-z
-x,-y,-z
x,-y,z
1/2+x,1/2+y,z
1/2-x,1/2+y,-z
1/2-x,1/2-y,-z
1/2+x,1/2-y,z
loop_
_atom_site_type_symbol
_atom_site_label
_atom_site_fract_x
_atom_site_fract_y
_atom_site_fract_z
Si Si1 0.402654 0.320960 0.599856
Si Si2 0.734633 0.070422 0.617899
Si Si3 0.047284 0.928409 0.915764
Si Si4 0.817569 0.290219 0.677641
Si Si5 0.860891 0.683773 0.030289
O O1 0.403900 0.393737 0.629026
O O2 0.612604 0.296364 0.648121
O O3 0.211334 0.316240 0.439889
O O4 0.366203 0.283574 0.681081
O O5 0.500000 0.099653 0.500000
O O6 0.822334 0.074697 0.762300
O O7 0.729622 0.000000 0.577260
O O8 0.139868 0.000000 0.947454
O O9 0.208461 0.876153 0.948560
O O10 0.000000 0.910974 0.000000
O O11 0.998147 0.327417 0.814040
O O12 0.750000 0.750000 0.000000
O O13 0.000000 0.690113 0.000000
#
# Coordination Sequence:
#
# PCOD8110869 Si02
#       5
#     8   8   8   8   8
#     4  10  22  39  61  87 120 152 201 247 298 353
#     4  10  22  39  63  88 118 160 203 247 293 352
#     4  10  23  42  63  90 124 162 205 251 303 364
#     4  10  22  38  59  91 117 158 193 247 304 352
#     4  12  24  39  62  90 125 161 202 248 307 363
#
# _framework density 20.591054
#
# number of rings (size 3 to 8) (size 9 to 14) (size 15 to 20)
#    0.000    1.600    0.000    4.200    8.400    0.400 
#    0.000    3.000    0.000    0.000    0.000    0.000 
#    0.000    0.000    0.000    0.000    0.000    0.000 
#
# Total GULP energy -247828.669975 kJ/mol
# GULP energy per Si atom -12391.433499 kJ/mol
# Density = 2.054419 g / cm^3
# Si number density = 20.591054 Si / 1000 Ang^3
#
#
#
# Elastic Constant Matrix: (Units=GPa)
#
#
# Indices 1 2 3 4 5 6 
#
# 1 121.7052 65.9728 26.7263 0.0000 2.2924 0.0000
# 2 65.9728 118.5694 31.5658 0.0000 8.0841 0.0000
# 3 26.7263 31.5658 133.7715 -0.0004 -1.9807 -0.0003
# 4 0.0000 0.0000 -0.0004 27.0356 -0.0002 0.9719
# 5 2.2924 8.0841 -1.9807 -0.0002 25.4778 -0.0001
# 6 0.0000 0.0000 -0.0003 0.9719 -0.0001 24.0355
#
#
#
# Elastic Compliance Matrix: (Units=1/GPa)
#
#
# Indices 1 2 3 4 5 6 
#
# 1 0.011879 -0.006449 -0.000838 0.000000 0.000912 0.000000
# 2 -0.006449 0.012739 -0.001771 0.000000 -0.003599 0.000000
# 3 -0.000838 -0.001771 0.008079 0.000000 0.001265 0.000000
# 4 0.000000 0.000000 0.000000 0.037042 0.000000 -0.001498
# 5 0.000912 -0.003599 0.001265 0.000000 0.040408 0.000000
# 6 0.000000 0.000000 0.000000 -0.001498 0.000000 0.041666
#
#
# Mechanical properties :
#
#
# Convention : Reuss Voigt Hill
#
# Bulk Modulus (GPa) = 68.57750 69.17510 68.87630
# Shear Modulus (GPa) = 28.60586 31.96187 30.28386
#
# Velocity S-wave (km/s) = 3.73129 3.94410 3.83917
# Velocity P-wave (km/s) = 7.20695 7.37624 7.29209
#
# Compressibility (1/GPa) = 0.01458204
#
# Stress axis : x y z
#
# Youngs Moduli (GPa) = 84.18168 78.50028 123.77013
#
# Poissons Ratio (x) = 0.50622 0.10374
# Poissons Ratio (y) = 0.54286 0.21918
# Poissons Ratio (z) = 0.07056 0.13901
#
# Static dielectric constant tensor:
#      x y z
#    x 3.494140 0.000000 -0.105110 
#    y 0.000000 3.815390 0.000000 
#    z -0.105110 0.000000 4.314560 
# 
# 
# High freq. dielectric constant tensor:
#      x y z
#    x 1.786220 0.000000 -0.010890 
#    y 0.000000 1.802730 0.000000 
#    z -0.010890 0.000000 1.830120 
# 
# From -- ./inp_files/198681.got.cif
#   From: 2010.06.25/outbox.cif.g09.slc.cpg/sg12_100_cif.got.tgz:198681.got - 2010.06.28 00:19:55.
