data_PCOD8110804
_publ_section_title
;
Structure prediction by ZEFSAII (Michael W. Deem and Ramdas Pophale) SiO2 
 PCOD8110804
Probable space group: C 2/M
;
_chemical_formula_sum "Si O2"
_cell_formula_units_Z 56
_cell_length_a 13.935092
_cell_length_b 11.072266
_cell_length_c 26.761541
_cell_angle_alpha 90.000000
_cell_angle_beta 43.716195
_cell_angle_gamma 90.000000
_cell_volume 2853.579822
_symmetry_space_group_name_H-M "C 2/M"
_symmetry_group_IT_number 12
_symmetry_cell_setting 'monoclinic'
loop_
_space_group_symop_operation_xyz
x,y,z
-x,y,-z
-x,-y,-z
x,-y,z
1/2+x,1/2+y,z
1/2-x,1/2+y,-z
1/2-x,1/2-y,-z
1/2+x,1/2-y,z
loop_
_atom_site_type_symbol
_atom_site_label
_atom_site_fract_x
_atom_site_fract_y
_atom_site_fract_z
Si Si1 0.700779 0.641354 0.838143
Si Si2 0.923753 0.138873 0.310716
Si Si3 0.108207 0.361968 0.418926
Si Si4 0.919468 0.632467 0.239590
Si Si5 0.897748 0.870447 0.940760
Si Si6 0.355202 0.270355 0.696595
Si Si7 0.697892 0.187835 0.096258
O O1 0.703724 0.500000 0.850295
O O2 0.546157 0.695574 0.890448
O O3 0.794493 0.664112 0.754286
O O4 0.764009 0.713834 0.860871
O O5 0.761299 0.149423 0.385530
O O6 0.950370 0.247449 0.261190
O O7 0.018824 0.159403 0.323786
O O8 0.951587 0.000000 0.279936
O O9 0.071819 0.500000 0.419712
O O10 0.089024 0.286132 0.375607
O O11 0.000000 0.309424 0.500000
O O12 0.921292 0.500000 0.267168
O O13 0.771833 0.639263 0.267297
O O14 0.045119 0.627117 0.152112
O O15 0.801277 0.811290 0.935303
O O16 0.935957 0.000000 0.904303
O O17 0.816727 0.889389 0.023752
#
# Coordination Sequence:
#
# PCOD8110804 Si02
#       7
#     8   8   8   8   8   8   8
#     4  11  21  36  57  84 113 151 199 244 289 348
#     4  10  22  39  62  88 120 156 192 237 295 350
#     4   9  20  39  62  90 123 157 195 237 283 347
#     4  11  22  37  58  86 119 154 198 245 292 346
#     4  10  22  38  57  78 112 156 198 246 301 352
#     4  11  21  36  58  89 118 155 191 238 295 345
#     4  11  21  36  58  82 113 148 201 248 295 344
#
# _framework density 19.624472000000001
#
# number of rings (size 3 to 8) (size 9 to 14) (size 15 to 20)
#    0.000    1.571    2.857    2.571    0.000    3.429 
#    0.000    0.000    0.000   12.429    0.000    0.000 
#    0.000    0.000    0.000    0.000    0.000    0.000 
#
# Total GULP energy -346882.847140 kJ/mol
# GULP energy per Si atom -12388.673112 kJ/mol
# Density = 1.957981 g / cm^3
# Si number density = 19.624472 Si / 1000 Ang^3
#
#
#
# Elastic Constant Matrix: (Units=GPa)
#
#
# Indices 1 2 3 4 5 6 
#
# 1 119.3894 46.9236 44.3493 0.0000 -0.2504 0.0000
# 2 46.9236 100.8511 39.2036 0.0000 3.1127 0.0000
# 3 44.3493 39.2036 128.6404 0.0000 2.4840 0.0000
# 4 0.0000 0.0000 0.0000 14.1073 0.0000 6.1498
# 5 -0.2504 3.1127 2.4840 0.0000 30.2067 0.0000
# 6 0.0000 0.0000 0.0000 6.1498 0.0000 17.5004
#
#
#
# Elastic Compliance Matrix: (Units=1/GPa)
#
#
# Indices 1 2 3 4 5 6 
#
# 1 0.010939 -0.004130 -0.002527 0.000000 0.000724 0.000000
# 2 -0.004130 0.012831 -0.002464 0.000000 -0.001154 0.000000
# 3 -0.002527 -0.002464 0.009406 0.000000 -0.000541 0.000000
# 4 0.000000 0.000000 0.000000 0.083708 0.000000 -0.029416
# 5 0.000724 -0.001154 -0.000541 0.000000 0.033275 0.000000
# 6 0.000000 0.000000 0.000000 -0.029416 0.000000 0.067478
#
#
# Mechanical properties :
#
#
# Convention : Reuss Voigt Hill
#
# Bulk Modulus (GPa) = 66.95903 67.75929 67.35916
# Shear Modulus (GPa) = 20.75921 26.92319 23.84120
#
# Velocity S-wave (km/s) = 3.25595 3.70796 3.48928
# Velocity P-wave (km/s) = 6.95192 7.27564 7.11562
#
# Compressibility (1/GPa) = 0.01493450
#
# Stress axis : x y z
#
# Youngs Moduli (GPa) = 91.41399 77.93854 106.31413
#
# Poissons Ratio (x) = 0.32188 0.26863
# Poissons Ratio (y) = 0.37753 0.26197
# Poissons Ratio (z) = 0.23098 0.19205
#
# Static dielectric constant tensor:
#      x y z
#    x 3.649390 0.000000 -0.272740 
#    y 0.000000 3.600250 0.000000 
#    z -0.272740 0.000000 3.626080 
# 
# 
# High freq. dielectric constant tensor:
#      x y z
#    x 1.766590 0.000000 -0.018750 
#    y 0.000000 1.756510 0.000000 
#    z -0.018750 0.000000 1.757810 
# 
# From -- ./inp_files/360749.got.cif
#   From: 2010.06.25/outbox.cif.g09.slc.cpg/sg12_181_cif.got.tgz:360749.got - 2010.06.28 00:19:55.
