data_PCOD8110627
_publ_section_title
;
Structure prediction by ZEFSAII (Michael W. Deem and Ramdas Pophale) SiO2 
 PCOD8110627
Probable space group: C 2/M
;
_chemical_formula_sum "Si O2"
_cell_formula_units_Z 56
_cell_length_a 24.004288
_cell_length_b 22.249676
_cell_length_c 13.558353
_cell_angle_alpha 90.000000
_cell_angle_beta 158.973135
_cell_angle_gamma 90.000000
_cell_volume 2598.236801
_symmetry_space_group_name_H-M "C 2/M"
_symmetry_group_IT_number 12
_symmetry_cell_setting 'monoclinic'
loop_
_space_group_symop_operation_xyz
x,y,z
-x,y,-z
-x,-y,-z
x,-y,z
1/2+x,1/2+y,z
1/2-x,1/2+y,-z
1/2-x,1/2-y,-z
1/2+x,1/2-y,z
loop_
_atom_site_type_symbol
_atom_site_label
_atom_site_fract_x
_atom_site_fract_y
_atom_site_fract_z
Si Si1 0.370285 0.350511 0.219144
Si Si2 0.849849 0.372935 0.306100
Si Si3 0.112593 0.431478 0.094424
Si Si4 0.791518 0.070710 0.746486
Si Si5 0.132405 0.930081 0.338064
Si Si6 0.863262 0.679053 0.998769
Si Si7 0.083790 0.252057 0.489421
O O1 0.500000 0.386903 0.500000
O O2 0.219210 0.334728 0.033649
O O3 0.454079 0.290137 0.322568
O O4 0.304058 0.386667 0.015105
O O5 0.835698 0.400829 0.391609
O O6 0.870645 0.301684 0.353961
O O7 0.000000 0.401001 0.500000
O O8 0.099672 0.500000 0.031299
O O9 0.284179 0.417424 0.420629
O O10 0.079427 0.383506 0.954580
O O11 0.000000 0.423204 0.000000
O O12 0.765516 0.091057 0.589150
O O13 0.778215 0.000000 0.738914
O O14 0.960422 0.097711 0.056605
O O15 0.108874 0.000000 0.280203
O O16 0.742201 0.714531 0.727474
O O17 0.015884 0.718818 0.276215
#
# Coordination Sequence:
#
# PCOD8110627 Si02
#       7
#     8   8   8   8   8   8   8
#     4  10  22  36  58  87 119 160 206 249 306 372
#     4  12  22  35  59  92 123 157 203 256 315 378
#     4  10  23  41  64  92 125 163 207 260 319 379
#     4   9  20  37  61  88 120 159 208 260 310 372
#     4   8  17  38  62  84 110 160 215 251 297 369
#     4  11  22  38  64  91 123 165 213 255 306 375
#     4  11  22  38  61  90 118 163 208 253 302 368
#
# _framework density 21.553077999999999
#
# number of rings (size 3 to 8) (size 9 to 14) (size 15 to 20)
#    0.000    1.857    2.857    2.571    6.000    0.286 
#    0.000    1.429    3.143    4.286    0.000    0.000 
#    0.000    0.000    0.000    0.000    0.000    0.000 
#
# Total GULP energy -346961.990882 kJ/mol
# GULP energy per Si atom -12391.499674 kJ/mol
# Density = 2.150402 g / cm^3
# Si number density = 21.553078 Si / 1000 Ang^3
#
#
#
# Elastic Constant Matrix: (Units=GPa)
#
#
# Indices 1 2 3 4 5 6 
#
# 1 87.6261 39.7132 26.0847 0.0000 -1.7161 0.0000
# 2 39.7132 63.6879 26.6100 0.0000 -5.6656 0.0000
# 3 26.0847 26.6100 87.3561 0.0000 -19.8537 0.0000
# 4 0.0000 0.0000 0.0000 18.6615 0.0000 -6.7434
# 5 -1.7161 -5.6656 -19.8537 0.0000 29.3080 0.0000
# 6 0.0000 0.0000 0.0000 -6.7434 0.0000 38.0719
#
#
#
# Elastic Compliance Matrix: (Units=1/GPa)
#
#
# Indices 1 2 3 4 5 6 
#
# 1 0.016383 -0.009346 -0.002645 0.000000 -0.002639 0.000000
# 2 -0.009346 0.023324 -0.004035 0.000000 0.001228 0.000000
# 3 -0.002645 -0.004035 0.015666 0.000000 0.009677 0.000000
# 4 0.000000 0.000000 0.000000 0.057251 0.000000 0.010140
# 5 -0.002639 0.001228 0.009677 0.000000 0.040759 0.000000
# 6 0.000000 0.000000 0.000000 0.010140 0.000000 0.028062
#
#
# Mechanical properties :
#
#
# Convention : Reuss Voigt Hill
#
# Bulk Modulus (GPa) = 42.87853 47.05398 44.96626
# Shear Modulus (GPa) = 22.59672 26.95909 24.77790
#
# Velocity S-wave (km/s) = 3.24145 3.54053 3.39429
# Velocity P-wave (km/s) = 5.82640 6.21232 6.02245
#
# Compressibility (1/GPa) = 0.02332169
#
# Stress axis : x y z
#
# Youngs Moduli (GPa) = 61.03745 42.87358 63.83333
#
# Poissons Ratio (x) = 0.40068 0.16884
# Poissons Ratio (y) = 0.57043 0.25758
# Poissons Ratio (z) = 0.16145 0.17300
#
# Static dielectric constant tensor:
#      x y z
#    x 3.713730 0.000000 -0.221800 
#    y 0.000000 3.469850 0.000000 
#    z -0.221800 0.000000 4.524170 
# 
# 
# High freq. dielectric constant tensor:
#      x y z
#    x 1.826710 0.000000 -0.007180 
#    y 0.000000 1.798590 0.000000 
#    z -0.007180 0.000000 1.873130 
# 
# From -- ./inp_files/247402.got.cif
#   From: 2010.06.25/outbox.cif.g09.slc.cpg/sg12_124_cif.got.tgz:247402.got - 2010.06.28 00:19:55.
