data_PCOD8110167
_publ_section_title
;
Structure prediction by ZEFSAII (Michael W. Deem and Ramdas Pophale) SiO2 
 PCOD8110167
Probable space group: C 2/M
;
_chemical_formula_sum "Si O2"
_cell_formula_units_Z 56
_cell_length_a 8.926367
_cell_length_b 18.376314
_cell_length_c 26.365890
_cell_angle_alpha 90.000000
_cell_angle_beta 39.446473
_cell_angle_gamma 90.000000
_cell_volume 2747.852691
_symmetry_space_group_name_H-M "C 2/M"
_symmetry_group_IT_number 12
_symmetry_cell_setting 'monoclinic'
loop_
_space_group_symop_operation_xyz
x,y,z
-x,y,-z
-x,-y,-z
x,-y,z
1/2+x,1/2+y,z
1/2-x,1/2+y,-z
1/2-x,1/2-y,-z
1/2+x,1/2-y,z
loop_
_atom_site_type_symbol
_atom_site_label
_atom_site_fract_x
_atom_site_fract_y
_atom_site_fract_z
Si Si1 0.733603 0.182454 0.969281
Si Si2 0.615351 0.298501 0.693551
Si Si3 0.467573 0.696529 0.450467
Si Si4 0.272134 0.920222 0.939594
Si Si5 0.217931 0.188355 0.782678
Si Si6 0.531735 0.583148 0.634155
Si Si7 0.977850 0.418192 0.784577
O O1 0.964701 0.179621 0.874608
O O2 0.500000 0.194783 0.000000
O O3 0.750000 0.250000 0.000000
O O4 0.688344 0.112713 0.015740
O O5 0.349246 0.265532 0.759019
O O6 0.677399 0.323504 0.733820
O O7 0.643846 0.369482 0.650562
O O8 0.795259 0.235405 0.630319
O O9 0.500000 0.673010 0.500000
O O10 0.250000 0.750000 0.500000
O O11 0.411717 0.623207 0.433625
O O12 0.392252 0.879709 0.859764
O O13 0.386936 0.000000 0.912689
O O14 0.000000 0.922671 0.000000
O O15 0.386663 0.125326 0.759802
O O16 0.633715 0.500000 0.607459
O O17 0.255226 0.580286 0.713442
O O18 0.873372 0.500000 0.808360
#
# Coordination Sequence:
#
# PCOD8110167 Si02
#       7
#     8   8   8   8   8   8   8
#     4  12  27  38  57  92 128 164 221 286 331 378
#     4  12  24  43  68  97 131 177 218 264 328 402
#     4  12  23  43  73 103 132 170 212 265 328 399
#     4  10  21  41  63  85 123 170 213 267 337 391
#     4  12  23  40  66  90 128 175 227 271 329 396
#     4  11  25  45  69 102 137 173 221 270 325 393
#     4  10  22  41  66  94 128 172 222 275 330 394
#
# _framework density 20.379549999999998
#
# number of rings (size 3 to 8) (size 9 to 14) (size 15 to 20)
#    0.000    0.714    5.714    1.286    6.000    1.143 
#    0.000    1.429    0.000    0.000    0.000    0.000 
#    0.000    0.000    0.000    0.000    0.000    0.000 
#
# Total GULP energy -347147.486156 kJ/mol
# GULP energy per Si atom -12398.124506 kJ/mol
# Density = 2.033316 g / cm^3
# Si number density = 20.379550 Si / 1000 Ang^3
#
#
#
# Elastic Constant Matrix: (Units=GPa)
#
#
# Indices 1 2 3 4 5 6 
#
# 1 135.8672 51.4789 38.6129 -0.0118 30.0053 -0.0276
# 2 51.4789 118.7159 28.3971 -0.0226 20.3623 0.0072
# 3 38.6129 28.3971 83.5744 -0.0133 25.8369 0.0367
# 4 -0.0118 -0.0226 -0.0133 35.1308 -0.0013 13.1302
# 5 30.0053 20.3623 25.8369 -0.0013 45.8816 -0.0023
# 6 -0.0276 0.0072 0.0367 13.1302 -0.0023 64.2532
#
#
#
# Elastic Compliance Matrix: (Units=1/GPa)
#
#
# Indices 1 2 3 4 5 6 
#
# 1 0.010081 -0.003137 -0.002402 -0.000002 -0.003848 0.000006
# 2 -0.003137 0.010452 -0.001577 0.000006 -0.001699 -0.000003
# 3 -0.002402 -0.001577 0.015630 0.000008 -0.006531 -0.000012
# 4 -0.000002 0.000006 0.000008 0.030819 -0.000005 -0.006298
# 5 -0.003848 -0.001699 -0.006531 -0.000005 0.028743 0.000004
# 6 0.000006 -0.000003 -0.000012 -0.006298 0.000004 0.016850
#
#
# Mechanical properties :
#
#
# Convention : Reuss Voigt Hill
#
# Bulk Modulus (GPa) = 45.59637 63.90394 54.75015
# Shear Modulus (GPa) = 37.28035 43.69770 40.48903
#
# Velocity S-wave (km/s) = 4.28167 4.63557 4.46213
# Velocity P-wave (km/s) = 6.84586 7.75089 7.31239
#
# Compressibility (1/GPa) = 0.02193157
#
# Stress axis : x y z
#
# Youngs Moduli (GPa) = 99.19496 95.67186 63.97927
#
# Poissons Ratio (x) = 0.30011 0.15370
# Poissons Ratio (y) = 0.31116 0.10089
# Poissons Ratio (z) = 0.23829 0.15086
#
# Static dielectric constant tensor:
#      x y z
#    x 4.064940 -0.000430 -0.181770 
#    y -0.000430 4.286250 -0.001360 
#    z -0.181770 -0.001360 4.432710 
# 
# 
# High freq. dielectric constant tensor:
#      x y z
#    x 1.802880 0.000000 0.005410 
#    y 0.000000 1.791940 0.000000 
#    z 0.005410 0.000000 1.808010 
# 
# From -- ./inp_files/257007.got.cif
#   From: 2010.06.25/outbox.cif.g09.slc.cpg/sg12_129_cif.got.tgz:257007.got - 2010.06.28 00:19:55.
