data_PCOD8110234
_publ_section_title
;
Structure prediction by ZEFSAII (Michael W. Deem and Ramdas Pophale) SiO2 
 PCOD8110234
Probable space group: C 2/M
;
_chemical_formula_sum "Si O2"
_cell_formula_units_Z 40
_cell_length_a 14.869140
_cell_length_b 17.035980
_cell_length_c 15.663473
_cell_angle_alpha 90.000000
_cell_angle_beta 27.444841
_cell_angle_gamma 90.000000
_cell_volume 1828.700278
_symmetry_space_group_name_H-M "C 2/M"
_symmetry_group_IT_number 12
_symmetry_cell_setting 'monoclinic'
loop_
_space_group_symop_operation_xyz
x,y,z
-x,y,-z
-x,-y,-z
x,-y,z
1/2+x,1/2+y,z
1/2-x,1/2+y,-z
1/2-x,1/2-y,-z
1/2+x,1/2-y,z
loop_
_atom_site_type_symbol
_atom_site_label
_atom_site_fract_x
_atom_site_fract_y
_atom_site_fract_z
Si Si1 0.462850 0.408503 0.626581
Si Si2 0.165088 0.660923 0.612203
Si Si3 0.659039 0.153874 0.995001
Si Si4 0.842462 0.592694 0.561892
Si Si5 0.991795 0.808083 0.834891
O O1 0.500000 0.377844 0.500000
O O2 0.502567 0.500000 0.601308
O O3 0.609431 0.362906 0.565782
O O4 0.237670 0.388722 0.843256
O O5 0.087488 0.627122 0.587840
O O6 0.126192 0.755638 0.654671
O O7 0.037599 0.618393 0.796153
O O8 0.828138 0.143343 0.923237
O O9 0.617986 0.246615 0.009286
O O10 0.813129 0.500000 0.580875
O O11 0.634973 0.632098 0.763228
O O12 0.000000 0.616307 0.500000
#
# Coordination Sequence:
#
# PCOD8110234 Si02
#       5
#     8   8   8   8   8
#     4  11  24  40  63  96 133 170 212 269 337 398
#     4  10  21  41  65  92 127 176 220 268 327 386
#     4   9  21  40  66  94 125 167 220 268 326 384
#     4  11  23  39  64  99 135 177 222 270 330 392
#     4   9  20  41  66  92 127 167 224 271 316 386
#
# _framework density 21.873457999999999
#
# number of rings (size 3 to 8) (size 9 to 14) (size 15 to 20)
#    1.200    0.800    2.000    1.200    0.000    3.200 
#    0.000    5.000    0.000    2.400    0.000    0.000 
#    0.000    0.800    0.000    0.000    0.000    0.000 
#
# Total GULP energy -247825.734091 kJ/mol
# GULP energy per Si atom -12391.286705 kJ/mol
# Density = 2.182367 g / cm^3
# Si number density = 21.873458 Si / 1000 Ang^3
#
#
#
# Elastic Constant Matrix: (Units=GPa)
#
#
# Indices 1 2 3 4 5 6 
#
# 1 85.3873 45.3131 21.2164 -0.0195 3.3072 0.0057
# 2 45.3131 83.1054 15.2035 0.0130 -4.9222 0.0139
# 3 21.2164 15.2035 93.6805 0.0089 2.8842 0.0243
# 4 -0.0195 0.0130 0.0089 36.9954 0.0012 -4.4724
# 5 3.3072 -4.9222 2.8842 0.0012 35.4222 -0.0072
# 6 0.0057 0.0139 0.0243 -4.4724 -0.0072 21.4509
#
#
#
# Elastic Compliance Matrix: (Units=1/GPa)
#
#
# Indices 1 2 3 4 5 6 
#
# 1 0.017244 -0.009133 -0.002340 0.000014 -0.002689 0.000006
# 2 -0.009133 0.017366 -0.000853 -0.000012 0.003335 -0.000009
# 3 -0.002340 -0.000853 0.011368 -0.000005 -0.000826 -0.000013
# 4 0.000014 -0.000012 -0.000005 0.027729 -0.000002 0.005781
# 5 -0.002689 0.003335 -0.000826 -0.000002 0.029013 0.000009
# 6 0.000006 -0.000009 -0.000013 0.005781 0.000009 0.047823
#
#
# Mechanical properties :
#
#
# Convention : Reuss Voigt Hill
#
# Bulk Modulus (GPa) = 46.89069 47.29324 47.09196
# Shear Modulus (GPa) = 27.42657 30.80305 29.11481
#
# Velocity S-wave (km/s) = 3.54485 3.75672 3.65232
# Velocity P-wave (km/s) = 6.18372 6.36282 6.27391
#
# Compressibility (1/GPa) = 0.02132619
#
# Stress axis : x y z
#
# Youngs Moduli (GPa) = 57.99185 57.58264 87.96320
#
# Poissons Ratio (x) = 0.52592 0.20586
# Poissons Ratio (y) = 0.52965 0.07500
# Poissons Ratio (z) = 0.13572 0.04910
#
# Static dielectric constant tensor:
#      x y z
#    x 3.629570 -0.000050 -0.050220 
#    y -0.000050 3.695680 0.000110 
#    z -0.050220 0.000110 4.228710 
# 
# 
# High freq. dielectric constant tensor:
#      x y z
#    x 1.836420 0.000000 -0.008680 
#    y 0.000000 1.845570 0.000010 
#    z -0.008680 0.000010 1.878080 
# 
# From -- ./inp_files/217330.got.cif
#   From: 2010.06.25/outbox.cif.g09.slc.cpg/sg12_109_cif.got.tgz:217330.got - 2010.06.28 00:19:55.
