data_PCOD8110616
_publ_section_title
;
Structure prediction by ZEFSAII (Michael W. Deem and Ramdas Pophale) SiO2 
 PCOD8110616
Probable space group: C 2/M
;
_chemical_formula_sum "Si O2"
_cell_formula_units_Z 36
_cell_length_a 16.426310
_cell_length_b 22.486200
_cell_length_c 5.305761
_cell_angle_alpha 90.000000
_cell_angle_beta 121.418648
_cell_angle_gamma 90.000000
_cell_volume 1672.425680
_symmetry_space_group_name_H-M "C 2/M"
_symmetry_group_IT_number 12
_symmetry_cell_setting 'monoclinic'
loop_
_space_group_symop_operation_xyz
x,y,z
-x,y,-z
-x,-y,-z
x,-y,z
1/2+x,1/2+y,z
1/2-x,1/2+y,-z
1/2-x,1/2-y,-z
1/2+x,1/2-y,z
loop_
_atom_site_type_symbol
_atom_site_label
_atom_site_fract_x
_atom_site_fract_y
_atom_site_fract_z
Si Si1 0.000000 0.237105 0.500000
Si Si2 0.389236 0.930240 0.308210
Si Si3 0.832365 0.741786 0.934361
Si Si4 0.903787 0.847063 0.731396
Si Si5 0.205740 0.379579 0.347210
O O1 0.070336 0.194716 0.458285
O O2 0.068271 0.279995 0.774035
O O3 0.500000 0.913424 0.500000
O O4 0.336614 0.899665 0.456539
O O5 0.373532 0.000000 0.309587
O O6 0.345387 0.910211 0.971061
O O7 0.855477 0.806419 0.865632
O O8 0.805603 0.692399 0.683840
O O9 0.750000 0.750000 0.000000
O O10 0.820404 0.894078 0.521740
O O11 0.000000 0.878238 0.000000
#
# Coordination Sequence:
#
# PCOD8110616 Si02
#       5
#     4   8   8   8   8
#     4  10  22  36  56  86 144 172 206 254 314 370
#     4  11  27  48  68  96 130 165 220 286 340 386
#     4  11  22  38  58  94 139 172 217 259 307 393
#     4  10  23  39  60  94 137 176 206 260 315 390
#     4  12  24  41  73  96 125 181 223 262 329 397
#
# _framework density 21.525618999999999
#
# number of rings (size 3 to 8) (size 9 to 14) (size 15 to 20)
#    0.000    1.111    2.222    3.333    7.778    5.333 
#    0.000    0.000    0.000    4.000    0.000    0.000 
#    0.000    0.000    0.000    0.000    0.000    0.000 
#
# Total GULP energy -223124.588157 kJ/mol
# GULP energy per Si atom -12395.810453 kJ/mol
# Density = 2.147663 g / cm^3
# Si number density = 21.525619 Si / 1000 Ang^3
#
#
#
# Elastic Constant Matrix: (Units=GPa)
#
#
# Indices 1 2 3 4 5 6 
#
# 1 150.2178 25.0756 44.3270 0.0000 12.8454 0.0000
# 2 25.0756 37.6555 -0.3852 0.0000 11.5887 0.0000
# 3 44.3270 -0.3852 108.7578 0.0000 33.9131 0.0000
# 4 0.0000 0.0000 0.0000 19.7103 0.0000 -3.6036
# 5 12.8454 11.5887 33.9131 0.0000 57.0848 0.0000
# 6 0.0000 0.0000 0.0000 -3.6036 0.0000 26.3754
#
#
#
# Elastic Compliance Matrix: (Units=1/GPa)
#
#
# Indices 1 2 3 4 5 6 
#
# 1 0.008816 -0.006472 -0.004182 0.000000 0.001814 0.000000
# 2 -0.006472 0.033564 0.005434 0.000000 -0.008586 0.000000
# 3 -0.004182 0.005434 0.013463 0.000000 -0.008160 0.000000
# 4 0.000000 0.000000 0.000000 0.052035 0.000000 0.007109
# 5 0.001814 -0.008586 -0.008160 0.000000 0.023700 0.000000
# 6 0.000000 0.000000 0.000000 0.007109 0.000000 0.038885
#
#
# Mechanical properties :
#
#
# Convention : Reuss Voigt Hill
#
# Bulk Modulus (GPa) = 22.02487 48.29621 35.16054
# Shear Modulus (GPa) = 25.50517 35.80837 30.65677
#
# Velocity S-wave (km/s) = 3.44594 4.08306 3.77795
# Velocity P-wave (km/s) = 5.10752 6.68684 5.94981
#
# Compressibility (1/GPa) = 0.04540321
#
# Stress axis : x y z
#
# Youngs Moduli (GPa) = 113.42665 29.79357 74.27757
#
# Poissons Ratio (x) = 0.19283 0.31063
# Poissons Ratio (y) = 0.73411 -0.40362
# Poissons Ratio (z) = 0.47435 -0.16190
#
# Static dielectric constant tensor:
#      x y z
#    x 4.073870 0.000000 0.438430 
#    y 0.000000 3.621500 0.000000 
#    z 0.438430 0.000000 4.639550 
# 
# 
# High freq. dielectric constant tensor:
#      x y z
#    x 1.868660 0.000000 0.011730 
#    y 0.000000 1.788880 0.000000 
#    z 0.011730 0.000000 1.881200 
# 
# From -- ./inp_files/15939.got.cif
#   From: 2010.06.25/outbox.cif.g09.slc.cpg/sg12_8_cif.got.tgz:15939.got - 2010.06.28 00:19:55.
