data_PCOD8110792
_publ_section_title
;
Structure prediction by ZEFSAII (Michael W. Deem and Ramdas Pophale) SiO2 
 PCOD8110792
Probable space group: C 2/M
;
_chemical_formula_sum "Si O2"
_cell_formula_units_Z 48
_cell_length_a 10.834262
_cell_length_b 13.483927
_cell_length_c 19.223996
_cell_angle_alpha 90.000000
_cell_angle_beta 64.434927
_cell_angle_gamma 90.000000
_cell_volume 2533.448222
_symmetry_space_group_name_H-M "C 2/M"
_symmetry_group_IT_number 12
_symmetry_cell_setting 'monoclinic'
loop_
_space_group_symop_operation_xyz
x,y,z
-x,y,-z
-x,-y,-z
x,-y,z
1/2+x,1/2+y,z
1/2-x,1/2+y,-z
1/2-x,1/2-y,-z
1/2+x,1/2-y,z
loop_
_atom_site_type_symbol
_atom_site_label
_atom_site_fract_x
_atom_site_fract_y
_atom_site_fract_z
Si Si1 0.898330 0.114021 0.661959
Si Si2 0.104114 0.613819 0.675273
Si Si3 0.300198 0.608338 0.093409
Si Si4 0.102122 0.753435 0.205239
Si Si5 0.898249 0.109150 0.925933
Si Si6 0.587522 0.763964 0.547127
O O1 0.766934 0.124816 0.644354
O O2 0.867832 0.169619 0.741022
O O3 0.028303 0.160635 0.591128
O O4 0.932974 0.000000 0.669744
O O5 0.058035 0.500000 0.697754
O O6 0.061654 0.647295 0.608046
O O7 0.031641 0.686134 0.748529
O O8 0.229442 0.500000 0.116143
O O9 0.229871 0.681028 0.165297
O O10 0.454748 0.598519 0.077238
O O11 0.294790 0.643307 0.013321
O O12 0.090336 0.811441 0.136878
O O13 0.852325 0.000000 0.908961
O O14 0.500000 0.793219 0.500000
O O15 0.750000 0.750000 0.500000
#
# Coordination Sequence:
#
# PCOD8110792 Si02
#       6
#     8   8   8   8   8   8
#     4  10  22  38  57  82 114 152 183 220 281 343
#     4  10  22  38  56  82 116 149 182 226 283 335
#     4   9  18  32  50  74 106 143 183 232 288 327
#     4  11  19  32  55  79 107 142 191 234 271 326
#     4   9  18  32  50  74 105 143 186 232 280 333
#     4  11  22  40  66  89 113 144 186 229 273 328
#
# _framework density 18.946508999999999
#
# number of rings (size 3 to 8) (size 9 to 14) (size 15 to 20)
#    0.000    2.000    1.667    3.500    0.000    1.333 
#    0.000    0.000    0.000    0.000    0.000   14.000 
#    0.000    0.000    0.000    0.000    0.000    0.000 
#
# Total GULP energy -297441.507683 kJ/mol
# GULP energy per Si atom -12393.396153 kJ/mol
# Density = 1.890339 g / cm^3
# Si number density = 18.946509 Si / 1000 Ang^3
#
#
#
# Elastic Constant Matrix: (Units=GPa)
#
#
# Indices 1 2 3 4 5 6 
#
# 1 75.2440 39.9694 35.8871 0.0000 -0.9764 0.0000
# 2 39.9694 129.5594 56.3417 0.0000 1.6759 0.0000
# 3 35.8871 56.3417 98.5772 0.0000 2.7028 0.0000
# 4 0.0000 0.0000 0.0000 28.3285 0.0000 -7.0318
# 5 -0.9764 1.6759 2.7028 0.0000 32.0727 0.0000
# 6 0.0000 0.0000 0.0000 -7.0318 0.0000 23.4457
#
#
#
# Elastic Compliance Matrix: (Units=1/GPa)
#
#
# Indices 1 2 3 4 5 6 
#
# 1 0.017192 -0.003437 -0.004323 0.000000 0.001067 0.000000
# 2 -0.003437 0.010959 -0.005005 0.000000 -0.000256 0.000000
# 3 -0.004323 -0.005005 0.014609 0.000000 -0.001101 0.000000
# 4 0.000000 0.000000 0.000000 0.038140 0.000000 0.011439
# 5 0.001067 -0.000256 -0.001101 0.000000 0.031318 0.000000
# 6 0.000000 0.000000 0.000000 0.011439 0.000000 0.046082
#
#
# Mechanical properties :
#
#
# Convention : Reuss Voigt Hill
#
# Bulk Modulus (GPa) = 58.04480 63.08634 60.56557
# Shear Modulus (GPa) = 26.37493 28.18153 27.27823
#
# Velocity S-wave (km/s) = 3.73510 3.86090 3.79852
# Velocity P-wave (km/s) = 7.02168 7.29690 7.16061
#
# Compressibility (1/GPa) = 0.01722807
#
# Stress axis : x y z
#
# Youngs Moduli (GPa) = 58.16702 91.25077 68.45057
#
# Poissons Ratio (x) = 0.31367 0.29593
# Poissons Ratio (y) = 0.19995 0.34260
# Poissons Ratio (z) = 0.25147 0.45672
#
# Static dielectric constant tensor:
#      x y z
#    x 3.267760 0.000000 -0.012500 
#    y 0.000000 3.777660 0.000000 
#    z -0.012500 0.000000 3.637710 
# 
# 
# High freq. dielectric constant tensor:
#      x y z
#    x 1.716120 0.000000 -0.003670 
#    y 0.000000 1.744870 0.000000 
#    z -0.003670 0.000000 1.749220 
# 
# From -- ./inp_files/261627.got.cif
#   From: 2010.06.25/outbox.cif.g09.slc.cpg/sg12_131_cif.got.tgz:261627.got - 2010.06.28 00:19:55.
