data_PCOD8110502
_publ_section_title
;
Structure prediction by ZEFSAII (Michael W. Deem and Ramdas Pophale) SiO2 
 PCOD8110502
Probable space group: C 2/M
;
_chemical_formula_sum "Si O2"
_cell_formula_units_Z 48
_cell_length_a 24.215199
_cell_length_b 19.918192
_cell_length_c 7.767795
_cell_angle_alpha 90.000000
_cell_angle_beta 145.341234
_cell_angle_gamma 90.000000
_cell_volume 2130.637423
_symmetry_space_group_name_H-M "C 2/M"
_symmetry_group_IT_number 12
_symmetry_cell_setting 'monoclinic'
loop_
_space_group_symop_operation_xyz
x,y,z
-x,y,-z
-x,-y,-z
x,-y,z
1/2+x,1/2+y,z
1/2-x,1/2+y,-z
1/2-x,1/2-y,-z
1/2+x,1/2-y,z
loop_
_atom_site_type_symbol
_atom_site_label
_atom_site_fract_x
_atom_site_fract_y
_atom_site_fract_z
Si Si1 0.550123 0.348471 0.310142
Si Si2 0.730130 0.615820 0.971427
Si Si3 0.626562 0.422590 0.041731
Si Si4 0.784035 0.654678 0.638318
Si Si5 0.688159 0.764112 0.620189
Si Si6 0.098829 0.575507 0.812963
O O1 0.649589 0.387339 0.613220
O O2 0.583465 0.269541 0.405700
O O3 0.500000 0.367910 0.000000
O O4 0.468090 0.374768 0.234073
O O5 0.691122 0.576813 0.036465
O O6 0.758672 0.693852 0.090294
O O7 0.823899 0.577888 0.143510
O O8 0.598714 0.500000 0.015883
O O9 0.687136 0.388261 0.351230
O O10 0.760573 0.707392 0.730803
O O11 0.830794 0.686581 0.588278
O O12 0.867481 0.607779 0.923490
O O13 0.074573 0.500000 0.800004
O O14 0.000000 0.612197 0.500000
#
# Coordination Sequence:
#
# PCOD8110502 Si02
#       6
#     8   8   8   8   8   8
#     4  12  23  40  63 101 136 174 217 271 326 405
#     4  11  24  44  67  95 135 181 215 277 329 388
#     4  11  24  43  69 100 136 179 219 267 340 405
#     4  10  21  44  66  93 129 177 216 282 322 385
#     4  10  22  42  63  93 134 165 229 259 325 395
#     4  11  24  43  66  97 126 169 232 275 328 387
#
# _framework density 22.528469000000001
#
# number of rings (size 3 to 8) (size 9 to 14) (size 15 to 20)
#    0.000    1.167    3.333    2.000    0.000    3.667 
#    0.000    2.500    0.000    9.000    0.000    0.000 
#    0.000    0.000    0.000    0.000    0.000    0.000 
#
# Total GULP energy -297411.958023 kJ/mol
# GULP energy per Si atom -12392.164918 kJ/mol
# Density = 2.247719 g / cm^3
# Si number density = 22.528469 Si / 1000 Ang^3
#
#
#
# Elastic Constant Matrix: (Units=GPa)
#
#
# Indices 1 2 3 4 5 6 
#
# 1 56.1662 17.9598 42.7926 0.0000 17.5887 0.0000
# 2 17.9598 115.6573 52.0404 0.0000 10.5340 0.0000
# 3 42.7926 52.0404 182.0065 0.0000 11.5464 0.0000
# 4 0.0000 0.0000 0.0000 31.1011 0.0000 3.6865
# 5 17.5887 10.5340 11.5464 0.0000 35.4821 0.0000
# 6 0.0000 0.0000 0.0000 3.6865 0.0000 33.1393
#
#
#
# Elastic Compliance Matrix: (Units=1/GPa)
#
#
# Indices 1 2 3 4 5 6 
#
# 1 0.025209 -0.000667 -0.005060 0.000000 -0.010651 0.000000
# 2 -0.000667 0.010091 -0.002613 0.000000 -0.001815 0.000000
# 3 -0.005060 -0.002613 0.007375 0.000000 0.000884 0.000000
# 4 0.000000 0.000000 0.000000 0.032583 0.000000 -0.003625
# 5 -0.010651 -0.001815 0.000884 0.000000 0.033714 0.000000
# 6 0.000000 0.000000 0.000000 -0.003625 0.000000 0.030579
#
#
# Mechanical properties :
#
#
# Convention : Reuss Voigt Hill
#
# Bulk Modulus (GPa) = 38.47239 64.37950 51.42594
# Shear Modulus (GPa) = 30.32196 36.01366 33.16781
#
# Velocity S-wave (km/s) = 3.67269 4.00257 3.84117
# Velocity P-wave (km/s) = 5.92445 7.07105 6.52299
#
# Compressibility (1/GPa) = 0.02599267
#
# Stress axis : x y z
#
# Youngs Moduli (GPa) = 39.66884 99.09843 135.58993
#
# Poissons Ratio (x) = 0.06614 0.68614
# Poissons Ratio (y) = 0.02648 0.35433
# Poissons Ratio (z) = 0.20074 0.25897
#
# Static dielectric constant tensor:
#      x y z
#    x 4.081430 0.000000 -0.012520 
#    y 0.000000 4.024540 0.000000 
#    z -0.012520 0.000000 4.199920 
# 
# 
# High freq. dielectric constant tensor:
#      x y z
#    x 1.885750 0.000000 -0.011980 
#    y 0.000000 1.880720 0.000000 
#    z -0.011980 0.000000 1.895300 
# 
# From -- ./inp_files/106598.got.cif
#   From: 2010.06.25/outbox.cif.g09.slc.cpg/sg12_54_cif.got.tgz:106598.got - 2010.06.28 00:19:55.
