data_PCOD8110656
_publ_section_title
;
Structure prediction by ZEFSAII (Michael W. Deem and Ramdas Pophale) SiO2 
 PCOD8110656
Probable space group: C 2/M
;
_chemical_formula_sum "Si O2"
_cell_formula_units_Z 56
_cell_length_a 10.227298
_cell_length_b 27.880940
_cell_length_c 12.185851
_cell_angle_alpha 90.000000
_cell_angle_beta 61.910750
_cell_angle_gamma 90.000000
_cell_volume 3065.481739
_symmetry_space_group_name_H-M "C 2/M"
_symmetry_group_IT_number 12
_symmetry_cell_setting 'monoclinic'
loop_
_space_group_symop_operation_xyz
x,y,z
-x,y,-z
-x,-y,-z
x,-y,z
1/2+x,1/2+y,z
1/2-x,1/2+y,-z
1/2-x,1/2-y,-z
1/2+x,1/2-y,z
loop_
_atom_site_type_symbol
_atom_site_label
_atom_site_fract_x
_atom_site_fract_y
_atom_site_fract_z
Si Si1 0.988884 0.126957 0.627576
Si Si2 0.200199 0.667840 0.839591
Si Si3 0.738695 0.553888 0.911092
Si Si4 0.309210 0.768797 0.771568
Si Si5 0.129450 0.774445 0.622594
Si Si6 0.506087 0.553743 0.814661
Si Si7 0.115315 0.353035 0.108896
O O1 0.822338 0.143647 0.715675
O O2 0.032050 0.087381 0.699873
O O3 0.000000 0.105503 0.500000
O O4 0.097978 0.172292 0.591552
O O5 0.240357 0.722202 0.857006
O O6 0.052768 0.664912 0.824935
O O7 0.181326 0.641244 0.961458
O O8 0.803576 0.500000 0.901263
O O9 0.650482 0.556474 0.832778
O O10 0.870149 0.593021 0.848692
O O11 0.634663 0.568056 0.055209
O O12 0.202428 0.779543 0.712219
O O13 0.481019 0.758014 0.675431
O O14 0.292169 0.814832 0.856574
O O15 0.250000 0.750000 0.500000
O O16 0.484098 0.500000 0.778332
#
# Coordination Sequence:
#
# PCOD8110656 Si02
#       7
#     8   8   8   8   8   8   8
#     4  11  22  37  58  82 119 152 196 238 293 351
#     4  10  22  37  50  88 116 154 189 243 289 360
#     4   9  18  35  61  88 116 150 194 247 296 359
#     4  11  21  37  56  81 115 150 204 234 296 337
#     4  11  22  38  56  82 113 157 197 241 280 356
#     4   9  18  36  59  88 114 145 198 245 295 352
#     4  11  20  36  59  79 123 149 191 242 303 346
#
# _framework density 18.267928000000001
#
# number of rings (size 3 to 8) (size 9 to 14) (size 15 to 20)
#    0.000    1.714    2.857    4.286    0.000    0.286 
#    0.000    2.143    0.000    0.000    0.000    2.000 
#    0.000    0.000    0.000    0.000    0.000    0.000 
#
# Total GULP energy -347101.151742 kJ/mol
# GULP energy per Si atom -12396.469705 kJ/mol
# Density = 1.822635 g / cm^3
# Si number density = 18.267928 Si / 1000 Ang^3
#
#
#
# Elastic Constant Matrix: (Units=GPa)
#
#
# Indices 1 2 3 4 5 6 
#
# 1 78.1713 30.5703 24.4602 0.0000 -7.4744 0.0000
# 2 30.5703 108.2195 26.8959 0.0000 -5.2370 0.0000
# 3 24.4602 26.8959 78.3079 0.0000 6.4389 0.0000
# 4 0.0000 0.0000 0.0000 25.2470 0.0000 10.6594
# 5 -7.4744 -5.2370 6.4389 0.0000 27.1218 0.0000
# 6 0.0000 0.0000 0.0000 10.6594 0.0000 25.3889
#
#
#
# Elastic Compliance Matrix: (Units=1/GPa)
#
#
# Indices 1 2 3 4 5 6 
#
# 1 0.015818 -0.003185 -0.004238 0.000000 0.004750 0.000000
# 2 -0.003185 0.010962 -0.002929 0.000000 0.001934 0.000000
# 3 -0.004238 -0.002929 0.015546 0.000000 -0.005424 0.000000
# 4 0.000000 0.000000 0.000000 0.048142 0.000000 -0.020212
# 5 0.004750 0.001934 -0.005424 0.000000 0.039841 0.000000
# 6 0.000000 0.000000 0.000000 -0.020212 0.000000 0.047873
#
#
# Mechanical properties :
#
#
# Convention : Reuss Voigt Hill
#
# Bulk Modulus (GPa) = 46.24925 47.61685 46.93305
# Shear Modulus (GPa) = 24.26079 27.73637 25.99858
#
# Velocity S-wave (km/s) = 3.64820 3.90078 3.77660
# Velocity P-wave (km/s) = 6.56643 6.81252 6.69061
#
# Compressibility (1/GPa) = 0.02162197
#
# Stress axis : x y z
#
# Youngs Moduli (GPa) = 63.21805 91.22541 64.32621
#
# Poissons Ratio (x) = 0.29059 0.27258
# Poissons Ratio (y) = 0.20137 0.18842
# Poissons Ratio (z) = 0.26789 0.26720
#
# Static dielectric constant tensor:
#      x y z
#    x 3.769030 0.000000 0.428420 
#    y 0.000000 3.474680 0.000000 
#    z 0.428420 0.000000 3.499320 
# 
# 
# High freq. dielectric constant tensor:
#      x y z
#    x 1.710530 0.000000 0.011990 
#    y 0.000000 1.710080 0.000000 
#    z 0.011990 0.000000 1.692920 
# 
# From -- ./inp_files/124206.got.cif
#   From: 2010.06.25/outbox.cif.g09.slc.cpg/sg12_63_cif.got.tgz:124206.got - 2010.06.28 00:19:55.
