data_PCOD8110715
_publ_section_title
;
Structure prediction by ZEFSAII (Michael W. Deem and Ramdas Pophale) SiO2 
 PCOD8110715
Probable space group: C 2/M
;
_chemical_formula_sum "Si O2"
_cell_formula_units_Z 32
_cell_length_a 5.392837
_cell_length_b 18.508473
_cell_length_c 15.680886
_cell_angle_alpha 90.000000
_cell_angle_beta 57.859898
_cell_angle_gamma 90.000000
_cell_volume 1325.298097
_symmetry_space_group_name_H-M "C 2/M"
_symmetry_group_IT_number 12
_symmetry_cell_setting 'monoclinic'
loop_
_space_group_symop_operation_xyz
x,y,z
-x,y,-z
-x,-y,-z
x,-y,z
1/2+x,1/2+y,z
1/2-x,1/2+y,-z
1/2-x,1/2-y,-z
1/2+x,1/2-y,z
loop_
_atom_site_type_symbol
_atom_site_label
_atom_site_fract_x
_atom_site_fract_y
_atom_site_fract_z
Si Si1 0.680241 0.101366 0.544199
Si Si2 0.330305 0.914136 0.947677
Si Si3 0.786172 0.582906 0.280759
Si Si4 0.920488 0.785504 0.389668
O O1 0.500000 0.064566 0.500000
O O2 0.526563 0.091163 0.664135
O O3 0.000000 0.064943 0.500000
O O4 0.726249 0.189629 0.512997
O O5 0.508501 0.888249 0.832158
O O6 0.314296 0.000000 0.955213
O O7 0.500000 0.883853 0.000000
O O8 0.000000 0.882704 0.000000
O O9 0.693089 0.500000 0.280901
O O10 0.493654 0.632476 0.343226
O O11 0.233505 0.748696 0.347957
#
# Coordination Sequence:
#
# PCOD8110715 Si02
#       4
#     8   8   8   8
#     4  10  22  37  58  89 127 160 201 248 298 359
#     4   9  19  37  61  88 118 154 201 256 310 364
#     4  10  23  41  65  95 125 162 209 260 311 361
#     4  11  24  42  63  90 126 169 209 246 300 374
#
# _framework density 24.145510000000002
#
# number of rings (size 3 to 8) (size 9 to 14) (size 15 to 20)
#    0.000    2.000    0.000    3.000    0.000   24.000 
#    0.000   13.750    0.000    6.000    0.000    0.000 
#    0.000    0.000    0.000    0.000    0.000    0.000 
#
# Total GULP energy -198217.476767 kJ/mol
# GULP energy per Si atom -12388.592298 kJ/mol
# Density = 2.409055 g / cm^3
# Si number density = 24.145510 Si / 1000 Ang^3
#
#
#
# Elastic Constant Matrix: (Units=GPa)
#
#
# Indices 1 2 3 4 5 6 
#
# 1 227.2889 26.1909 72.5846 0.0000 12.4027 0.0000
# 2 26.1909 109.0917 15.6578 0.0000 -6.1797 0.0000
# 3 72.5846 15.6578 151.8987 0.0000 35.3970 0.0000
# 4 0.0000 0.0000 0.0000 23.5459 0.0000 20.9030
# 5 12.4027 -6.1797 35.3970 0.0000 33.0000 0.0000
# 6 0.0000 0.0000 0.0000 20.9030 0.0000 29.6827
#
#
#
# Elastic Compliance Matrix: (Units=1/GPa)
#
#
# Indices 1 2 3 4 5 6 
#
# 1 0.005290 -0.000864 -0.002584 0.000000 0.000621 0.000000
# 2 -0.000864 0.009796 -0.001467 0.000000 0.003732 0.000000
# 3 -0.002584 -0.001467 0.010409 0.000000 -0.010468 0.000000
# 4 0.000000 0.000000 0.000000 0.113305 0.000000 -0.079791
# 5 0.000621 0.003732 -0.010468 0.000000 0.041997 0.000000
# 6 0.000000 0.000000 0.000000 -0.079791 0.000000 0.089880
#
#
# Mechanical properties :
#
#
# Convention : Reuss Voigt Hill
#
# Bulk Modulus (GPa) = 63.83210 79.68287 71.75749
# Shear Modulus (GPa) = 17.49919 42.16878 29.83399
#
# Velocity S-wave (km/s) = 2.69502 4.18358 3.51891
# Velocity P-wave (km/s) = 6.01481 7.51061 6.80394
#
# Compressibility (1/GPa) = 0.01566610
#
# Stress axis : x y z
#
# Youngs Moduli (GPa) = 189.01894 102.08273 96.07485
#
# Poissons Ratio (x) = 0.08821 0.24823
# Poissons Ratio (y) = 0.16333 0.14090
# Poissons Ratio (z) = 0.48837 0.14971
#
# Static dielectric constant tensor:
#      x y z
#    x 4.650950 0.000000 0.078440 
#    y 0.000000 4.521920 0.000000 
#    z 0.078440 0.000000 4.466590 
# 
# 
# High freq. dielectric constant tensor:
#      x y z
#    x 1.975050 0.000000 0.001690 
#    y 0.000000 1.955450 0.000000 
#    z 0.001690 0.000000 1.928740 
# 
# From -- ./inp_files/252768.got.cif
#   From: 2010.06.25/outbox.cif.g09.slc.cpg/sg12_127_cif.got.tgz:252768.got - 2010.06.28 00:19:55.
