data_PCOD8110575
_publ_section_title
;
Structure prediction by ZEFSAII (Michael W. Deem and Ramdas Pophale) SiO2 
 PCOD8110575
Probable space group: C 2/M
;
_chemical_formula_sum "Si O2"
_cell_formula_units_Z 48
_cell_length_a 21.319251
_cell_length_b 16.594773
_cell_length_c 9.149965
_cell_angle_alpha 90.000000
_cell_angle_beta 51.314926
_cell_angle_gamma 90.000000
_cell_volume 2526.896707
_symmetry_space_group_name_H-M "C 2/M"
_symmetry_group_IT_number 12
_symmetry_cell_setting 'monoclinic'
loop_
_space_group_symop_operation_xyz
x,y,z
-x,y,-z
-x,-y,-z
x,-y,z
1/2+x,1/2+y,z
1/2-x,1/2+y,-z
1/2-x,1/2-y,-z
1/2+x,1/2-y,z
loop_
_atom_site_type_symbol
_atom_site_label
_atom_site_fract_x
_atom_site_fract_y
_atom_site_fract_z
Si Si1 0.008680 0.091930 0.159731
Si Si2 0.197379 0.592876 0.501513
Si Si3 0.809898 0.281737 0.717154
Si Si4 0.591763 0.819177 0.865490
Si Si5 0.134206 0.224877 0.072629
Si Si6 0.149360 0.170328 0.592975
O O1 0.075115 0.149875 0.133303
O O2 0.921225 0.110455 0.357917
O O3 0.033069 0.000000 0.158956
O O4 0.000000 0.107413 0.000000
O O5 0.199481 0.500000 0.458726
O O6 0.159681 0.640208 0.417514
O O7 0.144114 0.607633 0.723856
O O8 0.288045 0.624153 0.394916
O O9 0.873609 0.257322 0.749663
O O10 0.802365 0.207002 0.614669
O O11 0.724856 0.304359 0.912556
O O12 0.605929 0.739771 0.748460
O O13 0.500000 0.846352 0.000000
O O14 0.615141 0.800955 0.998053
#
# Coordination Sequence:
#
# PCOD8110575 Si02
#       6
#     8   8   8   8   8   8
#     4  11  21  34  59  94 121 146 183 234 292 341
#     4  11  22  38  59  85 115 149 194 246 284 326
#     4  10  22  35  60  81 115 155 196 226 282 346
#     4  11  19  37  62  82 110 150 202 232 272 339
#     4  11  19  38  57  84 115 156 188 229 275 345
#     4  11  18  37  59  88 113 151 187 232 281 351
#
# _framework density 18.995632000000001
#
# number of rings (size 3 to 8) (size 9 to 14) (size 15 to 20)
#    0.000    1.167    6.667    1.500    0.000    3.000 
#    0.000    3.333    0.000    1.000    0.000    0.000 
#    0.000    0.000    0.000    0.000    0.000    0.000 
#
# Total GULP energy -297606.504223 kJ/mol
# GULP energy per Si atom -12400.271009 kJ/mol
# Density = 1.895240 g / cm^3
# Si number density = 18.995632 Si / 1000 Ang^3
#
#
#
# Elastic Constant Matrix: (Units=GPa)
#
#
# Indices 1 2 3 4 5 6 
#
# 1 105.6237 54.8223 38.7714 0.0000 9.8356 0.0000
# 2 54.8223 115.3909 46.6517 0.0000 10.7754 0.0000
# 3 38.7714 46.6517 68.4646 0.0000 -1.1775 0.0000
# 4 0.0000 0.0000 0.0000 17.1318 0.0000 1.8448
# 5 9.8356 10.7754 -1.1775 0.0000 42.9883 0.0000
# 6 0.0000 0.0000 0.0000 1.8448 0.0000 19.6237
#
#
#
# Elastic Compliance Matrix: (Units=1/GPa)
#
#
# Indices 1 2 3 4 5 6 
#
# 1 0.013703 -0.004354 -0.004831 0.000000 -0.002176 0.000000
# 2 -0.004354 0.013809 -0.006989 0.000000 -0.002656 0.000000
# 3 -0.004831 -0.006989 0.022164 0.000000 0.003464 0.000000
# 4 0.000000 0.000000 0.000000 0.058968 0.000000 -0.005543
# 5 -0.002176 -0.002656 0.003464 0.000000 0.024521 0.000000
# 6 0.000000 0.000000 0.000000 -0.005543 0.000000 0.051480
#
#
# Mechanical properties :
#
#
# Convention : Reuss Voigt Hill
#
# Bulk Modulus (GPa) = 57.71116 63.32999 60.52057
# Shear Modulus (GPa) = 22.44491 25.89770 24.17130
#
# Velocity S-wave (km/s) = 3.44114 3.69636 3.57103
# Velocity P-wave (km/s) = 6.79970 7.18534 6.99517
#
# Compressibility (1/GPa) = 0.01732767
#
# Stress axis : x y z
#
# Youngs Moduli (GPa) = 72.97446 72.41875 45.11915
#
# Poissons Ratio (x) = 0.31533 0.21795
# Poissons Ratio (y) = 0.31775 0.31534
# Poissons Ratio (z) = 0.35251 0.50613
#
# Static dielectric constant tensor:
#      x y z
#    x 3.496850 0.000000 0.016100 
#    y 0.000000 3.308310 0.000000 
#    z 0.016100 0.000000 3.651240 
# 
# 
# High freq. dielectric constant tensor:
#      x y z
#    x 1.730450 0.000000 -0.008140 
#    y 0.000000 1.713940 0.000000 
#    z -0.008140 0.000000 1.741530 
# 
# From -- ./inp_files/87708.got.cif
#   From: 2010.06.25/outbox.cif.g09.slc.cpg/sg12_44_cif.got.tgz:87708.got - 2010.06.28 00:19:55.
