data_PCOD8110205
_publ_section_title
;
Structure prediction by ZEFSAII (Michael W. Deem and Ramdas Pophale) SiO2 
 PCOD8110205
Probable space group: C 2/M
;
_chemical_formula_sum "Si O2"
_cell_formula_units_Z 40
_cell_length_a 26.894242
_cell_length_b 8.050834
_cell_length_c 26.723016
_cell_angle_alpha 90.000000
_cell_angle_beta 20.272334
_cell_angle_gamma 90.000000
_cell_volume 2004.782472
_symmetry_space_group_name_H-M "C 2/M"
_symmetry_group_IT_number 12
_symmetry_cell_setting 'monoclinic'
loop_
_space_group_symop_operation_xyz
x,y,z
-x,y,-z
-x,-y,-z
x,-y,z
1/2+x,1/2+y,z
1/2-x,1/2+y,-z
1/2-x,1/2-y,-z
1/2+x,1/2-y,z
loop_
_atom_site_type_symbol
_atom_site_label
_atom_site_fract_x
_atom_site_fract_y
_atom_site_fract_z
Si Si1 0.421688 0.820480 0.700301
Si Si2 0.161476 0.000000 0.786897
Si Si3 0.668727 0.500000 0.898415
Si Si4 0.114527 0.186497 0.156361
Si Si5 0.345637 0.192049 0.364582
Si Si6 0.697523 0.309965 0.399907
O O1 0.257395 0.835407 0.833899
O O2 0.418075 0.783367 0.762273
O O3 0.523877 0.698641 0.571448
O O4 0.497632 0.000000 0.623380
O O5 0.241661 0.170395 0.695021
O O6 0.166151 0.000000 0.841673
O O7 0.994484 0.000000 0.926186
O O8 0.990403 0.203006 0.232264
O O9 0.137080 0.000000 0.152353
O O10 0.250000 0.250000 0.000000
O O11 0.250000 0.250000 0.500000
O O12 0.268540 0.231888 0.385750
O O13 0.383683 0.000000 0.333537
O O14 0.733086 0.500000 0.348472
#
# Coordination Sequence:
#
# PCOD8110205 Si02
#       6
#     8   4   4   8   8   8
#     4  10  21  41  64  92 129 169 216 267 331 387
#     4  11  23  49  73  95 129 169 223 289 340 403
#     4   9  25  45  73  95 125 173 221 277 360 389
#     4  12  25  38  58  91 133 177 219 260 320 386
#     4  11  23  37  57  90 128 171 213 256 313 381
#     4  11  24  40  66 101 132 173 225 272 328 398
#
# _framework density 19.952290000000001
#
# number of rings (size 3 to 8) (size 9 to 14) (size 15 to 20)
#    0.600    0.600    3.000    3.000    5.600    1.600 
#    0.000    6.000    0.000    0.000    0.000    0.000 
#    0.000    0.000    0.000    0.000    0.000    0.000 
#
# Total GULP energy -247834.317729 kJ/mol
# GULP energy per Si atom -12391.715886 kJ/mol
# Density = 1.990688 g / cm^3
# Si number density = 19.952290 Si / 1000 Ang^3
#
#
#
# Elastic Constant Matrix: (Units=GPa)
#
#
# Indices 1 2 3 4 5 6 
#
# 1 50.7640 17.8435 15.1918 -0.0170 -6.2310 -0.0088
# 2 17.8435 93.3648 22.2776 0.0812 5.7062 -0.0087
# 3 15.1918 22.2776 125.6376 -0.0061 -10.6588 -0.0093
# 4 -0.0170 0.0812 -0.0061 30.7868 -0.0212 -3.6879
# 5 -6.2310 5.7062 -10.6588 -0.0212 35.9125 -0.0043
# 6 -0.0088 -0.0087 -0.0093 -3.6879 -0.0043 20.1223
#
#
#
# Elastic Compliance Matrix: (Units=1/GPa)
#
#
# Indices 1 2 3 4 5 6 
#
# 1 0.022109 -0.004086 -0.001609 0.000027 0.004008 0.000013
# 2 -0.004086 0.012149 -0.001933 -0.000038 -0.003213 -0.000005
# 3 -0.001609 -0.001933 0.008719 0.000008 0.002616 0.000005
# 4 0.000027 -0.000038 0.000008 0.033211 0.000033 0.006087
# 5 0.004008 -0.003213 0.002616 0.000033 0.029828 0.000014
# 6 0.000013 -0.000005 0.000005 0.006087 0.000014 0.050812
#
#
# Mechanical properties :
#
#
# Convention : Reuss Voigt Hill
#
# Bulk Modulus (GPa) = 36.07410 42.26580 39.16995
# Shear Modulus (GPa) = 27.57514 31.66122 29.61818
#
# Velocity S-wave (km/s) = 3.72163 3.98785 3.85704
# Velocity P-wave (km/s) = 6.04870 6.51408 6.28570
#
# Compressibility (1/GPa) = 0.02772072
#
# Stress axis : x y z
#
# Youngs Moduli (GPa) = 45.23093 82.30970 114.69826
#
# Poissons Ratio (x) = 0.33635 0.18452
# Poissons Ratio (y) = 0.18483 0.22168
# Poissons Ratio (z) = 0.07276 0.15908
#
# Static dielectric constant tensor:
#      x y z
#    x 3.380110 -0.000040 -0.129550 
#    y -0.000040 3.808240 0.000140 
#    z -0.129550 0.000140 3.789810 
# 
# 
# High freq. dielectric constant tensor:
#      x y z
#    x 1.769620 0.000000 -0.006720 
#    y 0.000000 1.779190 0.000010 
#    z -0.006720 0.000010 1.786080 
# 
# From -- ./inp_files/368820.got.cif
#   From: 2010.06.25/outbox.cif.g09.slc.cpg/sg12_185_cif.got.tgz:368820.got - 2010.06.28 00:19:55.
