data_PCOD8110026
_publ_section_title
;
Structure prediction by ZEFSAII (Michael W. Deem and Ramdas Pophale) SiO2 
 PCOD8110026
Probable space group: C 2/M
;
_chemical_formula_sum "Si O2"
_cell_formula_units_Z 64
_cell_length_a 19.811350
_cell_length_b 8.894324
_cell_length_c 30.747119
_cell_angle_alpha 90.000000
_cell_angle_beta 143.861323
_cell_angle_gamma 90.000000
_cell_volume 3195.164668
_symmetry_space_group_name_H-M "C 2/M"
_symmetry_group_IT_number 12
_symmetry_cell_setting 'monoclinic'
loop_
_space_group_symop_operation_xyz
x,y,z
-x,y,-z
-x,-y,-z
x,-y,z
1/2+x,1/2+y,z
1/2-x,1/2+y,-z
1/2-x,1/2-y,-z
1/2+x,1/2-y,z
loop_
_atom_site_type_symbol
_atom_site_label
_atom_site_fract_x
_atom_site_fract_y
_atom_site_fract_z
Si Si1 0.238640 0.173473 0.929459
Si Si2 0.245485 0.673016 0.403347
Si Si3 0.431247 0.174074 0.097263
Si Si4 0.171433 0.824609 0.648442
Si Si5 0.723755 0.675203 0.822360
Si Si6 0.991580 0.327297 0.677511
Si Si7 0.333749 0.677307 0.801166
Si Si8 0.053040 0.674822 0.445154
O O1 0.137945 0.276224 0.896081
O O2 0.256473 0.215495 0.888701
O O3 0.203106 0.000000 0.917308
O O4 0.357322 0.207914 0.015740
O O5 0.277134 0.500000 0.429664
O O6 0.264209 0.712553 0.362742
O O7 0.113428 0.705747 0.344924
O O8 0.322251 0.778238 0.473545
O O9 0.546992 0.267092 0.155736
O O10 0.462921 0.000000 0.118251
O O11 0.229555 0.733899 0.717564
O O12 0.040669 0.769939 0.576856
O O13 0.175680 0.000000 0.661744
O O14 0.737576 0.500000 0.820010
O O15 0.594016 0.721048 0.745293
O O16 0.814499 0.762739 0.839836
O O17 0.032169 0.500000 0.701775
O O18 0.953233 0.287149 0.608947
O O19 0.332158 0.500000 0.800849
O O20 0.032885 0.500000 0.444009
#
# Coordination Sequence:
#
# PCOD8110026 Si02
#       8
#     8   8   8   8   8   8   8   8
#     4   9  21  41  64  95 128 159 200 248 296 352
#     4  10  23  40  60  86 117 155 203 249 296 362
#     4  10  21  40  66  93 126 164 200 243 298 357
#     4  11  23  40  61  87 118 158 203 249 303 359
#     4  11  23  40  63  90 121 161 204 248 301 359
#     4  10  22  40  59  86 121 158 199 247 300 354
#     4  12  25  41  61  88 124 161 204 255 302 357
#     4  11  22  38  61  87 119 157 198 249 304 358
#
# _framework density 20.030266999999998
#
# number of rings (size 3 to 8) (size 9 to 14) (size 15 to 20)
#    0.000    1.500    1.250    3.375    1.750    5.500 
#    0.000    2.500    0.000    0.000    0.000    0.000 
#    0.000    0.000    0.000    0.000    0.000    0.000 
#
# Total GULP energy -397039.585486 kJ/mol
# GULP energy per Si atom -12407.487046 kJ/mol
# Density = 1.998468 g / cm^3
# Si number density = 20.030267 Si / 1000 Ang^3
#
#
#
# Elastic Constant Matrix: (Units=GPa)
#
#
# Indices 1 2 3 4 5 6 
#
# 1 73.1252 25.5498 -3.3732 0.0000 -0.1601 -0.0001
# 2 25.5498 91.9525 19.5077 0.0002 -3.7110 -0.0002
# 3 -3.3732 19.5077 43.0015 0.0000 -1.0498 -0.0001
# 4 0.0000 0.0002 0.0000 30.0572 0.0000 3.3628
# 5 -0.1601 -3.7110 -1.0498 0.0000 31.0673 0.0001
# 6 -0.0001 -0.0002 -0.0001 3.3628 0.0001 33.7011
#
#
#
# Elastic Compliance Matrix: (Units=1/GPa)
#
#
# Indices 1 2 3 4 5 6 
#
# 1 0.015621 -0.005106 0.003532 0.000000 -0.000410 0.000000
# 2 -0.005106 0.013751 -0.006605 0.000000 0.001393 0.000000
# 3 0.003532 -0.006605 0.026531 0.000000 0.000126 0.000000
# 4 0.000000 0.000000 0.000000 0.033646 0.000000 -0.003357
# 5 -0.000410 0.001393 0.000126 0.000000 0.032357 0.000000
# 6 0.000000 0.000000 0.000000 -0.003357 0.000000 0.030008
#
#
# Mechanical properties :
#
#
# Convention : Reuss Voigt Hill
#
# Bulk Modulus (GPa) = 25.28735 32.38311 28.83523
# Shear Modulus (GPa) = 27.55507 30.05812 28.80659
#
# Velocity S-wave (km/s) = 3.71303 3.87801 3.79641
# Velocity P-wave (km/s) = 5.57082 6.02114 5.80035
#
# Compressibility (1/GPa) = 0.03954547
#
# Stress axis : x y z
#
# Youngs Moduli (GPa) = 64.01499 72.71944 37.69106
#
# Poissons Ratio (x) = 0.37133 -0.13312
# Poissons Ratio (y) = 0.32688 0.24895
# Poissons Ratio (z) = -0.22609 0.48031
#
# Static dielectric constant tensor:
#      x y z
#    x 3.772580 0.000000 -0.044390 
#    y 0.000000 3.658980 0.000000 
#    z -0.044390 0.000000 3.608380 
# 
# 
# High freq. dielectric constant tensor:
#      x y z
#    x 1.794620 0.000000 -0.000840 
#    y 0.000000 1.786820 0.000000 
#    z -0.000840 0.000000 1.780650 
# 
# From -- ./inp_files/378460.got.cif
#   From: 2010.06.25/outbox.cif.g09.slc.cpg/sg12_190_cif.got.tgz:378460.got - 2010.06.28 00:19:55.
