data_PCOD8110913
_publ_section_title
;
Structure prediction by ZEFSAII (Michael W. Deem and Ramdas Pophale) SiO2 
 PCOD8110913
Probable space group: C 2/M
;
_chemical_formula_sum "Si O2"
_cell_formula_units_Z 48
_cell_length_a 13.097068
_cell_length_b 20.950313
_cell_length_c 8.211044
_cell_angle_alpha 90.000000
_cell_angle_beta 98.845285
_cell_angle_gamma 90.000000
_cell_volume 2226.214579
_symmetry_space_group_name_H-M "C 2/M"
_symmetry_group_IT_number 12
_symmetry_cell_setting 'monoclinic'
loop_
_space_group_symop_operation_xyz
x,y,z
-x,y,-z
-x,-y,-z
x,-y,z
1/2+x,1/2+y,z
1/2-x,1/2+y,-z
1/2-x,1/2-y,-z
1/2+x,1/2-y,z
loop_
_atom_site_type_symbol
_atom_site_label
_atom_site_fract_x
_atom_site_fract_y
_atom_site_fract_z
Si Si1 0.483027 0.285049 0.668438
Si Si2 0.350184 0.160791 0.624845
Si Si3 0.012780 0.426364 0.823359
Si Si4 0.602727 0.385521 0.100316
Si Si5 0.695447 0.298524 0.867154
Si Si6 0.212313 0.570838 0.668493
O O1 0.500000 0.322372 0.500000
O O2 0.413196 0.224612 0.599829
O O3 0.426318 0.326891 0.789079
O O4 0.594021 0.263895 0.768357
O O5 0.431753 0.106558 0.686335
O O6 0.269231 0.176762 0.743993
O O7 0.288451 0.130033 0.457542
O O8 0.982250 0.500000 0.819982
O O9 0.127915 0.414944 0.786637
O O10 0.000000 0.396096 0.000000
O O11 0.675177 0.433180 0.218586
O O12 0.500000 0.419401 0.000000
O O13 0.665530 0.360806 0.960731
O O14 0.750000 0.250000 0.000000
O O15 0.193316 0.500000 0.586069
#
# Coordination Sequence:
#
# PCOD8110913 Si02
#       6
#     8   8   8   8   8   8
#     4  11  24  38  60  94 130 165 207 263 323 388
#     4  12  24  37  66  91 133 172 206 263 326 390
#     4  10  22  38  60  93 129 169 219 267 313 373
#     4  10  23  43  64  91 129 167 214 271 318 376
#     4  11  24  40  61  93 131 168 217 257 318 392
#     4  11  24  43  66  95 130 172 222 267 316 378
#
# _framework density 21.561264000000001
#
# number of rings (size 3 to 8) (size 9 to 14) (size 15 to 20)
#    0.000    1.167    1.667    4.000    7.000    3.000 
#    0.000    0.833    0.000   10.500    0.000    0.000 
#    0.000    0.000    0.000    0.000    0.000    0.000 
#
# Total GULP energy -297538.468180 kJ/mol
# GULP energy per Si atom -12397.436174 kJ/mol
# Density = 2.151219 g / cm^3
# Si number density = 21.561264 Si / 1000 Ang^3
#
#
#
# Elastic Constant Matrix: (Units=GPa)
#
#
# Indices 1 2 3 4 5 6 
#
# 1 131.6933 36.2929 50.6307 0.0000 2.8520 0.0000
# 2 36.2929 61.9384 28.0735 0.0000 -3.3150 0.0000
# 3 50.6307 28.0735 112.6696 0.0000 -2.6653 0.0000
# 4 0.0000 0.0000 0.0000 30.0291 0.0000 3.3326
# 5 2.8520 -3.3150 -2.6653 0.0000 46.0093 0.0000
# 6 0.0000 0.0000 0.0000 3.3326 0.0000 24.4980
#
#
#
# Elastic Compliance Matrix: (Units=1/GPa)
#
#
# Indices 1 2 3 4 5 6 
#
# 1 0.010189 -0.004446 -0.003498 0.000000 -0.001155 0.000000
# 2 -0.004446 0.020192 -0.002996 0.000000 0.001557 0.000000
# 3 -0.003498 -0.002996 0.011209 0.000000 0.000650 0.000000
# 4 0.000000 0.000000 0.000000 0.033812 0.000000 -0.004600
# 5 -0.001155 0.001557 0.000650 0.000000 0.021956 0.000000
# 6 0.000000 0.000000 0.000000 -0.004600 0.000000 0.041445
#
#
# Mechanical properties :
#
#
# Convention : Reuss Voigt Hill
#
# Bulk Modulus (GPa) = 50.73902 59.58839 55.16370
# Shear Modulus (GPa) = 29.89477 32.86087 31.37782
#
# Velocity S-wave (km/s) = 3.72762 3.90817 3.81896
# Velocity P-wave (km/s) = 6.48925 6.93266 6.71462
#
# Compressibility (1/GPa) = 0.01970870
#
# Stress axis : x y z
#
# Youngs Moduli (GPa) = 98.14928 49.52505 89.21161
#
# Poissons Ratio (x) = 0.22021 0.31205
# Poissons Ratio (y) = 0.43641 0.26730
# Poissons Ratio (z) = 0.34331 0.14839
#
# Static dielectric constant tensor:
#      x y z
#    x 4.149290 0.000000 0.102630 
#    y 0.000000 3.514630 0.000000 
#    z 0.102630 0.000000 4.134050 
# 
# 
# High freq. dielectric constant tensor:
#      x y z
#    x 1.865440 0.000000 0.000860 
#    y 0.000000 1.819800 0.000000 
#    z 0.000860 0.000000 1.862040 
# 
# From -- ./inp_files/50801.got.cif
#   From: 2010.06.25/outbox.cif.g09.slc.cpg/sg12_26_cif.got.tgz:50801.got - 2010.06.28 00:19:55.
