data_PCOD8110515
_publ_section_title
;
Structure prediction by ZEFSAII (Michael W. Deem and Ramdas Pophale) SiO2 
 PCOD8110515
Probable space group: C 2/M
;
_chemical_formula_sum "Si O2"
_cell_formula_units_Z 36
_cell_length_a 14.854806
_cell_length_b 18.438376
_cell_length_c 4.984398
_cell_angle_alpha 90.000000
_cell_angle_beta 105.727764
_cell_angle_gamma 90.000000
_cell_volume 1314.106017
_symmetry_space_group_name_H-M "C 2/M"
_symmetry_group_IT_number 12
_symmetry_cell_setting 'monoclinic'
loop_
_space_group_symop_operation_xyz
x,y,z
-x,y,-z
-x,-y,-z
x,-y,z
1/2+x,1/2+y,z
1/2-x,1/2+y,-z
1/2-x,1/2-y,-z
1/2+x,1/2-y,z
loop_
_atom_site_type_symbol
_atom_site_label
_atom_site_fract_x
_atom_site_fract_y
_atom_site_fract_z
Si Si1 0.358447 0.625714 0.410367
Si Si2 0.388695 0.000000 0.913592
Si Si3 0.407081 0.220274 0.571302
Si Si4 0.083595 0.000000 0.859764
Si Si5 0.239718 0.000000 0.366679
Si Si6 0.676387 0.847181 0.984218
O O1 0.410923 0.692347 0.597162
O O2 0.305405 0.575047 0.576100
O O3 0.283326 0.663792 0.153804
O O4 0.432410 0.574100 0.317653
O O5 0.346865 0.000000 0.571000
O O6 0.350584 0.067556 0.058623
O O7 0.500000 0.000000 0.000000
O O8 0.500000 0.190564 0.500000
O O9 0.395487 0.189443 0.861482
O O10 0.325825 0.188975 0.312308
O O11 0.196377 0.000000 0.028498
O O12 0.000000 0.000000 0.000000
#
# Coordination Sequence:
#
# PCOD8110515 Si02
#       6
#     8   4   8   4   4   8
#     4  10  25  44  68 101 142 191 237 300 367 433
#     4  10  21  44  72  98 138 178 236 297 359 424
#     4  12  26  43  71 104 144 187 247 298 366 432
#     4  11  26  43  74 109 144 189 252 299 361 447
#     4   9  23  42  69 100 141 183 241 285 370 427
#     4  11  26  46  69 105 140 192 240 298 368 445
#
# _framework density 27.395049
#
# number of rings (size 3 to 8) (size 9 to 14) (size 15 to 20)
#    0.000    1.333    0.000    4.000   12.444    1.778 
#    0.000    2.222    0.000    0.000    0.000    0.000 
#    0.000    0.000    0.000    0.000    0.000    0.000 
#
# Total GULP energy -223061.786743 kJ/mol
# GULP energy per Si atom -12392.321486 kJ/mol
# Density = 2.733270 g / cm^3
# Si number density = 27.395049 Si / 1000 Ang^3
#
#
#
# Elastic Constant Matrix: (Units=GPa)
#
#
# Indices 1 2 3 4 5 6 
#
# 1 78.3095 4.9020 -18.7832 0.0000 9.1120 0.0000
# 2 4.9020 183.2208 23.5317 0.0000 -9.2654 0.0000
# 3 -18.7832 23.5317 83.2511 0.0000 7.7306 0.0000
# 4 0.0000 0.0000 0.0000 24.6490 0.0000 -8.5539
# 5 9.1120 -9.2654 7.7306 0.0000 32.9273 0.0000
# 6 0.0000 0.0000 0.0000 -8.5539 0.0000 178.1437
#
#
#
# Elastic Compliance Matrix: (Units=1/GPa)
#
#
# Indices 1 2 3 4 5 6 
#
# 1 0.014437 -0.001178 0.004081 0.000000 -0.005285 0.000000
# 2 -0.001178 0.005893 -0.002163 0.000000 0.002492 0.000000
# 3 0.004081 -0.002163 0.014011 0.000000 -0.005027 0.000000
# 4 0.000000 0.000000 0.000000 0.041257 0.000000 0.001981
# 5 -0.005285 0.002492 -0.005027 0.000000 0.033714 0.000000
# 6 0.000000 0.000000 0.000000 0.001981 0.000000 0.005709
#
#
# Mechanical properties :
#
#
# Convention : Reuss Voigt Hill
#
# Bulk Modulus (GPa) = 27.91561 40.45360 34.18461
# Shear Modulus (GPa) = 39.84676 69.48606 54.66641
#
# Velocity S-wave (km/s) = 3.81796 5.04178 4.47193
# Velocity P-wave (km/s) = 5.44499 6.97793 6.25857
#
# Compressibility (1/GPa) = 0.03582225
#
# Stress axis : x y z
#
# Youngs Moduli (GPa) = 69.26485 169.68692 71.37351
#
# Poissons Ratio (x) = 0.19983 -0.29127
# Poissons Ratio (y) = 0.08157 0.15437
# Poissons Ratio (z) = -0.28267 0.36701
#
# Static dielectric constant tensor:
#      x y z
#    x 4.748420 0.000000 0.322710 
#    y 0.000000 5.049690 0.000000 
#    z 0.322710 0.000000 5.206960 
# 
# 
# High freq. dielectric constant tensor:
#      x y z
#    x 2.099640 0.000000 0.011150 
#    y 0.000000 2.127310 0.000000 
#    z 0.011150 0.000000 2.097530 
# 
# From -- ./inp_files/15375.got.cif
#   From: 2010.06.25/outbox.cif.g09.slc.cpg/sg12_8_cif.got.tgz:15375.got - 2010.06.28 00:19:55.
