data_PCOD8110224
_publ_section_title
;
Structure prediction by ZEFSAII (Michael W. Deem and Ramdas Pophale) SiO2 
 PCOD8110224
Probable space group: C 2/M
;
_chemical_formula_sum "Si O2"
_cell_formula_units_Z 64
_cell_length_a 30.541315
_cell_length_b 8.568728
_cell_length_c 15.138869
_cell_angle_alpha 90.000000
_cell_angle_beta 51.448403
_cell_angle_gamma 90.000000
_cell_volume 3098.350239
_symmetry_space_group_name_H-M "C 2/M"
_symmetry_group_IT_number 12
_symmetry_cell_setting 'monoclinic'
loop_
_space_group_symop_operation_xyz
x,y,z
-x,y,-z
-x,-y,-z
x,-y,z
1/2+x,1/2+y,z
1/2-x,1/2+y,-z
1/2-x,1/2-y,-z
1/2+x,1/2-y,z
loop_
_atom_site_type_symbol
_atom_site_label
_atom_site_fract_x
_atom_site_fract_y
_atom_site_fract_z
Si Si1 0.504891 0.183299 0.239993
Si Si2 0.648864 0.821420 0.292622
Si Si3 0.189883 0.178536 0.071089
Si Si4 0.702457 0.184637 0.408224
Si Si5 0.618290 0.181137 0.007515
Si Si6 0.829247 0.816265 0.233293
Si Si7 0.381996 0.815211 0.337516
Si Si8 0.044441 0.169961 0.370765
O O1 0.444342 0.244147 0.283064
O O2 0.518306 0.271195 0.312798
O O3 0.503655 0.000000 0.261409
O O4 0.552464 0.220023 0.105880
O O5 0.669247 0.695999 0.196256
O O6 0.671304 0.764288 0.358377
O O7 0.582419 0.803490 0.368654
O O8 0.667289 0.000000 0.249870
O O9 0.191283 0.000000 0.037752
O O10 0.250000 0.250000 0.000000
O O11 0.150428 0.277762 0.056818
O O12 0.765954 0.251191 0.325640
O O13 0.665689 0.253052 0.535834
O O14 0.704464 0.000000 0.412977
O O15 0.645064 0.278815 0.894421
O O16 0.626777 0.000000 0.975066
O O17 0.869274 0.740563 0.255250
O O18 0.828337 0.000000 0.246960
O O19 0.380836 0.000000 0.342670
O O20 0.000000 0.135873 0.500000
O O21 0.073536 0.000000 0.314239
#
# Coordination Sequence:
#
# PCOD8110224 Si02
#       8
#     8   8   8   8   8   8   8   8
#     4  10  22  40  64  89 119 161 211 259 312 374
#     4  11  21  37  61  89 120 160 206 250 303 368
#     4  12  24  39  60  89 125 165 205 253 305 366
#     4   9  20  38  62  90 122 157 204 257 311 374
#     4  11  23  41  63  90 122 163 211 261 310 371
#     4  11  23  40  62  91 123 162 205 258 322 381
#     4  10  21  41  65  90 118 157 207 264 317 372
#     4  11  23  37  56  87 126 163 201 250 309 372
#
# _framework density 20.656153
#
# number of rings (size 3 to 8) (size 9 to 14) (size 15 to 20)
#    0.000    1.375    1.250    4.500    0.000    4.500 
#    0.000    6.250    0.000    0.000    0.000    0.000 
#    0.000    0.000    0.000    0.000    0.000    0.000 
#
# Total GULP energy -396694.435016 kJ/mol
# GULP energy per Si atom -12396.701094 kJ/mol
# Density = 2.060914 g / cm^3
# Si number density = 20.656153 Si / 1000 Ang^3
#
#
#
# Elastic Constant Matrix: (Units=GPa)
#
#
# Indices 1 2 3 4 5 6 
#
# 1 141.3944 21.3193 47.2613 0.0000 -5.8871 0.0001
# 2 21.3193 32.6943 13.8226 -0.0003 -11.0618 0.0006
# 3 47.2613 13.8226 115.6489 0.0000 -9.3810 0.0001
# 4 0.0000 -0.0003 0.0000 34.6909 0.0000 6.7882
# 5 -5.8871 -11.0618 -9.3810 0.0000 39.5575 0.0000
# 6 0.0001 0.0006 0.0001 6.7882 0.0000 31.3133
#
#
#
# Elastic Compliance Matrix: (Units=1/GPa)
#
#
# Indices 1 2 3 4 5 6 
#
# 1 0.008778 -0.004665 -0.003089 0.000000 -0.000731 0.000000
# 2 -0.004665 0.037573 -0.001823 0.000000 0.009380 -0.000001
# 3 -0.003089 -0.001823 0.010246 0.000000 0.001460 0.000000
# 4 0.000000 0.000000 0.000000 0.030103 0.000000 -0.006526
# 5 -0.000731 0.009380 0.001460 0.000000 0.028140 0.000000
# 6 0.000000 -0.000001 0.000000 -0.006526 0.000000 0.033350
#
#
# Mechanical properties :
#
#
# Convention : Reuss Voigt Hill
#
# Bulk Modulus (GPa) = 26.70831 50.50486 38.60658
# Shear Modulus (GPa) = 27.80480 34.93465 31.36973
#
# Velocity S-wave (km/s) = 3.67287 4.11694 3.90123
# Velocity P-wave (km/s) = 5.56280 6.86311 6.24688
#
# Compressibility (1/GPa) = 0.03744153
#
# Stress axis : x y z
#
# Youngs Moduli (GPa) = 113.92305 26.61480 97.60342
#
# Poissons Ratio (x) = 0.12416 0.30148
# Poissons Ratio (y) = 0.53147 0.17797
# Poissons Ratio (z) = 0.35189 0.04853
#
# Static dielectric constant tensor:
#      x y z
#    x 3.873610 0.000000 -0.141250 
#    y 0.000000 3.555270 0.000000 
#    z -0.141250 0.000000 3.962760 
# 
# 
# High freq. dielectric constant tensor:
#      x y z
#    x 1.814610 0.000000 -0.006530 
#    y 0.000000 1.798030 0.000000 
#    z -0.006530 0.000000 1.821210 
# 
# From -- ./inp_files/249877.got.cif
#   From: 2010.06.25/outbox.cif.g09.slc.cpg/sg12_125_cif.got.tgz:249877.got - 2010.06.28 00:19:55.
