data_PCOD8110946
_publ_section_title
;
Structure prediction by ZEFSAII (Michael W. Deem and Ramdas Pophale) SiO2 
 PCOD8110946
Probable space group: C 2/M
;
_chemical_formula_sum "Si O2"
_cell_formula_units_Z 36
_cell_length_a 14.771962
_cell_length_b 15.583665
_cell_length_c 23.529184
_cell_angle_alpha 90.000000
_cell_angle_beta 160.145568
_cell_angle_gamma 90.000000
_cell_volume 1839.597322
_symmetry_space_group_name_H-M "C 2/M"
_symmetry_group_IT_number 12
_symmetry_cell_setting 'monoclinic'
loop_
_space_group_symop_operation_xyz
x,y,z
-x,y,-z
-x,-y,-z
x,-y,z
1/2+x,1/2+y,z
1/2-x,1/2+y,-z
1/2-x,1/2-y,-z
1/2+x,1/2-y,z
loop_
_atom_site_type_symbol
_atom_site_label
_atom_site_fract_x
_atom_site_fract_y
_atom_site_fract_z
Si Si1 0.440179 0.254018 0.164792
Si Si2 0.000000 0.202805 0.500000
Si Si3 0.695162 0.596952 0.831340
Si Si4 0.700564 0.902986 0.840902
Si Si5 0.803146 0.844101 0.505700
O O1 0.751049 0.259569 0.331238
O O2 0.398106 0.338840 0.175795
O O3 0.386914 0.164846 0.164237
O O4 0.250000 0.250000 0.000000
O O5 0.909058 0.151066 0.502868
O O6 0.664989 0.500000 0.836115
O O7 0.521202 0.607215 0.671824
O O8 0.000000 0.619644 0.000000
O O9 0.484188 0.892891 0.661912
O O10 0.692243 0.000000 0.860157
O O11 0.000000 0.879350 0.000000
O O12 0.750000 0.750000 0.500000
#
# Coordination Sequence:
#
# PCOD8110946 Si02
#       5
#     8   4   8   8   8
#     4  11  23  38  61  88 127 161 205 255 306 363
#     4  10  22  38  62  94 116 162 210 242 314 366
#     4  11  23  40  63  91 124 166 207 254 311 367
#     4  10  22  39  62  90 119 159 205 250 306 363
#     4  11  21  40  66  89 125 163 204 252 310 365
#
# _framework density 19.569500000000001
#
# number of rings (size 3 to 8) (size 9 to 14) (size 15 to 20)
#    0.000    1.333    4.444    2.667    3.111    0.889 
#    0.000   16.667    0.000    0.000    0.000    0.000 
#    0.000    0.000    0.000    0.000    0.000    0.000 
#
# Total GULP energy -223025.395066 kJ/mol
# GULP energy per Si atom -12390.299726 kJ/mol
# Density = 1.952496 g / cm^3
# Si number density = 19.569500 Si / 1000 Ang^3
#
#
#
# Elastic Constant Matrix: (Units=GPa)
#
#
# Indices 1 2 3 4 5 6 
#
# 1 82.7597 29.3338 57.5925 -0.0841 -1.8058 0.0612
# 2 29.3338 93.3009 39.3502 -0.0221 15.1021 0.0251
# 3 57.5925 39.3502 232.8885 0.0520 3.4009 -0.0998
# 4 -0.0841 -0.0221 0.0520 0.2562 -0.0989 40.0926
# 5 -1.8058 15.1021 3.4009 -0.0989 38.2996 0.0793
# 6 0.0612 0.0251 -0.0998 40.0926 0.0793 -80.9893
#
#
#
# Elastic Compliance Matrix: (Units=1/GPa)
#
#
# Indices 1 2 3 4 5 6 
#
# 1 0.015848 -0.004025 -0.003277 0.000049 0.002626 0.000041
# 2 -0.004025 0.013348 -0.001182 -0.000020 -0.005348 -0.000013
# 3 -0.003277 -0.001182 0.005306 -0.000010 -0.000160 -0.000015
# 4 0.000049 -0.000020 -0.000010 0.049743 0.000089 0.024625
# 5 0.002626 -0.005348 -0.000160 0.000089 0.028357 0.000072
# 6 0.000041 -0.000013 -0.000015 0.024625 0.000072 -0.000157
#
#
# Mechanical properties :
#
#
# Convention : Reuss Voigt Hill
#
# Bulk Modulus (GPa) = 57.03487 73.50022 65.26755
# Shear Modulus (GPa) = 36.96643 10.35815 23.66229
#
# Velocity S-wave (km/s) = 4.35096 2.30315 3.48104
# Velocity P-wave (km/s) = 7.37897 6.68676 7.04137
#
# Compressibility (1/GPa) = 0.01753313
#
# Stress axis : x y z
#
# Youngs Moduli (GPa) = 63.09967 74.91957 188.45258
#
# Poissons Ratio (x) = 0.30158 0.61762
# Poissons Ratio (y) = 0.25400 0.22270
# Poissons Ratio (z) = 0.20680 0.08854
#
# Static dielectric constant tensor:
#      x y z
#    x 3.317150 0.000240 0.141150 
#    y 0.000240 3.511150 -0.000710 
#    z 0.141150 -0.000710 4.581330 
# 
# 
# High freq. dielectric constant tensor:
#      x y z
#    x 1.738240 0.000000 0.001000 
#    y 0.000000 1.758470 -0.000010 
#    z 0.001000 -0.000010 1.806670 
# 
# From -- ./inp_files/340037.got.cif
#   From: 2010.06.25/outbox.cif.g09.slc.cpg/sg12_171_cif.got.tgz:340037.got - 2010.06.28 00:19:55.
