data_PCOD8110917
_publ_section_title
;
Structure prediction by ZEFSAII (Michael W. Deem and Ramdas Pophale) SiO2 
 PCOD8110917
Probable space group: C 2/M
;
_chemical_formula_sum "Si O2"
_cell_formula_units_Z 48
_cell_length_a 11.644741
_cell_length_b 16.523506
_cell_length_c 20.956695
_cell_angle_alpha 90.000000
_cell_angle_beta 143.490764
_cell_angle_gamma 90.000000
_cell_volume 2399.037409
_symmetry_space_group_name_H-M "C 2/M"
_symmetry_group_IT_number 12
_symmetry_cell_setting 'monoclinic'
loop_
_space_group_symop_operation_xyz
x,y,z
-x,y,-z
-x,-y,-z
x,-y,z
1/2+x,1/2+y,z
1/2-x,1/2+y,-z
1/2-x,1/2-y,-z
1/2+x,1/2-y,z
loop_
_atom_site_type_symbol
_atom_site_label
_atom_site_fract_x
_atom_site_fract_y
_atom_site_fract_z
Si Si1 0.147823 0.090564 0.195385
Si Si2 0.075666 0.794852 0.386570
Si Si3 0.546886 0.150145 0.755316
Si Si4 0.856722 0.090381 0.377654
Si Si5 0.144766 0.798409 0.009661
Si Si6 0.287550 0.095836 0.391615
O O1 0.347686 0.089582 0.246001
O O2 0.198336 0.131282 0.286167
O O3 0.983525 0.136780 0.084221
O O4 0.071807 0.000000 0.171416
O O5 0.250000 0.750000 0.500000
O O6 0.154927 0.875824 0.389610
O O7 0.981932 0.736246 0.292539
O O8 0.910169 0.832790 0.357358
O O9 0.353346 0.106997 0.689164
O O10 0.678007 0.160121 0.875937
O O11 0.000000 0.090139 0.500000
O O12 0.859705 0.000000 0.346633
O O13 0.250000 0.750000 0.000000
O O14 0.000000 0.756657 0.000000
O O15 0.500000 0.131988 0.500000
O O16 0.295474 0.000000 0.392123
#
# Coordination Sequence:
#
# PCOD8110917 Si02
#       6
#     8   8   8   8   8   8
#     4  10  22  42  66  92 123 162 206 257 315 377
#     4  12  24  37  61  89 125 166 208 255 314 379
#     4  11  24  38  66  92 122 160 212 261 308 374
#     4  11  25  42  59  88 130 169 207 258 318 378
#     4  10  23  41  65  93 125 163 209 263 315 372
#     4  10  22  38  61  88 123 162 203 252 311 380
#
# _framework density 20.008025
#
# number of rings (size 3 to 8) (size 9 to 14) (size 15 to 20)
#    0.000    1.333    1.667    3.000    9.333    3.667 
#    0.000    0.000    0.000    0.500    0.000    0.000 
#    0.000    0.000    0.000    0.000    0.000    0.000 
#
# Total GULP energy -297387.749210 kJ/mol
# GULP energy per Si atom -12391.156217 kJ/mol
# Density = 1.996249 g / cm^3
# Si number density = 20.008025 Si / 1000 Ang^3
#
#
#
# Elastic Constant Matrix: (Units=GPa)
#
#
# Indices 1 2 3 4 5 6 
#
# 1 120.6911 35.9588 47.7752 -0.0001 4.5767 0.0000
# 2 35.9588 73.3075 37.9846 0.0000 0.2709 -0.0001
# 3 47.7752 37.9846 144.6448 -0.0014 2.1607 -0.0010
# 4 -0.0001 0.0000 -0.0014 18.9562 -0.0005 2.6147
# 5 4.5767 0.2709 2.1607 -0.0005 35.1010 -0.0003
# 6 0.0000 -0.0001 -0.0010 2.6147 -0.0003 47.8050
#
#
#
# Elastic Compliance Matrix: (Units=1/GPa)
#
#
# Indices 1 2 3 4 5 6 
#
# 1 0.010438 -0.003864 -0.002415 0.000000 -0.001182 0.000000
# 2 -0.003864 0.017221 -0.003255 0.000000 0.000571 0.000000
# 3 -0.002415 -0.003255 0.008569 0.000001 -0.000187 0.000000
# 4 0.000000 0.000000 0.000001 0.053154 0.000001 -0.002907
# 5 -0.001182 0.000571 -0.000187 0.000001 0.028651 0.000000
# 6 0.000000 0.000000 0.000000 -0.002907 0.000000 0.021077
#
#
# Mechanical properties :
#
#
# Convention : Reuss Voigt Hill
#
# Bulk Modulus (GPa) = 58.27620 64.67562 61.47591
# Shear Modulus (GPa) = 30.50703 34.83410 32.67057
#
# Velocity S-wave (km/s) = 3.90903 4.17706 4.04527
# Velocity P-wave (km/s) = 7.04014 7.46048 7.25336
#
# Compressibility (1/GPa) = 0.01715967
#
# Stress axis : x y z
#
# Youngs Moduli (GPa) = 95.80604 58.06908 116.70461
#
# Poissons Ratio (x) = 0.22439 0.28185
# Poissons Ratio (y) = 0.37021 0.37982
# Poissons Ratio (z) = 0.23138 0.18899
#
# Static dielectric constant tensor:
#      x y z
#    x 3.941340 0.000000 -0.058770 
#    y 0.000000 3.311950 0.000000 
#    z -0.058770 0.000000 3.811200 
# 
# 
# High freq. dielectric constant tensor:
#      x y z
#    x 1.791480 0.000000 -0.001340 
#    y 0.000000 1.771760 0.000000 
#    z -0.001340 0.000000 1.793890 
# 
# From -- ./inp_files/131761.got.cif
#   From: 2010.06.25/outbox.cif.g09.slc.cpg/sg12_66_cif.got.tgz:131761.got - 2010.06.28 00:19:55.
