data_PCOD8110723
_publ_section_title
;
Structure prediction by ZEFSAII (Michael W. Deem and Ramdas Pophale) SiO2 
 PCOD8110723
Probable space group: C 2/M
;
_chemical_formula_sum "Si O2"
_cell_formula_units_Z 56
_cell_length_a 22.848906
_cell_length_b 18.355919
_cell_length_c 15.338745
_cell_angle_alpha 90.000000
_cell_angle_beta 154.175166
_cell_angle_gamma 90.000000
_cell_volume 2802.466734
_symmetry_space_group_name_H-M "C 2/M"
_symmetry_group_IT_number 12
_symmetry_cell_setting 'monoclinic'
loop_
_space_group_symop_operation_xyz
x,y,z
-x,y,-z
-x,-y,-z
x,-y,z
1/2+x,1/2+y,z
1/2-x,1/2+y,-z
1/2-x,1/2-y,-z
1/2+x,1/2-y,z
loop_
_atom_site_type_symbol
_atom_site_label
_atom_site_fract_x
_atom_site_fract_y
_atom_site_fract_z
Si Si1 0.366584 0.581674 0.774067
Si Si2 0.081606 0.319040 0.814404
Si Si3 0.298680 0.797962 0.366147
Si Si4 0.203532 0.642838 0.279858
Si Si5 0.987000 0.585597 0.117102
Si Si6 0.956645 0.918453 0.700878
Si Si7 0.782799 0.821888 0.935890
O O1 0.335476 0.500000 0.766531
O O2 0.244293 0.633955 0.632565
O O3 0.380443 0.582280 0.689824
O O4 0.500000 0.611919 0.000000
O O5 0.041755 0.384878 0.824850
O O6 0.175407 0.349012 0.863000
O O7 0.951923 0.280896 0.597205
O O8 0.164875 0.259584 0.979531
O O9 0.203952 0.728922 0.260045
O O10 0.288988 0.822581 0.253423
O O11 0.357001 0.617529 0.497223
O O12 0.113858 0.628158 0.245561
O O13 0.143127 0.598268 0.117736
O O14 0.020518 0.500000 0.167445
O O15 0.989377 0.000000 0.714184
O O16 0.095419 0.877278 0.896084
#
# Coordination Sequence:
#
# PCOD8110723 Si02
#       7
#     8   8   8   8   8   8   8
#     4  10  22  37  59  93 133 165 199 258 318 372
#     4  11  25  43  64  88 125 171 210 255 312 370
#     4  12  23  39  69  95 125 164 214 258 320 381
#     4  11  23  38  67  98 128 165 205 261 323 382
#     4  11  24  43  64  94 133 166 206 262 318 378
#     4  11  22  40  64  93 128 166 208 257 316 373
#     4  11  24  43  62  90 127 165 212 262 303 368
#
# _framework density 19.982396000000001
#
# number of rings (size 3 to 8) (size 9 to 14) (size 15 to 20)
#    0.000    1.000    4.286    3.000    4.000    3.429 
#    0.000    0.714    0.000    4.286    0.000    0.000 
#    0.000    0.000    0.000    0.000    0.000    0.000 
#
# Total GULP energy -347328.492025 kJ/mol
# GULP energy per Si atom -12404.589001 kJ/mol
# Density = 1.993692 g / cm^3
# Si number density = 19.982396 Si / 1000 Ang^3
#
#
#
# Elastic Constant Matrix: (Units=GPa)
#
#
# Indices 1 2 3 4 5 6 
#
# 1 118.5946 57.3982 33.4836 0.0000 5.6496 0.0000
# 2 57.3982 98.6067 12.4870 0.0000 -0.1087 0.0000
# 3 33.4836 12.4870 88.5071 0.0000 -7.0861 0.0000
# 4 0.0000 0.0000 0.0000 18.3630 0.0000 -7.6315
# 5 5.6496 -0.1087 -7.0861 0.0000 10.4567 0.0000
# 6 0.0000 0.0000 0.0000 -7.6315 0.0000 19.3737
#
#
#
# Elastic Compliance Matrix: (Units=1/GPa)
#
#
# Indices 1 2 3 4 5 6 
#
# 1 0.014075 -0.007553 -0.005154 0.000000 -0.011176 0.000000
# 2 -0.007553 0.014387 0.001233 0.000000 0.005066 0.000000
# 3 -0.005154 0.001233 0.014061 0.000000 0.012326 0.000000
# 4 0.000000 0.000000 0.000000 0.065117 0.000000 0.025650
# 5 -0.011176 0.005066 0.012326 0.000000 0.110076 0.000000
# 6 0.000000 0.000000 0.000000 0.025650 0.000000 0.061720
#
#
# Mechanical properties :
#
#
# Convention : Reuss Voigt Hill
#
# Bulk Modulus (GPa) = 51.08235 56.93843 54.01039
# Shear Modulus (GPa) = 16.18596 23.12798 19.65697
#
# Velocity S-wave (km/s) = 2.84916 3.40577 3.13982
# Velocity P-wave (km/s) = 6.03678 6.63490 6.34290
#
# Compressibility (1/GPa) = 0.01957623
#
# Stress axis : x y z
#
# Youngs Moduli (GPa) = 71.04813 69.50700 71.11744
#
# Poissons Ratio (x) = 0.52496 0.36654
# Poissons Ratio (y) = 0.53660 -0.08769
# Poissons Ratio (z) = 0.36618 -0.08570
#
# Static dielectric constant tensor:
#      x y z
#    x 3.568060 0.000000 -0.068440 
#    y 0.000000 3.612300 0.000000 
#    z -0.068440 0.000000 3.729190 
# 
# 
# High freq. dielectric constant tensor:
#      x y z
#    x 1.767870 0.000000 -0.009980 
#    y 0.000000 1.779640 0.000000 
#    z -0.009980 0.000000 1.796240 
# 
# From -- ./inp_files/234744.got.cif
#   From: 2010.06.25/outbox.cif.g09.slc.cpg/sg12_118_cif.got.tgz:234744.got - 2010.06.28 00:19:55.
