data_PCOD8110553
_publ_section_title
;
Structure prediction by ZEFSAII (Michael W. Deem and Ramdas Pophale) SiO2 
 PCOD8110553
Probable space group: C 2/M
;
_chemical_formula_sum "Si O2"
_cell_formula_units_Z 32
_cell_length_a 14.434640
_cell_length_b 22.225478
_cell_length_c 9.945458
_cell_angle_alpha 90.000000
_cell_angle_beta 153.492748
_cell_angle_gamma 90.000000
_cell_volume 1424.031270
_symmetry_space_group_name_H-M "C 2/M"
_symmetry_group_IT_number 12
_symmetry_cell_setting 'monoclinic'
loop_
_space_group_symop_operation_xyz
x,y,z
-x,y,-z
-x,-y,-z
x,-y,z
1/2+x,1/2+y,z
1/2-x,1/2+y,-z
1/2-x,1/2-y,-z
1/2+x,1/2-y,z
loop_
_atom_site_type_symbol
_atom_site_label
_atom_site_fract_x
_atom_site_fract_y
_atom_site_fract_z
Si Si1 0.728875 0.803847 0.758289
Si Si2 0.478980 0.934783 0.814992
Si Si3 0.658578 0.347091 0.375881
Si Si4 0.729294 0.668975 0.767548
O O1 0.500000 0.828160 0.500000
O O2 0.759403 0.803635 0.636599
O O3 0.762001 0.736945 0.863326
O O4 0.907225 0.846069 0.056661
O O5 0.245499 0.915213 0.465463
O O6 0.531592 0.000000 0.815526
O O7 0.500000 0.944053 0.000000
O O8 0.627444 0.878795 0.966580
O O9 0.767375 0.327317 0.656361
O O10 0.500000 0.645744 0.500000
#
# Coordination Sequence:
#
# PCOD8110553 Si02
#       4
#     8   8   8   8
#     4  10  23  36  57  89 120 153 188 232 287 351
#     4   9  20  38  59  83 113 151 196 242 283 331
#     4  10  22  37  60  84 119 155 190 232 292 339
#     4  10  22  34  59  92 118 149 188 239 293 344
#
# _framework density 22.471416000000001
#
# number of rings (size 3 to 8) (size 9 to 14) (size 15 to 20)
#    0.000    2.250    0.000    0.750   17.500    2.500 
#    0.000    2.500    0.000    1.500    0.000    0.000 
#    0.000    0.000    0.000    0.000    0.000    0.000 
#
# Total GULP energy -198211.918770 kJ/mol
# GULP energy per Si atom -12388.244923 kJ/mol
# Density = 2.242027 g / cm^3
# Si number density = 22.471416 Si / 1000 Ang^3
#
#
#
# Elastic Constant Matrix: (Units=GPa)
#
#
# Indices 1 2 3 4 5 6 
#
# 1 46.9242 16.1643 26.8018 0.0000 14.8033 0.0000
# 2 16.1643 146.9151 90.4664 0.0000 19.3641 0.0000
# 3 26.8018 90.4664 160.5050 0.0000 32.8750 0.0000
# 4 0.0000 0.0000 0.0000 18.0439 0.0000 11.1550
# 5 14.8033 19.3641 32.8750 0.0000 36.8880 0.0000
# 6 0.0000 0.0000 0.0000 11.1550 0.0000 -2.5605
#
#
#
# Elastic Compliance Matrix: (Units=1/GPa)
#
#
# Indices 1 2 3 4 5 6 
#
# 1 0.025275 -0.000211 -0.002504 0.000000 -0.007801 0.000000
# 2 -0.000211 0.010429 -0.005797 0.000000 -0.000223 0.000000
# 3 -0.002504 -0.005797 0.011116 0.000000 -0.005859 0.000000
# 4 0.000000 0.000000 0.000000 0.015006 0.000000 0.065373
# 5 -0.007801 -0.000223 -0.005859 0.000000 0.035578 0.000000
# 6 0.000000 0.000000 0.000000 0.065373 0.000000 -0.105746
#
#
# Mechanical properties :
#
#
# Convention : Reuss Voigt Hill
#
# Bulk Modulus (GPa) = 33.56185 69.02328 51.29257
# Shear Modulus (GPa) = 268.61797 25.20173 146.90985
#
# Velocity S-wave (km/s) = 10.94519 3.35252 8.09433
# Velocity P-wave (km/s) = 13.21731 6.76524 10.49919
#
# Compressibility (1/GPa) = 0.02979573
#
# Stress axis : x y z
#
# Youngs Moduli (GPa) = 39.56538 95.88568 89.96075
#
# Poissons Ratio (x) = 0.02022 0.22525
# Poissons Ratio (y) = 0.00834 0.52152
# Poissons Ratio (z) = 0.09907 0.55587
#
# Static dielectric constant tensor:
#      x y z
#    x 3.926320 0.000000 0.157040 
#    y 0.000000 4.187350 0.000000 
#    z 0.157040 0.000000 4.144670 
# 
# 
# High freq. dielectric constant tensor:
#      x y z
#    x 1.867570 0.000000 0.011500 
#    y 0.000000 1.855090 0.000000 
#    z 0.011500 0.000000 1.890210 
# 
# From -- ./inp_files/121573.got.cif
#   From: 2010.06.25/outbox.cif.g09.slc.cpg/sg12_61_cif.got.tgz:121573.got - 2010.06.28 00:19:55.
