data_PCOD8110835
_publ_section_title
;
Structure prediction by ZEFSAII (Michael W. Deem and Ramdas Pophale) SiO2 
 PCOD8110835
Probable space group: C 2/M
;
_chemical_formula_sum "Si O2"
_cell_formula_units_Z 64
_cell_length_a 9.160208
_cell_length_b 13.250582
_cell_length_c 30.138461
_cell_angle_alpha 90.000000
_cell_angle_beta 56.804204
_cell_angle_gamma 90.000000
_cell_volume 3061.155290
_symmetry_space_group_name_H-M "C 2/M"
_symmetry_group_IT_number 12
_symmetry_cell_setting 'monoclinic'
loop_
_space_group_symop_operation_xyz
x,y,z
-x,y,-z
-x,-y,-z
x,-y,z
1/2+x,1/2+y,z
1/2-x,1/2+y,-z
1/2-x,1/2-y,-z
1/2+x,1/2-y,z
loop_
_atom_site_type_symbol
_atom_site_label
_atom_site_fract_x
_atom_site_fract_y
_atom_site_fract_z
Si Si1 0.889085 0.382753 0.562679
Si Si2 0.813179 0.722823 0.037549
Si Si3 0.482682 0.380634 0.757854
Si Si4 0.255184 0.116579 0.884221
Si Si5 0.021904 0.883854 0.141941
Si Si6 0.607590 0.882084 0.787323
Si Si7 0.832005 0.706393 0.313232
Si Si8 0.952118 0.744568 0.384610
O O1 0.848668 0.500000 0.581930
O O2 0.710568 0.321216 0.582442
O O3 0.000000 0.378131 0.500000
O O4 0.008690 0.330001 0.580734
O O5 0.838930 0.827116 0.059950
O O6 0.687837 0.653102 0.086882
O O7 0.750000 0.750000 0.000000
O O8 0.000000 0.668557 0.000000
O O9 0.510554 0.500000 0.747873
O O10 0.503219 0.337955 0.804594
O O11 0.292304 0.342949 0.773981
O O12 0.626790 0.325435 0.703238
O O13 0.450727 0.161736 0.844147
O O14 0.154352 0.136354 0.855241
O O15 0.254606 0.000000 0.897374
O O16 0.060816 0.000000 0.143621
O O17 0.578814 0.858764 0.740152
O O18 0.592881 0.000000 0.795616
O O19 0.912977 0.676350 0.347443
O O20 0.624479 0.687948 0.347910
#
# Coordination Sequence:
#
# PCOD8110835 Si02
#       8
#     8   8   8   8   8   8   8   8
#     4  10  22  44  71  95 130 181 228 278 334 382
#     4  12  25  40  61  86 109 144 188 242 306 365
#     4  10  22  39  61  85 117 162 205 244 297 371
#     4  10  23  42  61  82 114 153 193 239 297 366
#     4  10  23  42  61  85 114 150 197 247 297 364
#     4  10  22  38  58  84 117 160 199 238 295 368
#     4  11  21  37  59  90 130 168 199 254 317 367
#     4  10  23  38  62 100 134 168 220 273 325 386
#
# _framework density 20.907139000000001
#
# number of rings (size 3 to 8) (size 9 to 14) (size 15 to 20)
#    0.000    1.625    2.500    1.125    3.500    6.000 
#    0.000    1.875    0.000    6.750    0.000    0.000 
#    0.000    0.000    0.000    0.000    0.000    0.000 
#
# Total GULP energy -396702.953965 kJ/mol
# GULP energy per Si atom -12396.967311 kJ/mol
# Density = 2.085955 g / cm^3
# Si number density = 20.907139 Si / 1000 Ang^3
#
#
#
# Elastic Constant Matrix: (Units=GPa)
#
#
# Indices 1 2 3 4 5 6 
#
# 1 104.8002 38.9227 36.6200 0.0000 2.9391 0.0000
# 2 38.9227 57.2606 26.5241 0.0000 1.4146 0.0000
# 3 36.6200 26.5241 95.7389 0.0000 6.5118 0.0000
# 4 0.0000 0.0000 0.0000 31.3684 0.0000 1.1394
# 5 2.9391 1.4146 6.5118 0.0000 42.9386 0.0000
# 6 0.0000 0.0000 0.0000 1.1394 0.0000 27.4943
#
#
#
# Elastic Compliance Matrix: (Units=1/GPa)
#
#
# Indices 1 2 3 4 5 6 
#
# 1 0.013479 -0.007773 -0.002988 0.000000 -0.000213 0.000000
# 2 -0.007773 0.024519 -0.003841 0.000000 0.000307 0.000000
# 3 -0.002988 -0.003841 0.012761 0.000000 -0.001604 0.000000
# 4 0.000000 0.000000 0.000000 0.031927 0.000000 -0.001323
# 5 -0.000213 0.000307 -0.001604 0.000000 0.023537 0.000000
# 6 0.000000 0.000000 0.000000 -0.001323 0.000000 0.036426
#
#
# Mechanical properties :
#
#
# Convention : Reuss Voigt Hill
#
# Bulk Modulus (GPa) = 46.38989 51.32594 48.85792
# Shear Modulus (GPa) = 27.92719 30.74245 29.33482
#
# Velocity S-wave (km/s) = 3.65879 3.83878 3.74986
# Velocity P-wave (km/s) = 6.33133 6.65215 6.49372
#
# Compressibility (1/GPa) = 0.02155642
#
# Stress axis : x y z
#
# Youngs Moduli (GPa) = 74.19066 40.78446 78.36376
#
# Poissons Ratio (x) = 0.31702 0.23412
# Poissons Ratio (y) = 0.57668 0.30097
# Poissons Ratio (z) = 0.22165 0.15664
#
# Static dielectric constant tensor:
#      x y z
#    x 4.037850 0.000000 0.000490 
#    y 0.000000 3.686800 0.000000 
#    z 0.000490 0.000000 3.781780 
# 
# 
# High freq. dielectric constant tensor:
#      x y z
#    x 1.829970 0.000000 0.002030 
#    y 0.000000 1.810250 0.000000 
#    z 0.002030 0.000000 1.828800 
# 
# From -- ./inp_files/332950.got.cif
#   From: 2010.06.25/outbox.cif.g09.slc.cpg/sg12_167_cif.got.tgz:332950.got - 2010.06.28 00:19:55.
