data_PCOD8110750
_publ_section_title
;
Structure prediction by ZEFSAII (Michael W. Deem and Ramdas Pophale) SiO2 
 PCOD8110750
Probable space group: C 2/M
;
_chemical_formula_sum "Si O2"
_cell_formula_units_Z 40
_cell_length_a 5.054434
_cell_length_b 22.117318
_cell_length_c 16.226857
_cell_angle_alpha 90.000000
_cell_angle_beta 86.080861
_cell_angle_gamma 90.000000
_cell_volume 1809.766795
_symmetry_space_group_name_H-M "C 2/M"
_symmetry_group_IT_number 12
_symmetry_cell_setting 'monoclinic'
loop_
_space_group_symop_operation_xyz
x,y,z
-x,y,-z
-x,-y,-z
x,-y,z
1/2+x,1/2+y,z
1/2-x,1/2+y,-z
1/2-x,1/2-y,-z
1/2+x,1/2-y,z
loop_
_atom_site_type_symbol
_atom_site_label
_atom_site_fract_x
_atom_site_fract_y
_atom_site_fract_z
Si Si1 0.663052 0.068068 0.265236
Si Si2 0.350305 0.640954 0.780802
Si Si3 0.258272 0.317893 0.962218
Si Si4 0.779057 0.095728 0.448508
Si Si5 0.480949 0.712869 0.624251
O O1 0.408206 0.110057 0.253977
O O2 0.736920 0.065859 0.360492
O O3 0.918874 0.091458 0.208403
O O4 0.598569 0.000000 0.237548
O O5 0.274489 0.678446 0.863723
O O6 0.480982 0.690349 0.718246
O O7 0.500000 0.352878 0.000000
O O8 0.250000 0.250000 0.000000
O O9 0.000000 0.352993 0.000000
O O10 0.500000 0.097848 0.500000
O O11 0.909747 0.161531 0.437208
O O12 0.000000 0.060001 0.500000
O O13 0.178869 0.730389 0.608607
#
# Coordination Sequence:
#
# PCOD8110750 Si02
#       5
#     8   8   8   8   8
#     4  11  24  44  68  92 119 172 222 264 325 367
#     4  11  23  41  65  93 135 162 211 266 304 381
#     4  10  22  37  62  98 131 167 194 251 315 375
#     4  11  23  40  60  90 129 162 217 277 318 369
#     4  11  23  36  59  88 124 177 206 244 312 392
#
# _framework density 22.102293
#
# number of rings (size 3 to 8) (size 9 to 14) (size 15 to 20)
#    0.000    1.200    0.000    7.800    5.600    3.200 
#    0.000    0.000    0.000   12.000    0.000    0.000 
#    0.000    0.000    0.000    0.000    0.000    0.000 
#
# Total GULP energy -247841.249428 kJ/mol
# GULP energy per Si atom -12392.062471 kJ/mol
# Density = 2.205199 g / cm^3
# Si number density = 22.102293 Si / 1000 Ang^3
#
#
#
# Elastic Constant Matrix: (Units=GPa)
#
#
# Indices 1 2 3 4 5 6 
#
# 1 187.3900 24.1722 48.2571 0.0000 -9.9282 0.0000
# 2 24.1722 76.7895 26.4969 0.0000 -3.6782 0.0000
# 3 48.2571 26.4969 127.7387 0.0000 -12.9235 0.0000
# 4 0.0000 0.0000 0.0000 6.0988 0.0000 -0.3833
# 5 -9.9282 -3.6782 -12.9235 0.0000 41.9473 0.0000
# 6 0.0000 0.0000 0.0000 -0.3833 0.0000 12.6482
#
#
#
# Elastic Compliance Matrix: (Units=1/GPa)
#
#
# Indices 1 2 3 4 5 6 
#
# 1 0.006033 -0.001188 -0.001960 0.000000 0.000720 0.000000
# 2 -0.001188 0.014265 -0.002490 0.000000 0.000203 0.000000
# 3 -0.001960 -0.002490 0.009306 0.000000 0.002185 0.000000
# 4 0.000000 0.000000 0.000000 0.164280 0.000000 0.004978
# 5 0.000720 0.000203 0.002185 0.000000 0.024701 0.000000
# 6 0.000000 0.000000 0.000000 0.004978 0.000000 0.079214
#
#
# Mechanical properties :
#
#
# Convention : Reuss Voigt Hill
#
# Bulk Modulus (GPa) = 54.55818 65.53007 60.04412
# Shear Modulus (GPa) = 15.86378 31.67167 23.76772
#
# Velocity S-wave (km/s) = 2.68198 3.78955 3.28281
# Velocity P-wave (km/s) = 5.85907 6.99003 6.44939
#
# Compressibility (1/GPa) = 0.01832906
#
# Stress axis : x y z
#
# Youngs Moduli (GPa) = 165.76771 70.09941 107.45412
#
# Poissons Ratio (x) = 0.08330 0.21057
# Poissons Ratio (y) = 0.19698 0.26753
# Poissons Ratio (z) = 0.32485 0.17453
#
# Static dielectric constant tensor:
#      x y z
#    x 3.861960 0.000000 -0.089570 
#    y 0.000000 3.714590 0.000000 
#    z -0.089570 0.000000 3.945690 
# 
# 
# High freq. dielectric constant tensor:
#      x y z
#    x 1.904550 0.000000 -0.006350 
#    y 0.000000 1.836080 0.000000 
#    z -0.006350 0.000000 1.865820 
# 
# From -- ./inp_files/191468.got.cif
#   From: 2010.06.25/outbox.cif.g09.slc.cpg/sg12_96_cif.got.tgz:191468.got - 2010.06.28 00:19:55.
