data_PCOD8110861
_publ_section_title
;
Structure prediction by ZEFSAII (Michael W. Deem and Ramdas Pophale) SiO2 
 PCOD8110861
Probable space group: C 2/M
;
_chemical_formula_sum "Si O2"
_cell_formula_units_Z 60
_cell_length_a 23.660509
_cell_length_b 16.670340
_cell_length_c 12.416934
_cell_angle_alpha 90.000000
_cell_angle_beta 38.483033
_cell_angle_gamma 90.000000
_cell_volume 3047.689715
_symmetry_space_group_name_H-M "C 2/M"
_symmetry_group_IT_number 12
_symmetry_cell_setting 'monoclinic'
loop_
_space_group_symop_operation_xyz
x,y,z
-x,y,-z
-x,-y,-z
x,-y,z
1/2+x,1/2+y,z
1/2-x,1/2+y,-z
1/2-x,1/2-y,-z
1/2+x,1/2-y,z
loop_
_atom_site_type_symbol
_atom_site_label
_atom_site_fract_x
_atom_site_fract_y
_atom_site_fract_z
Si Si1 0.692501 0.411986 0.737796
Si Si2 0.978286 0.685530 0.419499
Si Si3 0.512204 0.217955 0.828269
Si Si4 0.500000 0.357509 0.000000
Si Si5 0.815171 0.655765 0.136843
Si Si6 0.671838 0.094743 0.650690
Si Si7 0.652792 0.910078 0.134830
Si Si8 0.781428 0.686471 0.774074
O O1 0.729568 0.500000 0.708593
O O2 0.746989 0.380365 0.551606
O O3 0.702571 0.356943 0.827025
O O4 0.584665 0.415940 0.886393
O O5 0.992564 0.738597 0.292033
O O6 0.874137 0.658392 0.577426
O O7 0.000000 0.733078 0.500000
O O8 0.045878 0.609257 0.311465
O O9 0.583103 0.147022 0.751698
O O10 0.534265 0.301454 0.851015
O O11 0.412678 0.193922 0.017114
O O12 0.788160 0.613928 0.289644
O O13 0.739258 0.719242 0.208330
O O14 0.823160 0.592700 0.027443
O O15 0.646832 0.000000 0.681637
O O16 0.713941 0.844867 0.109266
O O17 0.671581 0.000000 0.148696
#
# Coordination Sequence:
#
# PCOD8110861 Si02
#       8
#     8   8   8   4   8   8   8   8
#     4  11  24  39  60  85 116 156 196 244 292 344
#     4   9  21  35  56  86 114 150 193 237 293 344
#     4  11  20  36  58  86 115 156 191 238 297 339
#     4  12  23  40  59  84 120 152 198 240 289 352
#     4  11  22  37  56  87 120 158 192 237 291 350
#     4  11  23  38  59  88 119 154 196 239 299 357
#     4  10  22  38  59  87 122 152 190 246 302 352
#     4  11  20  38  60  84 115 153 201 241 288 349
#
# _framework density 19.687042999999999
#
# number of rings (size 3 to 8) (size 9 to 14) (size 15 to 20)
#    0.000    1.333    4.000    1.400    1.867    7.200 
#    0.000    0.000    0.000    0.000    0.000    0.000 
#    0.000   11.467    0.000    0.000    0.000    0.000 
#
# Total GULP energy -371737.490599 kJ/mol
# GULP energy per Si atom -12391.249687 kJ/mol
# Density = 1.964223 g / cm^3
# Si number density = 19.687043 Si / 1000 Ang^3
#
#
#
# Elastic Constant Matrix: (Units=GPa)
#
#
# Indices 1 2 3 4 5 6 
#
# 1 89.1189 23.9101 41.2039 0.0000 7.8147 0.0000
# 2 23.9101 74.8634 17.6048 0.0000 -0.7507 0.0000
# 3 41.2039 17.6048 77.2612 0.0000 3.9847 0.0000
# 4 0.0000 0.0000 0.0000 17.3317 0.0000 -1.7399
# 5 7.8147 -0.7507 3.9847 0.0000 40.2772 0.0000
# 6 0.0000 0.0000 0.0000 -1.7399 0.0000 27.6169
#
#
#
# Elastic Compliance Matrix: (Units=1/GPa)
#
#
# Indices 1 2 3 4 5 6 
#
# 1 0.015808 -0.003296 -0.007557 0.000000 -0.002381 0.000000
# 2 -0.003296 0.014815 -0.001674 0.000000 0.001081 0.000000
# 3 -0.007557 -0.001674 0.017369 0.000000 -0.000283 0.000000
# 4 0.000000 0.000000 0.000000 0.058065 0.000000 0.003658
# 5 -0.002381 0.001081 -0.000283 0.000000 0.025338 0.000000
# 6 0.000000 0.000000 0.000000 0.003658 0.000000 0.036440
#
#
# Mechanical properties :
#
#
# Convention : Reuss Voigt Hill
#
# Bulk Modulus (GPa) = 43.59324 45.18679 44.39001
# Shear Modulus (GPa) = 24.93349 27.61347 26.27348
#
# Velocity S-wave (km/s) = 3.56264 3.74922 3.65712
# Velocity P-wave (km/s) = 6.25415 6.46101 6.35842
#
# Compressibility (1/GPa) = 0.02293934
#
# Stress axis : x y z
#
# Youngs Moduli (GPa) = 63.26018 67.50057 57.57333
#
# Poissons Ratio (x) = 0.22245 0.43506
# Poissons Ratio (y) = 0.20848 0.09637
# Poissons Ratio (z) = 0.47803 0.11299
#
# Static dielectric constant tensor:
#      x y z
#    x 3.783420 0.000000 0.153770 
#    y 0.000000 3.233660 0.000000 
#    z 0.153770 0.000000 3.666440 
# 
# 
# High freq. dielectric constant tensor:
#      x y z
#    x 1.779140 0.000000 0.012150 
#    y 0.000000 1.738500 0.000000 
#    z 0.012150 0.000000 1.769740 
# 
# From -- ./inp_files/177348.got.cif
#   From: 2010.06.25/outbox.cif.g09.slc.cpg/sg12_89_cif.got.tgz:177348.got - 2010.06.28 00:19:55.
