data_PCOD8110622
_publ_section_title
;
Structure prediction by ZEFSAII (Michael W. Deem and Ramdas Pophale) SiO2 
 PCOD8110622
Probable space group: C 2/M
;
_chemical_formula_sum "Si O2"
_cell_formula_units_Z 56
_cell_length_a 14.649763
_cell_length_b 24.697226
_cell_length_c 12.432129
_cell_angle_alpha 90.000000
_cell_angle_beta 39.763344
_cell_angle_gamma 90.000000
_cell_volume 2877.033975
_symmetry_space_group_name_H-M "C 2/M"
_symmetry_group_IT_number 12
_symmetry_cell_setting 'monoclinic'
loop_
_space_group_symop_operation_xyz
x,y,z
-x,y,-z
-x,-y,-z
x,-y,z
1/2+x,1/2+y,z
1/2-x,1/2+y,-z
1/2-x,1/2-y,-z
1/2+x,1/2-y,z
loop_
_atom_site_type_symbol
_atom_site_label
_atom_site_fract_x
_atom_site_fract_y
_atom_site_fract_z
Si Si1 0.874025 0.267931 0.183590
Si Si2 0.840910 0.388712 0.145528
Si Si3 0.133742 0.702781 0.312917
Si Si4 0.613139 0.361496 0.994231
Si Si5 0.363749 0.563093 0.842247
Si Si6 0.986816 0.778945 0.279442
Si Si7 0.596154 0.376600 0.513644
O O1 0.856330 0.324387 0.138921
O O2 0.727990 0.235491 0.312339
O O3 0.907316 0.267249 0.280788
O O4 0.000000 0.237271 0.000000
O O5 0.761183 0.405292 0.108641
O O6 0.745838 0.403250 0.337449
O O7 0.000000 0.415298 0.000000
O O8 0.227008 0.652261 0.189266
O O9 0.000000 0.679402 0.500000
O O10 0.093546 0.745348 0.256788
O O11 0.500000 0.368198 0.000000
O O12 0.631256 0.419078 0.038063
O O13 0.572409 0.316980 0.119900
O O14 0.332876 0.500000 0.860794
O O15 0.518111 0.576854 0.651907
O O16 0.882112 0.819978 0.440614
O O17 0.500000 0.359186 0.500000
#
# Coordination Sequence:
#
# PCOD8110622 Si02
#       7
#     8   8   8   8   8   8   8
#     4  11  21  36  53  86 123 168 196 221 275 338
#     4  10  22  36  57  91 126 151 186 233 293 351
#     4  12  23  34  54  87 122 162 197 230 282 338
#     4  11  22  42  59  84 116 148 197 251 285 342
#     4  10  23  43  67  84 103 150 201 251 305 340
#     4  11  20  35  60  80 123 162 199 225 268 339
#     4   9  19  37  57  86 118 150 196 245 277 336
#
# _framework density 19.464490000000001
#
# number of rings (size 3 to 8) (size 9 to 14) (size 15 to 20)
#    0.000    1.429    2.857    4.286    4.000    5.429 
#    0.000    0.000    0.000    0.429    0.000    0.000 
#    0.000    0.000    0.000    0.000    0.000    0.000 
#
# Total GULP energy -346945.839367 kJ/mol
# GULP energy per Si atom -12390.922835 kJ/mol
# Density = 1.942019 g / cm^3
# Si number density = 19.464490 Si / 1000 Ang^3
#
#
#
# Elastic Constant Matrix: (Units=GPa)
#
#
# Indices 1 2 3 4 5 6 
#
# 1 101.5258 43.5499 61.8205 0.0002 2.5281 -0.0002
# 2 43.5499 88.8193 32.3503 0.0000 5.9646 -0.0001
# 3 61.8205 32.3503 130.9519 0.0000 -15.0495 0.0001
# 4 0.0002 0.0000 0.0000 16.0546 -0.0001 7.1931
# 5 2.5281 5.9646 -15.0495 -0.0001 35.0495 -0.0001
# 6 -0.0002 -0.0001 0.0001 7.1931 -0.0001 4.1062
#
#
#
# Elastic Compliance Matrix: (Units=1/GPa)
#
#
# Indices 1 2 3 4 5 6 
#
# 1 0.016330 -0.005333 -0.006756 -0.000003 -0.003171 0.000006
# 2 -0.005333 0.014560 -0.001388 0.000000 -0.002689 -0.000001
# 3 -0.006756 -0.001388 0.011836 0.000002 0.005806 -0.000003
# 4 -0.000003 0.000000 0.000002 0.289512 0.000000 -0.507152
# 5 -0.003171 -0.002689 0.005806 0.000000 0.031710 0.000000
# 6 0.000006 -0.000001 -0.000003 -0.507152 0.000000 1.131936
#
#
# Mechanical properties :
#
#
# Convention : Reuss Voigt Hill
#
# Bulk Modulus (GPa) = 63.40752 66.30426 64.85589
# Shear Modulus (GPa) = 3.27204 23.28047 13.27626
#
# Velocity S-wave (km/s) = 1.29795 3.46215 2.61449
# Velocity P-wave (km/s) = 5.90703 7.07955 6.51970
#
# Compressibility (1/GPa) = 0.01577100
#
# Stress axis : x y z
#
# Youngs Moduli (GPa) = 61.23537 68.68100 84.48755
#
# Poissons Ratio (x) = 0.36630 0.57082
# Poissons Ratio (y) = 0.32659 0.11728
# Poissons Ratio (z) = 0.41372 0.09534
#
# Static dielectric constant tensor:
#      x y z
#    x 3.832800 0.000000 -0.075690 
#    y 0.000000 3.221690 0.000000 
#    z -0.075690 0.000000 4.060850 
# 
# 
# High freq. dielectric constant tensor:
#      x y z
#    x 1.760130 0.000000 0.001200 
#    y 0.000000 1.714630 0.000000 
#    z 0.001200 0.000000 1.770780 
# 
# From -- ./inp_files/149434.got.cif
#   From: 2010.06.25/outbox.cif.g09.slc.cpg/sg12_75_cif.got.tgz:149434.got - 2010.06.28 00:19:55.
