data_PCOD8110109
_publ_section_title
;
Structure prediction by ZEFSAII (Michael W. Deem and Ramdas Pophale) SiO2 
 PCOD8110109
Probable space group: C 2/M
;
_chemical_formula_sum "Si O2"
_cell_formula_units_Z 48
_cell_length_a 29.311955
_cell_length_b 14.379474
_cell_length_c 14.665807
_cell_angle_alpha 90.000000
_cell_angle_beta 159.749346
_cell_angle_gamma 90.000000
_cell_volume 2139.588180
_symmetry_space_group_name_H-M "C 2/M"
_symmetry_group_IT_number 12
_symmetry_cell_setting 'monoclinic'
loop_
_space_group_symop_operation_xyz
x,y,z
-x,y,-z
-x,-y,-z
x,-y,z
1/2+x,1/2+y,z
1/2-x,1/2+y,-z
1/2-x,1/2-y,-z
1/2+x,1/2-y,z
loop_
_atom_site_type_symbol
_atom_site_label
_atom_site_fract_x
_atom_site_fract_y
_atom_site_fract_z
Si Si1 0.122635 0.110154 0.165589
Si Si2 0.296286 0.696136 0.862178
Si Si3 0.973315 0.601922 0.618765
Si Si4 0.298889 0.897958 0.824121
Si Si5 0.103925 0.763532 0.765225
Si Si6 0.856942 0.605534 0.727527
O O1 0.111905 0.169333 0.051947
O O2 0.254874 0.148480 0.463474
O O3 0.126698 0.000000 0.152508
O O4 0.000000 0.134407 0.000000
O O5 0.174750 0.627816 0.635594
O O6 0.237265 0.802899 0.750461
O O7 0.384851 0.679634 0.118904
O O8 0.974355 0.500000 0.577971
O O9 0.040686 0.663671 0.667700
O O10 0.049380 0.605154 0.858189
O O11 0.287408 0.890721 0.694754
O O12 0.237561 0.000000 0.739860
O O13 0.000000 0.812910 0.500000
O O14 0.250000 0.750000 0.000000
O O15 0.881787 0.500000 0.743017
O O16 0.000000 0.657250 0.000000
#
# Coordination Sequence:
#
# PCOD8110109 Si02
#       6
#     8   8   8   8   8   8
#     4  10  22  39  58  90 137 182 222 276 343 401
#     4  11  22  38  68  96 131 177 233 278 337 404
#     4  10  21  40  69 100 131 178 232 273 330 412
#     4   9  20  36  57  91 129 168 218 275 331 388
#     4  11  23  45  69 101 136 176 219 285 349 408
#     4   9  17  32  55  81 118 165 219 272 314 379
#
# _framework density 22.434222999999999
#
# number of rings (size 3 to 8) (size 9 to 14) (size 15 to 20)
#    0.000    2.000    1.667    1.500    0.000    7.000 
#    0.000    0.000    0.000    8.500    0.000    0.000 
#    0.000    0.000    0.000    0.000    0.000    0.000 
#
# Total GULP energy -297352.779931 kJ/mol
# GULP energy per Si atom -12389.699164 kJ/mol
# Density = 2.238316 g / cm^3
# Si number density = 22.434223 Si / 1000 Ang^3
#
#
#
# Elastic Constant Matrix: (Units=GPa)
#
#
# Indices 1 2 3 4 5 6 
#
# 1 123.0226 20.4377 57.7634 0.0000 -16.5987 0.0000
# 2 20.4377 66.1854 8.8818 0.0000 -5.7611 0.0000
# 3 57.7634 8.8818 126.2317 0.0000 -15.8201 0.0000
# 4 0.0000 0.0000 0.0000 22.0819 0.0000 1.9612
# 5 -16.5987 -5.7611 -15.8201 0.0000 45.9871 0.0000
# 6 0.0000 0.0000 0.0000 1.9612 0.0000 26.9705
#
#
#
# Elastic Compliance Matrix: (Units=1/GPa)
#
#
# Indices 1 2 3 4 5 6 
#
# 1 0.010994 -0.002599 -0.004589 0.000000 0.002064 0.000000
# 2 -0.002599 0.015983 0.000207 0.000000 0.001135 0.000000
# 3 -0.004589 0.000207 0.010245 0.000000 0.001894 0.000000
# 4 0.000000 0.000000 0.000000 0.045580 0.000000 -0.003314
# 5 0.002064 0.001135 0.001894 0.000000 0.023284 0.000000
# 6 0.000000 0.000000 0.000000 -0.003314 0.000000 0.037319
#
#
# Mechanical properties :
#
#
# Convention : Reuss Voigt Hill
#
# Bulk Modulus (GPa) = 42.99503 54.40063 48.69783
# Shear Modulus (GPa) = 30.28116 34.23168 32.25642
#
# Velocity S-wave (km/s) = 3.67791 3.91048 3.79598
# Velocity P-wave (km/s) = 6.10267 6.68511 6.40052
#
# Compressibility (1/GPa) = 0.02325850
#
# Stress axis : x y z
#
# Youngs Moduli (GPa) = 90.96190 62.56750 97.61160
#
# Poissons Ratio (x) = 0.16263 0.44795
# Poissons Ratio (y) = 0.23644 -0.02022
# Poissons Ratio (z) = 0.41744 -0.01296
#
# Static dielectric constant tensor:
#      x y z
#    x 3.916870 0.000000 -0.294490 
#    y 0.000000 4.129470 0.000000 
#    z -0.294490 0.000000 4.218390 
# 
# 
# High freq. dielectric constant tensor:
#      x y z
#    x 1.874310 0.000000 -0.022240 
#    y 0.000000 1.869630 0.000000 
#    z -0.022240 0.000000 1.883260 
# 
# From -- ./inp_files/251508.got.cif
#   From: 2010.06.25/outbox.cif.g09.slc.cpg/sg12_126_cif.got.tgz:251508.got - 2010.06.28 00:19:55.
