data_PCOD8110921
_publ_section_title
;
Structure prediction by ZEFSAII (Michael W. Deem and Ramdas Pophale) SiO2 
 PCOD8110921
Probable space group: C 2/M
;
_chemical_formula_sum "Si O2"
_cell_formula_units_Z 40
_cell_length_a 12.270227
_cell_length_b 18.564804
_cell_length_c 18.051966
_cell_angle_alpha 90.000000
_cell_angle_beta 150.712345
_cell_angle_gamma 90.000000
_cell_volume 2011.634508
_symmetry_space_group_name_H-M "C 2/M"
_symmetry_group_IT_number 12
_symmetry_cell_setting 'monoclinic'
loop_
_space_group_symop_operation_xyz
x,y,z
-x,y,-z
-x,-y,-z
x,-y,z
1/2+x,1/2+y,z
1/2-x,1/2+y,-z
1/2-x,1/2-y,-z
1/2+x,1/2-y,z
loop_
_atom_site_type_symbol
_atom_site_label
_atom_site_fract_x
_atom_site_fract_y
_atom_site_fract_z
Si Si1 0.475355 0.327947 0.573400
Si Si2 0.710552 0.827707 0.945634
Si Si3 0.885536 0.416042 0.853464
Si Si4 0.897743 0.079587 0.857792
Si Si5 0.019847 0.324319 0.673505
O O1 0.500000 0.334361 0.500000
O O2 0.635517 0.385327 0.708616
O O3 0.532083 0.246938 0.631033
O O4 0.229647 0.348896 0.455636
O O5 0.509908 0.870494 0.864445
O O6 0.658186 0.812009 0.829687
O O7 0.750000 0.750000 0.000000
O O8 0.935990 0.872664 0.092928
O O9 0.883272 0.500000 0.829778
O O10 0.000000 0.403695 0.000000
O O11 0.648817 0.112368 0.706446
O O12 0.884344 0.000000 0.815044
O O13 0.000000 0.075439 0.000000
#
# Coordination Sequence:
#
# PCOD8110921 Si02
#       5
#     8   8   8   8   8
#     4  11  22  41  62  92 122 160 203 254 306 360
#     4  11  20  36  63  91 120 162 203 250 299 361
#     4  11  24  41  61  91 127 161 203 252 306 366
#     4   9  19  35  56  85 119 152 196 246 297 356
#     4  10  22  38  61  89 120 158 206 252 299 359
#
# _framework density 19.884329000000001
#
# number of rings (size 3 to 8) (size 9 to 14) (size 15 to 20)
#    0.000    1.600    2.000    3.000    0.000    3.600 
#    0.000    0.000    0.000    0.600    0.000    0.000 
#    0.000    0.000    0.000    0.000    0.000    0.000 
#
# Total GULP energy -248017.229423 kJ/mol
# GULP energy per Si atom -12400.861471 kJ/mol
# Density = 1.983907 g / cm^3
# Si number density = 19.884329 Si / 1000 Ang^3
#
#
#
# Elastic Constant Matrix: (Units=GPa)
#
#
# Indices 1 2 3 4 5 6 
#
# 1 54.8488 40.6409 39.5530 -0.0070 19.4433 -0.0018
# 2 40.6409 156.8535 69.4258 -0.0137 26.4759 -0.0031
# 3 39.5530 69.4258 116.6753 -0.0245 25.2665 -0.0043
# 4 -0.0070 -0.0137 -0.0245 27.0589 -0.0119 4.1134
# 5 19.4433 26.4759 25.2665 -0.0119 40.6217 -0.0028
# 6 -0.0018 -0.0031 -0.0043 4.1134 -0.0028 24.8231
#
#
#
# Elastic Compliance Matrix: (Units=1/GPa)
#
#
# Indices 1 2 3 4 5 6 
#
# 1 0.027451 -0.003330 -0.005719 -0.000003 -0.007411 0.000000
# 2 -0.003330 0.009347 -0.003997 -0.000001 -0.002012 0.000000
# 3 -0.005719 -0.003997 0.013557 0.000007 -0.003090 0.000000
# 4 -0.000003 -0.000001 0.000007 0.037911 0.000008 -0.006282
# 5 -0.007411 -0.002012 -0.003090 0.000008 0.031398 0.000001
# 6 0.000000 0.000000 0.000000 -0.006282 0.000001 0.041326
#
#
# Mechanical properties :
#
#
# Convention : Reuss Voigt Hill
#
# Bulk Modulus (GPa) = 41.21692 69.73521 55.47606
# Shear Modulus (GPa) = 25.61846 30.41793 28.01820
#
# Velocity S-wave (km/s) = 3.59329 3.91544 3.75782
# Velocity P-wave (km/s) = 6.16352 7.45570 6.84019
#
# Compressibility (1/GPa) = 0.02426188
#
# Stress axis : x y z
#
# Youngs Moduli (GPa) = 36.42837 106.98584 73.76119
#
# Poissons Ratio (x) = 0.35627 0.42187
# Poissons Ratio (y) = 0.12131 0.29484
# Poissons Ratio (z) = 0.20835 0.42764
#
# Static dielectric constant tensor:
#      x y z
#    x 3.815510 -0.007320 0.303510 
#    y -0.007320 -19.233610 -0.003570 
#    z 0.303510 -0.003570 3.776960 
# 
# 
# High freq. dielectric constant tensor:
#      x y z
#    x 1.774080 0.000000 0.017240 
#    y 0.000000 1.782800 0.000000 
#    z 0.017240 0.000000 1.775720 
# 
# From -- ./inp_files/47159.got.cif
#   From: 2010.06.25/outbox.cif.g09.slc.cpg/sg12_24_cif.got.tgz:47159.got - 2010.06.28 00:19:55.
