data_PCOD8110105
_publ_section_title
;
Structure prediction by ZEFSAII (Michael W. Deem and Ramdas Pophale) SiO2 
 PCOD8110105
Probable space group: C 2/M
;
_chemical_formula_sum "Si O2"
_cell_formula_units_Z 48
_cell_length_a 22.257038
_cell_length_b 14.783550
_cell_length_c 13.223633
_cell_angle_alpha 90.000000
_cell_angle_beta 32.286188
_cell_angle_gamma 90.000000
_cell_volume 2324.122206
_symmetry_space_group_name_H-M "C 2/M"
_symmetry_group_IT_number 12
_symmetry_cell_setting 'monoclinic'
loop_
_space_group_symop_operation_xyz
x,y,z
-x,y,-z
-x,-y,-z
x,-y,z
1/2+x,1/2+y,z
1/2-x,1/2+y,-z
1/2-x,1/2-y,-z
1/2+x,1/2-y,z
loop_
_atom_site_type_symbol
_atom_site_label
_atom_site_fract_x
_atom_site_fract_y
_atom_site_fract_z
Si Si1 0.853115 0.329646 0.558645
Si Si2 0.023993 0.164162 0.715899
Si Si3 0.724843 0.000000 0.063320
Si Si4 0.233126 0.144895 0.537100
Si Si5 0.770826 0.191555 0.072678
Si Si6 0.098611 0.500000 0.772307
Si Si7 0.967493 0.000000 0.658770
Si Si8 0.482889 0.000000 0.338513
O O1 0.921224 0.254709 0.402357
O O2 0.757099 0.374600 0.621827
O O3 0.803672 0.276131 0.726272
O O4 0.937368 0.412173 0.463694
O O5 0.102808 0.123100 0.693466
O O6 0.014849 0.089306 0.643033
O O7 0.899404 0.193140 0.927706
O O8 0.728975 0.088943 0.125449
O O9 0.616718 0.000000 0.147573
O O10 0.833715 0.000000 0.838635
O O11 0.250000 0.250000 0.500000
O O12 0.319469 0.088562 0.341105
O O13 0.750000 0.250000 0.000000
O O14 0.039840 0.500000 0.747851
O O15 0.000000 0.500000 0.000000
O O16 0.000000 0.000000 0.500000
#
# Coordination Sequence:
#
# PCOD8110105 Si02
#       8
#     8   8   4   8   8   4   4   4
#     4  10  22  40  63  88 124 164 206 265 321 381
#     4  10  22  40  61  88 126 162 210 263 314 387
#     4  10  23  39  55  85 116 149 210 247 302 385
#     4   9  20  42  60  95 128 166 211 266 334 388
#     4  11  24  39  60  90 120 164 215 254 318 388
#     4  10  21  40  68  98 128 168 222 275 326 396
#     4  10  23  38  58  86 124 166 203 256 318 377
#     4  10  21  41  63  87 126 162 206 265 325 376
#
# _framework density 20.652958000000002
#
# number of rings (size 3 to 8) (size 9 to 14) (size 15 to 20)
#    0.000    2.000    0.000    2.000    4.667    4.667 
#   21.000    0.000    0.000    6.000    0.000    0.000 
#    0.000    0.000    0.000    0.000    0.000    0.000 
#
# Total GULP energy -297319.111042 kJ/mol
# GULP energy per Si atom -12388.296293 kJ/mol
# Density = 2.060595 g / cm^3
# Si number density = 20.652958 Si / 1000 Ang^3
#
#
#
# Elastic Constant Matrix: (Units=GPa)
#
#
# Indices 1 2 3 4 5 6 
#
# 1 105.3932 22.8387 73.5202 0.0000 -25.8665 0.0000
# 2 22.8387 109.1580 37.3865 0.0000 -7.4508 0.0000
# 3 73.5202 37.3865 109.4253 0.0000 -12.6195 0.0000
# 4 0.0000 0.0000 0.0000 -28.4095 0.0000 -35.9018
# 5 -25.8665 -7.4508 -12.6195 0.0000 48.3579 0.0000
# 6 0.0000 0.0000 0.0000 -35.9018 0.0000 30.1984
#
#
#
# Elastic Compliance Matrix: (Units=1/GPa)
#
#
# Indices 1 2 3 4 5 6 
#
# 1 0.020232 0.000725 -0.012970 0.000000 0.007549 0.000000
# 2 0.000725 0.010424 -0.003937 0.000000 0.000966 0.000000
# 3 -0.012970 -0.003937 0.018897 0.000000 -0.002613 0.000000
# 4 0.000000 0.000000 0.000000 -0.014066 0.000000 -0.016723
# 5 0.007549 0.000966 -0.002613 0.000000 0.024184 0.000000
# 6 0.000000 0.000000 0.000000 -0.016723 0.000000 0.013233
#
#
# Mechanical properties :
#
#
# Convention : Reuss Voigt Hill
#
# Bulk Modulus (GPa) = 58.18239 65.71859 61.95049
# Shear Modulus (GPa) = 45.04641 22.71142 33.87891
#
# Velocity S-wave (km/s) = 4.67530 3.31972 4.05457
# Velocity P-wave (km/s) = 7.57478 6.82522 7.20974
#
# Compressibility (1/GPa) = 0.01718733
#
# Stress axis : x y z
#
# Youngs Moduli (GPa) = 49.42747 95.93498 52.91938
#
# Poissons Ratio (x) = -0.06951 0.68637
# Poissons Ratio (y) = -0.03581 0.20833
# Poissons Ratio (z) = 0.64108 0.37767
#
# Static dielectric constant tensor:
#      x y z
#    x 4.271610 0.000000 -0.427880 
#    y 0.000000 3.811390 0.000000 
#    z -0.427880 0.000000 3.621450 
# 
# 
# High freq. dielectric constant tensor:
#      x y z
#    x 1.809920 0.000000 -0.022300 
#    y 0.000000 1.820340 0.000000 
#    z -0.022300 0.000000 1.798680 
# 
# From -- ./inp_files/240636.got.cif
#   From: 2010.06.25/outbox.cif.g09.slc.cpg/sg12_121_cif.got.tgz:240636.got - 2010.06.28 00:19:55.
