data_PCOD8110168
_publ_section_title
;
Structure prediction by ZEFSAII (Michael W. Deem and Ramdas Pophale) SiO2 
 PCOD8110168
Probable space group: C 2/M
;
_chemical_formula_sum "Si O2"
_cell_formula_units_Z 64
_cell_length_a 12.238482
_cell_length_b 14.560297
_cell_length_c 25.650487
_cell_angle_alpha 90.000000
_cell_angle_beta 39.266365
_cell_angle_gamma 90.000000
_cell_volume 2892.988272
_symmetry_space_group_name_H-M "C 2/M"
_symmetry_group_IT_number 12
_symmetry_cell_setting 'monoclinic'
loop_
_space_group_symop_operation_xyz
x,y,z
-x,y,-z
-x,-y,-z
x,-y,z
1/2+x,1/2+y,z
1/2-x,1/2+y,-z
1/2-x,1/2-y,-z
1/2+x,1/2-y,z
loop_
_atom_site_type_symbol
_atom_site_label
_atom_site_fract_x
_atom_site_fract_y
_atom_site_fract_z
Si Si1 0.061157 0.653010 0.139647
Si Si2 0.585938 0.390169 0.572710
Si Si3 0.150461 0.895897 0.038701
Si Si4 0.193797 0.101694 0.237701
Si Si5 0.044276 0.848397 0.187473
Si Si6 0.571968 0.793037 0.527026
Si Si7 0.671344 0.896378 0.307479
Si Si8 0.775718 0.103750 0.159227
O O1 0.994849 0.748447 0.185542
O O2 0.161854 0.603344 0.149572
O O3 0.892787 0.600665 0.181641
O O4 0.194082 0.664601 0.042499
O O5 0.604764 0.500000 0.550727
O O6 0.421174 0.372711 0.670098
O O7 0.573812 0.319537 0.527839
O O8 0.748097 0.346657 0.542050
O O9 0.154815 0.895569 0.100334
O O10 0.969198 0.853605 0.082864
O O11 0.180986 0.000000 0.007738
O O12 0.154641 0.161657 0.200171
O O13 0.144584 0.000000 0.237142
O O14 0.861182 0.898235 0.264169
O O15 0.500000 0.827277 0.500000
O O16 0.459157 0.828718 0.616409
O O17 0.679450 0.854464 0.245479
O O18 0.596378 0.000000 0.336890
O O19 0.814636 0.000000 0.162319
#
# Coordination Sequence:
#
# PCOD8110168 Si02
#       8
#     8   8   8   8   8   8   8   8
#     4  12  24  37  63  90 127 166 215 262 313 388
#     4  10  24  44  64  95 136 170 208 261 324 384
#     4  10  21  41  63  86 121 163 215 267 318 375
#     4  11  24  43  64  90 128 170 208 252 320 390
#     4  11  24  38  61  92 128 165 206 268 325 374
#     4  11  23  41  70  99 127 166 219 266 313 382
#     4  10  21  41  69  96 125 164 219 271 319 377
#     4   9  20  39  64  90 121 163 212 271 321 371
#
# _framework density 22.122453
#
# number of rings (size 3 to 8) (size 9 to 14) (size 15 to 20)
#    0.000    1.500    0.000    5.625    5.250    3.750 
#    4.500    1.250    0.000    0.000    0.000    0.000 
#    0.000    0.000    0.000    0.000    0.000    0.000 
#
# Total GULP energy -396510.364234 kJ/mol
# GULP energy per Si atom -12390.948882 kJ/mol
# Density = 2.207210 g / cm^3
# Si number density = 22.122453 Si / 1000 Ang^3
#
#
#
# Elastic Constant Matrix: (Units=GPa)
#
#
# Indices 1 2 3 4 5 6 
#
# 1 113.5631 -3.8198 39.2334 -0.0002 -11.4108 0.0001
# 2 -3.8198 82.7526 11.9021 -0.0001 -2.8067 0.0001
# 3 39.2334 11.9021 106.4979 -0.0002 -19.0840 0.0003
# 4 -0.0002 -0.0001 -0.0002 13.3621 0.0000 -2.7426
# 5 -11.4108 -2.8067 -19.0840 0.0000 22.2085 0.0000
# 6 0.0001 0.0001 0.0003 -2.7426 0.0000 28.1649
#
#
#
# Elastic Compliance Matrix: (Units=1/GPa)
#
#
# Indices 1 2 3 4 5 6 
#
# 1 0.010285 0.001057 -0.003471 0.000000 0.002436 0.000000
# 2 0.001057 0.012394 -0.001651 0.000000 0.000691 0.000000
# 3 -0.003471 -0.001651 0.012406 0.000000 0.008669 0.000000
# 4 0.000000 0.000000 0.000000 0.076365 0.000000 0.007436
# 5 0.002436 0.000691 0.008669 0.000000 0.053816 0.000000
# 6 0.000000 0.000000 0.000000 0.007436 0.000000 0.036229
#
#
# Mechanical properties :
#
#
# Convention : Reuss Voigt Hill
#
# Bulk Modulus (GPa) = 37.09755 44.16055 40.62905
# Shear Modulus (GPa) = 22.87181 29.78029 26.32605
#
# Velocity S-wave (km/s) = 3.21888 3.67298 3.45340
# Velocity P-wave (km/s) = 5.53358 6.16384 5.85719
#
# Compressibility (1/GPa) = 0.02695596
#
# Stress axis : x y z
#
# Youngs Moduli (GPa) = 97.22950 80.68546 80.60394
#
# Poissons Ratio (x) = -0.08525 0.27974
# Poissons Ratio (y) = -0.10272 0.13304
# Poissons Ratio (z) = 0.33744 0.13317
#
# Static dielectric constant tensor:
#      x y z
#    x 3.771360 0.000000 0.010820 
#    y 0.000000 4.092820 0.000000 
#    z 0.010820 0.000000 3.930420 
# 
# 
# High freq. dielectric constant tensor:
#      x y z
#    x 1.861100 0.000000 -0.000900 
#    y 0.000000 1.877830 0.000000 
#    z -0.000900 0.000000 1.871540 
# 
# From -- ./inp_files/358426.got.cif
#   From: 2010.06.25/outbox.cif.g09.slc.cpg/sg12_180_cif.got.tgz:358426.got - 2010.06.28 00:19:55.
