data_PCOD8110978
_publ_section_title
;
Structure prediction by ZEFSAII (Michael W. Deem and Ramdas Pophale) SiO2 
 PCOD8110978
Probable space group: C 2/M
;
_chemical_formula_sum "Si O2"
_cell_formula_units_Z 40
_cell_length_a 9.723462
_cell_length_b 29.137758
_cell_length_c 15.116289
_cell_angle_alpha 90.000000
_cell_angle_beta 153.353428
_cell_angle_gamma 90.000000
_cell_volume 1920.750160
_symmetry_space_group_name_H-M "C 2/M"
_symmetry_group_IT_number 12
_symmetry_cell_setting 'monoclinic'
loop_
_space_group_symop_operation_xyz
x,y,z
-x,y,-z
-x,-y,-z
x,-y,z
1/2+x,1/2+y,z
1/2-x,1/2+y,-z
1/2-x,1/2-y,-z
1/2+x,1/2-y,z
loop_
_atom_site_type_symbol
_atom_site_label
_atom_site_fract_x
_atom_site_fract_y
_atom_site_fract_z
Si Si1 0.436928 0.692870 0.367528
Si Si2 0.206348 0.500000 0.704979
Si Si3 0.769222 0.925027 0.999732
Si Si4 0.500000 0.129341 0.000000
Si Si5 0.500000 0.643790 0.000000
Si Si6 0.427331 0.795928 0.362194
Si Si7 0.640196 0.000000 0.307213
O O1 0.500000 0.670963 0.500000
O O2 0.294021 0.744052 0.293190
O O3 0.764350 0.699562 0.513704
O O4 0.210268 0.660681 0.182971
O O5 0.417339 0.454572 0.825300
O O6 0.000000 0.500000 0.500000
O O7 0.985953 0.500000 0.664316
O O8 0.725123 0.902282 0.070707
O O9 0.766243 0.886905 0.921613
O O10 0.475114 0.955685 0.811211
O O11 0.333225 0.674502 0.832310
O O12 0.500000 0.816486 0.500000
O O13 0.000000 0.000000 0.500000
#
# Coordination Sequence:
#
# PCOD8110978 Si02
#       7
#     8   4   8   4   4   8   4
#     4  10  22  42  59  92 135 174 221 274 317 382
#     4  11  25  48  71  95 129 175 207 263 334 401
#     4  11  25  44  65  96 136 162 220 271 321 399
#     4  12  25  39  66 100 132 174 218 275 327 376
#     4  12  21  41  66  94 130 176 208 281 327 376
#     4  10  22  38  64  91 128 178 226 264 324 387
#     4  11  25  48  73  95 128 172 208 262 336 396
#
# _framework density 20.825195000000001
#
# number of rings (size 3 to 8) (size 9 to 14) (size 15 to 20)
#    0.000    1.200    2.000    3.600    2.800    5.600 
#    0.000    8.000    0.000    0.000    0.000    0.000 
#    0.000    0.000    0.000    0.000    0.000    0.000 
#
# Total GULP energy -248006.504985 kJ/mol
# GULP energy per Si atom -12400.325249 kJ/mol
# Density = 2.077780 g / cm^3
# Si number density = 20.825195 Si / 1000 Ang^3
#
#
#
# Elastic Constant Matrix: (Units=GPa)
#
#
# Indices 1 2 3 4 5 6 
#
# 1 159.1662 59.7672 62.5639 0.0000 -17.2411 0.0000
# 2 59.7672 121.4722 76.8822 0.0000 -15.1786 0.0000
# 3 62.5639 76.8822 149.5750 0.0001 -18.5733 0.0001
# 4 0.0000 0.0000 0.0001 16.9091 0.0000 -20.2076
# 5 -17.2411 -15.1786 -18.5733 0.0000 44.4879 0.0000
# 6 0.0000 0.0000 0.0001 -20.2076 0.0000 58.9407
#
#
#
# Elastic Compliance Matrix: (Units=1/GPa)
#
#
# Indices 1 2 3 4 5 6 
#
# 1 0.008175 -0.002652 -0.001872 0.000000 0.001482 0.000000
# 2 -0.002652 0.013175 -0.005518 0.000000 0.001163 0.000000
# 3 -0.001872 -0.005518 0.010527 0.000000 0.001787 0.000000
# 4 0.000000 0.000000 0.000000 0.100190 0.000000 0.034350
# 5 0.001482 0.001163 0.001787 0.000000 0.024195 0.000000
# 6 0.000000 0.000000 0.000000 0.034350 0.000000 0.028743
#
#
# Mechanical properties :
#
#
# Convention : Reuss Voigt Hill
#
# Bulk Modulus (GPa) = 84.80411 92.07110 88.43761
# Shear Modulus (GPa) = 23.92098 39.46756 31.69427
#
# Velocity S-wave (km/s) = 3.39286 4.35809 3.90541
# Velocity P-wave (km/s) = 7.49393 8.34454 7.93065
#
# Compressibility (1/GPa) = 0.01179188
#
# Stress axis : x y z
#
# Youngs Moduli (GPa) = 122.32313 75.89939 94.99370
#
# Poissons Ratio (x) = 0.20130 0.17785
# Poissons Ratio (y) = 0.32443 0.52421
# Poissons Ratio (z) = 0.22901 0.41884
#
# Static dielectric constant tensor:
#      x y z
#    x 3.908020 0.000000 -0.158290 
#    y 0.000000 4.190810 0.000000 
#    z -0.158290 0.000000 3.532090 
# 
# 
# High freq. dielectric constant tensor:
#      x y z
#    x 1.835400 0.000000 -0.007310 
#    y 0.000000 1.826060 0.000000 
#    z -0.007310 0.000000 1.809670 
# 
# From -- ./inp_files/201441.got.cif
#   From: 2010.06.25/outbox.cif.g09.slc.cpg/sg12_101_cif.got.tgz:201441.got - 2010.06.28 00:19:55.
