data_PCOD8110823
_publ_section_title
;
Structure prediction by ZEFSAII (Michael W. Deem and Ramdas Pophale) SiO2 
 PCOD8110823
Probable space group: C 2/M
;
_chemical_formula_sum "Si O2"
_cell_formula_units_Z 64
_cell_length_a 8.225940
_cell_length_b 29.112856
_cell_length_c 19.545790
_cell_angle_alpha 90.000000
_cell_angle_beta 140.266586
_cell_angle_gamma 90.000000
_cell_volume 2992.068240
_symmetry_space_group_name_H-M "C 2/M"
_symmetry_group_IT_number 12
_symmetry_cell_setting 'monoclinic'
loop_
_space_group_symop_operation_xyz
x,y,z
-x,y,-z
-x,-y,-z
x,-y,z
1/2+x,1/2+y,z
1/2-x,1/2+y,-z
1/2-x,1/2-y,-z
1/2+x,1/2-y,z
loop_
_atom_site_type_symbol
_atom_site_label
_atom_site_fract_x
_atom_site_fract_y
_atom_site_fract_z
Si Si1 0.265541 0.795631 0.548032
Si Si2 0.205377 0.287875 0.795622
Si Si3 0.937862 0.948994 0.317724
Si Si4 0.273745 0.396566 0.481702
Si Si5 0.724593 0.875298 0.883943
Si Si6 0.286070 0.700961 0.115641
Si Si7 0.851103 0.603152 0.884504
Si Si8 0.478401 0.052264 0.275759
O O1 0.250000 0.750000 0.500000
O O2 0.524539 0.791903 0.673078
O O3 0.299287 0.844489 0.520594
O O4 0.000000 0.798788 0.500000
O O5 0.116863 0.327648 0.819010
O O6 0.505253 0.294163 0.876667
O O7 0.145087 0.237626 0.804619
O O8 0.852792 0.931731 0.214589
O O9 0.711947 0.948093 0.299199
O O10 0.161551 0.919224 0.424180
O O11 0.041983 0.000000 0.340596
O O12 0.500000 0.397104 0.500000
O O13 0.047335 0.425281 0.371573
O O14 0.558829 0.887724 0.894894
O O15 0.732881 0.915591 0.829131
O O16 0.000000 0.865764 0.000000
O O17 0.303152 0.649290 0.148592
O O18 0.000000 0.712055 0.000000
O O19 0.000000 0.583737 0.000000
O O20 0.378429 0.000000 0.254528
#
# Coordination Sequence:
#
# PCOD8110823 Si02
#       8
#     8   8   8   8   8   8   8   8
#     4  11  24  39  59  92 129 164 202 246 304 365
#     4  12  23  40  63  91 124 165 202 254 305 364
#     4   9  18  32  58  87 114 156 205 253 306 364
#     4   9  17  33  57  86 120 154 198 250 300 357
#     4  11  21  36  59  87 123 160 203 251 308 370
#     4  11  23  39  61  89 121 160 207 248 303 362
#     4  10  22  38  57  88 122 160 203 254 304 368
#     4   9  17  32  54  86 121 154 198 252 309 365
#
# _framework density 21.389887000000002
#
# number of rings (size 3 to 8) (size 9 to 14) (size 15 to 20)
#    0.000    1.750    1.250    4.125    3.500    2.000 
#    0.000    0.000    0.000    2.250    0.000    0.875 
#    0.000    0.000    0.000    0.000    0.000    0.000 
#
# Total GULP energy -396591.819038 kJ/mol
# GULP energy per Si atom -12393.494345 kJ/mol
# Density = 2.134120 g / cm^3
# Si number density = 21.389887 Si / 1000 Ang^3
#
#
#
# Elastic Constant Matrix: (Units=GPa)
#
#
# Indices 1 2 3 4 5 6 
#
# 1 38.9572 7.1567 18.4563 -0.0001 -5.5087 0.0000
# 2 7.1567 171.4337 73.0567 0.0000 -25.0976 -0.0001
# 3 18.4563 73.0567 146.9759 -0.0005 -27.9396 0.0000
# 4 -0.0001 0.0000 -0.0005 41.7614 -0.0002 -3.8595
# 5 -5.5087 -25.0976 -27.9396 -0.0002 26.9223 0.0000
# 6 0.0000 -0.0001 0.0000 -3.8595 0.0000 16.9343
#
#
#
# Elastic Compliance Matrix: (Units=1/GPa)
#
#
# Indices 1 2 3 4 5 6 
#
# 1 0.027486 0.000649 -0.003227 0.000000 0.002881 0.000000
# 2 0.000649 0.007749 -0.003158 0.000000 0.004080 0.000000
# 3 -0.003227 -0.003158 0.010083 0.000000 0.006860 0.000000
# 4 0.000000 0.000000 0.000000 0.024461 0.000000 0.005575
# 5 0.002881 0.004080 0.006860 0.000000 0.048655 0.000000
# 6 0.000000 0.000000 0.000000 0.005575 0.000000 0.060322
#
#
# Mechanical properties :
#
#
# Convention : Reuss Voigt Hill
#
# Bulk Modulus (GPa) = 29.54443 61.63404 45.58924
# Shear Modulus (GPa) = 24.81285 34.37008 29.59146
#
# Velocity S-wave (km/s) = 3.40961 4.01289 3.72349
# Velocity P-wave (km/s) = 5.41691 7.09564 6.31233
#
# Compressibility (1/GPa) = 0.03384732
#
# Stress axis : x y z
#
# Youngs Moduli (GPa) = 36.38230 129.04921 99.18047
#
# Poissons Ratio (x) = -0.08380 0.32002
# Poissons Ratio (y) = -0.02362 0.31319
# Poissons Ratio (z) = 0.11739 0.40751
#
# Static dielectric constant tensor:
#      x y z
#    x 2.936280 0.000080 -0.821410 
#    y 0.000080 4.752590 0.000080 
#    z -0.821410 0.000080 3.204780 
# 
# 
# High freq. dielectric constant tensor:
#      x y z
#    x 1.803980 0.000000 -0.002150 
#    y 0.000000 1.854630 0.000000 
#    z -0.002150 0.000000 1.848040 
# 
# From -- ./inp_files/260343.got.cif
#   From: 2010.06.25/outbox.cif.g09.slc.cpg/sg12_131_cif.got.tgz:260343.got - 2010.06.28 00:19:55.
