data_PCOD8110972
_publ_section_title
;
Structure prediction by ZEFSAII (Michael W. Deem and Ramdas Pophale) SiO2 
 PCOD8110972
Probable space group: C 2/M
;
_chemical_formula_sum "Si O2"
_cell_formula_units_Z 36
_cell_length_a 13.667162
_cell_length_b 23.709429
_cell_length_c 5.081193
_cell_angle_alpha 90.000000
_cell_angle_beta 78.637467
_cell_angle_gamma 90.000000
_cell_volume 1614.241571
_symmetry_space_group_name_H-M "C 2/M"
_symmetry_group_IT_number 12
_symmetry_cell_setting 'monoclinic'
loop_
_space_group_symop_operation_xyz
x,y,z
-x,y,-z
-x,-y,-z
x,-y,z
1/2+x,1/2+y,z
1/2-x,1/2+y,-z
1/2-x,1/2-y,-z
1/2+x,1/2-y,z
loop_
_atom_site_type_symbol
_atom_site_label
_atom_site_fract_x
_atom_site_fract_y
_atom_site_fract_z
Si Si1 0.883656 0.610958 0.597500
Si Si2 0.070234 0.500000 0.209363
Si Si3 0.115333 0.109987 0.880051
Si Si4 0.744244 0.710927 0.755090
Si Si5 0.223921 0.065202 0.332215
O O1 0.864121 0.557642 0.809022
O O2 0.836780 0.667899 0.734045
O O3 0.828410 0.595743 0.352048
O O4 0.000000 0.622003 0.500000
O O5 0.000000 0.500000 0.500000
O O6 0.000000 0.500000 0.000000
O O7 0.178191 0.094346 0.102885
O O8 0.141212 0.175178 0.798516
O O9 0.146424 0.071037 0.617368
O O10 0.000000 0.101706 0.000000
O O11 0.750000 0.750000 0.500000
O O12 0.750000 0.750000 0.000000
O O13 0.246929 0.000000 0.261621
#
# Coordination Sequence:
#
# PCOD8110972 Si02
#       5
#     8   4   8   8   8
#     4  10  23  44  68 104 140 180 223 279 351 423
#     4  10  22  38  64 100 137 174 213 264 338 422
#     4  11  25  44  67  95 133 177 234 288 339 398
#     4  11  25  45  68  96 133 180 236 288 343 408
#     4  11  23  41  67 101 140 179 220 277 342 417
#
# _framework density 22.301493000000001
#
# number of rings (size 3 to 8) (size 9 to 14) (size 15 to 20)
#    0.000    1.333    1.111    4.000    0.000   15.111 
#    0.000    0.000    0.000    0.000    0.000    0.000 
#    0.000    0.000    0.000    0.000    0.000    0.000 
#
# Total GULP energy -223190.716662 kJ/mol
# GULP energy per Si atom -12399.484259 kJ/mol
# Density = 2.225073 g / cm^3
# Si number density = 22.301493 Si / 1000 Ang^3
#
#
#
# Elastic Constant Matrix: (Units=GPa)
#
#
# Indices 1 2 3 4 5 6 
#
# 1 136.7830 50.3209 20.9037 0.0000 3.2727 0.0000
# 2 50.3209 177.3860 64.2391 0.0000 11.1653 0.0000
# 3 20.9037 64.2391 141.8562 0.0000 21.1782 0.0000
# 4 0.0000 0.0000 0.0000 46.2168 0.0000 -5.8030
# 5 3.2727 11.1653 21.1782 0.0000 28.0779 0.0000
# 6 0.0000 0.0000 0.0000 -5.8030 0.0000 37.3511
#
#
#
# Elastic Compliance Matrix: (Units=1/GPa)
#
#
# Indices 1 2 3 4 5 6 
#
# 1 0.008167 -0.002251 -0.000198 0.000000 0.000092 0.000000
# 2 -0.002251 0.007368 -0.002937 0.000000 -0.000452 0.000000
# 3 -0.000198 -0.002937 0.009275 0.000000 -0.005805 0.000000
# 4 0.000000 0.000000 0.000000 0.022068 0.000000 0.003429
# 5 0.000092 -0.000452 -0.005805 0.000000 0.040163 0.000000
# 6 0.000000 0.000000 0.000000 0.003429 0.000000 0.027306
#
#
# Mechanical properties :
#
#
# Convention : Reuss Voigt Hill
#
# Bulk Modulus (GPa) = 71.23592 80.77250 76.00421
# Shear Modulus (GPa) = 38.52123 43.69994 41.11059
#
# Velocity S-wave (km/s) = 4.16058 4.43143 4.29814
# Velocity P-wave (km/s) = 7.42241 7.90446 7.66723
#
# Compressibility (1/GPa) = 0.01403786
#
# Stress axis : x y z
#
# Youngs Moduli (GPa) = 122.44426 135.71807 107.81162
#
# Poissons Ratio (x) = 0.30549 0.02134
# Poissons Ratio (y) = 0.27562 0.31670
# Poissons Ratio (z) = 0.02424 0.39867
#
# Static dielectric constant tensor:
#      x y z
#    x 4.286710 0.000000 -0.143960 
#    y 0.000000 4.614930 0.000000 
#    z -0.143960 0.000000 4.209070 
# 
# 
# High freq. dielectric constant tensor:
#      x y z
#    x 1.877760 0.000000 -0.002610 
#    y 0.000000 1.887680 0.000000 
#    z -0.002610 0.000000 1.897800 
# 
# From -- ./inp_files/7054.got.cif
#   From: 2010.06.25/outbox.cif.g09.slc.cpg/sg12_4_cif.got.tgz:7054.got - 2010.06.28 00:19:55.
