data_PCOD8110640
_publ_section_title
;
Structure prediction by ZEFSAII (Michael W. Deem and Ramdas Pophale) SiO2 
 PCOD8110640
Probable space group: C 2/M
;
_chemical_formula_sum "Si O2"
_cell_formula_units_Z 48
_cell_length_a 20.941359
_cell_length_b 16.749936
_cell_length_c 16.949658
_cell_angle_alpha 90.000000
_cell_angle_beta 25.125422
_cell_angle_gamma 90.000000
_cell_volume 2524.411501
_symmetry_space_group_name_H-M "C 2/M"
_symmetry_group_IT_number 12
_symmetry_cell_setting 'monoclinic'
loop_
_space_group_symop_operation_xyz
x,y,z
-x,y,-z
-x,-y,-z
x,-y,z
1/2+x,1/2+y,z
1/2-x,1/2+y,-z
1/2-x,1/2-y,-z
1/2+x,1/2-y,z
loop_
_atom_site_type_symbol
_atom_site_label
_atom_site_fract_x
_atom_site_fract_y
_atom_site_fract_z
Si Si1 0.121581 0.500000 0.484855
Si Si2 0.787431 0.500000 0.791770
Si Si3 0.066579 0.807881 0.657495
Si Si4 0.101193 0.809330 0.310329
Si Si5 0.229319 0.841182 0.933783
Si Si6 0.158257 0.592383 0.028486
Si Si7 0.655819 0.131706 0.574782
O O1 0.213781 0.500000 0.301128
O O2 0.163208 0.577802 0.488472
O O3 0.946977 0.500000 0.657581
O O4 0.700597 0.420672 0.915324
O O5 0.189383 0.872949 0.548839
O O6 0.140361 0.721958 0.562025
O O7 0.001364 0.838128 0.647677
O O8 0.932766 0.800702 0.871546
O O9 0.159383 0.718428 0.236948
O O10 0.246220 0.868587 0.149971
O O11 0.000000 0.818391 0.500000
O O12 0.305154 0.859713 0.932615
O O13 0.201683 0.500000 0.988369
O O14 0.979076 0.602821 0.216492
#
# Coordination Sequence:
#
# PCOD8110640 Si02
#       7
#     4   4   8   8   8   8   8
#     4  11  22  35  59  95 122 154 180 246 300 357
#     4  11  22  33  61  95 126 147 194 234 300 358
#     4  10  22  36  61  83 115 157 202 236 281 357
#     4  11  23  38  62  88 117 151 201 257 293 335
#     4  11  19  38  59  89 116 157 196 236 291 357
#     4  11  19  38  63  84 116 155 200 238 286 357
#     4  11  19  38  58  86 118 155 195 231 290 360
#
# _framework density 19.014334000000002
#
# number of rings (size 3 to 8) (size 9 to 14) (size 15 to 20)
#    0.000    1.167    6.667    1.000    4.667    1.000 
#    1.500    2.500    0.000    1.000    0.000    0.000 
#    0.000    0.000    0.000    0.000    0.000    0.000 
#
# Total GULP energy -297610.186611 kJ/mol
# GULP energy per Si atom -12400.424442 kJ/mol
# Density = 1.897106 g / cm^3
# Si number density = 19.014334 Si / 1000 Ang^3
#
#
#
# Elastic Constant Matrix: (Units=GPa)
#
#
# Indices 1 2 3 4 5 6 
#
# 1 85.7145 35.9218 60.8489 0.0051 1.0615 -0.0028
# 2 35.9218 85.1323 30.2270 0.0072 0.5096 -0.0047
# 3 60.8489 30.2270 126.4442 0.0100 11.7195 -0.0074
# 4 0.0051 0.0072 0.0100 28.9240 -0.0071 1.7312
# 5 1.0615 0.5096 11.7195 -0.0071 30.6184 0.0046
# 6 -0.0028 -0.0047 -0.0074 1.7312 0.0046 21.9690
#
#
#
# Elastic Compliance Matrix: (Units=1/GPa)
#
#
# Indices 1 2 3 4 5 6 
#
# 1 0.019985 -0.005405 -0.008574 0.000002 0.002679 -0.000002
# 2 -0.005405 0.014327 -0.000849 -0.000002 0.000274 0.000002
# 3 -0.008574 -0.000849 0.012658 -0.000004 -0.004534 0.000004
# 4 0.000002 -0.000002 -0.000004 0.034737 0.000010 -0.002737
# 5 0.002679 0.000274 -0.004534 0.000010 0.034298 -0.000009
# 6 -0.000002 0.000002 0.000004 -0.002737 -0.000009 0.045734
#
#
# Mechanical properties :
#
#
# Convention : Reuss Voigt Hill
#
# Bulk Modulus (GPa) = 57.75601 61.25405 59.50503
# Shear Modulus (GPa) = 25.35935 27.65515 26.50725
#
# Velocity S-wave (km/s) = 3.65594 3.81785 3.73777
# Velocity P-wave (km/s) = 6.94710 7.19161 7.07041
#
# Compressibility (1/GPa) = 0.01731422
#
# Stress axis : x y z
#
# Youngs Moduli (GPa) = 50.03771 69.79892 79.00265
#
# Poissons Ratio (x) = 0.37723 0.67734
# Poissons Ratio (y) = 0.27043 0.06711
# Poissons Ratio (z) = 0.42901 0.05929
#
# Static dielectric constant tensor:
#      x y z
#    x 3.255330 0.000000 -0.155760 
#    y 0.000000 3.559150 0.000000 
#    z -0.155760 0.000000 3.749180 
# 
# 
# High freq. dielectric constant tensor:
#      x y z
#    x 1.701140 0.000000 -0.008590 
#    y 0.000000 1.748340 0.000000 
#    z -0.008590 0.000000 1.742450 
# 
# From -- ./inp_files/226767.got.cif
#   From: 2010.06.25/outbox.cif.g09.slc.cpg/sg12_114_cif.got.tgz:226767.got - 2010.06.28 00:19:55.
