data_PCOD8110728
_publ_section_title
;
Structure prediction by ZEFSAII (Michael W. Deem and Ramdas Pophale) SiO2 
 PCOD8110728
Probable space group: C 2/M
;
_chemical_formula_sum "Si O2"
_cell_formula_units_Z 56
_cell_length_a 13.434070
_cell_length_b 22.661788
_cell_length_c 11.319021
_cell_angle_alpha 90.000000
_cell_angle_beta 124.587891
_cell_angle_gamma 90.000000
_cell_volume 2836.911182
_symmetry_space_group_name_H-M "C 2/M"
_symmetry_group_IT_number 12
_symmetry_cell_setting 'monoclinic'
loop_
_space_group_symop_operation_xyz
x,y,z
-x,y,-z
-x,-y,-z
x,-y,z
1/2+x,1/2+y,z
1/2-x,1/2+y,-z
1/2-x,1/2-y,-z
1/2+x,1/2-y,z
loop_
_atom_site_type_symbol
_atom_site_label
_atom_site_fract_x
_atom_site_fract_y
_atom_site_fract_z
Si Si1 0.659206 0.568605 0.198256
Si Si2 0.896802 0.931116 0.099088
Si Si3 0.864797 0.218422 0.422477
Si Si4 0.947497 0.268641 0.091938
Si Si5 0.295267 0.321338 0.124951
Si Si6 0.640601 0.818804 0.403735
Si Si7 0.618749 0.934258 0.504040
O O1 0.678218 0.500000 0.193122
O O2 0.540402 0.580233 0.196479
O O3 0.774354 0.594110 0.344469
O O4 0.651936 0.592962 0.060111
O O5 0.833265 0.890618 0.156962
O O6 0.866972 0.000000 0.103651
O O7 0.801918 0.214007 0.252758
O O8 0.781025 0.182463 0.457901
O O9 0.873705 0.285316 0.479486
O O10 0.000000 0.191412 0.500000
O O11 0.888989 0.208255 0.097964
O O12 0.054385 0.288845 0.249778
O O13 0.842593 0.318205 0.013833
O O14 0.000000 0.254364 0.000000
O O15 0.601026 0.887266 0.387163
O O16 0.500000 0.939256 0.500000
O O17 0.651058 0.000000 0.476319
#
# Coordination Sequence:
#
# PCOD8110728 Si02
#       7
#     8   8   8   8   8   8   8
#     4   8  17  34  54  85 121 152 193 242 293 345
#     4   9  19  36  59  87 120 156 194 244 299 350
#     4  11  23  41  60  92 116 159 202 243 300 358
#     4  11  24  42  58  89 122 157 201 249 296 345
#     4  11  24  38  64  90 119 155 203 247 294 362
#     4  11  24  41  65  84 125 162 195 251 304 358
#     4  10  22  37  60  91 121 156 202 248 298 358
#
# _framework density 19.739778999999999
#
# number of rings (size 3 to 8) (size 9 to 14) (size 15 to 20)
#    0.000    1.857    2.857    1.286    6.000    1.143 
#    0.000    0.714    0.000    1.714    0.000    0.000 
#    0.000    0.000    0.000    0.000    0.000    0.000 
#
# Total GULP energy -347053.754655 kJ/mol
# GULP energy per Si atom -12394.776952 kJ/mol
# Density = 1.969485 g / cm^3
# Si number density = 19.739779 Si / 1000 Ang^3
#
#
#
# Elastic Constant Matrix: (Units=GPa)
#
#
# Indices 1 2 3 4 5 6 
#
# 1 102.8426 46.9162 30.8660 0.0000 1.4458 0.0000
# 2 46.9162 98.1010 34.1350 0.0000 -10.0223 0.0000
# 3 30.8660 34.1350 78.7794 0.0000 1.0670 0.0000
# 4 0.0000 0.0000 0.0000 16.1289 0.0000 1.3093
# 5 1.4458 -10.0223 1.0670 0.0000 34.7358 0.0000
# 6 0.0000 0.0000 0.0000 1.3093 0.0000 19.7629
#
#
#
# Elastic Compliance Matrix: (Units=1/GPa)
#
#
# Indices 1 2 3 4 5 6 
#
# 1 0.013086 -0.005527 -0.002704 0.000000 -0.002056 0.000000
# 2 -0.005527 0.014812 -0.004315 0.000000 0.004636 0.000000
# 3 -0.002704 -0.004315 0.015645 0.000000 -0.001613 0.000000
# 4 0.000000 0.000000 0.000000 0.062336 0.000000 -0.004130
# 5 -0.002056 0.004636 -0.001613 0.000000 0.030262 0.000000
# 6 0.000000 0.000000 0.000000 -0.004130 0.000000 0.050874
#
#
# Mechanical properties :
#
#
# Convention : Reuss Voigt Hill
#
# Bulk Modulus (GPa) = 54.20303 55.95084 55.07693
# Shear Modulus (GPa) = 22.90883 25.31258 24.11070
#
# Velocity S-wave (km/s) = 3.41037 3.58482 3.49868
# Velocity P-wave (km/s) = 6.55941 6.74836 6.65456
#
# Compressibility (1/GPa) = 0.01844915
#
# Stress axis : x y z
#
# Youngs Moduli (GPa) = 76.41985 67.51214 63.91886
#
# Poissons Ratio (x) = 0.37316 0.17285
# Poissons Ratio (y) = 0.42239 0.27583
# Poissons Ratio (z) = 0.20665 0.29133
#
# Static dielectric constant tensor:
#      x y z
#    x 3.601490 0.000000 -0.039640 
#    y 0.000000 3.446650 0.000000 
#    z -0.039640 0.000000 2.054140 
# 
# 
# High freq. dielectric constant tensor:
#      x y z
#    x 1.769960 0.000000 0.019330 
#    y 0.000000 1.752300 0.000000 
#    z 0.019330 0.000000 1.765620 
# 
# From -- ./inp_files/135472.got.cif
#   From: 2010.06.25/outbox.cif.g09.slc.cpg/sg12_68_cif.got.tgz:135472.got - 2010.06.28 00:19:55.
