data_PCOD8110681
_publ_section_title
;
Structure prediction by ZEFSAII (Michael W. Deem and Ramdas Pophale) SiO2 
 PCOD8110681
Probable space group: C 2/M
;
_chemical_formula_sum "Si O2"
_cell_formula_units_Z 56
_cell_length_a 9.615969
_cell_length_b 29.316392
_cell_length_c 11.336085
_cell_angle_alpha 90.000000
_cell_angle_beta 115.096009
_cell_angle_gamma 90.000000
_cell_volume 2894.025067
_symmetry_space_group_name_H-M "C 2/M"
_symmetry_group_IT_number 12
_symmetry_cell_setting 'monoclinic'
loop_
_space_group_symop_operation_xyz
x,y,z
-x,y,-z
-x,-y,-z
x,-y,z
1/2+x,1/2+y,z
1/2-x,1/2+y,-z
1/2-x,1/2-y,-z
1/2+x,1/2-y,z
loop_
_atom_site_type_symbol
_atom_site_label
_atom_site_fract_x
_atom_site_fract_y
_atom_site_fract_z
Si Si1 0.235044 0.706027 0.147555
Si Si2 0.151976 0.140425 0.620144
Si Si3 0.778056 0.051725 0.238994
Si Si4 0.344596 0.446064 0.000005
Si Si5 0.968171 0.359577 0.620147
Si Si6 0.587488 0.206028 0.852443
Si Si7 0.460939 0.051726 0.238975
O O1 0.325279 0.665804 0.246802
O O2 0.343067 0.749999 0.186129
O O3 0.079931 0.719263 0.159860
O O4 0.196205 0.689768 0.999999
O O5 0.141433 0.086022 0.640170
O O6 0.291902 0.151975 0.583801
O O7 0.000000 0.157566 0.500000
O O8 0.593197 0.054579 0.186378
O O9 0.835654 0.000000 0.283983
O O10 0.824321 0.069594 0.126895
O O11 0.353956 0.500000 0.999986
O O12 0.197412 0.430401 0.873134
O O13 0.500000 0.424644 0.000000
O O14 0.000000 0.342439 0.500000
O O15 0.078480 0.334195 0.753196
O O16 0.998741 0.413979 0.640184
O O17 0.448314 0.000000 0.283953
#
# Coordination Sequence:
#
# PCOD8110681 Si02
#       7
#     8   8   8   8   8   8   8
#     4   9  19  37  60  83 107 138 177 223 273 325
#     4  10  22  37  55  80 112 147 183 225 271 321
#     4   9  18  33  53  76 105 146 189 222 262 321
#     4   9  17  29  47  75 106 135 174 227 278 313
#     4  10  22  37  55  80 112 147 183 225 271 321
#     4   9  19  37  60  83 107 138 177 223 273 325
#     4   9  18  33  53  76 105 146 189 222 262 321
#
# _framework density 19.350213
#
# number of rings (size 3 to 8) (size 9 to 14) (size 15 to 20)
#    0.000    2.714    0.000    0.429    2.000    5.143 
#    0.000    2.857    0.000    0.000    0.000    0.000 
#    0.000    0.000    0.000    0.000    0.000    0.000 
#
# Total GULP energy -347137.512882 kJ/mol
# GULP energy per Si atom -12397.768317 kJ/mol
# Density = 1.930617 g / cm^3
# Si number density = 19.350213 Si / 1000 Ang^3
#
#
#
# Elastic Constant Matrix: (Units=GPa)
#
#
# Indices 1 2 3 4 5 6 
#
# 1 85.1679 37.6180 59.6065 0.0000 0.6946 0.0000
# 2 37.6180 92.2472 54.5755 0.0000 0.3206 0.0000
# 3 59.6065 54.5755 113.8604 0.0000 -0.1614 0.0000
# 4 0.0000 0.0000 0.0000 19.8296 0.0000 -0.0947
# 5 0.6946 0.3206 -0.1614 0.0000 31.2087 0.0000
# 6 0.0000 0.0000 0.0000 -0.0947 0.0000 24.8212
#
#
#
# Elastic Compliance Matrix: (Units=1/GPa)
#
#
# Indices 1 2 3 4 5 6 
#
# 1 0.018972 -0.002595 -0.008689 0.000000 -0.000441 0.000000
# 2 -0.002595 0.015487 -0.006065 0.000000 -0.000133 0.000000
# 3 -0.008689 -0.006065 0.016239 0.000000 0.000340 0.000000
# 4 0.000000 0.000000 0.000000 0.050431 0.000000 0.000192
# 5 -0.000441 -0.000133 0.000340 0.000000 0.032055 0.000000
# 6 0.000000 0.000000 0.000000 0.000192 0.000000 0.040289
#
#
# Mechanical properties :
#
#
# Convention : Reuss Voigt Hill
#
# Bulk Modulus (GPa) = 62.49670 66.09730 64.29700
# Shear Modulus (GPa) = 23.41862 24.47026 23.94444
#
# Velocity S-wave (km/s) = 3.48264 3.55998 3.52152
# Velocity P-wave (km/s) = 6.96703 7.15056 7.05939
#
# Compressibility (1/GPa) = 0.01600085
#
# Stress axis : x y z
#
# Youngs Moduli (GPa) = 52.70819 64.56891 61.57957
#
# Poissons Ratio (x) = 0.16753 0.53507
# Poissons Ratio (y) = 0.13676 0.37350
# Poissons Ratio (z) = 0.45799 0.39163
#
# Static dielectric constant tensor:
#      x y z
#    x 3.677280 0.000000 -0.006810 
#    y 0.000000 3.421440 0.000000 
#    z -0.006810 0.000000 3.315110 
# 
# 
# High freq. dielectric constant tensor:
#      x y z
#    x 1.751610 0.000000 -0.000280 
#    y 0.000000 1.743610 0.000000 
#    z -0.000280 0.000000 1.736910 
# 
# From -- ./inp_files/125325.got.cif
#   From: 2010.06.25/outbox.cif.g09.slc.cpg/sg12_63_cif.got.tgz:125325.got - 2010.06.28 00:19:55.
