data_PCOD8110442
_publ_section_title
;
Structure prediction by ZEFSAII (Michael W. Deem and Ramdas Pophale) SiO2 
 PCOD8110442
Probable space group: C 2/M
;
_chemical_formula_sum "Si O2"
_cell_formula_units_Z 48
_cell_length_a 10.769750
_cell_length_b 23.668162
_cell_length_c 8.366802
_cell_angle_alpha 90.000000
_cell_angle_beta 88.706761
_cell_angle_gamma 90.000000
_cell_volume 2132.156158
_symmetry_space_group_name_H-M "C 2/M"
_symmetry_group_IT_number 12
_symmetry_cell_setting 'monoclinic'
loop_
_space_group_symop_operation_xyz
x,y,z
-x,y,-z
-x,-y,-z
x,-y,z
1/2+x,1/2+y,z
1/2-x,1/2+y,-z
1/2-x,1/2-y,-z
1/2+x,1/2-y,z
loop_
_atom_site_type_symbol
_atom_site_label
_atom_site_fract_x
_atom_site_fract_y
_atom_site_fract_z
Si Si1 0.538007 0.734136 0.680716
Si Si2 0.270142 0.653736 0.211017
Si Si3 0.111998 0.852792 0.107364
Si Si4 0.618473 0.436715 0.590346
Si Si5 0.720986 0.935681 0.709587
Si Si6 0.508258 0.853905 0.812440
O O1 0.500000 0.744289 0.500000
O O2 0.672268 0.703929 0.683555
O O3 0.431299 0.698343 0.776300
O O4 0.562862 0.792774 0.770344
O O5 0.352919 0.598606 0.251602
O O6 0.128226 0.643437 0.262353
O O7 0.281597 0.668069 0.021116
O O8 0.165918 0.905735 0.201219
O O9 0.000000 0.873922 0.000000
O O10 0.500000 0.409934 0.500000
O O11 0.583416 0.500000 0.644842
O O12 0.741324 0.435711 0.477003
O O13 0.591913 0.902705 0.732361
O O14 0.705313 0.000000 0.773070
O O15 0.500000 0.864789 0.000000
#
# Coordination Sequence:
#
# PCOD8110442 Si02
#       6
#     8   8   8   8   8   8
#     4  11  26  44  72 104 134 175 234 297 347 410
#     4  11  23  42  68 101 136 182 224 284 344 413
#     4  10  21  42  70 101 136 177 230 286 345 400
#     4  10  22  43  71 102 139 179 228 288 342 400
#     4  11  25  44  69 101 144 184 229 285 336 409
#     4  12  27  45  67  98 142 190 229 280 342 413
#
# _framework density 22.512419999999999
#
# number of rings (size 3 to 8) (size 9 to 14) (size 15 to 20)
#    0.000    1.167    1.667    5.000    4.667    4.000 
#    0.000    1.667    0.000    0.000    0.000    0.000 
#    0.000    0.000    0.000    0.000    0.000    0.000 
#
# Total GULP energy -297593.491478 kJ/mol
# GULP energy per Si atom -12399.728812 kJ/mol
# Density = 2.246118 g / cm^3
# Si number density = 22.512420 Si / 1000 Ang^3
#
#
#
# Elastic Constant Matrix: (Units=GPa)
#
#
# Indices 1 2 3 4 5 6 
#
# 1 113.7346 41.5208 9.4010 0.0000 -8.0891 0.0000
# 2 41.5208 133.2775 24.5706 0.0000 -6.0830 0.0000
# 3 9.4010 24.5706 79.7515 0.0000 -12.8355 0.0000
# 4 0.0000 0.0000 0.0000 31.6445 0.0000 -6.2102
# 5 -8.0891 -6.0830 -12.8355 0.0000 28.2866 0.0000
# 6 0.0000 0.0000 0.0000 -6.2102 0.0000 36.6302
#
#
#
# Elastic Compliance Matrix: (Units=1/GPa)
#
#
# Indices 1 2 3 4 5 6 
#
# 1 0.010058 -0.003052 0.000121 0.000000 0.002275 0.000000
# 2 -0.003052 0.008892 -0.002387 0.000000 -0.000044 0.000000
# 3 0.000121 -0.002387 0.014222 0.000000 0.005975 0.000000
# 4 0.000000 0.000000 0.000000 0.032689 0.000000 0.005542
# 5 0.002275 -0.000044 0.005975 0.000000 0.038705 0.000000
# 6 0.000000 0.000000 0.000000 0.005542 0.000000 0.028239
#
#
# Mechanical properties :
#
#
# Convention : Reuss Voigt Hill
#
# Bulk Modulus (GPa) = 44.37357 53.08315 48.72836
# Shear Modulus (GPa) = 33.12296 36.06369 34.59332
#
# Velocity S-wave (km/s) = 3.83994 4.00677 3.92424
# Velocity P-wave (km/s) = 6.27803 6.71091 6.49808
#
# Compressibility (1/GPa) = 0.02253594
#
# Stress axis : x y z
#
# Youngs Moduli (GPa) = 99.41949 112.46091 70.31542
#
# Poissons Ratio (x) = 0.34323 -0.00849
# Poissons Ratio (y) = 0.30343 0.16783
# Poissons Ratio (z) = -0.01200 0.26842
#
# Static dielectric constant tensor:
#      x y z
#    x 4.263130 0.000000 -0.228710 
#    y 0.000000 3.948610 0.000000 
#    z -0.228710 0.000000 4.146220 
# 
# 
# High freq. dielectric constant tensor:
#      x y z
#    x 1.894820 0.000000 -0.006740 
#    y 0.000000 1.880350 0.000000 
#    z -0.006740 0.000000 1.888750 
# 
# From -- ./inp_files/50688.got.cif
#   From: 2010.06.25/outbox.cif.g09.slc.cpg/sg12_26_cif.got.tgz:50688.got - 2010.06.28 00:19:55.
