data_PCOD8110490
_publ_section_title
;
Structure prediction by ZEFSAII (Michael W. Deem and Ramdas Pophale) SiO2 
 PCOD8110490
Probable space group: C 2/M
;
_chemical_formula_sum "Si O2"
_cell_formula_units_Z 56
_cell_length_a 21.265594
_cell_length_b 30.746211
_cell_length_c 9.551008
_cell_angle_alpha 90.000000
_cell_angle_beta 152.093325
_cell_angle_gamma 90.000000
_cell_volume 2922.769674
_symmetry_space_group_name_H-M "C 2/M"
_symmetry_group_IT_number 12
_symmetry_cell_setting 'monoclinic'
loop_
_space_group_symop_operation_xyz
x,y,z
-x,y,-z
-x,-y,-z
x,-y,z
1/2+x,1/2+y,z
1/2-x,1/2+y,-z
1/2-x,1/2-y,-z
1/2+x,1/2-y,z
loop_
_atom_site_type_symbol
_atom_site_label
_atom_site_fract_x
_atom_site_fract_y
_atom_site_fract_z
Si Si1 0.041293 0.383005 0.737340
Si Si2 0.500000 0.290748 0.500000
Si Si3 0.650780 0.742855 0.045495
Si Si4 0.700844 0.670093 0.688541
Si Si5 0.350354 0.608093 0.664897
Si Si6 0.500000 0.777379 0.000000
Si Si7 0.889144 0.551056 0.897392
Si Si8 0.814521 0.664962 0.463403
O O1 0.000000 0.395894 0.500000
O O2 0.929796 0.353629 0.591672
O O3 0.177219 0.355521 0.001194
O O4 0.063556 0.427630 0.864679
O O5 0.413048 0.324144 0.419923
O O6 0.581813 0.256898 0.757884
O O7 0.753703 0.782036 0.268897
O O8 0.539456 0.746182 0.948871
O O9 0.725790 0.697135 0.197192
O O10 0.640301 0.644682 0.436824
O O11 0.259442 0.567560 0.436683
O O12 0.279547 0.627004 0.663565
O O13 0.500000 0.591981 0.000000
O O14 0.622750 0.808948 0.282094
O O15 0.881233 0.500000 0.904538
O O16 0.000000 0.564246 0.000000
#
# Coordination Sequence:
#
# PCOD8110490 Si02
#       8
#     8   4   8   8   8   4   8   8
#     4  11  23  40  66  94 123 166 210 262 314 376
#     4  12  26  40  52  80 119 166 217 270 320 368
#     4  12  25  37  59  80 119 171 218 273 313 360
#     4  11  24  40  56  84 122 169 216 264 316 363
#     4  11  23  39  65  96 126 162 208 257 317 377
#     4  12  22  40  60  80 113 166 227 268 312 356
#     4  10  21  43  71  99 129 160 200 255 317 386
#     4  12  22  39  59  87 126 160 217 269 307 364
#
# _framework density 19.159908000000001
#
# number of rings (size 3 to 8) (size 9 to 14) (size 15 to 20)
#    0.000    0.714    4.286    4.286    4.000    0.571 
#    0.000    0.000    0.000    0.000    0.000    3.000 
#    0.000    0.000    0.000    0.000    0.000    0.000 
#
# Total GULP energy -347335.631573 kJ/mol
# GULP energy per Si atom -12404.843985 kJ/mol
# Density = 1.911630 g / cm^3
# Si number density = 19.159908 Si / 1000 Ang^3
#
#
#
# Elastic Constant Matrix: (Units=GPa)
#
#
# Indices 1 2 3 4 5 6 
#
# 1 106.4518 36.9219 38.0724 0.0000 2.3579 0.0000
# 2 36.9219 89.9035 31.1124 0.0000 0.0132 0.0000
# 3 38.0724 31.1124 107.5277 0.0000 -4.2541 0.0000
# 4 0.0000 0.0000 0.0000 15.7164 0.0000 4.8235
# 5 2.3579 0.0132 -4.2541 0.0000 36.5611 0.0000
# 6 0.0000 0.0000 0.0000 4.8235 0.0000 20.1966
#
#
#
# Elastic Compliance Matrix: (Units=1/GPa)
#
#
# Indices 1 2 3 4 5 6 
#
# 1 0.011856 -0.003779 -0.003149 0.000000 -0.001130 0.000000
# 2 -0.003779 0.013572 -0.002591 0.000000 -0.000063 0.000000
# 3 -0.003149 -0.002591 0.011224 0.000000 0.001510 0.000000
# 4 0.000000 0.000000 0.000000 0.068660 0.000000 -0.016398
# 5 -0.001130 -0.000063 0.001510 0.000000 0.027600 0.000000
# 6 0.000000 0.000000 0.000000 -0.016398 0.000000 0.053430
#
#
# Mechanical properties :
#
#
# Convention : Reuss Voigt Hill
#
# Bulk Modulus (GPa) = 56.77551 57.34402 57.05977
# Shear Modulus (GPa) = 23.66836 27.67990 25.67413
#
# Velocity S-wave (km/s) = 3.51851 3.80502 3.66456
# Velocity P-wave (km/s) = 6.79730 7.02128 6.91020
#
# Compressibility (1/GPa) = 0.01761323
#
# Stress axis : x y z
#
# Youngs Moduli (GPa) = 84.34573 73.68209 89.09118
#
# Poissons Ratio (x) = 0.27845 0.28056
# Poissons Ratio (y) = 0.31875 0.23086
# Poissons Ratio (z) = 0.26561 0.19093
#
# Static dielectric constant tensor:
#      x y z
#    x 3.618980 0.000000 0.038540 
#    y 0.000000 3.235160 0.000000 
#    z 0.038540 0.000000 3.716960 
# 
# 
# High freq. dielectric constant tensor:
#      x y z
#    x 1.754940 0.000000 0.004060 
#    y 0.000000 1.719560 0.000000 
#    z 0.004060 0.000000 1.757820 
# 
# From -- ./inp_files/91670.got.cif
#   From: 2010.06.25/outbox.cif.g09.slc.cpg/sg12_46_cif.got.tgz:91670.got - 2010.06.28 00:19:55.
