data_PCOD8110149
_publ_section_title
;
Structure prediction by ZEFSAII (Michael W. Deem and Ramdas Pophale) SiO2 
 PCOD8110149
Probable space group: C 2/M
;
_chemical_formula_sum "Si O2"
_cell_formula_units_Z 48
_cell_length_a 20.119023
_cell_length_b 18.397145
_cell_length_c 9.719763
_cell_angle_alpha 90.000000
_cell_angle_beta 40.849974
_cell_angle_gamma 90.000000
_cell_volume 2353.121066
_symmetry_space_group_name_H-M "C 2/M"
_symmetry_group_IT_number 12
_symmetry_cell_setting 'monoclinic'
loop_
_space_group_symop_operation_xyz
x,y,z
-x,y,-z
-x,-y,-z
x,-y,z
1/2+x,1/2+y,z
1/2-x,1/2+y,-z
1/2-x,1/2-y,-z
1/2+x,1/2-y,z
loop_
_atom_site_type_symbol
_atom_site_label
_atom_site_fract_x
_atom_site_fract_y
_atom_site_fract_z
Si Si1 0.155685 0.204976 0.086682
Si Si2 0.063794 0.420167 0.766589
Si Si3 0.119886 0.216665 0.830674
Si Si4 0.452825 0.845186 0.715003
Si Si5 0.749595 0.859913 0.588388
Si Si6 0.737779 0.585925 0.131398
O O1 0.060357 0.257653 0.267632
O O2 0.154742 0.127284 0.165683
O O3 0.250000 0.250000 0.000000
O O4 0.156894 0.187780 0.921960
O O5 0.033763 0.500000 0.758073
O O6 0.183622 0.420472 0.612562
O O7 0.038629 0.359645 0.693571
O O8 0.000000 0.400654 0.000000
O O9 0.155742 0.161774 0.654880
O O10 0.171556 0.294285 0.733538
O O11 0.000000 0.224074 0.000000
O O12 0.500000 0.873854 0.500000
O O13 0.351138 0.889428 0.912019
O O14 0.788520 0.891977 0.671327
O O15 0.725780 0.500000 0.129093
#
# Coordination Sequence:
#
# PCOD8110149 Si02
#       6
#     8   8   8   8   8   8
#     4  10  21  41  61  92 127 171 215 270 322 388
#     4  11  21  36  60  94 131 166 205 264 340 404
#     4  11  23  41  66  96 126 167 232 277 322 380
#     4  11  23  37  62  94 133 167 214 270 330 392
#     4  11  22  38  67  93 127 171 216 274 329 392
#     4  11  23  42  62  93 136 174 215 267 339 406
#
# _framework density 20.398440999999998
#
# number of rings (size 3 to 8) (size 9 to 14) (size 15 to 20)
#    0.000    1.167    5.000    2.500    4.667    2.667 
#    0.000    0.833    0.000    8.000    0.000    0.000 
#    0.000    0.000    0.000    0.000    0.000    0.000 
#
# Total GULP energy -297512.986044 kJ/mol
# GULP energy per Si atom -12396.374418 kJ/mol
# Density = 2.035201 g / cm^3
# Si number density = 20.398441 Si / 1000 Ang^3
#
#
#
# Elastic Constant Matrix: (Units=GPa)
#
#
# Indices 1 2 3 4 5 6 
#
# 1 111.4974 43.8735 53.6503 0.0000 30.5417 0.0000
# 2 43.8735 107.5629 54.0649 0.0000 25.1489 0.0000
# 3 53.6503 54.0649 100.7310 0.0000 20.4645 0.0000
# 4 0.0000 0.0000 0.0000 150.2093 0.0000 -3.7954
# 5 30.5417 25.1489 20.4645 0.0000 29.5235 0.0000
# 6 0.0000 0.0000 0.0000 -3.7954 0.0000 36.2464
#
#
#
# Elastic Compliance Matrix: (Units=1/GPa)
#
#
# Indices 1 2 3 4 5 6 
#
# 1 0.014821 -0.000862 -0.005197 0.000000 -0.010995 0.000000
# 2 -0.000862 0.014208 -0.005690 0.000000 -0.007266 0.000000
# 3 -0.005197 -0.005690 0.015913 0.000000 -0.000807 0.000000
# 4 0.000000 0.000000 0.000000 0.006675 0.000000 0.000699
# 5 -0.010995 -0.007266 -0.000807 0.000000 0.051994 0.000000
# 6 0.000000 0.000000 0.000000 0.000699 0.000000 0.027662
#
#
# Mechanical properties :
#
#
# Convention : Reuss Voigt Hill
#
# Bulk Modulus (GPa) = 46.63588 69.21875 57.92731
# Shear Modulus (GPa) = 30.87954 54.40936 42.64445
#
# Velocity S-wave (km/s) = 3.89500 5.17022 4.57724
# Velocity P-wave (km/s) = 6.56812 8.34557 7.50962
#
# Compressibility (1/GPa) = 0.02144272
#
# Stress axis : x y z
#
# Youngs Moduli (GPa) = 67.47389 70.38535 62.83974
#
# Poissons Ratio (x) = 0.06069 0.32658
# Poissons Ratio (y) = 0.05818 0.35757
# Poissons Ratio (z) = 0.35067 0.40050
#
# Static dielectric constant tensor:
#      x y z
#    x 3.810750 0.000000 0.164130 
#    y 0.000000 3.815390 0.000000 
#    z 0.164130 0.000000 3.671420 
# 
# 
# High freq. dielectric constant tensor:
#      x y z
#    x 1.799840 0.000000 0.020760 
#    y 0.000000 1.787190 0.000000 
#    z 0.020760 0.000000 1.783800 
# 
# From -- ./inp_files/87715.got.cif
#   From: 2010.06.25/outbox.cif.g09.slc.cpg/sg12_44_cif.got.tgz:87715.got - 2010.06.28 00:19:55.
