data_PCOD8110445
_publ_section_title
;
Structure prediction by ZEFSAII (Michael W. Deem and Ramdas Pophale) SiO2 
 PCOD8110445
Probable space group: C 2/M
;
_chemical_formula_sum "Si O2"
_cell_formula_units_Z 48
_cell_length_a 9.067662
_cell_length_b 29.242851
_cell_length_c 17.774833
_cell_angle_alpha 90.000000
_cell_angle_beta 30.218810
_cell_angle_gamma 90.000000
_cell_volume 2372.196444
_symmetry_space_group_name_H-M "C 2/M"
_symmetry_group_IT_number 12
_symmetry_cell_setting 'monoclinic'
loop_
_space_group_symop_operation_xyz
x,y,z
-x,y,-z
-x,-y,-z
x,-y,z
1/2+x,1/2+y,z
1/2-x,1/2+y,-z
1/2-x,1/2-y,-z
1/2+x,1/2-y,z
loop_
_atom_site_type_symbol
_atom_site_label
_atom_site_fract_x
_atom_site_fract_y
_atom_site_fract_z
Si Si1 0.130219 0.553046 0.360056
Si Si2 0.158848 0.308440 0.255777
Si Si3 0.810286 0.881359 0.511047
Si Si4 0.895560 0.121784 0.889147
Si Si5 0.997993 0.733129 0.833110
Si Si6 0.219619 0.357364 0.808229
O O1 0.155807 0.500000 0.329687
O O2 0.451543 0.575123 0.206502
O O3 0.000000 0.562006 0.500000
O O4 0.917423 0.577095 0.394074
O O5 0.405519 0.348502 0.141386
O O6 0.137556 0.279808 0.187814
O O7 0.257448 0.273418 0.278448
O O8 0.852673 0.332157 0.412836
O O9 0.000000 0.890029 0.500000
O O10 0.019196 0.884105 0.347112
O O11 0.822079 0.152579 0.848114
O O12 0.578634 0.111750 0.066428
O O13 0.166710 0.689818 0.790274
O O14 0.750000 0.750000 0.000000
#
# Coordination Sequence:
#
# PCOD8110445 Si02
#       6
#     8   8   8   8   8   8
#     4  10  21  42  70  96 126 162 204 255 319 390
#     4  11  24  39  60  87 123 171 213 262 308 366
#     4  11  23  43  63  94 128 167 210 259 322 378
#     4  10  22  40  64  93 123 164 209 259 318 377
#     4  12  23  37  60  90 124 168 221 258 305 363
#     4  11  22  40  63  92 126 168 210 263 313 367
#
# _framework density 20.234411000000001
#
# number of rings (size 3 to 8) (size 9 to 14) (size 15 to 20)
#    0.000    1.167    5.000    1.500    2.333    1.000 
#    0.000    2.500    0.000    1.000    0.000    0.000 
#    0.000    0.000    0.000    0.000    0.000    0.000 
#
# Total GULP energy -297514.760667 kJ/mol
# GULP energy per Si atom -12396.448361 kJ/mol
# Density = 2.018836 g / cm^3
# Si number density = 20.234411 Si / 1000 Ang^3
#
#
#
# Elastic Constant Matrix: (Units=GPa)
#
#
# Indices 1 2 3 4 5 6 
#
# 1 112.3570 41.9088 33.7778 0.0000 -11.6992 0.0000
# 2 41.9088 115.6105 41.7163 0.0000 -9.5522 0.0000
# 3 33.7778 41.7163 116.5764 -0.0001 -9.5149 0.0001
# 4 0.0000 0.0000 -0.0001 22.3941 0.0000 7.4348
# 5 -11.6992 -9.5522 -9.5149 0.0000 25.8885 -0.0001
# 6 0.0000 0.0000 0.0001 7.4348 -0.0001 14.3934
#
#
#
# Elastic Compliance Matrix: (Units=1/GPa)
#
#
# Indices 1 2 3 4 5 6 
#
# 1 0.010907 -0.003039 -0.001817 0.000000 0.003140 0.000000
# 2 -0.003039 0.010930 -0.002901 0.000000 0.001593 0.000000
# 3 -0.001817 -0.002901 0.010297 0.000000 0.001893 0.000000
# 4 0.000000 0.000000 0.000000 0.053897 0.000000 -0.027840
# 5 0.003140 0.001593 0.001893 0.000000 0.041330 0.000000
# 6 0.000000 0.000000 0.000000 -0.027840 0.000000 0.083857
#
#
# Mechanical properties :
#
#
# Convention : Reuss Voigt Hill
#
# Bulk Modulus (GPa) = 60.16318 64.37220 62.26769
# Shear Modulus (GPa) = 21.52672 27.67793 24.60233
#
# Velocity S-wave (km/s) = 3.26524 3.70248 3.49071
# Velocity P-wave (km/s) = 6.63425 7.08238 6.86198
#
# Compressibility (1/GPa) = 0.01662146
#
# Stress axis : x y z
#
# Youngs Moduli (GPa) = 91.68670 91.49485 97.11677
#
# Poissons Ratio (x) = 0.27803 0.17641
# Poissons Ratio (y) = 0.27862 0.28169
# Poissons Ratio (z) = 0.16655 0.26539
#
# Static dielectric constant tensor:
#      x y z
#    x 3.859180 0.000000 -0.135800 
#    y 0.000000 3.532530 0.000000 
#    z -0.135800 0.000000 4.170130 
# 
# 
# High freq. dielectric constant tensor:
#      x y z
#    x 1.800470 0.000000 -0.020520 
#    y 0.000000 1.764850 0.000000 
#    z -0.020520 0.000000 1.791770 
# 
# From -- ./inp_files/200153.got.cif
#   From: 2010.06.25/outbox.cif.g09.slc.cpg/sg12_101_cif.got.tgz:200153.got - 2010.06.28 00:19:55.
