data_PCOD8110394
_publ_section_title
;
Structure prediction by ZEFSAII (Michael W. Deem and Ramdas Pophale) SiO2 
 PCOD8110394
Probable space group: C 2/M
;
_chemical_formula_sum "Si O2"
_cell_formula_units_Z 48
_cell_length_a 8.641641
_cell_length_b 30.905136
_cell_length_c 8.644207
_cell_angle_alpha 90.000000
_cell_angle_beta 91.363380
_cell_angle_gamma 90.000000
_cell_volume 2307.964222
_symmetry_space_group_name_H-M "C 2/M"
_symmetry_group_IT_number 12
_symmetry_cell_setting 'monoclinic'
loop_
_space_group_symop_operation_xyz
x,y,z
-x,y,-z
-x,-y,-z
x,-y,z
1/2+x,1/2+y,z
1/2-x,1/2+y,-z
1/2-x,1/2-y,-z
1/2+x,1/2-y,z
loop_
_atom_site_type_symbol
_atom_site_label
_atom_site_fract_x
_atom_site_fract_y
_atom_site_fract_z
Si Si1 0.209481 0.049076 0.768442
Si Si2 0.278877 0.770211 0.333899
Si Si3 0.500000 0.596666 0.000000
Si Si4 0.500000 0.579908 0.500000
Si Si5 0.427539 0.790885 0.834012
Si Si6 0.527770 0.111944 0.173431
Si Si7 0.192808 0.865511 0.275813
O O1 0.091166 0.049929 0.622395
O O2 0.361366 0.078010 0.736412
O O3 0.263006 0.000000 0.797701
O O4 0.124742 0.066280 0.919526
O O5 0.250000 0.750000 0.500000
O O6 0.458728 0.779326 0.306049
O O7 0.226258 0.736513 0.199852
O O8 0.185646 0.814822 0.313335
O O9 0.590151 0.627354 0.121012
O O10 0.375098 0.609824 0.580095
O O11 0.385345 0.841699 0.831627
O O12 0.500000 0.778213 0.000000
O O13 0.366427 0.116772 0.258789
O O14 0.500000 0.094406 0.000000
#
# Coordination Sequence:
#
# PCOD8110394 Si02
#       7
#     8   8   4   4   8   8   8
#     4  11  23  42  70  97 129 166 213 268 323 393
#     4  11  24  38  61  94 127 169 220 260 317 374
#     4  10  21  42  68  96 130 168 214 266 325 382
#     4  10  25  42  62  94 138 168 210 254 333 392
#     4  10  23  40  62  88 128 168 213 271 309 377
#     4  10  21  42  65  94 128 164 215 266 331 370
#     4  10  23  41  64  95 130 175 212 265 320 388
#
# _framework density 20.797550000000001
#
# number of rings (size 3 to 8) (size 9 to 14) (size 15 to 20)
#    0.000    1.667    1.667    1.500    5.833    2.333 
#    0.000    2.500    0.000    0.000    0.000    0.000 
#    0.000    0.000    0.000    0.000    0.000    0.000 
#
# Total GULP energy -297686.588730 kJ/mol
# GULP energy per Si atom -12403.607864 kJ/mol
# Density = 2.075021 g / cm^3
# Si number density = 20.797550 Si / 1000 Ang^3
#
#
#
# Elastic Constant Matrix: (Units=GPa)
#
#
# Indices 1 2 3 4 5 6 
#
# 1 85.2716 52.1957 22.3968 0.0000 -1.5931 0.0000
# 2 52.1957 133.1913 42.9656 0.0000 9.8050 0.0000
# 3 22.3968 42.9656 99.1648 0.0000 -5.4365 0.0000
# 4 0.0000 0.0000 0.0000 18.2644 0.0000 2.6048
# 5 -1.5931 9.8050 -5.4365 0.0000 32.1797 0.0000
# 6 0.0000 0.0000 0.0000 2.6048 0.0000 32.5969
#
#
#
# Elastic Compliance Matrix: (Units=1/GPa)
#
#
# Indices 1 2 3 4 5 6 
#
# 1 0.015704 -0.006090 -0.000771 0.000000 0.002503 0.000000
# 2 -0.006090 0.011458 -0.003832 0.000000 -0.004440 0.000000
# 3 -0.000771 -0.003832 0.012093 0.000000 0.003172 0.000000
# 4 0.000000 0.000000 0.000000 0.055383 0.000000 -0.004426
# 5 0.002503 -0.004440 0.003172 0.000000 0.033088 0.000000
# 6 0.000000 0.000000 0.000000 -0.004426 0.000000 0.031031
#
#
# Mechanical properties :
#
#
# Convention : Reuss Voigt Hill
#
# Bulk Modulus (GPa) = 55.96542 61.41599 58.69070
# Shear Modulus (GPa) = 26.86742 29.94615 28.40679
#
# Velocity S-wave (km/s) = 3.59814 3.79870 3.69978
# Velocity P-wave (km/s) = 6.65058 6.98818 6.82147
#
# Compressibility (1/GPa) = 0.01786818
#
# Stress axis : x y z
#
# Youngs Moduli (GPa) = 63.67764 87.27864 82.69412
#
# Poissons Ratio (x) = 0.53150 0.06377
# Poissons Ratio (y) = 0.38778 0.31691
# Poissons Ratio (z) = 0.04910 0.33448
#
# Static dielectric constant tensor:
#      x y z
#    x 3.774870 0.000000 -0.028790 
#    y 0.000000 3.659680 0.000000 
#    z -0.028790 0.000000 3.747070 
# 
# 
# High freq. dielectric constant tensor:
#      x y z
#    x 1.816230 0.000000 -0.001220 
#    y 0.000000 1.809450 0.000000 
#    z -0.001220 0.000000 1.819540 
# 
# From -- ./inp_files/42308.got.cif
#   From: 2010.06.25/outbox.cif.g09.slc.cpg/sg12_22_cif.got.tgz:42308.got - 2010.06.28 00:19:55.
