data_PCOD8110727
_publ_section_title
;
Structure prediction by ZEFSAII (Michael W. Deem and Ramdas Pophale) SiO2 
 PCOD8110727
Probable space group: C 2/M
;
_chemical_formula_sum "Si O2"
_cell_formula_units_Z 40
_cell_length_a 14.011456
_cell_length_b 19.002876
_cell_length_c 14.045866
_cell_angle_alpha 90.000000
_cell_angle_beta 31.825352
_cell_angle_gamma 90.000000
_cell_volume 1972.127936
_symmetry_space_group_name_H-M "C 2/M"
_symmetry_group_IT_number 12
_symmetry_cell_setting 'monoclinic'
loop_
_space_group_symop_operation_xyz
x,y,z
-x,y,-z
-x,-y,-z
x,-y,z
1/2+x,1/2+y,z
1/2-x,1/2+y,-z
1/2-x,1/2-y,-z
1/2+x,1/2-y,z
loop_
_atom_site_type_symbol
_atom_site_label
_atom_site_fract_x
_atom_site_fract_y
_atom_site_fract_z
Si Si1 0.491301 0.420082 0.308016
Si Si2 0.345707 0.792606 0.562731
Si Si3 0.880104 0.079447 0.192253
Si Si4 0.352725 0.169355 0.347288
Si Si5 0.605089 0.082114 0.006330
O O1 0.452122 0.500000 0.373410
O O2 0.498840 0.413889 0.187288
O O3 0.336237 0.372546 0.485190
O O4 0.686086 0.394523 0.181797
O O5 0.500000 0.760806 0.500000
O O6 0.283297 0.865522 0.663824
O O7 0.421703 0.805848 0.392139
O O8 0.181749 0.736408 0.692289
O O9 0.801720 0.000000 0.248878
O O10 0.000000 0.099058 0.000000
O O11 0.513242 0.122315 0.171196
O O12 0.593790 0.000000 0.039968
O O13 0.500000 0.101916 0.000000
#
# Coordination Sequence:
#
# PCOD8110727 Si02
#       5
#     8   8   8   8   8
#     4   9  19  37  60  86 116 150 191 237 287 341
#     4  10  23  39  57  87 114 151 198 230 286 354
#     4   9  19  37  59  85 115 147 186 238 293 342
#     4  10  22  41  58  83 122 154 188 241 288 335
#     4  10  22  37  60  91 114 151 201 235 284 343
#
# _framework density 20.282658999999999
#
# number of rings (size 3 to 8) (size 9 to 14) (size 15 to 20)
#    0.000    2.400    0.000    0.600    5.600    2.000 
#    0.000    6.000    0.000    0.000    0.000    0.000 
#    0.000    0.000    0.000    0.000    0.000    0.000 
#
# Total GULP energy -248021.235186 kJ/mol
# GULP energy per Si atom -12401.061759 kJ/mol
# Density = 2.023650 g / cm^3
# Si number density = 20.282659 Si / 1000 Ang^3
#
#
#
# Elastic Constant Matrix: (Units=GPa)
#
#
# Indices 1 2 3 4 5 6 
#
# 1 85.2354 22.9462 16.5800 0.0444 -12.2159 -0.0401
# 2 22.9462 74.1431 31.0084 -0.1611 4.9466 0.0539
# 3 16.5800 31.0084 56.9434 0.0146 -3.7150 0.0068
# 4 0.0444 -0.1611 0.0146 24.5653 0.0397 1.4117
# 5 -12.2159 4.9466 -3.7150 0.0397 23.8694 -0.0105
# 6 -0.0401 0.0539 0.0068 1.4117 -0.0105 22.8658
#
#
#
# Elastic Compliance Matrix: (Units=1/GPa)
#
#
# Indices 1 2 3 4 5 6 
#
# 1 0.014327 -0.004465 -0.001214 -0.000070 0.008069 0.000044
# 2 -0.004465 0.019507 -0.009835 0.000158 -0.007859 -0.000064
# 3 -0.001214 -0.009835 0.023603 -0.000086 0.005091 0.000022
# 4 -0.000070 0.000158 -0.000086 0.040854 -0.000151 -0.002523
# 5 0.008069 -0.007859 0.005091 -0.000151 0.048445 0.000063
# 6 0.000044 -0.000064 0.000022 -0.002523 0.000063 0.043889
#
#
# Mechanical properties :
#
#
# Convention : Reuss Voigt Hill
#
# Bulk Modulus (GPa) = 37.86610 39.71011 38.78811
# Shear Modulus (GPa) = 21.69608 23.97926 22.83767
#
# Velocity S-wave (km/s) = 3.27415 3.44212 3.35919
# Velocity P-wave (km/s) = 5.74484 5.95134 5.84900
#
# Compressibility (1/GPa) = 0.02640884
#
# Stress axis : x y z
#
# Youngs Moduli (GPa) = 69.79961 51.26285 42.36813
#
# Poissons Ratio (x) = 0.22888 0.05142
# Poissons Ratio (y) = 0.31164 0.41671
# Poissons Ratio (z) = 0.08472 0.50419
#
# Static dielectric constant tensor:
#      x y z
#    x 3.700550 0.000020 0.040930 
#    y 0.000020 3.830160 0.000090 
#    z 0.040930 0.000090 3.376950 
# 
# 
# High freq. dielectric constant tensor:
#      x y z
#    x 1.795630 -0.000010 0.005720 
#    y -0.000010 1.802140 0.000020 
#    z 0.005720 0.000020 1.770260 
# 
# From -- ./inp_files/46914.got.cif
#   From: 2010.06.25/outbox.cif.g09.slc.cpg/sg12_24_cif.got.tgz:46914.got - 2010.06.28 00:19:55.
