data_PCOD8110666
_publ_section_title
;
Structure prediction by ZEFSAII (Michael W. Deem and Ramdas Pophale) SiO2 
 PCOD8110666
Probable space group: C 2/M
;
_chemical_formula_sum "Si O2"
_cell_formula_units_Z 48
_cell_length_a 24.315863
_cell_length_b 8.919230
_cell_length_c 24.289555
_cell_angle_alpha 90.000000
_cell_angle_beta 27.957176
_cell_angle_gamma 90.000000
_cell_volume 2469.646906
_symmetry_space_group_name_H-M "C 2/M"
_symmetry_group_IT_number 12
_symmetry_cell_setting 'monoclinic'
loop_
_space_group_symop_operation_xyz
x,y,z
-x,y,-z
-x,-y,-z
x,-y,z
1/2+x,1/2+y,z
1/2-x,1/2+y,-z
1/2-x,1/2-y,-z
1/2+x,1/2-y,z
loop_
_atom_site_type_symbol
_atom_site_label
_atom_site_fract_x
_atom_site_fract_y
_atom_site_fract_z
Si Si1 0.277526 0.675500 0.918717
Si Si2 0.903505 0.828600 0.995989
Si Si3 0.274511 0.829532 0.754247
Si Si4 0.333523 0.321607 0.257987
Si Si5 0.282725 0.824000 0.528817
Si Si6 0.450228 0.823066 0.689111
O O1 0.293723 0.500000 0.911611
O O2 0.398424 0.743695 0.788767
O O3 0.250000 0.750000 0.000000
O O4 0.169821 0.712415 0.974697
O O5 0.036457 0.771673 0.874170
O O6 0.891481 0.000000 0.984486
O O7 0.851790 0.819758 0.103390
O O8 0.255287 0.755790 0.710631
O O9 0.381076 0.758020 0.696116
O O10 0.311596 0.000000 0.712046
O O11 0.323195 0.500000 0.266518
O O12 0.300597 0.262615 0.348209
O O13 0.250000 0.750000 0.500000
O O14 0.413314 0.783328 0.433507
O O15 0.267821 0.000000 0.533483
O O16 0.426487 0.000000 0.715435
#
# Coordination Sequence:
#
# PCOD8110666 Si02
#       6
#     8   8   8   8   8   8
#     4  11  22  35  54  78 105 140 181 223 271 322
#     4   9  17  31  52  82 114 139 172 217 270 327
#     4   8  14  28  53  82 110 138 173 224 275 317
#     4   9  17  30  53  83 110 142 181 219 268 321
#     4  10  22  37  53  77 109 145 187 228 266 317
#     4   9  19  36  55  78 108 140 179 227 271 316
#
# _framework density 19.435977000000001
#
# number of rings (size 3 to 8) (size 9 to 14) (size 15 to 20)
#    0.000    2.667    0.000    3.000    2.333    3.333 
#    0.000    3.333    0.000   12.000    0.000    5.833 
#    0.000    0.000    0.000    0.000    0.000    0.000 
#
# Total GULP energy -297403.882817 kJ/mol
# GULP energy per Si atom -12391.828451 kJ/mol
# Density = 1.939174 g / cm^3
# Si number density = 19.435977 Si / 1000 Ang^3
#
#
#
# Elastic Constant Matrix: (Units=GPa)
#
#
# Indices 1 2 3 4 5 6 
#
# 1 109.5046 20.2875 61.6429 0.0026 9.9807 -0.0005
# 2 20.2875 43.8276 20.9099 0.0082 0.0473 -0.0043
# 3 61.6429 20.9099 99.4207 0.0025 -5.2334 -0.0021
# 4 0.0026 0.0082 0.0025 19.3540 -0.0013 1.3639
# 5 9.9807 0.0473 -5.2334 -0.0013 31.7580 0.0005
# 6 -0.0005 -0.0043 -0.0021 1.3639 0.0005 20.7726
#
#
#
# Elastic Compliance Matrix: (Units=1/GPa)
#
#
# Indices 1 2 3 4 5 6 
#
# 1 0.015494 -0.002691 -0.009378 0.000000 -0.006411 -0.000001
# 2 -0.002691 0.025856 -0.003760 -0.000010 0.000188 0.000006
# 3 -0.009378 -0.003760 0.016966 0.000001 0.005749 0.000001
# 4 0.000000 -0.000010 0.000001 0.051909 0.000002 -0.003408
# 5 -0.006411 0.000188 0.005749 0.000002 0.034450 0.000000
# 6 -0.000001 0.000006 0.000001 -0.003408 0.000000 0.048364
#
#
# Mechanical properties :
#
#
# Convention : Reuss Voigt Hill
#
# Bulk Modulus (GPa) = 37.51119 50.93705 44.22412
# Shear Modulus (GPa) = 21.40567 24.37109 22.88838
#
# Velocity S-wave (km/s) = 3.32225 3.54491 3.43538
# Velocity P-wave (km/s) = 5.83594 6.55894 6.20798
#
# Compressibility (1/GPa) = 0.02665871
#
# Stress axis : x y z
#
# Youngs Moduli (GPa) = 64.54069 38.67605 58.94051
#
# Poissons Ratio (x) = 0.10407 0.55275
# Poissons Ratio (y) = 0.17367 0.22159
# Poissons Ratio (z) = 0.60527 0.14541
#
# Static dielectric constant tensor:
#      x y z
#    x 3.774500 0.000000 0.023640 
#    y 0.000000 3.109790 0.000000 
#    z 0.023640 0.000000 3.678930 
# 
# 
# High freq. dielectric constant tensor:
#      x y z
#    x 1.768050 0.000000 0.001640 
#    y 0.000000 1.703410 0.000000 
#    z 0.001640 0.000000 1.759320 
# 
# From -- ./inp_files/172146.got.cif
#   From: 2010.06.25/outbox.cif.g09.slc.cpg/sg12_87_cif.got.tgz:172146.got - 2010.06.28 00:19:55.
