data_PCOD8110511
_publ_section_title
;
Structure prediction by ZEFSAII (Michael W. Deem and Ramdas Pophale) SiO2 
 PCOD8110511
Probable space group: C 2/M
;
_chemical_formula_sum "Si O2"
_cell_formula_units_Z 48
_cell_length_a 20.957309
_cell_length_b 21.494969
_cell_length_c 5.357361
_cell_angle_alpha 90.000000
_cell_angle_beta 124.262110
_cell_angle_gamma 90.000000
_cell_volume 1994.576756
_symmetry_space_group_name_H-M "C 2/M"
_symmetry_group_IT_number 12
_symmetry_cell_setting 'monoclinic'
loop_
_space_group_symop_operation_xyz
x,y,z
-x,y,-z
-x,-y,-z
x,-y,z
1/2+x,1/2+y,z
1/2-x,1/2+y,-z
1/2-x,1/2-y,-z
1/2+x,1/2-y,z
loop_
_atom_site_type_symbol
_atom_site_label
_atom_site_fract_x
_atom_site_fract_y
_atom_site_fract_z
Si Si1 0.191231 0.067851 0.329902
Si Si2 0.257793 0.844307 0.839619
Si Si3 0.951341 0.320029 0.646521
Si Si4 0.354173 0.264480 0.109500
Si Si5 0.047736 0.868788 0.851013
Si Si6 0.845792 0.569391 0.359174
O O1 0.193247 0.127125 0.518129
O O2 0.271743 0.065656 0.368931
O O3 0.178614 0.000000 0.430943
O O4 0.117748 0.081812 0.994435
O O5 0.210618 0.816041 0.968995
O O6 0.312426 0.789034 0.849228
O O7 0.316109 0.900278 0.036411
O O8 0.888076 0.266530 0.440192
O O9 0.910698 0.386076 0.621623
O O10 0.000000 0.328869 0.500000
O O11 0.000000 0.301056 0.000000
O O12 0.422165 0.297240 0.102569
O O13 0.000000 0.885467 0.500000
O O14 0.000000 0.876306 0.000000
O O15 0.879345 0.500000 0.384933
#
# Coordination Sequence:
#
# PCOD8110511 Si02
#       6
#     8   8   8   8   8   8
#     4  11  25  45  73  99 134 184 238 291 343 411
#     4  10  21  44  70 105 135 175 241 290 348 403
#     4  11  27  46  68 105 143 183 228 285 353 418
#     4  10  23  44  70 104 140 186 226 292 347 423
#     4  12  27  48  70 106 144 184 231 285 355 418
#     4  10  23  45  71  98 134 183 237 289 342 410
#
# _framework density 24.065252999999998
#
# number of rings (size 3 to 8) (size 9 to 14) (size 15 to 20)
#    0.000    1.333    1.667    2.000    4.667    7.333 
#    3.000    0.000    0.000    0.000    0.000    0.000 
#    0.000    0.000    0.000    0.000    0.000    0.000 
#
# Total GULP energy -297448.100619 kJ/mol
# GULP energy per Si atom -12393.670859 kJ/mol
# Density = 2.401048 g / cm^3
# Si number density = 24.065253 Si / 1000 Ang^3
#
#
#
# Elastic Constant Matrix: (Units=GPa)
#
#
# Indices 1 2 3 4 5 6 
#
# 1 69.5223 22.1796 32.4385 0.0000 1.0665 0.0000
# 2 22.1796 133.5410 51.5117 0.0000 10.6640 0.0000
# 3 32.4385 51.5117 136.5496 0.0000 9.9069 0.0000
# 4 0.0000 0.0000 0.0000 33.7535 0.0000 13.3475
# 5 1.0665 10.6640 9.9069 0.0000 31.3610 0.0000
# 6 0.0000 0.0000 0.0000 13.3475 0.0000 48.7794
#
#
#
# Elastic Compliance Matrix: (Units=1/GPa)
#
#
# Indices 1 2 3 4 5 6 
#
# 1 0.016439 -0.001495 -0.003416 0.000000 0.001028 0.000000
# 2 -0.001495 0.009021 -0.002896 0.000000 -0.002102 0.000000
# 3 -0.003416 -0.002896 0.009362 0.000000 -0.001857 0.000000
# 4 0.000000 0.000000 0.000000 0.033221 0.000000 -0.009090
# 5 0.001028 -0.002102 -0.001857 0.000000 0.033153 0.000000
# 6 0.000000 0.000000 0.000000 -0.009090 0.000000 0.022988
#
#
# Mechanical properties :
#
#
# Convention : Reuss Voigt Hill
#
# Bulk Modulus (GPa) = 52.05760 61.31919 56.68839
# Shear Modulus (GPa) = 34.19975 38.34432 36.27203
#
# Velocity S-wave (km/s) = 3.77387 3.99601 3.88653
# Velocity P-wave (km/s) = 6.37717 6.84299 6.61418
#
# Compressibility (1/GPa) = 0.01920949
#
# Stress axis : x y z
#
# Youngs Moduli (GPa) = 60.83170 110.84742 106.81641
#
# Poissons Ratio (x) = 0.16569 0.36487
# Poissons Ratio (y) = 0.09093 0.30930
# Poissons Ratio (z) = 0.20779 0.32097
#
# Static dielectric constant tensor:
#      x y z
#    x 4.206130 0.000000 0.369670 
#    y 0.000000 5.236990 0.000000 
#    z 0.369670 0.000000 4.351000 
# 
# 
# High freq. dielectric constant tensor:
#      x y z
#    x 1.943610 0.000000 0.025330 
#    y 0.000000 1.968140 0.000000 
#    z 0.025330 0.000000 1.945840 
# 
# From -- ./inp_files/25732.got.cif
#   From: 2010.06.25/outbox.cif.g09.slc.cpg/sg12_13_cif.got.tgz:25732.got - 2010.06.28 00:19:55.
