data_PCOD8110601
_publ_section_title
;
Structure prediction by ZEFSAII (Michael W. Deem and Ramdas Pophale) SiO2 
 PCOD8110601
Probable space group: C 2/M
;
_chemical_formula_sum "Si O2"
_cell_formula_units_Z 64
_cell_length_a 13.112455
_cell_length_b 22.211636
_cell_length_c 11.012218
_cell_angle_alpha 90.000000
_cell_angle_beta 104.884937
_cell_angle_gamma 90.000000
_cell_volume 3099.673095
_symmetry_space_group_name_H-M "C 2/M"
_symmetry_group_IT_number 12
_symmetry_cell_setting 'monoclinic'
loop_
_space_group_symop_operation_xyz
x,y,z
-x,y,-z
-x,-y,-z
x,-y,z
1/2+x,1/2+y,z
1/2-x,1/2+y,-z
1/2-x,1/2-y,-z
1/2+x,1/2-y,z
loop_
_atom_site_type_symbol
_atom_site_label
_atom_site_fract_x
_atom_site_fract_y
_atom_site_fract_z
Si Si1 0.406955 0.164477 0.710578
Si Si2 0.823009 0.350394 0.424709
Si Si3 0.354157 0.429710 0.729261
Si Si4 0.284323 0.648823 0.187333
Si Si5 0.739330 0.113999 0.914895
Si Si6 0.055342 0.567123 0.710851
Si Si7 0.944769 0.068883 0.360721
Si Si8 0.370968 0.775705 0.221128
O O1 0.344576 0.172782 0.565661
O O2 0.327284 0.173343 0.797658
O O3 0.449360 0.096032 0.732799
O O4 0.503624 0.211306 0.750814
O O5 0.714729 0.388635 0.384101
O O6 0.913611 0.394192 0.398399
O O7 0.825453 0.290172 0.342095
O O8 0.317681 0.500000 0.710883
O O9 0.339994 0.402592 0.860827
O O10 0.475860 0.424035 0.728761
O O11 0.340852 0.608100 0.305772
O O12 0.356263 0.706623 0.179873
O O13 0.270115 0.606552 0.064508
O O14 0.646629 0.069265 0.841474
O O15 0.696924 0.182333 0.889795
O O16 0.031016 0.500000 0.662828
O O17 0.000000 0.092556 0.500000
O O18 0.909243 0.000000 0.367856
#
# Coordination Sequence:
#
# PCOD8110601 Si02
#       8
#     8   8   8   8   8   8   8   8
#     4  10  22  36  54  86 118 143 183 232 278 335
#     4   9  17  34  58  86 113 141 186 233 273 336
#     4   9  18  36  61  83 113 153 184 225 277 320
#     4  12  24  38  59  81 109 152 188 227 284 339
#     4   9  20  38  56  84 111 141 193 234 266 327
#     4   9  18  34  58  84 115 151 184 229 279 323
#     4  10  23  40  56  83 117 145 185 236 279 327
#     4   9  21  38  57  80 111 145 184 236 282 325
#
# _framework density 20.647338999999999
#
# number of rings (size 3 to 8) (size 9 to 14) (size 15 to 20)
#    0.000    2.875    0.000    4.125    0.000    9.000 
#    0.000    3.125    0.000    0.000    0.000    0.000 
#    0.000    0.000    0.000    0.000    0.000    0.000 
#
# Total GULP energy -396651.716648 kJ/mol
# GULP energy per Si atom -12395.366145 kJ/mol
# Density = 2.060035 g / cm^3
# Si number density = 20.647339 Si / 1000 Ang^3
#
#
#
# Elastic Constant Matrix: (Units=GPa)
#
#
# Indices 1 2 3 4 5 6 
#
# 1 79.2877 10.6983 14.3092 0.0000 -7.3284 0.0000
# 2 10.6983 39.6579 -3.2695 0.0000 -1.6412 0.0000
# 3 14.3092 -3.2695 81.0862 0.0000 -13.5095 0.0000
# 4 0.0000 0.0000 0.0000 14.4179 0.0000 3.2355
# 5 -7.3284 -1.6412 -13.5095 0.0000 19.0914 0.0000
# 6 0.0000 0.0000 0.0000 3.2355 0.0000 23.7742
#
#
#
# Elastic Compliance Matrix: (Units=1/GPa)
#
#
# Indices 1 2 3 4 5 6 
#
# 1 0.013807 -0.003741 -0.001993 0.000000 0.003568 0.000000
# 2 -0.003741 0.026496 0.002119 0.000000 0.002341 0.000000
# 3 -0.001993 0.002119 0.014366 0.000000 0.009583 0.000000
# 4 0.000000 0.000000 0.000000 0.071543 0.000000 -0.009737
# 5 0.003568 0.002341 0.009583 0.000000 0.060732 0.000000
# 6 0.000000 0.000000 0.000000 -0.009737 0.000000 0.043387
#
#
# Mechanical properties :
#
#
# Convention : Reuss Voigt Hill
#
# Bulk Modulus (GPa) = 21.07998 27.05642 24.06820
# Shear Modulus (GPa) = 19.73358 23.34296 21.53827
#
# Velocity S-wave (km/s) = 3.09487 3.36602 3.23329
# Velocity P-wave (km/s) = 4.79611 5.31407 5.06172
#
# Compressibility (1/GPa) = 0.04743837
#
# Stress axis : x y z
#
# Youngs Moduli (GPa) = 72.42961 37.74098 69.60757
#
# Poissons Ratio (x) = 0.14119 0.13872
# Poissons Ratio (y) = 0.27097 -0.14747
# Poissons Ratio (z) = 0.14434 -0.07996
#
# Static dielectric constant tensor:
#      x y z
#    x 3.624700 0.000000 0.029340 
#    y 0.000000 3.562340 0.000000 
#    z 0.029340 0.000000 3.498940 
# 
# 
# High freq. dielectric constant tensor:
#      x y z
#    x 1.800730 0.000000 0.003510 
#    y 0.000000 1.796190 0.000000 
#    z 0.003510 0.000000 1.793920 
# 
# From -- ./inp_files/135990.got.cif
#   From: 2010.06.25/outbox.cif.g09.slc.cpg/sg12_68_cif.got.tgz:135990.got - 2010.06.28 00:19:55.
