data_PCOD8110670
_publ_section_title
;
Structure prediction by ZEFSAII (Michael W. Deem and Ramdas Pophale) SiO2 
 PCOD8110670
Probable space group: C 2/M
;
_chemical_formula_sum "Si O2"
_cell_formula_units_Z 48
_cell_length_a 12.396707
_cell_length_b 13.034382
_cell_length_c 28.850893
_cell_angle_alpha 90.000000
_cell_angle_beta 150.758606
_cell_angle_gamma 90.000000
_cell_volume 2277.256147
_symmetry_space_group_name_H-M "C 2/M"
_symmetry_group_IT_number 12
_symmetry_cell_setting 'monoclinic'
loop_
_space_group_symop_operation_xyz
x,y,z
-x,y,-z
-x,-y,-z
x,-y,z
1/2+x,1/2+y,z
1/2-x,1/2+y,-z
1/2-x,1/2-y,-z
1/2+x,1/2-y,z
loop_
_atom_site_type_symbol
_atom_site_label
_atom_site_fract_x
_atom_site_fract_y
_atom_site_fract_z
Si Si1 0.461974 0.776741 0.433538
Si Si2 0.090257 0.879753 0.409118
Si Si3 0.039971 0.618803 0.065758
Si Si4 0.720115 0.621171 0.025158
Si Si5 0.016027 0.196166 0.729850
Si Si6 0.276838 0.119501 0.150661
O O1 0.500000 0.739520 0.500000
O O2 0.647239 0.859407 0.488581
O O3 0.469157 0.672926 0.406631
O O4 0.224163 0.832146 0.339129
O O5 0.981654 0.828260 0.323447
O O6 0.041757 0.000000 0.391201
O O7 0.981195 0.500000 0.041768
O O8 0.296230 0.630568 0.174612
O O9 0.872225 0.669032 0.040991
O O10 0.000000 0.668739 0.000000
O O11 0.699123 0.500000 0.011565
O O12 0.830143 0.642924 0.116621
O O13 0.468669 0.663545 0.929527
O O14 0.057411 0.317445 0.754299
O O15 0.302665 0.000000 0.172031
#
# Coordination Sequence:
#
# PCOD8110670 Si02
#       6
#     8   8   8   8   8   8
#     4   9  22  43  63  94 124 150 203 255 306 374
#     4  10  22  43  68  90 121 163 200 248 311 374
#     4  10  22  37  53  82 124 169 213 255 301 364
#     4   8  17  36  57  78 113 164 217 258 304 355
#     4  11  23  35  59  94 123 157 206 251 309 367
#     4   9  19  36  58  85 117 159 208 263 310 353
#
# _framework density 21.077998999999998
#
# number of rings (size 3 to 8) (size 9 to 14) (size 15 to 20)
#    0.000    2.500    0.000    1.500    4.667    6.667 
#    0.000    6.667    0.000    0.000    0.000    0.000 
#    0.000    0.000    0.000    0.000    0.000    0.000 
#
# Total GULP energy -297559.010256 kJ/mol
# GULP energy per Si atom -12398.292094 kJ/mol
# Density = 2.103002 g / cm^3
# Si number density = 21.077999 Si / 1000 Ang^3
#
#
#
# Elastic Constant Matrix: (Units=GPa)
#
#
# Indices 1 2 3 4 5 6 
#
# 1 151.9896 30.7366 51.5835 -0.0001 -1.3654 0.0001
# 2 30.7366 50.5452 10.7079 -0.0004 -12.9871 0.0000
# 3 51.5835 10.7079 107.3337 0.0002 3.3871 0.0001
# 4 -0.0001 -0.0004 0.0002 32.9001 -0.0002 -1.2847
# 5 -1.3654 -12.9871 3.3871 -0.0002 24.8479 0.0000
# 6 0.0001 0.0000 0.0001 -1.2847 0.0000 15.3429
#
#
#
# Elastic Compliance Matrix: (Units=1/GPa)
#
#
# Indices 1 2 3 4 5 6 
#
# 1 0.008830 -0.005006 -0.003693 0.000000 -0.001628 0.000000
# 2 -0.005006 0.026478 -0.000667 0.000000 0.013655 0.000000
# 3 -0.003693 -0.000667 0.011224 0.000000 -0.002081 0.000000
# 4 0.000000 0.000000 0.000000 0.030495 0.000001 0.002553
# 5 -0.001628 0.013655 -0.002081 0.000001 0.047576 0.000000
# 6 0.000000 0.000000 0.000000 0.002553 0.000000 0.065391
#
#
# Mechanical properties :
#
#
# Convention : Reuss Voigt Hill
#
# Bulk Modulus (GPa) = 35.96966 55.10273 45.53619
# Shear Modulus (GPa) = 22.93667 29.07422 26.00545
#
# Velocity S-wave (km/s) = 3.30234 3.71801 3.51632
# Velocity P-wave (km/s) = 5.62518 6.68061 6.17548
#
# Compressibility (1/GPa) = 0.02780121
#
# Stress axis : x y z
#
# Youngs Moduli (GPa) = 113.24456 37.76735 89.09641
#
# Poissons Ratio (x) = 0.18905 0.32904
# Poissons Ratio (y) = 0.56686 0.05941
# Poissons Ratio (z) = 0.41822 0.02518
#
# Static dielectric constant tensor:
#      x y z
#    x 4.222190 0.000000 0.118450 
#    y 0.000000 3.640540 0.000000 
#    z 0.118450 0.000000 3.828870 
# 
# 
# High freq. dielectric constant tensor:
#      x y z
#    x 1.833260 0.000000 0.006010 
#    y 0.000000 1.826960 0.000000 
#    z 0.006010 0.000000 1.818320 
# 
# From -- ./inp_files/358510.got.cif
#   From: 2010.06.25/outbox.cif.g09.slc.cpg/sg12_180_cif.got.tgz:358510.got - 2010.06.28 00:19:55.
