data_PCOD8110363
_publ_section_title
;
Structure prediction by ZEFSAII (Michael W. Deem and Ramdas Pophale) SiO2 
 PCOD8110363
Probable space group: C 2/M
;
_chemical_formula_sum "Si O2"
_cell_formula_units_Z 48
_cell_length_a 8.310936
_cell_length_b 29.491415
_cell_length_c 13.610384
_cell_angle_alpha 90.000000
_cell_angle_beta 141.455605
_cell_angle_gamma 90.000000
_cell_volume 2078.682724
_symmetry_space_group_name_H-M "C 2/M"
_symmetry_group_IT_number 12
_symmetry_cell_setting 'monoclinic'
loop_
_space_group_symop_operation_xyz
x,y,z
-x,y,-z
-x,-y,-z
x,-y,z
1/2+x,1/2+y,z
1/2-x,1/2+y,-z
1/2-x,1/2-y,-z
1/2+x,1/2-y,z
loop_
_atom_site_type_symbol
_atom_site_label
_atom_site_fract_x
_atom_site_fract_y
_atom_site_fract_z
Si Si1 0.059296 0.000000 0.195972
Si Si2 0.243038 0.264706 0.185212
Si Si3 0.574162 0.814538 0.300323
Si Si4 0.101341 0.500000 0.821258
Si Si5 0.999497 0.404726 0.157923
Si Si6 0.929471 0.906609 0.202402
Si Si7 0.717505 0.677746 0.397092
O O1 0.048758 0.043075 0.263436
O O2 0.316578 0.000000 0.253362
O O3 0.826126 0.000000 0.008460
O O4 0.321683 0.211496 0.225193
O O5 0.187648 0.285955 0.264403
O O6 0.489603 0.289212 0.251653
O O7 0.000000 0.273603 0.000000
O O8 0.488753 0.865180 0.232533
O O9 0.209089 0.820316 0.512082
O O10 0.944367 0.453504 0.764702
O O11 0.233184 0.395798 0.195969
O O12 0.721876 0.402332 0.972563
O O13 0.165744 0.871725 0.325935
O O14 0.000000 0.694899 0.500000
#
# Coordination Sequence:
#
# PCOD8110363 Si02
#       7
#     4   8   8   4   8   8   8
#     4   9  19  37  65 104 143 187 231 298 351 418
#     4  12  26  50  74 103 137 184 246 298 348 428
#     4  12  26  45  71 104 142 187 233 297 362 427
#     4   9  19  37  66 109 144 177 239 297 358 405
#     4  10  21  41  73 102 139 186 241 295 343 424
#     4  10  21  42  69 100 142 187 240 287 350 420
#     4  12  27  46  70 103 145 190 231 293 368 426
#
# _framework density 23.091549000000001
#
# number of rings (size 3 to 8) (size 9 to 14) (size 15 to 20)
#    0.000    1.167    1.667    4.000    2.333    3.333 
#    3.000    1.250    0.000    2.000    0.000    0.000 
#    0.000    0.000    0.000    0.000    0.000    0.000 
#
# Total GULP energy -297573.234112 kJ/mol
# GULP energy per Si atom -12398.884755 kJ/mol
# Density = 2.303899 g / cm^3
# Si number density = 23.091549 Si / 1000 Ang^3
#
#
#
# Elastic Constant Matrix: (Units=GPa)
#
#
# Indices 1 2 3 4 5 6 
#
# 1 57.4580 42.5324 29.3545 0.0000 -5.6469 0.0000
# 2 42.5324 177.4162 54.3225 0.0000 -12.7948 0.0000
# 3 29.3545 54.3225 113.8764 0.0000 -0.6740 0.0000
# 4 0.0000 0.0000 0.0000 16.5736 0.0000 11.7628
# 5 -5.6469 -12.7948 -0.6740 0.0000 25.4810 0.0000
# 6 0.0000 0.0000 0.0000 11.7628 0.0000 38.2223
#
#
#
# Elastic Compliance Matrix: (Units=1/GPa)
#
#
# Indices 1 2 3 4 5 6 
#
# 1 0.022666 -0.004030 -0.003903 0.000000 0.002896 0.000000
# 2 -0.004030 0.007594 -0.002567 0.000000 0.002852 0.000000
# 3 -0.003903 -0.002567 0.011001 0.000000 -0.001863 0.000000
# 4 0.000000 0.000000 0.000000 0.077198 0.000000 -0.023758
# 5 0.002896 0.002852 -0.001863 0.000000 0.041270 0.000000
# 6 0.000000 0.000000 0.000000 -0.023758 0.000000 0.033474
#
#
# Mechanical properties :
#
#
# Convention : Reuss Voigt Hill
#
# Bulk Modulus (GPa) = 49.35562 66.79660 58.07611
# Shear Modulus (GPa) = 22.62887 30.89147 26.76017
#
# Velocity S-wave (km/s) = 3.13383 3.66154 3.40792
# Velocity P-wave (km/s) = 5.87493 6.84584 6.37888
#
# Compressibility (1/GPa) = 0.02026112
#
# Stress axis : x y z
#
# Youngs Moduli (GPa) = 44.11960 131.67921 90.89978
#
# Poissons Ratio (x) = 0.53063 0.35480
# Poissons Ratio (y) = 0.17779 0.23334
# Poissons Ratio (z) = 0.17221 0.33802
#
# Static dielectric constant tensor:
#      x y z
#    x 4.156150 0.000000 0.008470 
#    y 0.000000 4.467350 0.000000 
#    z 0.008470 0.000000 3.970430 
# 
# 
# High freq. dielectric constant tensor:
#      x y z
#    x 1.914320 0.000000 0.003520 
#    y 0.000000 1.928640 0.000000 
#    z 0.003520 0.000000 1.890340 
# 
# From -- ./inp_files/302919.got.cif
#   From: 2010.06.25/outbox.cif.g09.slc.cpg/sg12_152_cif.got.tgz:302919.got - 2010.06.28 00:19:55.
