data_PCOD8110756
_publ_section_title
;
Structure prediction by ZEFSAII (Michael W. Deem and Ramdas Pophale) SiO2 
 PCOD8110756
Probable space group: C 2/M
;
_chemical_formula_sum "Si O2"
_cell_formula_units_Z 56
_cell_length_a 13.696996
_cell_length_b 18.744743
_cell_length_c 11.594992
_cell_angle_alpha 90.000000
_cell_angle_beta 69.244559
_cell_angle_gamma 90.000000
_cell_volume 2783.774515
_symmetry_space_group_name_H-M "C 2/M"
_symmetry_group_IT_number 12
_symmetry_cell_setting 'monoclinic'
loop_
_space_group_symop_operation_xyz
x,y,z
-x,y,-z
-x,-y,-z
x,-y,z
1/2+x,1/2+y,z
1/2-x,1/2+y,-z
1/2-x,1/2-y,-z
1/2+x,1/2-y,z
loop_
_atom_site_type_symbol
_atom_site_label
_atom_site_fract_x
_atom_site_fract_y
_atom_site_fract_z
Si Si1 0.243787 0.419050 0.055230
Si Si2 0.814226 0.581192 0.336803
Si Si3 0.482925 0.129235 0.873672
Si Si4 0.018192 0.234047 0.720089
Si Si5 0.222776 0.801530 0.775298
Si Si6 0.810577 0.156643 0.798328
Si Si7 0.161239 0.697981 0.493954
O O1 0.280568 0.500000 0.063215
O O2 0.118798 0.418294 0.104294
O O3 0.288766 0.368750 0.136565
O O4 0.290497 0.393655 0.914799
O O5 0.787260 0.500000 0.375185
O O6 0.719224 0.616284 0.306509
O O7 0.826693 0.620321 0.453631
O O8 0.918907 0.586807 0.217657
O O9 0.465530 0.205173 0.820360
O O10 0.500000 0.144088 0.000000
O O11 0.118428 0.201895 0.743342
O O12 0.051670 0.267613 0.582067
O O13 0.933545 0.172594 0.736840
O O14 0.239599 0.728300 0.839690
O O15 0.325957 0.810226 0.649574
O O16 0.250000 0.750000 0.500000
#
# Coordination Sequence:
#
# PCOD8110756 Si02
#       7
#     8   8   8   8   8   8   8
#     4  12  26  40  59  93 131 167 203 251 316 376
#     4  11  22  38  61  93 128 159 200 261 320 367
#     4  11  20  36  63  89 123 156 204 260 312 363
#     4  10  22  37  64  96 116 157 215 257 303 365
#     4  11  22  43  65  90 124 161 210 255 309 366
#     4  12  22  38  64  91 123 163 208 254 304 371
#     4   9  19  42  63  90 121 161 205 259 305 360
#
# _framework density 20.116571
#
# number of rings (size 3 to 8) (size 9 to 14) (size 15 to 20)
#    0.000    1.143    7.143    1.286    2.000    1.714 
#    0.000    2.143    0.000    7.714    0.000    0.000 
#    0.000    0.000    0.000    0.000    0.000    0.000 
#
# Total GULP energy -347248.942098 kJ/mol
# GULP energy per Si atom -12401.747932 kJ/mol
# Density = 2.007078 g / cm^3
# Si number density = 20.116571 Si / 1000 Ang^3
#
#
#
# Elastic Constant Matrix: (Units=GPa)
#
#
# Indices 1 2 3 4 5 6 
#
# 1 72.0308 20.0043 -3.0453 0.0000 -17.1569 0.0000
# 2 20.0043 134.1113 29.3535 0.0000 -3.6745 0.0000
# 3 -3.0453 29.3535 58.3635 0.0000 4.0121 0.0000
# 4 0.0000 0.0000 0.0000 19.1921 0.0000 -2.6115
# 5 -17.1569 -3.6745 4.0121 0.0000 25.7746 0.0000
# 6 0.0000 0.0000 0.0000 -2.6115 0.0000 6.1398
#
#
#
# Elastic Compliance Matrix: (Units=1/GPa)
#
#
# Indices 1 2 3 4 5 6 
#
# 1 0.017260 -0.002595 0.001457 0.000000 0.010892 0.000000
# 2 -0.002595 0.008859 -0.004608 0.000000 0.000253 0.000000
# 3 0.001457 -0.004608 0.019717 0.000000 -0.002756 0.000000
# 4 0.000000 0.000000 0.000000 0.055306 0.000000 0.023524
# 5 0.010892 0.000253 -0.002756 0.000000 0.046513 0.000000
# 6 0.000000 0.000000 0.000000 0.023524 0.000000 0.172878
#
#
# Mechanical properties :
#
#
# Convention : Reuss Voigt Hill
#
# Bulk Modulus (GPa) = 29.11795 39.68120 34.39958
# Shear Modulus (GPa) = 14.55717 24.76749 19.66233
#
# Velocity S-wave (km/s) = 2.69298 3.51265 3.12976
# Velocity P-wave (km/s) = 4.91686 6.01831 5.49525
#
# Compressibility (1/GPa) = 0.03434308
#
# Stress axis : x y z
#
# Youngs Moduli (GPa) = 57.93888 112.87756 50.71698
#
# Poissons Ratio (x) = 0.29291 -0.07389
# Poissons Ratio (y) = 0.15035 0.23373
# Poissons Ratio (z) = -0.08441 0.52019
#
# Static dielectric constant tensor:
#      x y z
#    x 3.609010 0.000000 -0.068120 
#    y 0.000000 3.414800 0.000000 
#    z -0.068120 0.000000 4.209630 
# 
# 
# High freq. dielectric constant tensor:
#      x y z
#    x 1.784500 0.000000 0.001260 
#    y 0.000000 1.769840 0.000000 
#    z 0.001260 0.000000 1.790170 
# 
# From -- ./inp_files/146013.got.cif
#   From: 2010.06.25/outbox.cif.g09.slc.cpg/sg12_74_cif.got.tgz:146013.got - 2010.06.28 00:19:55.
