data_PCOD8110067
_publ_section_title
;
Structure prediction by ZEFSAII (Michael W. Deem and Ramdas Pophale) SiO2 
 PCOD8110067
Probable space group: C 2/M
;
_chemical_formula_sum "Si O2"
_cell_formula_units_Z 64
_cell_length_a 32.987670
_cell_length_b 8.823401
_cell_length_c 19.379798
_cell_angle_alpha 90.000000
_cell_angle_beta 33.434348
_cell_angle_gamma 90.000000
_cell_volume 3107.947131
_symmetry_space_group_name_H-M "C 2/M"
_symmetry_group_IT_number 12
_symmetry_cell_setting 'monoclinic'
loop_
_space_group_symop_operation_xyz
x,y,z
-x,y,-z
-x,-y,-z
x,-y,z
1/2+x,1/2+y,z
1/2-x,1/2+y,-z
1/2-x,1/2-y,-z
1/2+x,1/2-y,z
loop_
_atom_site_type_symbol
_atom_site_label
_atom_site_fract_x
_atom_site_fract_y
_atom_site_fract_z
Si Si1 0.542518 0.679688 0.008242
Si Si2 0.202718 0.167646 0.009788
Si Si3 0.202973 0.678121 0.766547
Si Si4 0.042296 0.179597 0.732488
Si Si5 0.923161 0.167137 0.643987
Si Si6 0.699674 0.832114 0.261096
Si Si7 0.711216 0.321236 0.490775
Si Si8 0.440353 0.178973 0.767066
O O1 0.548008 0.500000 0.000606
O O2 0.625068 0.742272 0.890126
O O3 0.500000 0.737036 0.000000
O O4 0.498096 0.735453 0.139589
O O5 0.249037 0.148691 0.876559
O O6 0.178775 0.000000 0.069935
O O7 0.250000 0.250000 0.000000
O O8 0.132791 0.269510 0.088853
O O9 0.189015 0.500000 0.786449
O O10 0.261494 0.720080 0.741395
O O11 0.241730 0.734671 0.641470
O O12 0.126722 0.234096 0.611003
O O13 0.008781 0.255042 0.711824
O O14 0.034814 0.000000 0.736158
O O15 0.876385 0.260459 0.655159
O O16 0.932888 0.256596 0.701006
O O17 0.000000 0.144078 0.500000
O O18 0.888343 0.000000 0.707280
O O19 0.685532 0.000000 0.313332
O O20 0.712930 0.500000 0.494106
O O21 0.750000 0.250000 0.500000
O O22 0.447015 0.000000 0.753936
#
# Coordination Sequence:
#
# PCOD8110067 Si02
#       8
#     8   8   8   8   8   8   8   8
#     4  10  21  40  67  95 124 164 212 260 316 377
#     4  11  22  38  61  88 119 160 206 254 309 364
#     4  11  24  40  62  95 131 166 207 257 316 380
#     4  10  22  41  64  91 126 167 212 260 310 375
#     4  11  25  43  64  87 119 165 210 258 313 370
#     4  11  24  41  63  92 125 162 208 257 306 368
#     4  10  23  43  67  94 125 163 207 256 313 378
#     4  12  25  40  61  92 126 163 208 258 310 369
#
# _framework density 20.592371
#
# number of rings (size 3 to 8) (size 9 to 14) (size 15 to 20)
#    0.000    1.250    1.250    4.125    1.750    8.750 
#    0.000    0.000    0.000    0.000    0.000    0.000 
#    0.000    0.000    0.000    0.000    0.000    0.000 
#
# Total GULP energy -396795.186155 kJ/mol
# GULP energy per Si atom -12399.849567 kJ/mol
# Density = 2.054550 g / cm^3
# Si number density = 20.592371 Si / 1000 Ang^3
#
#
#
# Elastic Constant Matrix: (Units=GPa)
#
#
# Indices 1 2 3 4 5 6 
#
# 1 134.4928 26.0917 30.4241 0.0042 -16.8086 -0.0020
# 2 26.0917 56.7356 21.8050 0.0014 -6.5260 -0.0006
# 3 30.4241 21.8050 106.0824 -0.0033 -16.7754 -0.0017
# 4 0.0042 0.0014 -0.0033 27.6596 0.0003 -4.0897
# 5 -16.8086 -6.5260 -16.7754 0.0003 33.9486 0.0050
# 6 -0.0020 -0.0006 -0.0017 -4.0897 0.0050 38.0769
#
#
#
# Elastic Compliance Matrix: (Units=1/GPa)
#
#
# Indices 1 2 3 4 5 6 
#
# 1 0.008736 -0.003138 -0.001380 -0.000001 0.003040 0.000000
# 2 -0.003138 0.020376 -0.003162 -0.000001 0.000801 0.000000
# 3 -0.001380 -0.003162 0.011138 0.000002 0.004213 0.000000
# 4 -0.000001 -0.000001 0.000002 0.036737 -0.000001 0.003946
# 5 0.003040 0.000801 0.004213 -0.000001 0.033197 -0.000004
# 6 0.000000 0.000000 0.000000 0.003946 -0.000004 0.026686
#
#
# Mechanical properties :
#
#
# Convention : Reuss Voigt Hill
#
# Bulk Modulus (GPa) = 40.17298 50.43914 45.30606
# Shear Modulus (GPa) = 31.14741 34.53637 32.84189
#
# Velocity S-wave (km/s) = 3.89340 4.09974 3.99790
# Velocity P-wave (km/s) = 6.30574 6.85257 6.58484
#
# Compressibility (1/GPa) = 0.02489236
#
# Stress axis : x y z
#
# Youngs Moduli (GPa) = 114.46696 49.07790 89.77915
#
# Poissons Ratio (x) = 0.15399 0.12387
# Poissons Ratio (y) = 0.35915 0.28385
# Poissons Ratio (z) = 0.15794 0.15517
#
# Static dielectric constant tensor:
#      x y z
#    x 3.875890 0.000110 -0.176830 
#    y 0.000110 4.575270 0.002020 
#    z -0.176830 0.002020 6.249440 
# 
# 
# High freq. dielectric constant tensor:
#      x y z
#    x 1.817050 0.000000 -0.002670 
#    y 0.000000 1.808850 0.000000 
#    z -0.002670 0.000000 1.817800 
# 
# From -- ./inp_files/295613.got.cif
#   From: 2010.06.25/outbox.cif.g09.slc.cpg/sg12_148_cif.got.tgz:295613.got - 2010.06.28 00:19:55.
