data_PCOD8110068
_publ_section_title
;
Structure prediction by ZEFSAII (Michael W. Deem and Ramdas Pophale) SiO2 
 PCOD8110068
Probable space group: C 2/M
;
_chemical_formula_sum "Si O2"
_cell_formula_units_Z 40
_cell_length_a 18.029776
_cell_length_b 13.901787
_cell_length_c 19.143920
_cell_angle_alpha 90.000000
_cell_angle_beta 157.781363
_cell_angle_gamma 90.000000
_cell_volume 1814.456955
_symmetry_space_group_name_H-M "C 2/M"
_symmetry_group_IT_number 12
_symmetry_cell_setting 'monoclinic'
loop_
_space_group_symop_operation_xyz
x,y,z
-x,y,-z
-x,-y,-z
x,-y,z
1/2+x,1/2+y,z
1/2-x,1/2+y,-z
1/2-x,1/2-y,-z
1/2+x,1/2-y,z
loop_
_atom_site_type_symbol
_atom_site_label
_atom_site_fract_x
_atom_site_fract_y
_atom_site_fract_z
Si Si1 0.178487 0.838931 0.697500
Si Si2 0.777569 0.608738 0.050531
Si Si3 0.868355 0.109163 0.629918
Si Si4 0.044164 0.608289 0.940836
Si Si5 0.011798 0.277753 0.361318
O O1 0.365427 0.822116 0.809293
O O2 0.000000 0.892819 0.500000
O O3 0.077984 0.740580 0.639713
O O4 0.265796 0.892384 0.842165
O O5 0.838356 0.500000 0.124082
O O6 0.889140 0.640536 0.077235
O O7 0.834048 0.685253 0.158241
O O8 0.546376 0.615839 0.838969
O O9 0.896863 0.177611 0.587730
O O10 0.677871 0.140742 0.507903
O O11 0.842109 0.000000 0.579385
O O12 0.960051 0.500000 0.867566
#
# Coordination Sequence:
#
# PCOD8110068 Si02
#       5
#     8   8   8   8   8
#     4  11  24  37  56  88 127 170 201 241 306 379
#     4  10  21  40  67  95 125 158 204 266 318 366
#     4  10  22  37  60  94 124 157 205 259 311 362
#     4  10  23  40  60  92 127 159 203 258 317 385
#     4  11  23  38  63  91 128 166 211 253 309 372
#
# _framework density 22.045164
#
# number of rings (size 3 to 8) (size 9 to 14) (size 15 to 20)
#    0.000    1.600    2.000    2.400    5.600    4.000 
#    0.000    0.000    0.000    2.400    0.000   14.000 
#    0.000    0.000    0.000    0.000    0.000    0.000 
#
# Total GULP energy -247868.019205 kJ/mol
# GULP energy per Si atom -12393.400960 kJ/mol
# Density = 2.199499 g / cm^3
# Si number density = 22.045164 Si / 1000 Ang^3
#
#
#
# Elastic Constant Matrix: (Units=GPa)
#
#
# Indices 1 2 3 4 5 6 
#
# 1 73.9609 24.3004 43.2894 -0.0399 6.4567 -0.0145
# 2 24.3004 97.5691 31.9407 0.0388 5.9548 0.0122
# 3 43.2894 31.9407 122.3627 0.0372 17.0280 0.0103
# 4 -0.0399 0.0388 0.0372 31.4039 -0.0014 7.7132
# 5 6.4567 5.9548 17.0280 -0.0014 28.8519 -0.0028
# 6 -0.0145 0.0122 0.0103 7.7132 -0.0028 21.5515
#
#
#
# Elastic Compliance Matrix: (Units=1/GPa)
#
#
# Indices 1 2 3 4 5 6 
#
# 1 0.017621 -0.002565 -0.005545 0.000031 -0.000142 0.000005
# 2 -0.002565 0.011591 -0.002032 -0.000015 -0.000619 -0.000002
# 3 -0.005545 -0.002032 0.011367 -0.000018 -0.005048 -0.000002
# 4 0.000031 -0.000015 -0.000018 0.034912 0.000007 -0.012495
# 5 -0.000142 -0.000619 -0.005048 0.000007 0.037799 0.000005
# 6 0.000005 -0.000002 -0.000002 -0.012495 0.000005 0.050872
#
#
# Mechanical properties :
#
#
# Convention : Reuss Voigt Hill
#
# Bulk Modulus (GPa) = 49.27168 54.77262 52.02215
# Shear Modulus (GPa) = 26.14913 29.31895 27.73404
#
# Velocity S-wave (km/s) = 3.44781 3.65080 3.55076
# Velocity P-wave (km/s) = 6.18455 6.53228 6.36079
#
# Compressibility (1/GPa) = 0.02029563
#
# Stress axis : x y z
#
# Youngs Moduli (GPa) = 56.75015 86.27404 87.97375
#
# Poissons Ratio (x) = 0.22128 0.48779
# Poissons Ratio (y) = 0.14556 0.17877
# Poissons Ratio (z) = 0.31467 0.17532
#
# Static dielectric constant tensor:
#      x y z
#    x 3.868330 -0.000050 0.194230 
#    y -0.000050 3.936910 -0.000160 
#    z 0.194230 -0.000160 4.183940 
# 
# 
# High freq. dielectric constant tensor:
#      x y z
#    x 1.843680 0.000000 0.014000 
#    y 0.000000 1.842160 -0.000010 
#    z 0.014000 -0.000010 1.888510 
# 
# From -- ./inp_files/322160.got.cif
#   From: 2010.06.25/outbox.cif.g09.slc.cpg/sg12_162_cif.got.tgz:322160.got - 2010.06.28 00:19:55.
