data_PCOD8110077
_publ_section_title
;
Structure prediction by ZEFSAII (Michael W. Deem and Ramdas Pophale) SiO2 
 PCOD8110077
Probable space group: C 2/M
;
_chemical_formula_sum "Si O2"
_cell_formula_units_Z 48
_cell_length_a 14.001614
_cell_length_b 14.394526
_cell_length_c 11.158931
_cell_angle_alpha 90.000000
_cell_angle_beta 76.513177
_cell_angle_gamma 90.000000
_cell_volume 2187.023976
_symmetry_space_group_name_H-M "C 2/M"
_symmetry_group_IT_number 12
_symmetry_cell_setting 'monoclinic'
loop_
_space_group_symop_operation_xyz
x,y,z
-x,y,-z
-x,-y,-z
x,-y,z
1/2+x,1/2+y,z
1/2-x,1/2+y,-z
1/2-x,1/2-y,-z
1/2+x,1/2-y,z
loop_
_atom_site_type_symbol
_atom_site_label
_atom_site_fract_x
_atom_site_fract_y
_atom_site_fract_z
Si Si1 0.898358 0.107435 0.484933
Si Si2 0.565242 0.105339 0.372210
Si Si3 0.191606 0.107032 0.244226
Si Si4 0.213633 0.894311 0.709770
Si Si5 0.849666 0.258822 0.109779
Si Si6 0.060698 0.748103 0.162891
O O1 0.814990 0.119221 0.610429
O O2 0.859377 0.148922 0.370352
O O3 0.000000 0.155664 0.500000
O O4 0.919889 0.000000 0.453413
O O5 0.500000 0.146488 0.500000
O O6 0.678324 0.109452 0.379788
O O7 0.552122 0.162486 0.255002
O O8 0.531860 0.000000 0.353722
O O9 0.295613 0.149298 0.173693
O O10 0.095729 0.157538 0.217097
O O11 0.187412 0.000000 0.205798
O O12 0.212581 0.831483 0.829940
O O13 0.186239 0.000000 0.753257
O O14 0.955876 0.240909 0.133863
O O15 0.856987 0.269027 0.964310
#
# Coordination Sequence:
#
# PCOD8110077 Si02
#       6
#     8   8   8   8   8   8
#     4   9  19  36  59  92 129 162 207 265 324 385
#     4  10  23  42  68  98 129 168 217 271 330 392
#     4  11  24  42  66  95 131 176 222 273 330 396
#     4  10  21  40  67  96 129 169 215 270 327 389
#     4  11  25  43  65  96 131 174 225 270 326 397
#     4  11  25  45  65  94 136 173 219 276 330 392
#
# _framework density 21.947633
#
# number of rings (size 3 to 8) (size 9 to 14) (size 15 to 20)
#    0.000    1.667    1.667    1.500    2.333    6.667 
#    0.000    3.333    0.000    0.000    0.000    0.000 
#    0.000    0.000    0.000    0.000    0.000    0.000 
#
# Total GULP energy -297564.212029 kJ/mol
# GULP energy per Si atom -12398.508835 kJ/mol
# Density = 2.189768 g / cm^3
# Si number density = 21.947633 Si / 1000 Ang^3
#
#
#
# Elastic Constant Matrix: (Units=GPa)
#
#
# Indices 1 2 3 4 5 6 
#
# 1 54.7288 26.6522 30.6768 0.0000 -6.5749 0.0000
# 2 26.6522 120.1148 69.4644 0.0000 -1.9212 0.0000
# 3 30.6768 69.4644 163.4066 0.0000 -6.9661 0.0000
# 4 0.0000 0.0000 0.0000 27.3880 0.0000 -3.7376
# 5 -6.5749 -1.9212 -6.9661 0.0000 36.1779 0.0000
# 6 0.0000 0.0000 0.0000 -3.7376 0.0000 25.7896
#
#
#
# Elastic Compliance Matrix: (Units=1/GPa)
#
#
# Indices 1 2 3 4 5 6 
#
# 1 0.021690 -0.003297 -0.002531 0.000000 0.003280 0.000000
# 2 -0.003297 0.011544 -0.004323 0.000000 -0.000819 0.000000
# 3 -0.002531 -0.004323 0.008473 0.000000 0.000942 0.000000
# 4 0.000000 0.000000 0.000000 0.037249 0.000000 0.005398
# 5 0.003280 -0.000819 0.000942 0.000000 0.028375 0.000000
# 6 0.000000 0.000000 0.000000 0.005398 0.000000 0.039558
#
#
# Mechanical properties :
#
#
# Convention : Reuss Voigt Hill
#
# Bulk Modulus (GPa) = 46.71766 65.75966 56.23866
# Shear Modulus (GPa) = 28.68203 31.96824 30.32513
#
# Velocity S-wave (km/s) = 3.61894 3.82064 3.72116
# Velocity P-wave (km/s) = 6.22853 7.03493 6.64397
#
# Compressibility (1/GPa) = 0.02140518
#
# Stress axis : x y z
#
# Youngs Moduli (GPa) = 46.10442 86.62449 118.02449
#
# Poissons Ratio (x) = 0.28558 0.29868
# Poissons Ratio (y) = 0.15200 0.51027
# Poissons Ratio (z) = 0.11667 0.37451
#
# Static dielectric constant tensor:
#      x y z
#    x 4.191610 0.000000 -0.064290 
#    y 0.000000 3.811130 0.000000 
#    z -0.064290 0.000000 4.234300 
# 
# 
# High freq. dielectric constant tensor:
#      x y z
#    x 1.871770 0.000000 -0.008260 
#    y 0.000000 1.850850 0.000000 
#    z -0.008260 0.000000 1.870980 
# 
# From -- ./inp_files/142754.got.cif
#   From: 2010.06.25/outbox.cif.g09.slc.cpg/sg12_72_cif.got.tgz:142754.got - 2010.06.28 00:19:55.
