data_PCOD8110389
_publ_section_title
;
Structure prediction by ZEFSAII (Michael W. Deem and Ramdas Pophale) SiO2 
 PCOD8110389
Probable space group: C 2/M
;
_chemical_formula_sum "Si O2"
_cell_formula_units_Z 40
_cell_length_a 18.641301
_cell_length_b 21.428101
_cell_length_c 5.116174
_cell_angle_alpha 90.000000
_cell_angle_beta 59.851527
_cell_angle_gamma 90.000000
_cell_volume 1767.193650
_symmetry_space_group_name_H-M "C 2/M"
_symmetry_group_IT_number 12
_symmetry_cell_setting 'monoclinic'
loop_
_space_group_symop_operation_xyz
x,y,z
-x,y,-z
-x,-y,-z
x,-y,z
1/2+x,1/2+y,z
1/2-x,1/2+y,-z
1/2-x,1/2-y,-z
1/2+x,1/2-y,z
loop_
_atom_site_type_symbol
_atom_site_label
_atom_site_fract_x
_atom_site_fract_y
_atom_site_fract_z
Si Si1 0.056112 0.071036 0.151673
Si Si2 0.811704 0.150570 0.359434
Si Si3 0.673974 0.928323 0.778392
Si Si4 0.909077 0.378798 0.575485
Si Si5 0.680883 0.235902 0.336064
O O1 0.000000 0.091678 0.500000
O O2 0.090387 0.000000 0.131313
O O3 0.129118 0.122840 0.977667
O O4 0.000000 0.072979 0.000000
O O5 0.771221 0.091592 0.579604
O O6 0.728483 0.188256 0.438342
O O7 0.857780 0.201070 0.462365
O O8 0.609355 0.897574 0.690349
O O9 0.669658 0.000000 0.723773
O O10 0.652204 0.914680 0.117830
O O11 0.896177 0.303757 0.636825
O O12 0.000000 0.397523 0.500000
O O13 0.750000 0.250000 0.000000
#
# Coordination Sequence:
#
# PCOD8110389 Si02
#       5
#     8   8   8   8   8
#     4  10  23  42  64  96 134 170 214 272 330 385
#     4  10  22  41  65  92 129 168 219 268 319 388
#     4  11  23  40  67  96 124 172 216 257 325 391
#     4  11  24  42  63  93 134 165 212 269 323 381
#     4  10  21  42  65  89 125 170 214 269 317 378
#
# _framework density 22.634758000000001
#
# number of rings (size 3 to 8) (size 9 to 14) (size 15 to 20)
#    0.000    1.600    2.000    1.800    2.800    2.400 
#    3.600    4.000    0.000    0.000    0.000    0.000 
#    0.000    0.000    0.000    0.000    0.000    0.000 
#
# Total GULP energy -247771.448680 kJ/mol
# GULP energy per Si atom -12388.572434 kJ/mol
# Density = 2.258324 g / cm^3
# Si number density = 22.634758 Si / 1000 Ang^3
#
#
#
# Elastic Constant Matrix: (Units=GPa)
#
#
# Indices 1 2 3 4 5 6 
#
# 1 35.4419 27.6837 6.2955 0.0000 -0.4968 0.0000
# 2 27.6837 140.2162 52.6102 0.0000 -14.6587 0.0000
# 3 6.2955 52.6102 131.8861 0.0000 -6.0135 0.0000
# 4 0.0000 0.0000 0.0000 45.3345 0.0000 1.9790
# 5 -0.4968 -14.6587 -6.0135 0.0000 35.1514 0.0000
# 6 0.0000 0.0000 0.0000 1.9790 0.0000 21.8880
#
#
#
# Elastic Compliance Matrix: (Units=1/GPa)
#
#
# Indices 1 2 3 4 5 6 
#
# 1 0.033717 -0.007364 0.001219 0.000000 -0.002386 0.000000
# 2 -0.007364 0.010310 -0.003598 0.000000 0.003580 0.000000
# 3 0.001219 -0.003598 0.008962 0.000000 0.000050 0.000000
# 4 0.000000 0.000000 0.000000 0.022146 0.000000 -0.002002
# 5 -0.002386 0.003580 0.000050 0.000000 0.029916 0.000000
# 6 0.000000 0.000000 0.000000 -0.002002 0.000000 0.045868
#
#
# Mechanical properties :
#
#
# Convention : Reuss Voigt Hill
#
# Bulk Modulus (GPa) = 29.84764 53.41368 41.63066
# Shear Modulus (GPa) = 27.53739 35.20512 31.37126
#
# Velocity S-wave (km/s) = 3.49176 3.94808 3.72691
# Velocity P-wave (km/s) = 5.42879 6.66576 6.07882
#
# Compressibility (1/GPa) = 0.03350349
#
# Stress axis : x y z
#
# Youngs Moduli (GPa) = 29.65861 96.99362 111.58678
#
# Poissons Ratio (x) = 0.71424 -0.13605
# Poissons Ratio (y) = 0.21840 0.40149
# Poissons Ratio (z) = -0.03616 0.34898
#
# Static dielectric constant tensor:
#      x y z
#    x 3.774260 0.000000 0.011440 
#    y 0.000000 4.237780 0.000000 
#    z 0.011440 0.000000 3.740700 
# 
# 
# High freq. dielectric constant tensor:
#      x y z
#    x 1.867350 0.000000 0.009640 
#    y 0.000000 1.908360 0.000000 
#    z 0.009640 0.000000 1.893910 
# 
# From -- ./inp_files/21129.got.cif
#   From: 2010.06.25/outbox.cif.g09.slc.cpg/sg12_11_cif.got.tgz:21129.got - 2010.06.28 00:19:55.
