data_PCOD8110935
_publ_section_title
;
Structure prediction by ZEFSAII (Michael W. Deem and Ramdas Pophale) SiO2 
 PCOD8110935
Probable space group: C 2/M
;
_chemical_formula_sum "Si O2"
_cell_formula_units_Z 48
_cell_length_a 24.630473
_cell_length_b 22.802184
_cell_length_c 11.313900
_cell_angle_alpha 90.000000
_cell_angle_beta 23.195648
_cell_angle_gamma 90.000000
_cell_volume 2502.745825
_symmetry_space_group_name_H-M "C 2/M"
_symmetry_group_IT_number 12
_symmetry_cell_setting 'monoclinic'
loop_
_space_group_symop_operation_xyz
x,y,z
-x,y,-z
-x,-y,-z
x,-y,z
1/2+x,1/2+y,z
1/2-x,1/2+y,-z
1/2-x,1/2-y,-z
1/2+x,1/2-y,z
loop_
_atom_site_type_symbol
_atom_site_label
_atom_site_fract_x
_atom_site_fract_y
_atom_site_fract_z
Si Si1 0.770425 0.329357 0.217211
Si Si2 0.589953 0.500000 0.204263
Si Si3 0.737258 0.308682 0.783092
Si Si4 0.466851 0.875579 0.430952
Si Si5 0.335239 0.809178 0.338058
Si Si6 0.005365 0.875790 0.631385
Si Si7 0.090113 0.500000 0.436014
O O1 0.739256 0.260659 0.264516
O O2 0.782490 0.347548 0.331700
O O3 0.660458 0.369000 0.368374
O O4 0.918291 0.340444 0.866976
O O5 0.500000 0.500000 0.500000
O O6 0.550673 0.439751 0.214775
O O7 0.749313 0.500000 0.920715
O O8 0.827786 0.337652 0.704737
O O9 0.790520 0.337644 0.552489
O O10 0.580461 0.325596 0.127854
O O11 0.500000 0.883555 0.500000
O O12 0.444452 0.941011 0.420619
O O13 0.250000 0.750000 0.500000
O O14 0.500000 0.798078 0.000000
O O15 0.000000 0.867539 0.500000
O O16 0.000000 0.500000 0.500000
#
# Coordination Sequence:
#
# PCOD8110935 Si02
#       7
#     8   4   8   8   8   8   4
#     4  11  24  37  60  91 122 158 199 243 303 356
#     4  10  22  40  60  83 118 160 208 244 286 357
#     4  11  22  39  61  87 126 158 197 247 299 357
#     4  11  22  37  60  88 121 158 199 242 301 358
#     4  10  22  39  61  86 118 161 211 244 285 357
#     4  11  24  39  61  90 124 160 198 247 300 359
#     4  10  22  38  62  85 113 163 209 241 289 356
#
# _framework density 19.178934999999999
#
# number of rings (size 3 to 8) (size 9 to 14) (size 15 to 20)
#    0.000    1.333    3.333    2.000   14.000    4.000 
#    0.000    0.000    0.000    6.000    0.000    0.000 
#    0.000    0.000    0.000    0.000    0.000    0.000 
#
# Total GULP energy -297453.699431 kJ/mol
# GULP energy per Si atom -12393.904143 kJ/mol
# Density = 1.913528 g / cm^3
# Si number density = 19.178935 Si / 1000 Ang^3
#
#
#
# Elastic Constant Matrix: (Units=GPa)
#
#
# Indices 1 2 3 4 5 6 
#
# 1 86.9359 32.8415 30.0980 -0.0002 -2.8811 -0.0018
# 2 32.8415 96.7964 18.0154 -0.0001 -3.8049 -0.0003
# 3 30.0980 18.0154 78.2212 0.0002 1.3693 -0.0012
# 4 -0.0002 -0.0001 0.0002 7.2426 0.0000 -17.9860
# 5 -2.8811 -3.8049 1.3693 0.0000 36.2009 0.0012
# 6 -0.0018 -0.0003 -0.0012 -17.9860 0.0012 6.3947
#
#
#
# Elastic Compliance Matrix: (Units=1/GPa)
#
#
# Indices 1 2 3 4 5 6 
#
# 1 0.014713 -0.004074 -0.004739 -0.000001 0.000922 -0.000001
# 2 -0.004074 0.011976 -0.001208 0.000000 0.000980 0.000000
# 3 -0.004739 -0.001208 0.014905 -0.000001 -0.001068 0.000000
# 4 -0.000001 0.000000 -0.000001 -0.023070 0.000002 -0.064889
# 5 0.000922 0.000980 -0.001068 0.000002 0.027840 0.000001
# 6 -0.000001 0.000000 0.000000 -0.064889 0.000001 -0.026129
#
#
# Mechanical properties :
#
#
# Convention : Reuss Voigt Hill
#
# Bulk Modulus (GPa) = 46.39845 47.09590 46.74718
# Shear Modulus (GPa) = 105.35019 22.03421 63.69220
#
# Velocity S-wave (km/s) = 7.41953 3.39318 5.76902
# Velocity P-wave (km/s) = 9.88150 6.32147 8.29473
#
# Compressibility (1/GPa) = 0.02155244
#
# Stress axis : x y z
#
# Youngs Moduli (GPa) = 67.96763 83.49727 67.09287
#
# Poissons Ratio (x) = 0.34013 0.31796
# Poissons Ratio (y) = 0.27687 0.08105
# Poissons Ratio (z) = 0.32211 0.10087
#
# Static dielectric constant tensor:
#      x y z
#    x 4.127340 0.000000 0.210550 
#    y 0.000000 3.953210 0.000000 
#    z 0.210550 0.000000 3.680250 
# 
# 
# High freq. dielectric constant tensor:
#      x y z
#    x 1.739440 0.000000 -0.014610 
#    y 0.000000 1.735430 0.000000 
#    z -0.014610 0.000000 1.760180 
# 
# From -- ./inp_files/185018.got.cif
#   From: 2010.06.25/outbox.cif.g09.slc.cpg/sg12_93_cif.got.tgz:185018.got - 2010.06.28 00:19:55.
