data_PCOD8110365
_publ_section_title
;
Structure prediction by ZEFSAII (Michael W. Deem and Ramdas Pophale) SiO2 
 PCOD8110365
Probable space group: C 2/M
;
_chemical_formula_sum "Si O2"
_cell_formula_units_Z 32
_cell_length_a 10.094624
_cell_length_b 18.594479
_cell_length_c 13.369478
_cell_angle_alpha 90.000000
_cell_angle_beta 32.670700
_cell_angle_gamma 90.000000
_cell_volume 1354.657392
_symmetry_space_group_name_H-M "C 2/M"
_symmetry_group_IT_number 12
_symmetry_cell_setting 'monoclinic'
loop_
_space_group_symop_operation_xyz
x,y,z
-x,y,-z
-x,-y,-z
x,-y,z
1/2+x,1/2+y,z
1/2-x,1/2+y,-z
1/2-x,1/2-y,-z
1/2+x,1/2-y,z
loop_
_atom_site_type_symbol
_atom_site_label
_atom_site_fract_x
_atom_site_fract_y
_atom_site_fract_z
Si Si1 0.081739 0.191014 0.055829
Si Si2 0.479378 0.918367 0.752599
Si Si3 0.808703 0.827835 0.419546
Si Si4 0.252013 0.081203 0.217253
O O1 0.845417 0.176890 0.276369
O O2 0.250000 0.250000 0.000000
O O3 0.227639 0.116626 0.950585
O O4 0.000000 0.220767 0.000000
O O5 0.578742 0.879150 0.590016
O O6 0.693077 0.911648 0.699777
O O7 0.416666 0.000000 0.766468
O O8 0.750000 0.750000 0.500000
O O9 0.056233 0.859309 0.310948
O O10 0.156796 0.000000 0.253934
O O11 0.500000 0.096831 0.000000
#
# Coordination Sequence:
#
# PCOD8110365 Si02
#       4
#     8   8   8   8
#     4  12  29  49  75 106 149 199 249 304 373 445
#     4  11  25  46  75 112 148 193 248 307 374 440
#     4  12  25  43  72 111 149 191 242 307 368 436
#     4  10  21  41  75 109 145 194 247 305 364 435
#
# _framework density 23.622208000000001
#
# number of rings (size 3 to 8) (size 9 to 14) (size 15 to 20)
#    0.000    0.750    5.000    1.500    3.500    6.500 
#    0.000    1.250    0.000    0.000    0.000    0.000 
#    0.000    0.000    0.000    0.000    0.000    0.000 
#
# Total GULP energy -198475.816484 kJ/mol
# GULP energy per Si atom -12404.738530 kJ/mol
# Density = 2.356844 g / cm^3
# Si number density = 23.622208 Si / 1000 Ang^3
#
#
#
# Elastic Constant Matrix: (Units=GPa)
#
#
# Indices 1 2 3 4 5 6 
#
# 1 106.2780 52.5009 34.1756 -0.0280 20.0461 0.0112
# 2 52.5009 189.5374 88.0966 0.0265 4.8018 0.0059
# 3 34.1756 88.0966 167.5048 0.0129 42.4329 0.0414
# 4 -0.0280 0.0265 0.0129 54.1347 0.0298 -10.5569
# 5 20.0461 4.8018 42.4329 0.0298 40.5226 -0.0214
# 6 0.0112 0.0059 0.0414 -10.5569 -0.0214 33.2378
#
#
#
# Elastic Compliance Matrix: (Units=1/GPa)
#
#
# Indices 1 2 3 4 5 6 
#
# 1 0.012171 -0.003776 0.001245 0.000010 -0.006877 -0.000006
# 2 -0.003776 0.008696 -0.005465 -0.000007 0.006560 0.000009
# 3 0.001245 -0.005465 0.011681 0.000003 -0.012199 -0.000021
# 4 0.000010 -0.000007 0.000003 0.019692 -0.000019 0.006255
# 5 -0.006877 0.006560 -0.012199 -0.000019 0.040077 0.000036
# 6 -0.000006 0.000009 -0.000021 0.006255 0.000036 0.032073
#
#
# Mechanical properties :
#
#
# Convention : Reuss Voigt Hill
#
# Bulk Modulus (GPa) = 60.40183 90.31848 75.36016
# Shear Modulus (GPa) = 34.27020 44.81551 39.54285
#
# Velocity S-wave (km/s) = 3.81302 4.36038 4.09586
# Velocity P-wave (km/s) = 6.70902 7.97923 7.37154
#
# Compressibility (1/GPa) = 0.01655579
#
# Stress axis : x y z
#
# Youngs Moduli (GPa) = 82.16017 115.00004 85.61258
#
# Poissons Ratio (x) = 0.43420 -0.10655
# Poissons Ratio (y) = 0.31021 0.46785
# Poissons Ratio (z) = -0.10225 0.62845
#
# Static dielectric constant tensor:
#      x y z
#    x 4.193600 0.000010 0.405640 
#    y 0.000010 4.342460 0.000070 
#    z 0.405640 0.000070 4.987020 
# 
# 
# High freq. dielectric constant tensor:
#      x y z
#    x 1.910710 0.000000 0.013260 
#    y 0.000000 1.946690 0.000000 
#    z 0.013260 0.000000 1.958730 
# 
# From -- ./inp_files/205872.got.cif
#   From: 2010.06.25/outbox.cif.g09.slc.cpg/sg12_103_cif.got.tgz:205872.got - 2010.06.28 00:19:55.
