data_PCOD8110338
_publ_section_title
;
Structure prediction by ZEFSAII (Michael W. Deem and Ramdas Pophale) SiO2 
 PCOD8110338
Probable space group: C 2/M
;
_chemical_formula_sum "Si O2"
_cell_formula_units_Z 44
_cell_length_a 11.819151
_cell_length_b 23.559495
_cell_length_c 8.693411
_cell_angle_alpha 90.000000
_cell_angle_beta 122.703773
_cell_angle_gamma 90.000000
_cell_volume 2036.966065
_symmetry_space_group_name_H-M "C 2/M"
_symmetry_group_IT_number 12
_symmetry_cell_setting 'monoclinic'
loop_
_space_group_symop_operation_xyz
x,y,z
-x,y,-z
-x,-y,-z
x,-y,z
1/2+x,1/2+y,z
1/2-x,1/2+y,-z
1/2-x,1/2-y,-z
1/2+x,1/2-y,z
loop_
_atom_site_type_symbol
_atom_site_label
_atom_site_fract_x
_atom_site_fract_y
_atom_site_fract_z
Si Si1 0.882311 0.285861 0.127931
Si Si2 0.258621 0.377654 0.149210
Si Si3 0.984623 0.176434 0.817257
Si Si4 0.338339 0.500000 0.202075
Si Si5 0.861395 0.000000 0.582729
Si Si6 0.000000 0.336088 0.500000
Si Si7 0.239214 0.617533 0.498133
O O1 0.005652 0.245519 0.166796
O O2 0.900632 0.298249 0.322468
O O3 0.750000 0.250000 0.000000
O O4 0.866248 0.345055 0.022998
O O5 0.402196 0.350378 0.210526
O O6 0.256897 0.443539 0.092384
O O7 0.238864 0.374033 0.316074
O O8 0.838517 0.163672 0.644064
O O9 0.000000 0.151072 0.000000
O O10 0.361623 0.500000 0.400207
O O11 0.487452 0.500000 0.237557
O O12 0.785656 0.944453 0.587602
O O13 0.910754 0.374021 0.548900
#
# Coordination Sequence:
#
# PCOD8110338 Si02
#       7
#     8   8   8   4   4   4   8
#     4  10  25  44  64  96 137 174 224 274 332 396
#     4  10  21  41  69 102 131 170 223 279 333 399
#     4  11  23  40  65  97 136 172 219 281 333 396
#     4   9  16  36  71 102 129 164 224 278 333 390
#     4   9  18  37  67 103 129 170 221 279 329 399
#     4  12  28  45  62  94 138 181 224 276 336 396
#     4  11  23  41  69  97 135 178 225 272 336 395
#
# _framework density 21.600753000000001
#
# number of rings (size 3 to 8) (size 9 to 14) (size 15 to 20)
#    0.000    1.636    1.818    2.727    7.636    1.091 
#    0.000    5.455    0.000    3.273    0.000    0.000 
#    0.000    0.000    0.000    0.000    0.000    0.000 
#
# Total GULP energy -272755.557737 kJ/mol
# GULP energy per Si atom -12397.979897 kJ/mol
# Density = 2.155159 g / cm^3
# Si number density = 21.600753 Si / 1000 Ang^3
#
#
#
# Elastic Constant Matrix: (Units=GPa)
#
#
# Indices 1 2 3 4 5 6 
#
# 1 128.9721 48.4292 39.7947 0.0000 -11.0480 0.0000
# 2 48.4292 169.6280 66.0348 0.0000 11.6049 0.0000
# 3 39.7947 66.0348 132.0671 0.0000 -2.3994 0.0000
# 4 0.0000 0.0000 0.0000 34.5951 0.0000 5.2068
# 5 -11.0480 11.6049 -2.3994 0.0000 31.3661 0.0000
# 6 0.0000 0.0000 0.0000 5.2068 0.0000 21.7644
#
#
#
# Elastic Compliance Matrix: (Units=1/GPa)
#
#
# Indices 1 2 3 4 5 6 
#
# 1 0.009487 -0.002365 -0.001602 0.000000 0.004094 0.000000
# 2 -0.002365 0.008201 -0.003463 0.000000 -0.004132 0.000000
# 3 -0.001602 -0.003463 0.009813 0.000000 0.001468 0.000000
# 4 0.000000 0.000000 0.000000 0.029986 0.000000 -0.007174
# 5 0.004094 -0.004132 0.001468 0.000000 0.034965 0.000000
# 6 0.000000 0.000000 0.000000 -0.007174 0.000000 0.047663
#
#
# Mechanical properties :
#
#
# Convention : Reuss Voigt Hill
#
# Bulk Modulus (GPa) = 79.10714 82.13163 80.61939
# Shear Modulus (GPa) = 31.40957 35.97234 33.69096
#
# Velocity S-wave (km/s) = 3.81740 4.08527 3.95360
# Velocity P-wave (km/s) = 7.49213 7.76902 7.63183
#
# Compressibility (1/GPa) = 0.01264108
#
# Stress axis : x y z
#
# Youngs Moduli (GPa) = 105.41242 121.93073 101.90763
#
# Poissons Ratio (x) = 0.28837 0.16321
# Poissons Ratio (y) = 0.24930 0.35293
# Poissons Ratio (z) = 0.16883 0.42227
#
# Static dielectric constant tensor:
#      x y z
#    x 3.777900 0.000000 0.049160 
#    y 0.000000 4.448890 0.000000 
#    z 0.049160 0.000000 3.885610 
# 
# 
# High freq. dielectric constant tensor:
#      x y z
#    x 1.837880 0.000000 -0.002400 
#    y 0.000000 1.853480 0.000000 
#    z -0.002400 0.000000 1.841900 
# 
# From -- ./inp_files/51616.got.cif
#   From: 2010.06.25/outbox.cif.g09.slc.cpg/sg12_26_cif.got.tgz:51616.got - 2010.06.28 00:19:55.
