data_PCOD8110500
_publ_section_title
;
Structure prediction by ZEFSAII (Michael W. Deem and Ramdas Pophale) SiO2 
 PCOD8110500
Probable space group: C 2/M
;
_chemical_formula_sum "Si O2"
_cell_formula_units_Z 32
_cell_length_a 14.042671
_cell_length_b 22.554557
_cell_length_c 9.867396
_cell_angle_alpha 90.000000
_cell_angle_beta 28.506107
_cell_angle_gamma 90.000000
_cell_volume 1491.539390
_symmetry_space_group_name_H-M "C 2/M"
_symmetry_group_IT_number 12
_symmetry_cell_setting 'monoclinic'
loop_
_space_group_symop_operation_xyz
x,y,z
-x,y,-z
-x,-y,-z
x,-y,z
1/2+x,1/2+y,z
1/2-x,1/2+y,-z
1/2-x,1/2-y,-z
1/2+x,1/2-y,z
loop_
_atom_site_type_symbol
_atom_site_label
_atom_site_fract_x
_atom_site_fract_y
_atom_site_fract_z
Si Si1 0.477556 0.751454 0.680263
Si Si2 0.101913 0.431914 0.737760
Si Si3 0.600936 0.118653 0.244582
Si Si4 0.464127 0.349167 0.205017
O O1 0.500000 0.725534 0.500000
O O2 0.535175 0.821296 0.612809
O O3 0.597812 0.712432 0.641485
O O4 0.250000 0.750000 0.000000
O O5 0.162502 0.500000 0.683498
O O6 0.298893 0.398099 0.442279
O O7 0.928188 0.425705 0.843371
O O8 0.000000 0.405222 0.000000
O O9 0.500000 0.087383 0.500000
O O10 0.833551 0.129449 0.975828
O O11 0.500000 0.338493 0.000000
#
# Coordination Sequence:
#
# PCOD8110500 Si02
#       4
#     8   8   8   8
#     4   9  21  38  63  96 131 163 207 253 316 390
#     4  11  27  45  64  94 126 168 224 268 319 378
#     4  10  21  44  65  96 132 167 209 263 320 383
#     4  11  23  42  67  97 129 169 216 260 320 387
#
# _framework density 21.454345
#
# number of rings (size 3 to 8) (size 9 to 14) (size 15 to 20)
#    0.000    1.750    2.500    0.000    7.000    4.000 
#    0.000    2.500    0.000    0.000    0.000    0.000 
#    0.000    0.000    0.000    0.000    0.000    0.000 
#
# Total GULP energy -198308.909275 kJ/mol
# GULP energy per Si atom -12394.306830 kJ/mol
# Density = 2.140551 g / cm^3
# Si number density = 21.454345 Si / 1000 Ang^3
#
#
#
# Elastic Constant Matrix: (Units=GPa)
#
#
# Indices 1 2 3 4 5 6 
#
# 1 126.4577 45.5099 62.6905 0.0013 26.8482 -0.0014
# 2 45.5099 62.3029 34.8693 0.0004 10.2460 -0.0005
# 3 62.6905 34.8693 119.3858 0.0091 32.6181 -0.0046
# 4 0.0013 0.0004 0.0091 19.2301 -0.0018 0.2652
# 5 26.8482 10.2460 32.6181 -0.0018 48.6941 0.0010
# 6 -0.0014 -0.0005 -0.0046 0.2652 0.0010 30.8922
#
#
#
# Elastic Compliance Matrix: (Units=1/GPa)
#
#
# Indices 1 2 3 4 5 6 
#
# 1 0.012962 -0.006723 -0.004011 0.000001 -0.003046 0.000000
# 2 -0.006723 0.022678 -0.003430 0.000002 0.001233 -0.000001
# 3 -0.004011 -0.003430 0.013076 -0.000006 -0.005826 0.000002
# 4 0.000001 0.000002 -0.000006 0.052008 0.000005 -0.000446
# 5 -0.003046 0.001233 -0.005826 0.000005 0.025859 -0.000002
# 6 0.000000 -0.000001 0.000002 -0.000446 -0.000002 0.032374
#
#
# Mechanical properties :
#
#
# Convention : Reuss Voigt Hill
#
# Bulk Modulus (GPa) = 49.04699 66.03175 57.53937
# Shear Modulus (GPa) = 25.76231 30.76839 28.26535
#
# Velocity S-wave (km/s) = 3.46901 3.79110 3.63363
# Velocity P-wave (km/s) = 6.24148 7.07163 6.66948
#
# Compressibility (1/GPa) = 0.02038861
#
# Stress axis : x y z
#
# Youngs Moduli (GPa) = 77.14771 44.09471 76.47610
#
# Poissons Ratio (x) = 0.29643 0.30674
# Poissons Ratio (y) = 0.51864 0.26234
# Poissons Ratio (z) = 0.30943 0.15126
#
# Static dielectric constant tensor:
#      x y z
#    x 4.163240 0.000010 0.257010 
#    y 0.000010 4.223040 0.000000 
#    z 0.257010 0.000000 3.907170 
# 
# 
# High freq. dielectric constant tensor:
#      x y z
#    x 1.851780 0.000000 0.011050 
#    y 0.000000 1.821440 0.000000 
#    z 0.011050 0.000000 1.853210 
# 
# From -- ./inp_files/38709.got.cif
#   From: 2010.06.25/outbox.cif.g09.slc.cpg/sg12_20_cif.got.tgz:38709.got - 2010.06.28 00:19:55.
