data_PCOD8110877
_publ_section_title
;
Structure prediction by ZEFSAII (Michael W. Deem and Ramdas Pophale) SiO2 
 PCOD8110877
Probable space group: C 2/M
;
_chemical_formula_sum "Si O2"
_cell_formula_units_Z 48
_cell_length_a 11.237295
_cell_length_b 31.979894
_cell_length_c 13.566386
_cell_angle_alpha 90.000000
_cell_angle_beta 148.811299
_cell_angle_gamma 90.000000
_cell_volume 2524.724111
_symmetry_space_group_name_H-M "C 2/M"
_symmetry_group_IT_number 12
_symmetry_cell_setting 'monoclinic'
loop_
_space_group_symop_operation_xyz
x,y,z
-x,y,-z
-x,-y,-z
x,-y,z
1/2+x,1/2+y,z
1/2-x,1/2+y,-z
1/2-x,1/2-y,-z
1/2+x,1/2-y,z
loop_
_atom_site_type_symbol
_atom_site_label
_atom_site_fract_x
_atom_site_fract_y
_atom_site_fract_z
Si Si1 0.281870 0.451957 0.293922
Si Si2 0.177490 0.340502 0.709423
Si Si3 0.275538 0.047972 0.972798
Si Si4 0.659096 0.372376 0.983819
Si Si5 0.501527 0.764617 0.707409
Si Si6 0.860534 0.693936 0.999197
O O1 0.500000 0.429102 0.500000
O O2 0.276440 0.500000 0.321786
O O3 0.318039 0.448067 0.203521
O O4 0.037984 0.434485 0.159824
O O5 0.171939 0.370480 0.801358
O O6 0.000000 0.355455 0.500000
O O7 0.116735 0.293626 0.703866
O O8 0.431569 0.344863 0.843721
O O9 0.253647 0.000000 0.994516
O O10 0.122453 0.078431 0.933842
O O11 0.770472 0.351493 0.966863
O O12 0.250000 0.750000 0.500000
O O13 0.488444 0.787615 0.803857
O O14 0.650714 0.723513 0.823651
O O15 0.000000 0.686286 0.000000
#
# Coordination Sequence:
#
# PCOD8110877 Si02
#       6
#     8   8   8   8   8   8
#     4   8  15  29  51  79 109 143 182 230 284 336
#     4  10  22  39  61  78 109 154 191 229 283 339
#     4   9  18  33  57  82 110 151 195 234 281 339
#     4  10  22  39  57  83 116 150 186 238 289 333
#     4  10  22  38  60  83 107 146 196 230 273 343
#     4  10  23  35  56  85 115 146 180 234 287 328
#
# _framework density 19.011979
#
# number of rings (size 3 to 8) (size 9 to 14) (size 15 to 20)
#    0.000    2.500    0.000    2.000   11.667    1.333 
#    0.000    1.667    0.000    1.000    0.000    0.000 
#    0.000    0.000    0.000    0.000    0.000    0.000 
#
# Total GULP energy -297398.066068 kJ/mol
# GULP energy per Si atom -12391.586086 kJ/mol
# Density = 1.896871 g / cm^3
# Si number density = 19.011979 Si / 1000 Ang^3
#
#
#
# Elastic Constant Matrix: (Units=GPa)
#
#
# Indices 1 2 3 4 5 6 
#
# 1 120.8255 56.1889 42.9334 0.0000 -2.8586 0.0000
# 2 56.1889 107.2805 41.1151 0.0000 -0.1407 0.0000
# 3 42.9334 41.1151 140.0741 0.0000 -7.7542 0.0000
# 4 0.0000 0.0000 0.0000 16.2654 0.0000 0.9982
# 5 -2.8586 -0.1407 -7.7542 0.0000 18.2704 0.0000
# 6 0.0000 0.0000 0.0000 0.9982 0.0000 21.1886
#
#
#
# Elastic Compliance Matrix: (Units=1/GPa)
#
#
# Indices 1 2 3 4 5 6 
#
# 1 0.011416 -0.005247 -0.001907 0.000000 0.000936 0.000000
# 2 -0.005247 0.012943 -0.002284 0.000000 -0.001691 0.000000
# 3 -0.001907 -0.002284 0.008578 0.000000 0.003325 0.000000
# 4 0.000000 0.000000 0.000000 0.061658 0.000000 -0.002905
# 5 0.000936 -0.001691 0.003325 0.000000 0.056278 0.000000
# 6 0.000000 0.000000 0.000000 -0.002905 0.000000 0.047332
#
#
# Mechanical properties :
#
#
# Convention : Reuss Voigt Hill
#
# Bulk Modulus (GPa) = 71.12385 72.07276 71.59830
# Shear Modulus (GPa) = 22.54588 26.34108 24.44348
#
# Velocity S-wave (km/s) = 3.44739 3.72627 3.58954
# Velocity P-wave (km/s) = 7.30324 7.51697 7.41087
#
# Compressibility (1/GPa) = 0.01405998
#
# Stress axis : x y z
#
# Youngs Moduli (GPa) = 87.59306 77.26241 116.57484
#
# Poissons Ratio (x) = 0.40542 0.22233
# Poissons Ratio (y) = 0.45963 0.26630
# Poissons Ratio (z) = 0.16705 0.17649
#
# Static dielectric constant tensor:
#      x y z
#    x 3.428240 0.000000 -0.128020 
#    y 0.000000 3.353410 0.000000 
#    z -0.128020 0.000000 3.860050 
# 
# 
# High freq. dielectric constant tensor:
#      x y z
#    x 1.731460 0.000000 -0.011800 
#    y 0.000000 1.722330 0.000000 
#    z -0.011800 0.000000 1.742070 
# 
# From -- ./inp_files/209900.got.cif
#   From: 2010.06.25/outbox.cif.g09.slc.cpg/sg12_105_cif.got.tgz:209900.got - 2010.06.28 00:19:55.
