data_PCOD8110446
_publ_section_title
;
Structure prediction by ZEFSAII (Michael W. Deem and Ramdas Pophale) SiO2 
 PCOD8110446
Probable space group: C 2/M
;
_chemical_formula_sum "Si O2"
_cell_formula_units_Z 64
_cell_length_a 9.541802
_cell_length_b 27.719572
_cell_length_c 24.383995
_cell_angle_alpha 90.000000
_cell_angle_beta 150.819455
_cell_angle_gamma 90.000000
_cell_volume 3144.508146
_symmetry_space_group_name_H-M "C 2/M"
_symmetry_group_IT_number 12
_symmetry_cell_setting 'monoclinic'
loop_
_space_group_symop_operation_xyz
x,y,z
-x,y,-z
-x,-y,-z
x,-y,z
1/2+x,1/2+y,z
1/2-x,1/2+y,-z
1/2-x,1/2-y,-z
1/2+x,1/2-y,z
loop_
_atom_site_type_symbol
_atom_site_label
_atom_site_fract_x
_atom_site_fract_y
_atom_site_fract_z
Si Si1 0.816819 0.892731 0.087299
Si Si2 0.631834 0.613182 0.486052
Si Si3 0.034082 0.204988 0.209465
Si Si4 0.471535 0.222948 0.882528
Si Si5 0.886771 0.555748 0.736685
Si Si6 0.716373 0.877666 0.933617
Si Si7 0.858302 0.554604 0.294357
Si Si8 0.907335 0.297158 0.531287
O O1 0.920734 0.838121 0.132610
O O2 0.031002 0.928670 0.192220
O O3 0.500000 0.902111 0.000000
O O4 0.819116 0.904404 0.023650
O O5 0.500000 0.628722 0.500000
O O6 0.425829 0.577296 0.382646
O O7 0.683118 0.659472 0.465055
O O8 0.931712 0.586149 0.596974
O O9 0.145742 0.248689 0.210115
O O10 0.303741 0.189158 0.337545
O O11 0.772754 0.225101 0.155574
O O12 0.521759 0.167812 0.882929
O O13 0.750000 0.250000 0.000000
O O14 0.853243 0.500000 0.742628
O O15 0.034706 0.584653 0.836253
O O16 0.078412 0.561104 0.748170
O O17 0.000000 0.858850 0.000000
O O18 0.895447 0.500000 0.326470
O O19 0.750000 0.250000 0.500000
O O20 0.000000 0.291101 0.500000
#
# Coordination Sequence:
#
# PCOD8110446 Si02
#       8
#     8   8   8   8   8   8   8   8
#     4  12  23  42  64  95 135 173 215 267 327 388
#     4  10  22  43  72  98 128 170 223 273 329 388
#     4  12  25  43  66  91 133 171 214 269 319 392
#     4  12  24  42  65  95 126 172 218 263 316 386
#     4  10  23  41  68 101 130 169 222 277 327 388
#     4  12  24  39  65  97 134 174 217 267 325 389
#     4  10  21  42  70  97 128 171 221 277 329 386
#     4  12  27  45  66  99 134 172 214 267 329 389
#
# _framework density 20.352943
#
# number of rings (size 3 to 8) (size 9 to 14) (size 15 to 20)
#    0.000    0.750    5.000    2.625    3.500    2.500 
#    0.000    0.000    0.000    0.750    0.000    0.000 
#    0.000    0.000    0.000    0.000    0.000    0.000 
#
# Total GULP energy -396921.483389 kJ/mol
# GULP energy per Si atom -12403.796356 kJ/mol
# Density = 2.030662 g / cm^3
# Si number density = 20.352943 Si / 1000 Ang^3
#
#
#
# Elastic Constant Matrix: (Units=GPa)
#
#
# Indices 1 2 3 4 5 6 
#
# 1 85.9133 42.9791 34.4498 0.0063 -10.0946 0.0038
# 2 42.9791 134.2777 44.2873 0.0034 -0.3249 0.0010
# 3 34.4498 44.2873 121.3419 0.0128 2.6530 -0.0083
# 4 0.0063 0.0034 0.0128 -18.1260 0.0025 -41.5834
# 5 -10.0946 -0.3249 2.6530 0.0025 28.1465 0.0014
# 6 0.0038 0.0010 -0.0083 -41.5834 0.0014 3.7458
#
#
#
# Elastic Compliance Matrix: (Units=1/GPa)
#
#
# Indices 1 2 3 4 5 6 
#
# 1 0.015536 -0.003936 -0.003102 0.000002 0.005819 0.000000
# 2 -0.003936 0.009468 -0.002314 0.000000 -0.001084 -0.000001
# 3 -0.003102 -0.002314 0.010012 -0.000002 -0.002083 0.000003
# 4 0.000002 0.000000 -0.000002 -0.002084 0.000002 -0.023139
# 5 0.005819 -0.001084 -0.002083 0.000002 0.037799 0.000001
# 6 0.000000 -0.000001 0.000003 -0.023139 0.000001 0.010086
#
#
# Mechanical properties :
#
#
# Convention : Reuss Voigt Hill
#
# Bulk Modulus (GPa) = 61.30352 64.99615 63.14984
# Shear Modulus (GPa) = 47.63847 17.40770 32.52309
#
# Velocity S-wave (km/s) = 4.84324 2.92771 4.00178
# Velocity P-wave (km/s) = 7.83975 6.59033 7.24203
#
# Compressibility (1/GPa) = 0.01631228
#
# Stress axis : x y z
#
# Youngs Moduli (GPa) = 64.36730 105.62241 99.88028
#
# Poissons Ratio (x) = 0.41569 0.30978
# Poissons Ratio (y) = 0.25333 0.23117
# Poissons Ratio (z) = 0.19964 0.24446
#
# Static dielectric constant tensor:
#      x y z
#    x 3.541010 0.000000 0.110640 
#    y 0.000000 3.671490 -0.000030 
#    z 0.110640 -0.000030 3.746860 
# 
# 
# High freq. dielectric constant tensor:
#      x y z
#    x 1.789740 0.000000 0.002210 
#    y 0.000000 1.796800 0.000000 
#    z 0.002210 0.000000 1.811760 
# 
# From -- ./inp_files/334368.got.cif
#   From: 2010.06.25/outbox.cif.g09.slc.cpg/sg12_168_cif.got.tgz:334368.got - 2010.06.28 00:19:55.
