data_PCOD8110653
_publ_section_title
;
Structure prediction by ZEFSAII (Michael W. Deem and Ramdas Pophale) SiO2 
 PCOD8110653
Probable space group: C 2/M
;
_chemical_formula_sum "Si O2"
_cell_formula_units_Z 64
_cell_length_a 16.500695
_cell_length_b 17.247282
_cell_length_c 12.113659
_cell_angle_alpha 90.000000
_cell_angle_beta 90.000000
_cell_angle_gamma 90.000000
_cell_volume 3447.452136
_symmetry_space_group_name_H-M "C 2/M"
_symmetry_group_IT_number 12
_symmetry_cell_setting 'monoclinic'
loop_
_space_group_symop_operation_xyz
x,y,z
-x,y,-z
-x,-y,-z
x,-y,z
1/2+x,1/2+y,z
1/2-x,1/2+y,-z
1/2-x,1/2-y,-z
1/2+x,1/2-y,z
loop_
_atom_site_type_symbol
_atom_site_label
_atom_site_fract_x
_atom_site_fract_y
_atom_site_fract_z
Si Si1 0.738940 0.588708 0.373223
Si Si2 0.826880 0.700009 0.788299
Si Si3 0.673121 0.200009 0.788299
Si Si4 0.594651 0.645575 0.759771
Si Si5 0.910217 0.327629 1.000000
Si Si6 0.911006 0.856275 1.000000
Si Si7 0.261060 0.411292 0.373223
Si Si8 0.094651 0.145575 0.240229
O O1 0.765761 0.500000 0.359388
O O2 0.802962 0.642396 0.309858
O O3 0.739709 0.614576 0.500000
O O4 0.647371 0.598986 0.328617
O O5 0.750000 0.750000 0.829694
O O6 0.861227 0.648191 0.889636
O O7 0.802962 0.642396 0.690142
O O8 0.893856 0.761483 0.744627
O O9 0.606144 0.261483 0.744627
O O10 0.638773 0.148191 0.889636
O O11 0.647371 0.598986 0.671383
O O12 0.500000 0.625671 0.743996
O O13 0.628564 0.619105 0.882628
O O14 0.917702 0.235767 1.000000
O O15 0.000000 0.365799 0.000000
O O16 0.871436 0.880895 0.882628
O O17 0.000000 0.893113 0.000000
O O18 0.234239 0.500000 0.359388
#
# Coordination Sequence:
#
# PCOD8110653 Si02
#       8
#     8   8   8   8   8   8   8   8
#     4  10  22  37  49  65  97 140 176 205 244 294
#     4   9  17  30  52  77 101 131 166 200 240 295
#     4   9  17  30  52  77 101 131 166 200 240 295
#     4   9  17  31  54  80 102 126 161 207 251 291
#     4   9  15  27  51  80 104 123 150 199 256 299
#     4   7  12  25  45  72 102 124 144 181 242 302
#     4  10  22  37  49  65  97 140 176 205 244 294
#     4   9  17  31  54  80 102 126 161 207 251 291
#
# _framework density 18.564433999999999
#
# number of rings (size 3 to 8) (size 9 to 14) (size 15 to 20)
#    0.000    3.000    0.000    2.625    0.000    8.500 
#    0.000    3.750    0.000    8.250    0.000    7.000 
#    0.000    0.000    0.000    0.000    0.000    0.000 
#
# Total GULP energy -396460.424244 kJ/mol
# GULP energy per Si atom -12389.388258 kJ/mol
# Density = 1.852218 g / cm^3
# Si number density = 18.564434 Si / 1000 Ang^3
#
#
#
# Elastic Constant Matrix: (Units=GPa)
#
#
# Indices 1 2 3 4 5 6 
#
# 1 71.0136 16.5774 57.9268 0.0000 0.0000 0.0000
# 2 16.5774 44.1003 48.5169 0.0000 0.0000 0.0000
# 3 57.9268 48.5169 168.1436 0.0000 0.0001 0.0000
# 4 0.0000 0.0000 0.0000 -0.7581 0.0000 -0.0001
# 5 0.0000 0.0000 0.0001 0.0000 23.8502 0.0000
# 6 0.0000 0.0000 0.0000 -0.0001 0.0000 12.3459
#
#
#
# Elastic Compliance Matrix: (Units=1/GPa)
#
#
# Indices 1 2 3 4 5 6 
#
# 1 0.019586 0.000089 -0.006773 0.000000 0.000000 0.000000
# 2 0.000089 0.033222 -0.009617 0.000000 0.000000 0.000000
# 3 -0.006773 -0.009617 0.011056 0.000000 0.000000 0.000000
# 4 0.000000 0.000000 0.000000 -1.319093 0.000000 -0.000010
# 5 0.000000 0.000000 0.000000 0.000000 0.041928 0.000000
# 6 0.000000 0.000000 0.000000 -0.000010 0.000000 0.080999
#
#
# Mechanical properties :
#
#
# Convention : Reuss Voigt Hill
#
# Bulk Modulus (GPa) = 31.98783 58.81107 45.39945
# Shear Modulus (GPa) = -4.59019 17.77002 6.58992
#
# Velocity S-wave (km/s) = -1.57415 3.09723 1.88612
# Velocity P-wave (km/s) = 3.73687 6.67373 5.40846
#
# Compressibility (1/GPa) = 0.03126189
#
# Stress axis : x y z
#
# Youngs Moduli (GPa) = 51.05681 30.10064 90.45203
#
# Poissons Ratio (x) = -0.00268 0.61266
# Poissons Ratio (y) = -0.00455 0.86985
# Poissons Ratio (z) = 0.34582 0.28947
#
# Static dielectric constant tensor:
#      x y z
#    x 3.461120 0.000000 0.000000 
#    y 0.000000 3.021260 0.000000 
#    z 0.000000 0.000000 3.619360 
# 
# 
# High freq. dielectric constant tensor:
#      x y z
#    x 1.709420 0.000000 0.000000 
#    y 0.000000 1.676410 0.000000 
#    z 0.000000 0.000000 1.724610 
# 
# From -- ./inp_files/157858.got.cif
#   From: 2010.06.25/outbox.cif.g09.slc.cpg/sg12_79_cif.got.tgz:157858.got - 2010.06.28 00:19:55.
