data_PCOD8110106
_publ_section_title
;
Structure prediction by ZEFSAII (Michael W. Deem and Ramdas Pophale) SiO2 
 PCOD8110106
Probable space group: C 2/M
;
_chemical_formula_sum "Si O2"
_cell_formula_units_Z 64
_cell_length_a 17.676811
_cell_length_b 18.960444
_cell_length_c 10.607266
_cell_angle_alpha 90.000000
_cell_angle_beta 125.807406
_cell_angle_gamma 90.000000
_cell_volume 2883.171107
_symmetry_space_group_name_H-M "C 2/M"
_symmetry_group_IT_number 12
_symmetry_cell_setting 'monoclinic'
loop_
_space_group_symop_operation_xyz
x,y,z
-x,y,-z
-x,-y,-z
x,-y,z
1/2+x,1/2+y,z
1/2-x,1/2+y,-z
1/2-x,1/2-y,-z
1/2+x,1/2-y,z
loop_
_atom_site_type_symbol
_atom_site_label
_atom_site_fract_x
_atom_site_fract_y
_atom_site_fract_z
Si Si1 0.804996 0.676963 0.287126
Si Si2 0.210817 0.310337 0.218222
Si Si3 0.041304 0.615700 0.164045
Si Si4 0.836627 0.574068 0.510305
Si Si5 0.331655 0.582062 0.477517
Si Si6 0.486816 0.362213 0.795690
Si Si7 0.133814 0.918273 0.099585
Si Si8 0.600585 0.217823 0.871424
O O1 0.755638 0.739344 0.318594
O O2 0.870958 0.636904 0.452971
O O3 0.734248 0.616381 0.168361
O O4 0.865052 0.714312 0.238123
O O5 0.111842 0.322670 0.188022
O O6 0.283076 0.375443 0.313358
O O7 0.190942 0.289311 0.051837
O O8 0.095587 0.561732 0.304843
O O9 0.958856 0.648065 0.164420
O O10 0.000000 0.576437 0.000000
O O11 0.836208 0.500000 0.435211
O O12 0.732584 0.589925 0.460317
O O13 0.341819 0.500000 0.447347
O O14 0.432872 0.614668 0.614362
O O15 0.415002 0.368798 0.842508
O O16 0.534515 0.285426 0.828840
O O17 0.572304 0.415452 0.911305
O O18 0.143084 0.000000 0.152151
#
# Coordination Sequence:
#
# PCOD8110106 Si02
#       8
#     8   8   8   8   8   8   8   8
#     4  12  23  39  62  94 137 175 216 269 334 406
#     4  10  22  41  66  91 126 173 226 269 323 394
#     4   9  21  40  64  93 121 160 220 272 324 383
#     4  10  22  40  64  95 129 166 214 272 331 394
#     4  10  21  40  68  99 129 166 220 281 337 393
#     4  11  21  37  66  98 134 164 220 274 334 402
#     4  11  22  38  67 102 134 173 218 280 347 397
#     4  11  24  40  62  94 131 174 219 273 329 400
#
# _framework density 22.197780000000002
#
# number of rings (size 3 to 8) (size 9 to 14) (size 15 to 20)
#    0.000    1.500    2.500    3.000    5.250    1.750 
#    0.000    5.000    0.000    0.750    0.000    0.000 
#    0.000    0.000    0.000    0.000    0.000    0.000 
#
# Total GULP energy -396430.041379 kJ/mol
# GULP energy per Si atom -12388.438793 kJ/mol
# Density = 2.214726 g / cm^3
# Si number density = 22.197780 Si / 1000 Ang^3
#
#
#
# Elastic Constant Matrix: (Units=GPa)
#
#
# Indices 1 2 3 4 5 6 
#
# 1 56.6861 34.9886 27.2851 0.0000 -1.5460 0.0000
# 2 34.9886 138.8617 57.6951 0.0000 -2.3189 0.0000
# 3 27.2851 57.6951 141.3555 0.0000 16.7675 0.0000
# 4 0.0000 0.0000 0.0000 25.9676 0.0000 -1.9749
# 5 -1.5460 -2.3189 16.7675 0.0000 26.1184 0.0000
# 6 0.0000 0.0000 0.0000 -1.9749 0.0000 15.2792
#
#
#
# Elastic Compliance Matrix: (Units=1/GPa)
#
#
# Indices 1 2 3 4 5 6 
#
# 1 0.021678 -0.004271 -0.002758 0.000000 0.002675 0.000000
# 2 -0.004271 0.009784 -0.003509 0.000000 0.002868 0.000000
# 3 -0.002758 -0.003509 0.009845 0.000000 -0.006795 0.000000
# 4 0.000000 0.000000 0.000000 0.038892 0.000000 0.005027
# 5 0.002675 0.002868 -0.006795 0.000000 0.043063 0.000000
# 6 0.000000 0.000000 0.000000 0.005027 0.000000 0.066098
#
#
# Mechanical properties :
#
#
# Convention : Reuss Voigt Hill
#
# Bulk Modulus (GPa) = 49.43337 64.09343 56.76340
# Shear Modulus (GPa) = 23.02240 27.93532 25.47886
#
# Velocity S-wave (km/s) = 3.22397 3.55135 3.39161
# Velocity P-wave (km/s) = 6.01469 6.76406 6.40035
#
# Compressibility (1/GPa) = 0.02022925
#
# Stress axis : x y z
#
# Youngs Moduli (GPa) = 46.12947 102.21279 101.57438
#
# Poissons Ratio (x) = 0.43660 0.28017
# Poissons Ratio (y) = 0.19704 0.35642
# Poissons Ratio (z) = 0.12724 0.35866
#
# Static dielectric constant tensor:
#      x y z
#    x 3.564550 0.000000 0.300410 
#    y 0.000000 3.881130 0.000000 
#    z 0.300410 0.000000 4.342480 
# 
# 
# High freq. dielectric constant tensor:
#      x y z
#    x 1.829230 0.000000 0.025590 
#    y 0.000000 1.874850 0.000000 
#    z 0.025590 0.000000 1.888450 
# 
# From -- ./inp_files/168812.got.cif
#   From: 2010.06.25/outbox.cif.g09.slc.cpg/sg12_85_cif.got.tgz:168812.got - 2010.06.28 00:19:55.
