data_PCOD8110799
_publ_section_title
;
Structure prediction by ZEFSAII (Michael W. Deem and Ramdas Pophale) SiO2 
 PCOD8110799
Probable space group: C 2/M
;
_chemical_formula_sum "Si O2"
_cell_formula_units_Z 40
_cell_length_a 7.798108
_cell_length_b 26.272140
_cell_length_c 8.975102
_cell_angle_alpha 90.000000
_cell_angle_beta 88.154848
_cell_angle_gamma 90.000000
_cell_volume 1837.802537
_symmetry_space_group_name_H-M "C 2/M"
_symmetry_group_IT_number 12
_symmetry_cell_setting 'monoclinic'
loop_
_space_group_symop_operation_xyz
x,y,z
-x,y,-z
-x,-y,-z
x,-y,z
1/2+x,1/2+y,z
1/2-x,1/2+y,-z
1/2-x,1/2-y,-z
1/2+x,1/2-y,z
loop_
_atom_site_type_symbol
_atom_site_label
_atom_site_fract_x
_atom_site_fract_y
_atom_site_fract_z
Si Si1 0.343908 0.058142 0.842661
Si Si2 0.923473 0.793169 0.346801
Si Si3 0.735753 0.721215 0.155462
Si Si4 0.958851 0.907202 0.341022
Si Si5 0.189007 0.391542 0.842989
O O1 0.185865 0.059047 0.733022
O O2 0.520873 0.082452 0.772638
O O3 0.381634 0.000000 0.883941
O O4 0.288323 0.089226 0.989681
O O5 0.040475 0.792981 0.194145
O O6 0.000000 0.772334 0.500000
O O7 0.772062 0.756118 0.300171
O O8 0.870739 0.851898 0.369633
O O9 0.846237 0.669305 0.152566
O O10 0.750000 0.750000 0.000000
O O11 0.000000 0.931883 0.500000
O O12 0.137968 0.905829 0.247912
#
# Coordination Sequence:
#
# PCOD8110799 Si02
#       5
#     8   8   8   8   8
#     4  11  24  42  68  91 121 167 210 265 325 372
#     4  10  22  38  56  87 126 166 200 238 308 378
#     4  11  22  35  60  91 120 163 205 256 302 359
#     4  10  23  43  63  91 131 166 207 260 312 377
#     4  10  23  41  62  95 125 160 210 262 314 371
#
# _framework density 21.765125999999999
#
# number of rings (size 3 to 8) (size 9 to 14) (size 15 to 20)
#    0.000    1.600    0.000    4.200    8.400    6.800 
#    0.000    1.000    0.000    0.000    0.000    0.000 
#    0.000    0.000    0.000    0.000    0.000    0.000 
#
# Total GULP energy -247901.779762 kJ/mol
# GULP energy per Si atom -12395.088988 kJ/mol
# Density = 2.171559 g / cm^3
# Si number density = 21.765126 Si / 1000 Ang^3
#
#
#
# Elastic Constant Matrix: (Units=GPa)
#
#
# Indices 1 2 3 4 5 6 
#
# 1 115.3881 29.6823 38.6923 0.0000 5.2471 0.0000
# 2 29.6823 92.6327 24.2273 0.0000 -3.2174 0.0000
# 3 38.6923 24.2273 95.5688 0.0000 15.7270 0.0000
# 4 0.0000 0.0000 0.0000 10.4440 0.0000 4.5509
# 5 5.2471 -3.2174 15.7270 0.0000 30.8370 0.0000
# 6 0.0000 0.0000 0.0000 4.5509 0.0000 26.4444
#
#
#
# Elastic Compliance Matrix: (Units=1/GPa)
#
#
# Indices 1 2 3 4 5 6 
#
# 1 0.010510 -0.002432 -0.003605 0.000000 -0.000203 0.000000
# 2 -0.002432 0.012376 -0.002656 0.000000 0.003060 0.000000
# 3 -0.003605 -0.002656 0.013690 0.000000 -0.006646 0.000000
# 4 0.000000 0.000000 0.000000 0.103510 0.000000 -0.017813
# 5 -0.000203 0.003060 -0.006646 0.000000 0.036172 0.000000
# 6 0.000000 0.000000 0.000000 -0.017813 0.000000 0.040881
#
#
# Mechanical properties :
#
#
# Convention : Reuss Voigt Hill
#
# Bulk Modulus (GPa) = 52.11218 54.31040 53.21129
# Shear Modulus (GPa) = 20.75360 27.61093 24.18227
#
# Velocity S-wave (km/s) = 3.09127 3.56559 3.33687
# Velocity P-wave (km/s) = 6.06104 6.47752 6.27274
#
# Compressibility (1/GPa) = 0.01918937
#
# Stress axis : x y z
#
# Youngs Moduli (GPa) = 95.14617 80.80440 73.04449
#
# Poissons Ratio (x) = 0.19651 0.26334
# Poissons Ratio (y) = 0.23139 0.19402
# Poissons Ratio (z) = 0.34302 0.21463
#
# Static dielectric constant tensor:
#      x y z
#    x 3.926920 0.000000 -0.001590 
#    y 0.000000 4.036460 0.000000 
#    z -0.001590 0.000000 3.826380 
# 
# 
# High freq. dielectric constant tensor:
#      x y z
#    x 1.853840 0.000000 -0.000240 
#    y 0.000000 1.856110 0.000000 
#    z -0.000240 0.000000 1.855230 
# 
# From -- ./inp_files/39327.got.cif
#   From: 2010.06.25/outbox.cif.g09.slc.cpg/sg12_20_cif.got.tgz:39327.got - 2010.06.28 00:19:55.
