data_PCOD8110212
_publ_section_title
;
Structure prediction by ZEFSAII (Michael W. Deem and Ramdas Pophale) SiO2 
 PCOD8110212
Probable space group: C 2/M
;
_chemical_formula_sum "Si O2"
_cell_formula_units_Z 64
_cell_length_a 24.159667
_cell_length_b 17.868219
_cell_length_c 14.213404
_cell_angle_alpha 90.000000
_cell_angle_beta 28.502345
_cell_angle_gamma 90.000000
_cell_volume 2927.965454
_symmetry_space_group_name_H-M "C 2/M"
_symmetry_group_IT_number 12
_symmetry_cell_setting 'monoclinic'
loop_
_space_group_symop_operation_xyz
x,y,z
-x,y,-z
-x,-y,-z
x,-y,z
1/2+x,1/2+y,z
1/2-x,1/2+y,-z
1/2-x,1/2-y,-z
1/2+x,1/2-y,z
loop_
_atom_site_type_symbol
_atom_site_label
_atom_site_fract_x
_atom_site_fract_y
_atom_site_fract_z
Si Si1 0.040643 0.915141 0.800253
Si Si2 0.114949 0.584806 0.124286
Si Si3 0.167942 0.184406 0.873884
Si Si4 0.100321 0.325601 0.582959
Si Si5 0.302320 0.854015 0.188149
Si Si6 0.302226 0.912641 0.398610
Si Si7 0.802514 0.828078 0.950329
Si Si8 0.051950 0.837030 0.599072
O O1 0.172964 0.895697 0.631261
O O2 0.036671 0.906187 0.693131
O O3 0.008781 0.000000 0.874402
O O4 0.944985 0.862051 0.993324
O O5 0.082907 0.500000 0.193980
O O6 0.004272 0.635046 0.317806
O O7 0.140614 0.593768 0.975086
O O8 0.225867 0.606183 0.021184
O O9 0.280492 0.158789 0.649076
O O10 0.140229 0.272011 0.901762
O O11 0.192482 0.164748 0.945267
O O12 0.109392 0.362209 0.673089
O O13 0.071079 0.237779 0.634686
O O14 0.318479 0.889831 0.266066
O O15 0.165299 0.847509 0.365363
O O16 0.333053 0.000000 0.363852
O O17 0.934746 0.831772 0.712269
O O18 0.750000 0.750000 0.000000
#
# Coordination Sequence:
#
# PCOD8110212 Si02
#       8
#     8   8   8   8   8   8   8   8
#     4   9  19  37  61  89 124 159 202 255 309 366
#     4  12  25  41  62  92 128 165 209 263 317 377
#     4  10  22  39  66  94 121 167 209 260 308 370
#     4  11  23  41  61  92 127 166 211 251 303 376
#     4  10  21  41  64  95 124 163 211 261 310 370
#     4  10  22  41  65  92 128 167 203 259 318 368
#     4  11  20  42  65  89 122 160 207 254 318 375
#     4   9  20  38  65  92 117 158 208 259 309 363
#
# _framework density 21.858180000000001
#
# number of rings (size 3 to 8) (size 9 to 14) (size 15 to 20)
#    0.000    1.750    2.500    1.500    0.000   10.000 
#    0.000    7.500    0.000    0.000    0.000    0.000 
#    0.000    0.000    0.000    0.000    0.000    0.000 
#
# Total GULP energy -396775.414607 kJ/mol
# GULP energy per Si atom -12399.231706 kJ/mol
# Density = 2.180843 g / cm^3
# Si number density = 21.858180 Si / 1000 Ang^3
#
#
#
# Elastic Constant Matrix: (Units=GPa)
#
#
# Indices 1 2 3 4 5 6 
#
# 1 75.9794 20.1458 9.7858 0.0001 -11.4603 0.0000
# 2 20.1458 78.3704 12.7775 0.0001 -5.8496 0.0000
# 3 9.7858 12.7775 50.5236 0.0001 -5.6832 0.0000
# 4 0.0001 0.0001 0.0001 31.4579 -0.0001 -3.8671
# 5 -11.4603 -5.8496 -5.6832 -0.0001 32.5667 0.0000
# 6 0.0000 0.0000 0.0000 -3.8671 0.0000 25.5776
#
#
#
# Elastic Compliance Matrix: (Units=1/GPa)
#
#
# Indices 1 2 3 4 5 6 
#
# 1 0.014884 -0.003243 -0.001570 0.000000 0.004381 0.000000
# 2 -0.003243 0.014124 -0.002843 0.000000 0.000900 0.000000
# 3 -0.001570 -0.002843 0.021111 0.000000 0.002621 0.000000
# 4 0.000000 0.000000 0.000000 0.032391 0.000000 0.004897
# 5 0.004381 0.000900 0.002621 0.000000 0.032867 0.000000
# 6 0.000000 0.000000 0.000000 0.004897 0.000000 0.039837
#
#
# Mechanical properties :
#
#
# Convention : Reuss Voigt Hill
#
# Bulk Modulus (GPa) = 28.72927 32.25462 30.49195
# Shear Modulus (GPa) = 27.45324 28.73140 28.09232
#
# Velocity S-wave (km/s) = 3.54781 3.62946 3.58887
# Velocity P-wave (km/s) = 5.47308 5.68791 5.58153
#
# Compressibility (1/GPa) = 0.03480770
#
# Stress axis : x y z
#
# Youngs Moduli (GPa) = 67.18425 70.80031 47.36970
#
# Poissons Ratio (x) = 0.22962 0.07436
# Poissons Ratio (y) = 0.21789 0.13466
# Poissons Ratio (z) = 0.10547 0.20126
#
# Static dielectric constant tensor:
#      x y z
#    x 4.639530 0.000000 -0.711660 
#    y 0.000000 3.830420 0.000000 
#    z -0.711660 0.000000 4.448600 
# 
# 
# High freq. dielectric constant tensor:
#      x y z
#    x 1.843450 0.000000 -0.016510 
#    y 0.000000 1.854660 0.000000 
#    z -0.016510 0.000000 1.873790 
# 
# From -- ./inp_files/241470.got.cif
#   From: 2010.06.25/outbox.cif.g09.slc.cpg/sg12_121_cif.got.tgz:241470.got - 2010.06.28 00:19:55.
