data_PCOD8110825
_publ_section_title
;
Structure prediction by ZEFSAII (Michael W. Deem and Ramdas Pophale) SiO2 
 PCOD8110825
Probable space group: C 2/M
;
_chemical_formula_sum "Si O2"
_cell_formula_units_Z 40
_cell_length_a 12.542144
_cell_length_b 12.231355
_cell_length_c 14.392116
_cell_angle_alpha 90.000000
_cell_angle_beta 52.532905
_cell_angle_gamma 90.000000
_cell_volume 1752.382586
_symmetry_space_group_name_H-M "C 2/M"
_symmetry_group_IT_number 12
_symmetry_cell_setting 'monoclinic'
loop_
_space_group_symop_operation_xyz
x,y,z
-x,y,-z
-x,-y,-z
x,-y,z
1/2+x,1/2+y,z
1/2-x,1/2+y,-z
1/2-x,1/2-y,-z
1/2+x,1/2-y,z
loop_
_atom_site_type_symbol
_atom_site_label
_atom_site_fract_x
_atom_site_fract_y
_atom_site_fract_z
Si Si1 0.138518 0.285693 0.671726
Si Si2 0.091142 0.125538 0.540425
Si Si3 0.174097 0.126953 0.002607
Si Si4 0.870849 0.875466 0.182135
Si Si5 0.452320 0.126992 0.925981
O O1 0.055004 0.214803 0.639183
O O2 0.251064 0.361786 0.566596
O O3 0.211559 0.194748 0.699336
O O4 0.047394 0.361063 0.785630
O O5 0.000000 0.151832 0.500000
O O6 0.066420 0.000000 0.586926
O O7 0.199748 0.135774 0.879022
O O8 0.303155 0.179901 0.987759
O O9 0.161450 0.000000 0.035996
O O10 0.025322 0.177772 0.104262
O O11 0.877556 0.000000 0.210566
O O12 0.427927 0.000000 0.951736
O O13 0.500000 0.176379 0.000000
#
# Coordination Sequence:
#
# PCOD8110825 Si02
#       5
#     8   8   8   8   8
#     4  11  23  37  66  93 117 157 215 255 304 368
#     4  10  24  46  65  86 121 163 210 265 321 371
#     4   8  17  34  54  81 124 164 192 234 294 356
#     4   9  18  34  57  87 121 158 199 246 297 354
#     4  10  22  38  57  90 133 167 196 242 305 372
#
# _framework density 22.826066999999998
#
# number of rings (size 3 to 8) (size 9 to 14) (size 15 to 20)
#    0.000    2.400    0.000    2.400    5.600    2.400 
#    0.000    4.000    0.000    3.600    0.000    0.000 
#    0.000    0.000    0.000    0.000    0.000    0.000 
#
# Total GULP energy -247871.706065 kJ/mol
# GULP energy per Si atom -12393.585303 kJ/mol
# Density = 2.277411 g / cm^3
# Si number density = 22.826067 Si / 1000 Ang^3
#
#
#
# Elastic Constant Matrix: (Units=GPa)
#
#
# Indices 1 2 3 4 5 6 
#
# 1 139.4696 39.7270 26.2987 0.0000 8.2105 0.0000
# 2 39.7270 67.8895 12.2759 0.0000 -0.4866 0.0000
# 3 26.2987 12.2759 69.4265 0.0000 14.2935 0.0000
# 4 0.0000 0.0000 0.0000 28.2223 0.0000 -0.2069
# 5 8.2105 -0.4866 14.2935 0.0000 27.4028 0.0000
# 6 0.0000 0.0000 0.0000 -0.2069 0.0000 20.3602
#
#
#
# Elastic Compliance Matrix: (Units=1/GPa)
#
#
# Indices 1 2 3 4 5 6 
#
# 1 0.009092 -0.004928 -0.002234 0.000000 -0.001647 0.000000
# 2 -0.004928 0.017974 -0.001883 0.000000 0.002778 0.000000
# 3 -0.002234 -0.001883 0.017311 0.000000 -0.008394 0.000000
# 4 0.000000 0.000000 0.000000 0.035436 0.000000 0.000360
# 5 -0.001647 0.002778 -0.008394 0.000000 0.041414 0.000000
# 6 0.000000 0.000000 0.000000 0.000360 0.000000 0.049119
#
#
# Mechanical properties :
#
#
# Convention : Reuss Voigt Hill
#
# Bulk Modulus (GPa) = 38.04215 48.15431 43.09823
# Shear Modulus (GPa) = 25.35525 28.42931 26.89228
#
# Velocity S-wave (km/s) = 3.33649 3.53296 3.43613
# Velocity P-wave (km/s) = 5.61651 6.14690 5.88768
#
# Compressibility (1/GPa) = 0.02628663
#
# Stress axis : x y z
#
# Youngs Moduli (GPa) = 109.98798 55.63549 57.76711
#
# Poissons Ratio (x) = 0.27418 0.12903
# Poissons Ratio (y) = 0.54205 0.10879
# Poissons Ratio (z) = 0.24567 0.10478
#
# Static dielectric constant tensor:
#      x y z
#    x 4.340310 0.000000 0.122130 
#    y 0.000000 4.511000 0.000000 
#    z 0.122130 0.000000 3.812320 
# 
# 
# High freq. dielectric constant tensor:
#      x y z
#    x 1.899710 0.000000 0.016030 
#    y 0.000000 1.952900 0.000000 
#    z 0.016030 0.000000 1.872140 
# 
# From -- ./inp_files/204159.got.cif
#   From: 2010.06.25/outbox.cif.g09.slc.cpg/sg12_103_cif.got.tgz:204159.got - 2010.06.28 00:19:55.
