data_PCOD8110148
_publ_section_title
;
Structure prediction by ZEFSAII (Michael W. Deem and Ramdas Pophale) SiO2 
 PCOD8110148
Probable space group: C 2/M
;
_chemical_formula_sum "Si O2"
_cell_formula_units_Z 56
_cell_length_a 8.858075
_cell_length_b 26.502555
_cell_length_c 14.016184
_cell_angle_alpha 90.000000
_cell_angle_beta 58.576690
_cell_angle_gamma 90.000000
_cell_volume 2807.878818
_symmetry_space_group_name_H-M "C 2/M"
_symmetry_group_IT_number 12
_symmetry_cell_setting 'monoclinic'
loop_
_space_group_symop_operation_xyz
x,y,z
-x,y,-z
-x,-y,-z
x,-y,z
1/2+x,1/2+y,z
1/2-x,1/2+y,-z
1/2-x,1/2-y,-z
1/2+x,1/2-y,z
loop_
_atom_site_type_symbol
_atom_site_label
_atom_site_fract_x
_atom_site_fract_y
_atom_site_fract_z
Si Si1 0.954067 0.943351 0.229871
Si Si2 0.450571 0.210961 0.782812
Si Si3 0.816475 0.874828 0.110263
Si Si4 0.194593 0.406828 0.960194
Si Si5 0.149744 0.302007 0.528835
Si Si6 0.732352 0.314653 0.195549
Si Si7 0.035718 0.123086 0.596098
O O1 0.839601 0.906597 0.199679
O O2 0.940177 0.925154 0.343602
O O3 0.158932 0.944735 0.129542
O O4 0.878336 0.000000 0.248131
O O5 0.272609 0.178654 0.841699
O O6 0.561998 0.188963 0.659084
O O7 0.394558 0.269114 0.794453
O O8 0.575057 0.204394 0.834268
O O9 0.699534 0.906513 0.073616
O O10 0.000000 0.862448 0.000000
O O11 0.236182 0.350967 0.904977
O O12 0.000000 0.426814 0.000000
O O13 0.250000 0.250000 0.500000
O O14 0.282676 0.346349 0.458529
O O15 0.000000 0.298452 0.500000
O O16 0.629997 0.343429 0.314224
O O17 0.000000 0.104734 0.500000
#
# Coordination Sequence:
#
# PCOD8110148 Si02
#       7
#     8   8   8   8   8   8   8
#     4  10  24  44  68  92 118 159 214 268 326 386
#     4  12  23  36  59  89 131 175 212 253 299 376
#     4  10  23  41  63  87 124 167 211 260 318 368
#     4  10  21  41  61  90 128 160 207 265 317 370
#     4  12  22  35  59  91 128 172 215 253 305 366
#     4  11  24  35  58  92 133 171 213 246 304 374
#     4  11  22  42  62  92 130 166 205 261 318 379
#
# _framework density 19.94388
#
# number of rings (size 3 to 8) (size 9 to 14) (size 15 to 20)
#    0.000    1.143    4.286    2.143    6.000    4.286 
#    0.000    0.000    0.000    3.857    0.000    0.000 
#    0.000    0.000    0.000    0.000    0.000    0.000 
#
# Total GULP energy -347236.295903 kJ/mol
# GULP energy per Si atom -12401.296282 kJ/mol
# Density = 1.989849 g / cm^3
# Si number density = 19.943880 Si / 1000 Ang^3
#
#
#
# Elastic Constant Matrix: (Units=GPa)
#
#
# Indices 1 2 3 4 5 6 
#
# 1 120.2996 20.8974 27.6383 0.0000 14.6012 0.0000
# 2 20.8974 80.9921 26.8516 0.0000 8.6920 0.0000
# 3 27.6383 26.8516 73.7087 0.0000 20.4816 0.0000
# 4 0.0000 0.0000 0.0000 55.1412 0.0000 42.1278
# 5 14.6012 8.6920 20.4816 0.0000 35.6453 0.0000
# 6 0.0000 0.0000 0.0000 42.1278 0.0000 62.5759
#
#
#
# Elastic Compliance Matrix: (Units=1/GPa)
#
#
# Indices 1 2 3 4 5 6 
#
# 1 0.009366 -0.001388 -0.002421 0.000000 -0.002107 0.000000
# 2 -0.001388 0.014259 -0.004600 0.000000 -0.000265 0.000000
# 3 -0.002421 -0.004600 0.018520 0.000000 -0.008528 0.000000
# 4 0.000000 0.000000 0.000000 0.037342 0.000000 -0.025139
# 5 -0.002107 -0.000265 -0.008528 0.000000 0.033882 0.000000
# 6 0.000000 0.000000 0.000000 -0.025139 0.000000 0.032905
#
#
# Mechanical properties :
#
#
# Convention : Reuss Voigt Hill
#
# Bulk Modulus (GPa) = 39.48388 47.30834 43.39611
# Shear Modulus (GPa) = 29.14886 43.98001 36.56444
#
# Velocity S-wave (km/s) = 3.82716 4.70104 4.28643
# Velocity P-wave (km/s) = 6.27455 7.29648 6.80473
#
# Compressibility (1/GPa) = 0.02532679
#
# Stress axis : x y z
#
# Youngs Moduli (GPa) = 106.77436 70.13334 53.99506
#
# Poissons Ratio (x) = 0.09733 0.13071
# Poissons Ratio (y) = 0.14818 0.24839
# Poissons Ratio (z) = 0.25847 0.32263
#
# Static dielectric constant tensor:
#      x y z
#    x 3.351490 0.000000 0.259090 
#    y 0.000000 3.238920 0.000000 
#    z 0.259090 0.000000 3.727370 
# 
# 
# High freq. dielectric constant tensor:
#      x y z
#    x 1.795360 0.000000 0.004110 
#    y 0.000000 1.750370 0.000000 
#    z 0.004110 0.000000 1.783740 
# 
# From -- ./inp_files/199686.got.cif
#   From: 2010.06.25/outbox.cif.g09.slc.cpg/sg12_100_cif.got.tgz:199686.got - 2010.06.28 00:19:55.
