data_PCOD8110228
_publ_section_title
;
Structure prediction by ZEFSAII (Michael W. Deem and Ramdas Pophale) SiO2 
 PCOD8110228
Probable space group: C 2/M
;
_chemical_formula_sum "Si O2"
_cell_formula_units_Z 56
_cell_length_a 27.082957
_cell_length_b 8.771322
_cell_length_c 12.550047
_cell_angle_alpha 90.000000
_cell_angle_beta 67.725729
_cell_angle_gamma 90.000000
_cell_volume 2758.840585
_symmetry_space_group_name_H-M "C 2/M"
_symmetry_group_IT_number 12
_symmetry_cell_setting 'monoclinic'
loop_
_space_group_symop_operation_xyz
x,y,z
-x,y,-z
-x,-y,-z
x,-y,z
1/2+x,1/2+y,z
1/2-x,1/2+y,-z
1/2-x,1/2-y,-z
1/2+x,1/2-y,z
loop_
_atom_site_type_symbol
_atom_site_label
_atom_site_fract_x
_atom_site_fract_y
_atom_site_fract_z
Si Si1 0.192229 0.179767 0.534310
Si Si2 0.104064 0.675786 0.012300
Si Si3 0.501635 0.320064 0.178542
Si Si4 0.387902 0.824538 0.233878
Si Si5 0.802443 0.319870 0.908262
Si Si6 0.843933 0.180532 0.669607
Si Si7 0.961520 0.180969 0.620967
O O1 0.250000 0.250000 0.500000
O O2 0.152341 0.232394 0.659044
O O3 0.170046 0.231977 0.438127
O O4 0.197105 0.000000 0.536982
O O5 0.089188 0.500000 0.045566
O O6 0.146339 0.736210 0.065124
O O7 0.049730 0.774088 0.060627
O O8 0.130203 0.695768 0.874067
O O9 0.491994 0.500000 0.180351
O O10 0.447795 0.235399 0.193053
O O11 0.518169 0.262910 0.281937
O O12 0.385972 0.000000 0.270455
O O13 0.798090 0.500000 0.915144
O O14 0.804967 0.261549 0.785029
O O15 0.750000 0.250000 0.000000
O O16 0.902710 0.243221 0.646794
O O17 0.838928 0.000000 0.688078
O O18 0.000000 0.251205 0.500000
O O19 0.961523 0.000000 0.614500
#
# Coordination Sequence:
#
# PCOD8110228 Si02
#       7
#     8   8   8   8   8   8   8
#     4  11  25  44  67  93 124 162 209 259 311 370
#     4  10  23  42  62  88 126 168 204 250 311 370
#     4  11  21  36  62  94 125 160 206 256 306 366
#     4  11  24  42  63  88 126 171 210 251 307 369
#     4  11  24  41  64  93 125 161 209 259 311 369
#     4  10  21  41  65  90 124 163 202 250 310 371
#     4   9  17  32  57  87 120 157 197 241 296 358
#
# _framework density 20.298382
#
# number of rings (size 3 to 8) (size 9 to 14) (size 15 to 20)
#    0.000    1.571    1.429    3.000    2.000    6.857 
#    0.000    0.000    0.000    2.143    0.000    0.000 
#    0.000    0.000    0.000    0.000    0.000    0.000 
#
# Total GULP energy -347307.378961 kJ/mol
# GULP energy per Si atom -12403.834963 kJ/mol
# Density = 2.025218 g / cm^3
# Si number density = 20.298382 Si / 1000 Ang^3
#
#
#
# Elastic Constant Matrix: (Units=GPa)
#
#
# Indices 1 2 3 4 5 6 
#
# 1 84.1885 24.8735 37.5440 0.0000 -4.2379 0.0000
# 2 24.8735 53.2307 33.9102 0.0000 4.2979 0.0000
# 3 37.5440 33.9102 142.0820 0.0000 -5.7643 0.0000
# 4 0.0000 0.0000 0.0000 35.6761 0.0000 -3.7555
# 5 -4.2379 4.2979 -5.7643 0.0000 40.0952 0.0000
# 6 0.0000 0.0000 0.0000 -3.7555 0.0000 32.8745
#
#
#
# Elastic Compliance Matrix: (Units=1/GPa)
#
#
# Indices 1 2 3 4 5 6 
#
# 1 0.014686 -0.005400 -0.002520 0.000000 0.001769 0.000000
# 2 -0.005400 0.024544 -0.004587 0.000000 -0.003861 0.000000
# 3 -0.002520 -0.004587 0.008860 0.000000 0.001499 0.000000
# 4 0.000000 0.000000 0.000000 0.028371 0.000000 0.003241
# 5 0.001769 -0.003861 0.001499 0.000000 0.025757 0.000000
# 6 0.000000 0.000000 0.000000 0.003241 0.000000 0.030789
#
#
# Mechanical properties :
#
#
# Convention : Reuss Voigt Hill
#
# Bulk Modulus (GPa) = 43.33780 52.46184 47.89982
# Shear Modulus (GPa) = 30.17248 33.94073 32.05660
#
# Velocity S-wave (km/s) = 3.85963 4.09356 3.97831
# Velocity P-wave (km/s) = 6.42332 6.94582 6.68967
#
# Compressibility (1/GPa) = 0.02307454
#
# Stress axis : x y z
#
# Youngs Moduli (GPa) = 68.08992 40.74379 112.86881
#
# Poissons Ratio (x) = 0.22002 0.28445
# Poissons Ratio (y) = 0.36768 0.51779
# Poissons Ratio (z) = 0.17160 0.18691
#
# Static dielectric constant tensor:
#      x y z
#    x 3.592460 0.000000 0.224060 
#    y 0.000000 3.519580 0.000000 
#    z 0.224060 0.000000 3.854120 
# 
# 
# High freq. dielectric constant tensor:
#      x y z
#    x 1.800440 0.000000 0.002010 
#    y 0.000000 1.781070 0.000000 
#    z 0.002010 0.000000 1.811540 
# 
# From -- ./inp_files/180623.got.cif
#   From: 2010.06.25/outbox.cif.g09.slc.cpg/sg12_91_cif.got.tgz:180623.got - 2010.06.28 00:19:55.
