data_PCOD8110498
_publ_section_title
;
Structure prediction by ZEFSAII (Michael W. Deem and Ramdas Pophale) SiO2 
 PCOD8110498
Probable space group: C 2/M
;
_chemical_formula_sum "Si O2"
_cell_formula_units_Z 52
_cell_length_a 7.903905
_cell_length_b 20.482526
_cell_length_c 15.641816
_cell_angle_alpha 90.000000
_cell_angle_beta 78.016596
_cell_angle_gamma 90.000000
_cell_volume 2477.099849
_symmetry_space_group_name_H-M "C 2/M"
_symmetry_group_IT_number 12
_symmetry_cell_setting 'monoclinic'
loop_
_space_group_symop_operation_xyz
x,y,z
-x,y,-z
-x,-y,-z
x,-y,z
1/2+x,1/2+y,z
1/2-x,1/2+y,-z
1/2-x,1/2-y,-z
1/2+x,1/2-y,z
loop_
_atom_site_type_symbol
_atom_site_label
_atom_site_fract_x
_atom_site_fract_y
_atom_site_fract_z
Si Si1 0.616970 0.500000 0.846316
Si Si2 0.193109 0.887604 0.703694
Si Si3 0.576773 0.924312 0.669563
Si Si4 0.328517 0.245192 0.737483
Si Si5 0.759610 0.000000 0.982337
Si Si6 0.081643 0.850841 0.399919
Si Si7 0.576749 0.161544 0.820249
Si Si8 0.000000 0.609836 0.000000
O O1 0.644047 0.435537 0.787075
O O2 0.434762 0.500000 0.912616
O O3 0.745931 0.500000 0.913660
O O4 0.388245 0.904743 0.650736
O O5 0.187717 0.812370 0.735155
O O6 0.050503 0.894764 0.643784
O O7 0.734048 0.886926 0.607033
O O8 0.584145 0.908021 0.770841
O O9 0.607678 0.000000 0.653242
O O10 0.386100 0.279225 0.643082
O O11 0.489768 0.211721 0.764385
O O12 0.262465 0.302837 0.809221
O O13 0.665549 0.934163 0.962450
O O14 0.000000 0.839377 0.500000
O O15 0.476505 0.155908 0.920077
#
# Coordination Sequence:
#
# PCOD8110498 Si02
#       8
#     4   8   8   8   4   8   8   4
#     4  11  24  44  69  93 131 176 220 263 335 390
#     4  11  23  44  69  97 132 177 213 281 333 394
#     4  10  23  42  68  95 132 180 221 268 339 399
#     4  10  21  44  65  88 131 174 226 263 332 404
#     4  10  24  40  62 100 130 171 224 266 312 403
#     4  11  26  44  68 100 130 174 229 277 331 402
#     4  10  22  38  62  94 128 177 214 271 327 390
#     4  11  24  36  62 100 138 165 216 278 318 379
#
# _framework density 20.992291999999999
#
# number of rings (size 3 to 8) (size 9 to 14) (size 15 to 20)
#    0.000    1.538    2.308    1.846    7.538    2.154 
#    0.000    2.308    0.000    0.000    0.000    0.000 
#    0.000    0.000    0.000    0.000    0.000    0.000 
#
# Total GULP energy -322247.915729 kJ/mol
# GULP energy per Si atom -12394.150605 kJ/mol
# Density = 2.094451 g / cm^3
# Si number density = 20.992292 Si / 1000 Ang^3
#
#
#
# Elastic Constant Matrix: (Units=GPa)
#
#
# Indices 1 2 3 4 5 6 
#
# 1 87.8869 32.8944 43.8080 0.0000 -11.0272 0.0000
# 2 32.8944 121.1782 51.7604 0.0000 -7.3105 0.0000
# 3 43.8080 51.7604 122.2285 0.0000 -19.5036 0.0000
# 4 0.0000 0.0000 0.0000 26.2297 0.0000 -2.2167
# 5 -11.0272 -7.3105 -19.5036 0.0000 28.0564 0.0000
# 6 0.0000 0.0000 0.0000 -2.2167 0.0000 40.1902
#
#
#
# Elastic Compliance Matrix: (Units=1/GPa)
#
#
# Indices 1 2 3 4 5 6 
#
# 1 0.014406 -0.002105 -0.003887 0.000000 0.002412 0.000000
# 2 -0.002105 0.010386 -0.003761 0.000000 -0.000736 0.000000
# 3 -0.003887 -0.003761 0.012111 0.000000 0.005911 0.000000
# 4 0.000000 0.000000 0.000000 0.038303 0.000000 0.002113
# 5 0.002412 -0.000736 0.005911 0.000000 0.040508 0.000000
# 6 0.000000 0.000000 0.000000 0.002113 0.000000 0.024998
#
#
# Mechanical properties :
#
#
# Convention : Reuss Voigt Hill
#
# Bulk Modulus (GPa) = 57.48332 65.35770 61.42051
# Shear Modulus (GPa) = 30.11746 32.41731 31.26739
#
# Velocity S-wave (km/s) = 3.79184 3.93396 3.86355
# Velocity P-wave (km/s) = 6.82739 7.19975 7.01604
#
# Compressibility (1/GPa) = 0.01739635
#
# Stress axis : x y z
#
# Youngs Moduli (GPa) = 69.41439 96.28519 82.57271
#
# Poissons Ratio (x) = 0.20266 0.32098
# Poissons Ratio (y) = 0.14610 0.31057
# Poissons Ratio (z) = 0.26983 0.36214
#
# Static dielectric constant tensor:
#      x y z
#    x 4.077800 0.000000 0.065830 
#    y 0.000000 3.873250 0.000000 
#    z 0.065830 0.000000 3.506020 
# 
# 
# High freq. dielectric constant tensor:
#      x y z
#    x 1.839180 0.000000 -0.007270 
#    y 0.000000 1.830600 0.000000 
#    z -0.007270 0.000000 1.796640 
# 
# From -- ./inp_files/197038.got.cif
#   From: 2010.06.25/outbox.cif.g09.slc.cpg/sg12_99_cif.got.tgz:197038.got - 2010.06.28 00:19:55.
