data_PCOD8110578
_publ_section_title
;
Structure prediction by ZEFSAII (Michael W. Deem and Ramdas Pophale) SiO2 
 PCOD8110578
Probable space group: C 2/M
;
_chemical_formula_sum "Si O2"
_cell_formula_units_Z 56
_cell_length_a 9.497602
_cell_length_b 19.234574
_cell_length_c 30.960672
_cell_angle_alpha 90.000000
_cell_angle_beta 151.411990
_cell_angle_gamma 90.000000
_cell_volume 2706.426428
_symmetry_space_group_name_H-M "C 2/M"
_symmetry_group_IT_number 12
_symmetry_cell_setting 'monoclinic'
loop_
_space_group_symop_operation_xyz
x,y,z
-x,y,-z
-x,-y,-z
x,-y,z
1/2+x,1/2+y,z
1/2-x,1/2+y,-z
1/2-x,1/2-y,-z
1/2+x,1/2-y,z
loop_
_atom_site_type_symbol
_atom_site_label
_atom_site_fract_x
_atom_site_fract_y
_atom_site_fract_z
Si Si1 0.166835 0.126817 0.208079
Si Si2 0.218349 0.500000 0.099166
Si Si3 0.227560 0.344538 0.317603
Si Si4 0.325110 0.683626 0.697962
Si Si5 0.295232 0.266988 0.061750
Si Si6 0.908741 0.358533 0.817180
Si Si7 0.650181 0.000000 0.911134
Si Si8 0.648033 0.178919 0.493614
O O1 0.486488 0.104281 0.275147
O O2 0.247502 0.173033 0.271447
O O3 0.046693 0.176068 0.137136
O O4 0.940603 0.065393 0.157999
O O5 0.996034 0.500000 0.080237
O O6 0.000000 0.500000 0.000000
O O7 0.163098 0.264208 0.312723
O O8 0.217933 0.348214 0.263983
O O9 0.556129 0.367630 0.421098
O O10 0.641045 0.648391 0.778212
O O11 0.084703 0.644457 0.602535
O O12 0.346211 0.197735 0.103637
O O13 0.250000 0.250000 0.000000
O O14 0.000000 0.302460 0.000000
O O15 0.045354 0.433932 0.856665
O O16 0.000000 0.000000 0.000000
O O17 0.500000 0.192503 0.500000
O O18 0.750000 0.250000 0.500000
#
# Coordination Sequence:
#
# PCOD8110578 Si02
#       8
#     8   4   8   8   8   8   4   8
#     4  12  25  43  68  94 132 176 221 272 331 395
#     4  12  30  48  66  93 132 176 226 272 333 397
#     4  11  22  39  67 101 133 169 218 270 330 393
#     4  11  20  41  66  99 139 169 217 266 333 391
#     4  12  24  39  62  92 126 164 216 276 327 374
#     4  12  23  43  66  92 131 171 222 268 324 395
#     4  12  30  48  68  93 129 179 225 271 334 396
#     4  10  22  35  61 102 141 171 210 271 333 399
#
# _framework density 20.691490999999999
#
# number of rings (size 3 to 8) (size 9 to 14) (size 15 to 20)
#    0.000    0.571    5.714    2.571   10.000    0.000 
#    0.000    0.000    0.000    5.143    0.000    0.000 
#    0.000    0.000    0.000    0.000    0.000    0.000 
#
# Total GULP energy -347068.045099 kJ/mol
# GULP energy per Si atom -12395.287325 kJ/mol
# Density = 2.064440 g / cm^3
# Si number density = 20.691491 Si / 1000 Ang^3
#
#
#
# Elastic Constant Matrix: (Units=GPa)
#
#
# Indices 1 2 3 4 5 6 
#
# 1 116.9761 3.7234 50.1259 -0.0075 5.1452 -0.0063
# 2 3.7234 74.8485 29.6435 -0.0049 5.3782 -0.0055
# 3 50.1259 29.6435 141.2320 -0.0008 -1.1122 -0.0073
# 4 -0.0075 -0.0049 -0.0008 18.2394 -0.0098 4.9127
# 5 5.1452 5.3782 -1.1122 -0.0098 44.8531 -0.0085
# 6 -0.0063 -0.0055 -0.0073 4.9127 -0.0085 23.2375
#
#
#
# Elastic Compliance Matrix: (Units=1/GPa)
#
#
# Indices 1 2 3 4 5 6 
#
# 1 0.010238 0.001129 -0.003882 0.000003 -0.001406 0.000001
# 2 0.001129 0.014847 -0.003533 0.000003 -0.001997 0.000001
# 3 -0.003882 -0.003533 0.009208 -0.000002 0.001097 0.000002
# 4 0.000003 0.000003 -0.000002 0.058137 0.000010 -0.012291
# 5 -0.001406 -0.001997 0.001097 0.000010 0.022723 0.000006
# 6 0.000001 0.000001 0.000002 -0.012291 0.000006 0.045632
#
#
# Mechanical properties :
#
#
# Convention : Reuss Voigt Hill
#
# Bulk Modulus (GPa) = 46.03519 55.56023 50.79771
# Shear Modulus (GPa) = 27.68599 33.90358 30.79478
#
# Velocity S-wave (km/s) = 3.66189 4.05226 3.86201
# Velocity P-wave (km/s) = 6.33845 6.98602 6.67010
#
# Compressibility (1/GPa) = 0.02172251
#
# Stress axis : x y z
#
# Youngs Moduli (GPa) = 97.67495 67.35471 108.59685
#
# Poissons Ratio (x) = -0.07605 0.42154
# Poissons Ratio (y) = -0.11028 0.38364
# Poissons Ratio (z) = 0.37915 0.23794
#
# Static dielectric constant tensor:
#      x y z
#    x 3.838360 -0.000040 0.006750 
#    y -0.000040 3.338250 -0.000060 
#    z 0.006750 -0.000060 4.605230 
# 
# 
# High freq. dielectric constant tensor:
#      x y z
#    x 1.827760 0.000000 0.004170 
#    y 0.000000 1.760300 0.000000 
#    z 0.004170 0.000000 1.836520 
# 
# From -- ./inp_files/373200.got.cif
#   From: 2010.06.25/outbox.cif.g09.slc.cpg/sg12_187_cif.got.tgz:373200.got - 2010.06.28 00:19:55.
