data_PCOD8110310
_publ_section_title
;
Structure prediction by ZEFSAII (Michael W. Deem and Ramdas Pophale) SiO2 
 PCOD8110310
Probable space group: C 2/M
;
_chemical_formula_sum "Si O2"
_cell_formula_units_Z 48
_cell_length_a 18.578490
_cell_length_b 13.665297
_cell_length_c 18.142197
_cell_angle_alpha 90.000000
_cell_angle_beta 31.336806
_cell_angle_gamma 90.000000
_cell_volume 2395.407543
_symmetry_space_group_name_H-M "C 2/M"
_symmetry_group_IT_number 12
_symmetry_cell_setting 'monoclinic'
loop_
_space_group_symop_operation_xyz
x,y,z
-x,y,-z
-x,-y,-z
x,-y,z
1/2+x,1/2+y,z
1/2-x,1/2+y,-z
1/2-x,1/2-y,-z
1/2+x,1/2-y,z
loop_
_atom_site_type_symbol
_atom_site_label
_atom_site_fract_x
_atom_site_fract_y
_atom_site_fract_z
Si Si1 0.149719 0.886805 0.706481
Si Si2 0.927522 0.228719 0.988999
Si Si3 0.483944 0.611783 0.330427
Si Si4 0.792541 0.386280 0.012353
Si Si5 0.670676 0.113421 0.189877
Si Si6 0.565017 0.784860 0.523427
O O1 0.122789 0.873582 0.643177
O O2 0.279724 0.823366 0.618020
O O3 0.174442 0.000000 0.704741
O O4 0.016472 0.850511 0.867093
O O5 0.903405 0.326318 0.962687
O O6 0.783584 0.175785 0.136236
O O7 0.000000 0.263690 0.000000
O O8 0.483381 0.500000 0.358011
O O9 0.637431 0.643203 0.170990
O O10 0.434769 0.676895 0.441789
O O11 0.822373 0.500000 0.999738
O O12 0.814121 0.357754 0.908736
O O13 0.518649 0.140427 0.351350
O O14 0.698530 0.000000 0.179207
O O15 0.500000 0.779180 0.500000
#
# Coordination Sequence:
#
# PCOD8110310 Si02
#       6
#     8   8   8   8   8   8
#     4  11  24  41  61  90 125 162 205 250 300 358
#     4  12  23  37  62  92 125 160 199 251 308 364
#     4  10  21  42  68  89 117 161 211 258 297 352
#     4  10  21  41  68  92 117 156 210 261 302 350
#     4  11  22  40  66  90 118 163 210 248 297 365
#     4  12  25  40  61  92 130 165 196 247 311 366
#
# _framework density 20.038345
#
# number of rings (size 3 to 8) (size 9 to 14) (size 15 to 20)
#    0.000    1.000    3.333    4.000    0.000    4.667 
#    0.000    2.500    0.000    0.000    0.000    0.000 
#    0.000    0.000    0.000    0.000    0.000    0.000 
#
# Total GULP energy -297776.163811 kJ/mol
# GULP energy per Si atom -12407.340159 kJ/mol
# Density = 1.999274 g / cm^3
# Si number density = 20.038345 Si / 1000 Ang^3
#
#
#
# Elastic Constant Matrix: (Units=GPa)
#
#
# Indices 1 2 3 4 5 6 
#
# 1 117.2899 59.4945 16.3260 0.0002 -6.8724 -0.0001
# 2 59.4945 97.1151 29.6104 0.0000 0.0211 -0.0001
# 3 16.3260 29.6104 63.4400 0.0002 -5.5685 -0.0001
# 4 0.0002 0.0000 0.0002 33.3622 -0.0002 -6.3838
# 5 -6.8724 0.0211 -5.5685 -0.0002 22.0553 0.0001
# 6 -0.0001 -0.0001 -0.0001 -6.3838 0.0001 16.8772
#
#
#
# Elastic Compliance Matrix: (Units=1/GPa)
#
#
# Indices 1 2 3 4 5 6 
#
# 1 0.012746 -0.008070 0.000855 0.000000 0.004195 0.000000
# 2 -0.008070 0.017161 -0.006295 0.000000 -0.004120 0.000000
# 3 0.000855 -0.006295 0.018924 0.000000 0.005050 0.000000
# 4 0.000000 0.000000 0.000000 0.032313 0.000000 0.012222
# 5 0.004195 -0.004120 0.005050 0.000000 0.047927 0.000000
# 6 0.000000 0.000000 0.000000 0.012222 0.000000 0.063875
#
#
# Mechanical properties :
#
#
# Convention : Reuss Voigt Hill
#
# Bulk Modulus (GPa) = 45.84748 54.30075 50.07412
# Shear Modulus (GPa) = 22.00350 25.95321 23.97836
#
# Velocity S-wave (km/s) = 3.31731 3.60276 3.46298
# Velocity P-wave (km/s) = 6.13207 6.66812 6.40570
#
# Compressibility (1/GPa) = 0.02181145
#
# Stress axis : x y z
#
# Youngs Moduli (GPa) = 78.45467 58.27129 52.84204
#
# Poissons Ratio (x) = 0.47025 -0.04517
# Poissons Ratio (y) = 0.63314 0.33263
# Poissons Ratio (z) = -0.06706 0.36680
#
# Static dielectric constant tensor:
#      x y z
#    x 3.608340 0.000000 -0.060580 
#    y 0.000000 3.684730 0.000000 
#    z -0.060580 0.000000 3.603380 
# 
# 
# High freq. dielectric constant tensor:
#      x y z
#    x 1.782090 0.000000 -0.004150 
#    y 0.000000 1.794050 0.000000 
#    z -0.004150 0.000000 1.779740 
# 
# From -- ./inp_files/105057.got.cif
#   From: 2010.06.25/outbox.cif.g09.slc.cpg/sg12_53_cif.got.tgz:105057.got - 2010.06.28 00:19:55.
