data_PCOD8110465
_publ_section_title
;
Structure prediction by ZEFSAII (Michael W. Deem and Ramdas Pophale) SiO2 
 PCOD8110465
Probable space group: C 2/M
;
_chemical_formula_sum "Si O2"
_cell_formula_units_Z 32
_cell_length_a 14.357366
_cell_length_b 14.261412
_cell_length_c 8.857498
_cell_angle_alpha 90.000000
_cell_angle_beta 65.522480
_cell_angle_gamma 90.000000
_cell_volume 1650.626765
_symmetry_space_group_name_H-M "C 2/M"
_symmetry_group_IT_number 12
_symmetry_cell_setting 'monoclinic'
loop_
_space_group_symop_operation_xyz
x,y,z
-x,y,-z
-x,-y,-z
x,-y,z
1/2+x,1/2+y,z
1/2-x,1/2+y,-z
1/2-x,1/2-y,-z
1/2+x,1/2-y,z
loop_
_atom_site_type_symbol
_atom_site_label
_atom_site_fract_x
_atom_site_fract_y
_atom_site_fract_z
Si Si1 0.235932 0.500000 0.893395
Si Si2 0.095608 0.359016 0.823397
Si Si3 0.979076 0.000000 0.688047
Si Si4 0.915665 0.148520 0.181485
Si Si5 0.583260 0.000000 0.571387
Si Si6 0.745072 0.500000 0.783729
O O1 0.193402 0.407437 0.837778
O O2 0.358985 0.500000 0.807424
O O3 0.196265 0.500000 0.094378
O O4 0.122281 0.253251 0.754896
O O5 0.070485 0.408778 0.682957
O O6 0.000000 0.367884 0.000000
O O7 0.000000 0.000000 0.500000
O O8 0.034514 0.093384 0.712242
O O9 0.821447 0.093710 0.173724
O O10 0.000000 0.158541 0.000000
O O11 0.500000 0.000000 0.500000
O O12 0.689925 0.000000 0.412080
#
# Coordination Sequence:
#
# PCOD8110465 Si02
#       6
#     4   8   4   8   4   4
#     4  11  21  41  62  93 118 160 208 243 303 358
#     4  10  23  41  63  88 124 158 202 252 300 356
#     4  11  23  40  63  90 125 159 202 251 299 356
#     4  10  21  43  62  89 123 162 197 246 306 361
#     4  11  23  40  58  88 122 164 200 248 304 355
#     4  11  21  38  65  86 125 159 200 248 302 364
#
# _framework density 19.386575000000001
#
# number of rings (size 3 to 8) (size 9 to 14) (size 15 to 20)
#    0.000    1.500    2.500    3.750    7.000    3.000 
#    4.500    0.000    0.000    0.000    0.000    0.000 
#    0.000    0.000    0.000    0.000    0.000    0.000 
#
# Total GULP energy -198369.447954 kJ/mol
# GULP energy per Si atom -12398.090497 kJ/mol
# Density = 1.934245 g / cm^3
# Si number density = 19.386575 Si / 1000 Ang^3
#
#
#
# Elastic Constant Matrix: (Units=GPa)
#
#
# Indices 1 2 3 4 5 6 
#
# 1 110.0338 67.5624 27.6261 0.0000 23.5576 0.0000
# 2 67.5624 205.1228 50.7699 0.0000 20.1299 0.0000
# 3 27.6261 50.7699 96.2410 0.0000 26.3110 0.0000
# 4 0.0000 0.0000 0.0000 15.4604 0.0000 2.2341
# 5 23.5576 20.1299 26.3110 0.0000 40.8130 0.0000
# 6 0.0000 0.0000 0.0000 2.2341 0.0000 15.1617
#
#
#
# Elastic Compliance Matrix: (Units=1/GPa)
#
#
# Indices 1 2 3 4 5 6 
#
# 1 0.012443 -0.003512 -0.000278 0.000000 -0.005271 0.000000
# 2 -0.003512 0.006635 -0.002612 0.000000 0.000439 0.000000
# 3 -0.000278 -0.002612 0.013902 0.000000 -0.007514 0.000000
# 4 0.000000 0.000000 0.000000 0.066089 0.000000 -0.009738
# 5 -0.005271 0.000439 -0.007514 0.000000 0.032172 0.000000
# 6 0.000000 0.000000 0.000000 -0.009738 0.000000 0.067391
#
#
# Mechanical properties :
#
#
# Convention : Reuss Voigt Hill
#
# Bulk Modulus (GPa) = 49.56361 78.14602 63.85482
# Shear Modulus (GPa) = 22.91875 31.98298 27.45086
#
# Velocity S-wave (km/s) = 3.44204 4.06612 3.76702
# Velocity P-wave (km/s) = 6.43570 7.90198 7.20623
#
# Compressibility (1/GPa) = 0.02017609
#
# Stress axis : x y z
#
# Youngs Moduli (GPa) = 80.36682 150.70474 71.92957
#
# Poissons Ratio (x) = 0.52933 0.02000
# Poissons Ratio (y) = 0.28228 0.18789
# Poissons Ratio (z) = 0.02234 0.39365
#
# Static dielectric constant tensor:
#      x y z
#    x 3.484780 0.000000 0.057500 
#    y 0.000000 4.861910 0.000000 
#    z 0.057500 0.000000 3.685650 
# 
# 
# High freq. dielectric constant tensor:
#      x y z
#    x 1.757890 0.000000 0.005040 
#    y 0.000000 1.760180 0.000000 
#    z 0.005040 0.000000 1.762720 
# 
# From -- ./inp_files/58060.got.cif
#   From: 2010.06.25/outbox.cif.g09.slc.cpg/sg12_30_cif.got.tgz:58060.got - 2010.06.28 00:19:55.
