data_PCOD8110847
_publ_section_title
;
Structure prediction by ZEFSAII (Michael W. Deem and Ramdas Pophale) SiO2 
 PCOD8110847
Probable space group: C 2/M
;
_chemical_formula_sum "Si O2"
_cell_formula_units_Z 56
_cell_length_a 25.395701
_cell_length_b 8.793393
_cell_length_c 14.677208
_cell_angle_alpha 90.000000
_cell_angle_beta 59.325500
_cell_angle_gamma 90.000000
_cell_volume 2819.023443
_symmetry_space_group_name_H-M "C 2/M"
_symmetry_group_IT_number 12
_symmetry_cell_setting 'monoclinic'
loop_
_space_group_symop_operation_xyz
x,y,z
-x,y,-z
-x,-y,-z
x,-y,z
1/2+x,1/2+y,z
1/2-x,1/2+y,-z
1/2-x,1/2-y,-z
1/2+x,1/2-y,z
loop_
_atom_site_type_symbol
_atom_site_label
_atom_site_fract_x
_atom_site_fract_y
_atom_site_fract_z
Si Si1 0.178930 0.319508 0.805088
Si Si2 0.955248 0.318924 0.118351
Si Si3 0.727810 0.320084 0.427228
Si Si4 0.738354 0.678985 0.106918
Si Si5 0.894918 0.179688 0.709401
Si Si6 0.601357 0.177989 0.484245
Si Si7 0.499331 0.821798 0.724061
O O1 0.175990 0.500000 0.802276
O O2 0.111804 0.250876 0.845209
O O3 0.225912 0.256510 0.689154
O O4 0.205047 0.267860 0.879860
O O5 0.953182 0.500000 0.119145
O O6 0.976729 0.262823 0.198989
O O7 0.000000 0.257086 0.000000
O O8 0.729751 0.500000 0.431146
O O9 0.750000 0.250000 0.500000
O O10 0.660049 0.269595 0.464056
O O11 0.736716 0.500000 0.097169
O O12 0.674159 0.732837 0.207257
O O13 0.750000 0.750000 0.000000
O O14 0.918699 0.265057 0.597804
O O15 0.937704 0.230015 0.755503
O O16 0.898782 0.000000 0.690167
O O17 0.548766 0.215085 0.603060
O O18 0.615900 0.000000 0.468625
O O19 0.483960 0.000000 0.741651
#
# Coordination Sequence:
#
# PCOD8110847 Si02
#       7
#     8   8   8   8   8   8   8
#     4   9  18  36  57  81 117 151 187 242 294 341
#     4   9  18  33  57  86 112 145 192 240 289 345
#     4  11  21  36  58  85 121 160 199 244 297 356
#     4  10  22  39  60  87 117 152 195 243 297 353
#     4  11  23  40  60  87 120 157 197 242 297 360
#     4  11  22  38  59  87 121 155 197 249 302 356
#     4  10  22  38  58  88 120 153 197 248 298 354
#
# _framework density 19.865034999999999
#
# number of rings (size 3 to 8) (size 9 to 14) (size 15 to 20)
#    0.000    1.857    1.429    2.571    2.000    6.286 
#    0.000    0.000    0.000    1.286    0.000    0.000 
#    0.000    0.000    0.000    0.000    0.000    0.000 
#
# Total GULP energy -347247.994056 kJ/mol
# GULP energy per Si atom -12401.714073 kJ/mol
# Density = 1.981982 g / cm^3
# Si number density = 19.865035 Si / 1000 Ang^3
#
#
#
# Elastic Constant Matrix: (Units=GPa)
#
#
# Indices 1 2 3 4 5 6 
#
# 1 159.8847 25.3113 58.4479 0.0000 13.1010 0.0000
# 2 25.3113 39.3328 32.6566 -0.0001 -0.6744 -0.0004
# 3 58.4479 32.6566 123.1254 0.0000 21.5519 0.0000
# 4 0.0000 -0.0001 0.0000 24.3943 0.0000 2.9585
# 5 13.1010 -0.6744 21.5519 0.0000 38.3194 0.0000
# 6 0.0000 -0.0004 0.0000 2.9585 0.0000 34.0979
#
#
#
# Elastic Compliance Matrix: (Units=1/GPa)
#
#
# Indices 1 2 3 4 5 6 
#
# 1 0.007796 -0.002734 -0.002774 0.000000 -0.001153 0.000000
# 2 -0.002734 0.034869 -0.009120 0.000000 0.006677 0.000000
# 3 -0.002774 -0.009120 0.012999 0.000000 -0.006523 0.000000
# 4 0.000000 0.000000 0.000000 0.041429 0.000000 -0.003595
# 5 -0.001153 0.006677 -0.006523 0.000000 0.030277 0.000000
# 6 0.000000 0.000000 0.000000 -0.003595 0.000000 0.029639
#
#
# Mechanical properties :
#
#
# Convention : Reuss Voigt Hill
#
# Bulk Modulus (GPa) = 37.86382 61.68606 49.77494
# Shear Modulus (GPa) = 25.63222 33.09078 29.36150
#
# Velocity S-wave (km/s) = 3.59600 4.08582 3.84871
# Velocity P-wave (km/s) = 6.02856 7.30607 6.69784
#
# Compressibility (1/GPa) = 0.02641044
#
# Stress axis : x y z
#
# Youngs Moduli (GPa) = 128.27519 28.67850 76.92811
#
# Poissons Ratio (x) = 0.07839 0.21338
# Poissons Ratio (y) = 0.35064 0.70155
# Poissons Ratio (z) = 0.35580 0.26154
#
# Static dielectric constant tensor:
#      x y z
#    x 3.865070 0.000000 -0.020350 
#    y 0.000000 3.305550 0.000000 
#    z -0.020350 0.000000 3.736230 
# 
# 
# High freq. dielectric constant tensor:
#      x y z
#    x 1.795370 0.000000 0.003490 
#    y 0.000000 1.742480 0.000000 
#    z 0.003490 0.000000 1.784640 
# 
# From -- ./inp_files/238229.got.cif
#   From: 2010.06.25/outbox.cif.g09.slc.cpg/sg12_120_cif.got.tgz:238229.got - 2010.06.28 00:19:55.
