data_PCOD8110568
_publ_section_title
;
Structure prediction by ZEFSAII (Michael W. Deem and Ramdas Pophale) SiO2 
 PCOD8110568
Probable space group: C 2/M
;
_chemical_formula_sum "Si O2"
_cell_formula_units_Z 44
_cell_length_a 18.379608
_cell_length_b 9.532975
_cell_length_c 14.120411
_cell_angle_alpha 90.000000
_cell_angle_beta 68.695518
_cell_angle_gamma 90.000000
_cell_volume 2304.999289
_symmetry_space_group_name_H-M "C 2/M"
_symmetry_group_IT_number 12
_symmetry_cell_setting 'monoclinic'
loop_
_space_group_symop_operation_xyz
x,y,z
-x,y,-z
-x,-y,-z
x,-y,z
1/2+x,1/2+y,z
1/2-x,1/2+y,-z
1/2-x,1/2-y,-z
1/2+x,1/2-y,z
loop_
_atom_site_type_symbol
_atom_site_label
_atom_site_fract_x
_atom_site_fract_y
_atom_site_fract_z
Si Si1 0.413539 0.500000 0.446352
Si Si2 0.319661 0.741406 0.787948
Si Si3 0.436520 0.000000 0.228262
Si Si4 0.091233 0.000000 0.343885
Si Si5 0.634980 0.216436 0.604220
Si Si6 0.121138 0.500000 0.115935
Si Si7 0.778625 0.651640 0.610245
Si Si8 0.692890 0.000000 0.877179
O O1 0.504577 0.500000 0.419635
O O2 0.366501 0.500000 0.570771
O O3 0.396109 0.371155 0.387676
O O4 0.389877 0.637174 0.727034
O O5 0.302553 0.838199 0.706941
O O6 0.245385 0.642099 0.848608
O O7 0.345579 0.854175 0.855213
O O8 0.423563 0.866643 0.301357
O O9 0.526896 0.000000 0.155603
O O10 0.374573 0.000000 0.171350
O O11 0.721097 0.220444 0.611259
O O12 0.644639 0.153778 0.493888
O O13 0.148326 0.500000 0.996112
O O14 0.737902 0.500000 0.615173
#
# Coordination Sequence:
#
# PCOD8110568 Si02
#       8
#     4   8   4   4   8   4   8   4
#     4  11  20  35  52  82 130 160 195 224 300 367
#     4  11  22  41  65  88 117 160 208 250 306 366
#     4  12  24  42  62  95 128 160 204 257 320 361
#     4  10  22  35  55  85 118 166 191 241 290 375
#     4  11  22  34  59  89 121 166 198 239 293 375
#     4  12  26  43  65  92 123 157 208 279 317 347
#     4  11  20  34  58  90 122 156 202 240 293 363
#     4  11  25  45  68  87 116 165 220 259 309 366
#
# _framework density 19.088944000000001
#
# number of rings (size 3 to 8) (size 9 to 14) (size 15 to 20)
#    0.000    0.909    6.364    1.909    0.000    0.000 
#    0.000    0.909    0.000    0.000    0.000    8.909 
#    0.000    0.000    0.000    0.000    0.000    0.000 
#
# Total GULP energy -272549.466445 kJ/mol
# GULP energy per Si atom -12388.612111 kJ/mol
# Density = 1.904550 g / cm^3
# Si number density = 19.088944 Si / 1000 Ang^3
#
#
#
# Elastic Constant Matrix: (Units=GPa)
#
#
# Indices 1 2 3 4 5 6 
#
# 1 87.7744 42.2760 51.2237 0.0000 -7.3989 0.0000
# 2 42.2760 142.4106 57.8360 0.0000 1.8037 0.0000
# 3 51.2237 57.8360 147.5297 0.0000 -2.6554 0.0000
# 4 0.0000 0.0000 0.0000 9.7288 0.0000 0.6325
# 5 -7.3989 1.8037 -2.6554 0.0000 27.2769 0.0000
# 6 0.0000 0.0000 0.0000 0.6325 0.0000 25.0868
#
#
#
# Elastic Compliance Matrix: (Units=1/GPa)
#
#
# Indices 1 2 3 4 5 6 
#
# 1 0.015608 -0.002989 -0.004175 0.000000 0.004025 0.000000
# 2 -0.002989 0.008945 -0.002498 0.000000 -0.001645 0.000000
# 3 -0.004175 -0.002498 0.009206 0.000000 -0.000071 0.000000
# 4 0.000000 0.000000 0.000000 0.102957 0.000000 -0.002596
# 5 0.004025 -0.001645 -0.000071 0.000000 0.037855 0.000000
# 6 0.000000 0.000000 0.000000 -0.002596 0.000000 0.039927
#
#
# Mechanical properties :
#
#
# Convention : Reuss Voigt Hill
#
# Bulk Modulus (GPa) = 69.27991 75.59844 72.43918
# Shear Modulus (GPa) = 20.95260 27.51043 24.23151
#
# Velocity S-wave (km/s) = 3.31664 3.80039 3.56673
# Velocity P-wave (km/s) = 7.14415 7.67767 7.41571
#
# Compressibility (1/GPa) = 0.01443420
#
# Stress axis : x y z
#
# Youngs Moduli (GPa) = 64.06879 111.79764 108.62309
#
# Poissons Ratio (x) = 0.33414 0.45352
# Poissons Ratio (y) = 0.19149 0.27139
# Poissons Ratio (z) = 0.26750 0.27932
#
# Static dielectric constant tensor:
#      x y z
#    x 3.463350 0.000000 0.043310 
#    y 0.000000 3.503360 0.000000 
#    z 0.043310 0.000000 3.431110 
# 
# 
# High freq. dielectric constant tensor:
#      x y z
#    x 1.731500 0.000000 0.003040 
#    y 0.000000 1.758640 0.000000 
#    z 0.003040 0.000000 1.738340 
# 
# From -- ./inp_files/163078.got.cif
#   From: 2010.06.25/outbox.cif.g09.slc.cpg/sg12_82_cif.got.tgz:163078.got - 2010.06.28 00:19:55.
