data_PCOD8110873
_publ_section_title
;
Structure prediction by ZEFSAII (Michael W. Deem and Ramdas Pophale) SiO2 
 PCOD8110873
Probable space group: C 2/M
;
_chemical_formula_sum "Si O2"
_cell_formula_units_Z 64
_cell_length_a 23.015218
_cell_length_b 14.974528
_cell_length_c 16.319282
_cell_angle_alpha 90.000000
_cell_angle_beta 33.025709
_cell_angle_gamma 90.000000
_cell_volume 3065.335214
_symmetry_space_group_name_H-M "C 2/M"
_symmetry_group_IT_number 12
_symmetry_cell_setting 'monoclinic'
loop_
_space_group_symop_operation_xyz
x,y,z
-x,y,-z
-x,-y,-z
x,-y,z
1/2+x,1/2+y,z
1/2-x,1/2+y,-z
1/2-x,1/2-y,-z
1/2+x,1/2-y,z
loop_
_atom_site_type_symbol
_atom_site_label
_atom_site_fract_x
_atom_site_fract_y
_atom_site_fract_z
Si Si1 0.558562 0.846419 0.637922
Si Si2 0.404341 0.727619 0.906849
Si Si3 0.435184 0.396885 0.720481
Si Si4 0.912150 0.402776 0.672378
Si Si5 0.479237 0.601282 0.119673
Si Si6 0.228100 0.099739 0.535351
Si Si7 0.200886 0.218374 0.227056
Si Si8 0.341797 0.679514 0.545556
O O1 0.502688 0.794424 0.778276
O O2 0.469595 0.901660 0.693629
O O3 0.656132 0.902800 0.559225
O O4 0.604077 0.775900 0.519575
O O5 0.384769 0.664359 0.851611
O O6 0.429561 0.662497 0.951371
O O7 0.305509 0.790806 0.047508
O O8 0.399428 0.500000 0.771701
O O9 0.389076 0.352715 0.692651
O O10 0.563841 0.394082 0.565595
O O11 0.853027 0.500000 0.737113
O O12 0.832372 0.321446 0.749495
O O13 0.000000 0.397516 0.500000
O O14 0.499228 0.500000 0.123904
O O15 0.361466 0.630470 0.292059
O O16 0.500000 0.612745 0.000000
O O17 0.228260 0.162817 0.453971
O O18 0.203021 0.000000 0.534739
O O19 0.227098 0.186972 0.289522
#
# Coordination Sequence:
#
# PCOD8110873 Si02
#       8
#     8   8   8   8   8   8   8   8
#     4  11  22  40  62  88 120 168 210 263 309 383
#     4  11  24  39  62  87 131 163 211 259 326 380
#     4  11  22  41  68  94 125 168 218 269 321 376
#     4  11  22  39  63  93 129 168 210 261 316 381
#     4  10  22  38  59  93 128 158 204 262 316 379
#     4  11  23  41  65  92 122 166 215 262 320 380
#     4  12  24  42  61  97 131 170 211 266 319 386
#     4  11  22  39  67  90 128 163 215 262 319 375
#
# _framework density 20.878630000000001
#
# number of rings (size 3 to 8) (size 9 to 14) (size 15 to 20)
#    0.000    1.000    6.250    2.250    1.750    2.500 
#    0.000    0.625    0.000    0.750    0.000    0.000 
#    0.000    0.000    0.000    0.000    0.000    0.000 
#
# Total GULP energy -396577.949318 kJ/mol
# GULP energy per Si atom -12393.060916 kJ/mol
# Density = 2.083111 g / cm^3
# Si number density = 20.878630 Si / 1000 Ang^3
#
#
#
# Elastic Constant Matrix: (Units=GPa)
#
#
# Indices 1 2 3 4 5 6 
#
# 1 83.8794 29.8100 39.2020 0.0000 4.4126 0.0000
# 2 29.8100 72.7730 25.5674 0.0000 11.8970 0.0000
# 3 39.2020 25.5674 81.3938 0.0000 17.6821 0.0000
# 4 0.0000 0.0000 0.0000 18.5876 0.0000 -2.1442
# 5 4.4126 11.8970 17.6821 0.0000 24.8801 0.0000
# 6 0.0000 0.0000 0.0000 -2.1442 0.0000 32.7749
#
#
#
# Elastic Compliance Matrix: (Units=1/GPa)
#
#
# Indices 1 2 3 4 5 6 
#
# 1 0.017061 -0.005087 -0.007675 0.000000 0.004861 0.000000
# 2 -0.005087 0.017433 -0.001669 0.000000 -0.006248 0.000000
# 3 -0.007675 -0.001669 0.018966 0.000000 -0.011320 0.000000
# 4 0.000000 0.000000 0.000000 0.054208 0.000000 0.003546
# 5 0.004861 -0.006248 -0.011320 0.000000 0.050363 0.000000
# 6 0.000000 0.000000 0.000000 0.003546 0.000000 0.030743
#
#
# Mechanical properties :
#
#
# Convention : Reuss Voigt Hill
#
# Bulk Modulus (GPa) = 40.65393 47.46725 44.06059
# Shear Modulus (GPa) = 22.14000 24.81299 23.47650
#
# Velocity S-wave (km/s) = 3.25993 3.45112 3.35689
# Velocity P-wave (km/s) = 5.80374 6.21808 6.01448
#
# Compressibility (1/GPa) = 0.02459787
#
# Stress axis : x y z
#
# Youngs Moduli (GPa) = 58.61260 57.36321 52.72602
#
# Poissons Ratio (x) = 0.29180 0.40470
# Poissons Ratio (y) = 0.29816 0.08798
# Poissons Ratio (z) = 0.44988 0.09572
#
# Static dielectric constant tensor:
#      x y z
#    x 3.813920 0.000000 0.017730 
#    y 0.000000 3.807670 0.000000 
#    z 0.017730 0.000000 3.707250 
# 
# 
# High freq. dielectric constant tensor:
#      x y z
#    x 1.816170 0.000000 0.010680 
#    y 0.000000 1.815300 0.000000 
#    z 0.010680 0.000000 1.801930 
# 
# From -- ./inp_files/290105.got.cif
#   From: 2010.06.25/outbox.cif.g09.slc.cpg/sg12_146_cif.got.tgz:290105.got - 2010.06.28 00:19:55.
