data_PCOD8110567
_publ_section_title
;
Structure prediction by ZEFSAII (Michael W. Deem and Ramdas Pophale) SiO2 
 PCOD8110567
Probable space group: C 2/M
;
_chemical_formula_sum "Si O2"
_cell_formula_units_Z 64
_cell_length_a 9.703738
_cell_length_b 24.157538
_cell_length_c 31.288361
_cell_angle_alpha 90.000000
_cell_angle_beta 151.361893
_cell_angle_gamma 90.000000
_cell_volume 3515.280218
_symmetry_space_group_name_H-M "C 2/M"
_symmetry_group_IT_number 12
_symmetry_cell_setting 'monoclinic'
loop_
_space_group_symop_operation_xyz
x,y,z
-x,y,-z
-x,-y,-z
x,-y,z
1/2+x,1/2+y,z
1/2-x,1/2+y,-z
1/2-x,1/2-y,-z
1/2+x,1/2-y,z
loop_
_atom_site_type_symbol
_atom_site_label
_atom_site_fract_x
_atom_site_fract_y
_atom_site_fract_z
Si Si1 0.336716 0.937199 0.911620
Si Si2 0.682572 0.158054 0.214002
Si Si3 0.330784 0.182616 0.691043
Si Si4 0.796088 0.254469 0.062543
Si Si5 0.658523 0.694883 0.498906
Si Si6 0.167738 0.436134 0.916015
Si Si7 0.082740 0.840547 0.188217
Si Si8 0.714921 0.690847 0.316001
O O1 0.560508 0.921773 0.934754
O O2 0.055195 0.898847 0.835410
O O3 0.227132 0.000000 0.876214
O O4 0.500000 0.928901 0.000000
O O5 0.701904 0.178095 0.267466
O O6 0.542723 0.203000 0.143671
O O7 0.514489 0.100115 0.166887
O O8 0.005180 0.149331 0.284389
O O9 0.616999 0.150152 0.754773
O O10 0.338106 0.247432 0.679735
O O11 0.051973 0.158656 0.589354
O O12 0.863920 0.193312 0.098689
O O13 0.500000 0.278028 0.000000
O O14 0.750000 0.250000 0.000000
O O15 0.500000 0.708585 0.500000
O O16 0.750000 0.750000 0.500000
O O17 0.964216 0.665229 0.591257
O O18 0.115896 0.500000 0.890379
O O19 0.500000 0.420268 0.000000
O O20 0.141503 0.804897 0.246190
#
# Coordination Sequence:
#
# PCOD8110567 Si02
#       8
#     8   8   8   8   8   8   8   8
#     4  10  23  40  59  83 109 148 200 243 283 327
#     4  12  23  37  56  84 112 151 195 231 282 337
#     4  11  22  36  55  85 119 149 185 233 279 348
#     4  12  24  35  50  75 116 155 185 222 278 336
#     4  10  22  35  55  82 116 156 187 224 289 340
#     4  10  23  42  60  80 111 150 196 245 283 327
#     4  12  21  37  58  80 114 152 188 240 278 328
#     4  11  20  38  56  81 120 150 186 234 275 347
#
# _framework density 18.206230000000001
#
# number of rings (size 3 to 8) (size 9 to 14) (size 15 to 20)
#    0.000    1.000    5.000    2.250    8.750    0.000 
#    0.000    0.000    0.000    0.000    0.000    5.250 
#    0.000    0.000    0.000    0.000    0.000    0.000 
#
# Total GULP energy -396760.159395 kJ/mol
# GULP energy per Si atom -12398.754981 kJ/mol
# Density = 1.816479 g / cm^3
# Si number density = 18.206230 Si / 1000 Ang^3
#
#
#
# Elastic Constant Matrix: (Units=GPa)
#
#
# Indices 1 2 3 4 5 6 
#
# 1 131.9479 25.5005 70.2508 0.0040 7.7883 0.0010
# 2 25.5005 63.3825 41.1625 0.0031 4.3645 -0.0009
# 3 70.2508 41.1625 132.1692 0.0532 10.5700 0.0063
# 4 0.0040 0.0031 0.0532 14.8004 0.0101 4.8925
# 5 7.7883 4.3645 10.5700 0.0101 39.0329 -0.0006
# 6 0.0010 -0.0009 0.0063 4.8925 -0.0006 22.8996
#
#
#
# Elastic Compliance Matrix: (Units=1/GPa)
#
#
# Indices 1 2 3 4 5 6 
#
# 1 0.010612 -0.000748 -0.005361 0.000018 -0.000582 -0.000003
# 2 -0.000748 0.019842 -0.005741 0.000018 -0.000515 -0.000001
# 3 -0.005361 -0.005741 0.012334 -0.000042 -0.001628 0.000006
# 4 0.000018 0.000018 -0.000042 0.072700 -0.000013 -0.015532
# 5 -0.000582 -0.000515 -0.001628 -0.000013 0.026234 0.000004
# 6 -0.000003 -0.000001 0.000006 -0.015532 0.000004 0.046987
#
#
# Mechanical properties :
#
#
# Convention : Reuss Voigt Hill
#
# Bulk Modulus (GPa) = 52.38865 66.81415 59.60140
# Shear Modulus (GPa) = 22.85493 28.05231 25.45362
#
# Velocity S-wave (km/s) = 3.54692 3.92957 3.74314
# Velocity P-wave (km/s) = 6.75365 7.57409 7.17561
#
# Compressibility (1/GPa) = 0.01908810
#
# Stress axis : x y z
#
# Youngs Moduli (GPa) = 94.23376 50.39861 81.07839
#
# Poissons Ratio (x) = 0.03769 0.43466
# Poissons Ratio (y) = 0.07046 0.46546
# Poissons Ratio (z) = 0.50519 0.28933
#
# Static dielectric constant tensor:
#      x y z
#    x 3.520210 -0.000020 0.103110 
#    y -0.000020 3.084870 -0.000060 
#    z 0.103110 -0.000060 3.907690 
# 
# 
# High freq. dielectric constant tensor:
#      x y z
#    x 1.728240 0.000000 0.004240 
#    y 0.000000 1.657090 0.000000 
#    z 0.004240 0.000000 1.714010 
# 
# From -- ./inp_files/373282.got.cif
#   From: 2010.06.25/outbox.cif.g09.slc.cpg/sg12_187_cif.got.tgz:373282.got - 2010.06.28 00:19:55.
