data_PCOD8110831
_publ_section_title
;
Structure prediction by ZEFSAII (Michael W. Deem and Ramdas Pophale) SiO2 
 PCOD8110831
Probable space group: C 2/M
;
_chemical_formula_sum "Si O2"
_cell_formula_units_Z 56
_cell_length_a 20.655096
_cell_length_b 16.225030
_cell_length_c 17.679408
_cell_angle_alpha 90.000000
_cell_angle_beta 150.514741
_cell_angle_gamma 90.000000
_cell_volume 2916.229631
_symmetry_space_group_name_H-M "C 2/M"
_symmetry_group_IT_number 12
_symmetry_cell_setting 'monoclinic'
loop_
_space_group_symop_operation_xyz
x,y,z
-x,y,-z
-x,-y,-z
x,-y,z
1/2+x,1/2+y,z
1/2-x,1/2+y,-z
1/2-x,1/2-y,-z
1/2+x,1/2-y,z
loop_
_atom_site_type_symbol
_atom_site_label
_atom_site_fract_x
_atom_site_fract_y
_atom_site_fract_z
Si Si1 0.227243 0.342575 0.883448
Si Si2 0.094473 0.596887 0.993260
Si Si3 0.850928 0.848792 0.844873
Si Si4 0.830350 0.665022 0.770490
Si Si5 0.834743 0.163828 0.149446
Si Si6 0.078335 0.500000 0.696370
Si Si7 0.944245 0.904193 0.523352
Si Si8 0.809088 0.500000 0.356722
O O1 0.299634 0.342114 0.877573
O O2 0.142466 0.259085 0.805346
O O3 0.128003 0.419095 0.790418
O O4 0.337410 0.347664 0.061517
O O5 0.081843 0.500000 0.968240
O O6 0.950418 0.638334 0.838037
O O7 0.156203 0.615144 0.137842
O O8 0.189995 0.635225 0.028150
O O9 0.836804 0.762307 0.788581
O O10 0.775357 0.917178 0.718953
O O11 0.000000 0.877930 0.000000
O O12 0.689839 0.642928 0.591173
O O13 0.949390 0.109852 0.302878
O O14 0.130098 0.500000 0.664261
O O15 0.920190 0.500000 0.534382
O O16 0.000000 0.870528 0.500000
O O17 0.911989 0.000000 0.484067
#
# Coordination Sequence:
#
# PCOD8110831 Si02
#       8
#     8   8   8   8   8   4   8   4
#     4  10  22  38  58  84 114 152 197 236 291 353
#     4  11  20  35  58  86 116 153 193 232 288 355
#     4  11  19  38  62  87 113 149 196 243 296 343
#     4  11  20  34  57  86 118 148 187 240 292 345
#     4  11  22  37  59  84 117 158 193 239 288 354
#     4   9  20  38  58  82 113 143 192 244 294 340
#     4  11  21  33  53  86 118 150 195 241 293 340
#     4   9  21  34  60  88 107 139 192 257 289 327
#
# _framework density 19.202877000000001
#
# number of rings (size 3 to 8) (size 9 to 14) (size 15 to 20)
#    0.000    1.429    4.286    2.357    4.000    0.000 
#    0.000    0.000    3.143    2.571    0.000    0.000 
#    0.000    0.000    0.000    0.000    0.000    0.000 
#
# Total GULP energy -347276.633067 kJ/mol
# GULP energy per Si atom -12402.736895 kJ/mol
# Density = 1.915917 g / cm^3
# Si number density = 19.202877 Si / 1000 Ang^3
#
#
#
# Elastic Constant Matrix: (Units=GPa)
#
#
# Indices 1 2 3 4 5 6 
#
# 1 20.5197 27.3152 21.8685 -0.0003 10.8133 -0.0001
# 2 27.3152 157.4543 51.8734 -0.0003 12.2898 0.0000
# 3 21.8685 51.8734 116.1479 -0.0006 21.7664 -0.0002
# 4 -0.0003 -0.0003 -0.0006 41.4668 -0.0004 -5.1622
# 5 10.8133 12.2898 21.7664 -0.0004 29.0386 -0.0002
# 6 -0.0001 0.0000 -0.0002 -5.1622 -0.0002 24.6183
#
#
#
# Elastic Compliance Matrix: (Units=1/GPa)
#
#
# Indices 1 2 3 4 5 6 
#
# 1 0.080158 -0.010082 -0.006742 0.000000 -0.020528 0.000000
# 2 -0.010082 0.008730 -0.002340 0.000000 0.001814 0.000000
# 3 -0.006742 -0.002340 0.011946 0.000000 -0.005453 0.000000
# 4 0.000000 0.000000 0.000000 0.024762 0.000000 0.005192
# 5 -0.020528 0.001814 -0.005453 0.000000 0.045401 0.000000
# 6 0.000000 0.000000 0.000000 0.005192 0.000000 0.041709
#
#
# Mechanical properties :
#
#
# Convention : Reuss Voigt Hill
#
# Bulk Modulus (GPa) = 15.99906 55.13734 35.56820
# Shear Modulus (GPa) = 18.39112 31.89574 25.14343
#
# Velocity S-wave (km/s) = 3.09807 4.07994 3.62243
# Velocity P-wave (km/s) = 4.59860 7.13933 6.00488
#
# Compressibility (1/GPa) = 0.06250368
#
# Stress axis : x y z
#
# Youngs Moduli (GPa) = 12.47539 114.55319 83.70694
#
# Poissons Ratio (x) = 1.15495 0.56439
# Poissons Ratio (y) = 0.12578 0.19591
# Poissons Ratio (z) = 0.08411 0.26810
#
# Static dielectric constant tensor:
#      x y z
#    x 3.350260 0.000000 0.185300 
#    y 0.000000 3.703660 0.000000 
#    z 0.185300 0.000000 3.524910 
# 
# 
# High freq. dielectric constant tensor:
#      x y z
#    x 1.718310 0.000000 0.012320 
#    y 0.000000 1.766130 0.000000 
#    z 0.012320 0.000000 1.740240 
# 
# From -- ./inp_files/284623.got.cif
#   From: 2010.06.25/outbox.cif.g09.slc.cpg/sg12_143_cif.got.tgz:284623.got - 2010.06.28 00:19:55.
