data_PCOD8110364
_publ_section_title
;
Structure prediction by ZEFSAII (Michael W. Deem and Ramdas Pophale) SiO2 
 PCOD8110364
Probable space group: C 2/M
;
_chemical_formula_sum "Si O2"
_cell_formula_units_Z 44
_cell_length_a 24.586268
_cell_length_b 15.122244
_cell_length_c 6.561361
_cell_angle_alpha 90.000000
_cell_angle_beta 50.354565
_cell_angle_gamma 90.000000
_cell_volume 1878.441858
_symmetry_space_group_name_H-M "C 2/M"
_symmetry_group_IT_number 12
_symmetry_cell_setting 'monoclinic'
loop_
_space_group_symop_operation_xyz
x,y,z
-x,y,-z
-x,-y,-z
x,-y,z
1/2+x,1/2+y,z
1/2-x,1/2+y,-z
1/2-x,1/2-y,-z
1/2+x,1/2-y,z
loop_
_atom_site_type_symbol
_atom_site_label
_atom_site_fract_x
_atom_site_fract_y
_atom_site_fract_z
Si Si1 0.610783 0.311493 0.525563
Si Si2 0.806703 0.500000 0.801641
Si Si3 0.784623 0.000000 0.373001
Si Si4 0.080456 0.000000 0.755351
Si Si5 0.583211 0.000000 0.781976
Si Si6 0.500000 0.766872 0.500000
Si Si7 0.762780 0.352228 0.208708
Si Si8 0.102110 0.685413 0.920833
O O1 0.598753 0.415122 0.578450
O O2 0.565078 0.288754 0.436005
O O3 0.695248 0.295517 0.288040
O O4 0.584742 0.254740 0.783276
O O5 0.746331 0.500000 0.776288
O O6 0.886699 0.500000 0.520897
O O7 0.797707 0.410962 0.949480
O O8 0.762520 0.087940 0.544167
O O9 0.870679 0.000000 0.157826
O O10 0.000000 0.000000 0.000000
O O11 0.615489 0.086380 0.809579
O O12 0.500000 0.000000 0.000000
O O13 0.465212 0.822409 0.766898
O O14 0.824852 0.286668 0.140666
#
# Coordination Sequence:
#
# PCOD8110364 Si02
#       8
#     8   4   4   4   4   4   8   8
#     4  11  26  48  70 105 144 183 239 298 363 424
#     4  11  22  42  70 111 140 180 251 285 339 441
#     4   9  19  41  64 100 141 178 230 296 338 419
#     4  10  21  41  74  97 133 185 230 290 366 416
#     4  12  26  44  74 100 150 196 225 295 357 411
#     4  12  28  44  70 106 144 184 246 300 338 446
#     4  10  23  42  71 102 137 190 236 290 354 420
#     4  12  26  48  70 105 147 189 242 287 357 427
#
# _framework density 23.423669
#
# number of rings (size 3 to 8) (size 9 to 14) (size 15 to 20)
#    0.000    1.091    1.818    4.364    5.091    5.818 
#    0.000    0.909    0.000    0.000    0.000    0.000 
#    0.000    0.000    0.000    0.000    0.000    0.000 
#
# Total GULP energy -272753.039102 kJ/mol
# GULP energy per Si atom -12397.865414 kJ/mol
# Density = 2.337036 g / cm^3
# Si number density = 23.423669 Si / 1000 Ang^3
#
#
#
# Elastic Constant Matrix: (Units=GPa)
#
#
# Indices 1 2 3 4 5 6 
#
# 1 169.8196 16.2215 38.4316 0.0000 -15.2787 0.0000
# 2 16.2215 93.9447 28.0985 0.0000 9.8342 0.0000
# 3 38.4316 28.0985 129.7214 0.0000 -13.6578 0.0000
# 4 0.0000 0.0000 0.0000 16.0285 0.0000 -7.2536
# 5 -15.2787 9.8342 -13.6578 0.0000 47.7215 0.0000
# 6 0.0000 0.0000 0.0000 -7.2536 0.0000 28.3889
#
#
#
# Elastic Compliance Matrix: (Units=1/GPa)
#
#
# Indices 1 2 3 4 5 6 
#
# 1 0.006482 -0.000846 -0.001547 0.000000 0.001807 0.000000
# 2 -0.000846 0.011970 -0.002712 0.000000 -0.003514 0.000000
# 3 -0.001547 -0.002712 0.009033 0.000000 0.002649 0.000000
# 4 0.000000 0.000000 0.000000 0.070546 0.000000 0.018025
# 5 0.001807 -0.003514 0.002649 0.000000 0.023016 0.000000
# 6 0.000000 0.000000 0.000000 0.018025 0.000000 0.039831
#
#
# Mechanical properties :
#
#
# Convention : Reuss Voigt Hill
#
# Bulk Modulus (GPa) = 57.88507 62.10989 59.99748
# Shear Modulus (GPa) = 28.27334 39.14339 33.70837
#
# Velocity S-wave (km/s) = 3.47802 4.09235 3.79763
# Velocity P-wave (km/s) = 6.39490 6.99308 6.70067
#
# Compressibility (1/GPa) = 0.01727561
#
# Stress axis : x y z
#
# Youngs Moduli (GPa) = 154.27237 83.54531 110.69924
#
# Poissons Ratio (x) = 0.07066 0.17125
# Poissons Ratio (y) = 0.13047 0.30022
# Poissons Ratio (z) = 0.23865 0.22658
#
# Static dielectric constant tensor:
#      x y z
#    x 4.764580 0.000000 -0.304490 
#    y 0.000000 4.014530 0.000000 
#    z -0.304490 0.000000 4.251270 
# 
# 
# High freq. dielectric constant tensor:
#      x y z
#    x 1.952790 0.000000 -0.015740 
#    y 0.000000 1.912990 0.000000 
#    z -0.015740 0.000000 1.922260 
# 
# From -- ./inp_files/28702.got.cif
#   From: 2010.06.25/outbox.cif.g09.slc.cpg/sg12_15_cif.got.tgz:28702.got - 2010.06.28 00:19:55.
