data_PCOD8110664
_publ_section_title
;
Structure prediction by ZEFSAII (Michael W. Deem and Ramdas Pophale) SiO2 
 PCOD8110664
Probable space group: C 2/M
;
_chemical_formula_sum "Si O2"
_cell_formula_units_Z 48
_cell_length_a 12.034089
_cell_length_b 14.198535
_cell_length_c 16.162243
_cell_angle_alpha 90.000000
_cell_angle_beta 121.183351
_cell_angle_gamma 90.000000
_cell_volume 2362.576557
_symmetry_space_group_name_H-M "C 2/M"
_symmetry_group_IT_number 12
_symmetry_cell_setting 'monoclinic'
loop_
_space_group_symop_operation_xyz
x,y,z
-x,y,-z
-x,-y,-z
x,-y,z
1/2+x,1/2+y,z
1/2-x,1/2+y,-z
1/2-x,1/2-y,-z
1/2+x,1/2-y,z
loop_
_atom_site_type_symbol
_atom_site_label
_atom_site_fract_x
_atom_site_fract_y
_atom_site_fract_z
Si Si1 0.694805 0.890471 0.063833
Si Si2 0.871354 0.396786 0.503628
Si Si3 0.508585 0.793236 0.694482
Si Si4 0.244620 0.607760 0.705351
Si Si5 0.483899 0.111637 0.858339
Si Si6 0.024761 0.892741 0.780067
O O1 0.634163 0.855179 0.127479
O O2 0.847978 0.867390 0.116405
O O3 0.665895 0.000000 0.052436
O O4 0.618332 0.852788 0.953685
O O5 0.835601 0.500000 0.527141
O O6 0.762729 0.362791 0.395474
O O7 0.000000 0.405741 0.500000
O O8 0.895752 0.322869 0.586643
O O9 0.651916 0.830330 0.726766
O O10 0.466877 0.831792 0.767411
O O11 0.517006 0.679757 0.700286
O O12 0.197412 0.500000 0.697264
O O13 0.396450 0.618664 0.788549
O O14 0.483208 0.000000 0.838974
O O15 0.033820 0.000000 0.748839
#
# Coordination Sequence:
#
# PCOD8110664 Si02
#       6
#     8   8   8   8   8   8
#     4   8  17  35  54  74 111 149 171 210 278 324
#     4   8  15  31  54  81 109 136 170 221 274 313
#     4  11  20  30  59  84 103 135 189 228 252 310
#     4   9  19  37  57  80 111 141 171 219 279 321
#     4   9  17  32  57  85 106 134 181 230 262 308
#     4  10  22  37  53  74 113 153 173 209 276 330
#
# _framework density 20.316801000000002
#
# number of rings (size 3 to 8) (size 9 to 14) (size 15 to 20)
#    0.000    2.833    0.000    3.500    2.333    1.333 
#    0.000    0.833    0.000    8.500    0.000    0.000 
#    0.000    0.000    0.000    0.000    0.000    0.000 
#
# Total GULP energy -297352.329027 kJ/mol
# GULP energy per Si atom -12389.680376 kJ/mol
# Density = 2.027056 g / cm^3
# Si number density = 20.316801 Si / 1000 Ang^3
#
#
#
# Elastic Constant Matrix: (Units=GPa)
#
#
# Indices 1 2 3 4 5 6 
#
# 1 74.8328 7.8914 19.3096 0.0000 9.3510 0.0000
# 2 7.8914 74.1355 6.7120 0.0000 -12.6280 0.0000
# 3 19.3096 6.7120 61.6915 0.0000 -11.3301 0.0000
# 4 0.0000 0.0000 0.0000 15.0806 0.0000 -9.0826
# 5 9.3510 -12.6280 -11.3301 0.0000 31.8367 0.0000
# 6 0.0000 0.0000 0.0000 -9.0826 0.0000 18.3012
#
#
#
# Elastic Compliance Matrix: (Units=1/GPa)
#
#
# Indices 1 2 3 4 5 6 
#
# 1 0.016252 -0.002526 -0.006283 0.000000 -0.008011 0.000000
# 2 -0.002526 0.014877 0.000419 0.000000 0.006792 0.000000
# 3 -0.006283 0.000419 0.019794 0.000000 0.009056 0.000000
# 4 0.000000 0.000000 0.000000 0.094580 0.000000 0.046938
# 5 -0.008011 0.006792 0.009056 0.000000 0.039680 0.000000
# 6 0.000000 0.000000 0.000000 0.046938 0.000000 0.077936
#
#
# Mechanical properties :
#
#
# Convention : Reuss Voigt Hill
#
# Bulk Modulus (GPa) = 29.28860 30.94287 30.11573
# Shear Modulus (GPa) = 17.16568 24.82683 20.99625
#
# Velocity S-wave (km/s) = 2.90987 3.49948 3.21821
# Velocity P-wave (km/s) = 5.07317 5.62065 5.35391
#
# Compressibility (1/GPa) = 0.03414297
#
# Stress axis : x y z
#
# Youngs Moduli (GPa) = 61.53111 67.21965 50.52019
#
# Poissons Ratio (x) = 0.16978 0.31744
# Poissons Ratio (y) = 0.15541 -0.02119
# Poissons Ratio (z) = 0.38663 -0.02819
#
# Static dielectric constant tensor:
#      x y z
#    x 3.570180 0.000000 0.402520 
#    y 0.000000 3.664990 0.000000 
#    z 0.402520 0.000000 4.037130 
# 
# 
# High freq. dielectric constant tensor:
#      x y z
#    x 1.777120 0.000000 0.023960 
#    y 0.000000 1.785410 0.000000 
#    z 0.023960 0.000000 1.780160 
# 
# From -- ./inp_files/205121.got.cif
#   From: 2010.06.25/outbox.cif.g09.slc.cpg/sg12_103_cif.got.tgz:205121.got - 2010.06.28 00:19:55.
