data_PCOD8110370
_publ_section_title
;
Structure prediction by ZEFSAII (Michael W. Deem and Ramdas Pophale) SiO2 
 PCOD8110370
Probable space group: C 2/M
;
_chemical_formula_sum "Si O2"
_cell_formula_units_Z 40
_cell_length_a 8.703731
_cell_length_b 33.197923
_cell_length_c 8.136426
_cell_angle_alpha 90.000000
_cell_angle_beta 55.201071
_cell_angle_gamma 90.000000
_cell_volume 1930.535417
_symmetry_space_group_name_H-M "C 2/M"
_symmetry_group_IT_number 12
_symmetry_cell_setting 'monoclinic'
loop_
_space_group_symop_operation_xyz
x,y,z
-x,y,-z
-x,-y,-z
x,-y,z
1/2+x,1/2+y,z
1/2-x,1/2+y,-z
1/2-x,1/2-y,-z
1/2+x,1/2-y,z
loop_
_atom_site_type_symbol
_atom_site_label
_atom_site_fract_x
_atom_site_fract_y
_atom_site_fract_z
Si Si1 0.277323 0.353765 0.915031
Si Si2 0.445674 0.801253 0.712954
Si Si3 0.500000 0.594627 0.000000
Si Si4 0.119402 0.452739 0.267294
Si Si5 0.000000 0.583894 0.000000
Si Si6 0.697906 0.724839 0.298955
O O1 0.341265 0.314679 0.780781
O O2 0.128083 0.340345 0.145927
O O3 0.460562 0.375322 0.873225
O O4 0.178622 0.387249 0.861892
O O5 0.500000 0.817304 0.500000
O O6 0.279413 0.766914 0.816565
O O7 0.628145 0.781910 0.688656
O O8 0.678397 0.567887 0.846040
O O9 0.153286 0.500000 0.252911
O O10 0.000000 0.438908 0.500000
O O11 0.019304 0.442431 0.154562
O O12 0.500000 0.735505 0.500000
#
# Coordination Sequence:
#
# PCOD8110370 Si02
#       6
#     8   8   4   8   4   8
#     4  11  23  39  59  85 124 163 204 258 323 365
#     4  11  23  39  59  83 118 166 219 266 315 375
#     4  10  25  38  65  96 132 160 210 262 315 384
#     4  10  22  44  73  98 129 171 207 251 317 386
#     4  10  21  42  61 100 130 160 208 264 315 378
#     4  11  23  38  57  85 118 163 218 266 315 371
#
# _framework density 20.719640999999999
#
# number of rings (size 3 to 8) (size 9 to 14) (size 15 to 20)
#    0.000    1.400    2.000    3.600    5.600    4.800 
#    0.000    3.000    0.000   10.800    0.000    0.000 
#    0.000    0.000    0.000    0.000    0.000    0.000 
#
# Total GULP energy -247845.097470 kJ/mol
# GULP energy per Si atom -12392.254874 kJ/mol
# Density = 2.067248 g / cm^3
# Si number density = 20.719641 Si / 1000 Ang^3
#
#
#
# Elastic Constant Matrix: (Units=GPa)
#
#
# Indices 1 2 3 4 5 6 
#
# 1 148.6838 44.9691 45.2216 0.0000 6.8340 0.0000
# 2 44.9691 87.0525 31.4823 0.0000 5.9202 0.0000
# 3 45.2216 31.4823 83.6528 0.0000 7.9015 0.0000
# 4 0.0000 0.0000 0.0000 40.9183 0.0000 -27.6144
# 5 6.8340 5.9202 7.9015 0.0000 26.6936 0.0000
# 6 0.0000 0.0000 0.0000 -27.6144 0.0000 -49.5095
#
#
#
# Elastic Compliance Matrix: (Units=1/GPa)
#
#
# Indices 1 2 3 4 5 6 
#
# 1 0.008790 -0.003247 -0.003482 0.000000 -0.000499 0.000000
# 2 -0.003247 0.014556 -0.003597 0.000000 -0.001332 0.000000
# 3 -0.003482 -0.003597 0.015463 0.000000 -0.002888 0.000000
# 4 0.000000 0.000000 0.000000 0.017756 0.000000 -0.009903
# 5 -0.000499 -0.001332 -0.002888 0.000000 0.038740 0.000000
# 6 0.000000 0.000000 0.000000 -0.009903 0.000000 -0.014674
#
#
# Mechanical properties :
#
#
# Convention : Reuss Voigt Hill
#
# Bulk Modulus (GPa) = 55.07796 62.52614 58.80205
# Shear Modulus (GPa) = 46.58269 16.80154 31.69211
#
# Velocity S-wave (km/s) = 4.74670 2.85072 3.91521
# Velocity P-wave (km/s) = 7.52873 6.40923 6.99142
#
# Compressibility (1/GPa) = 0.01815608
#
# Stress axis : x y z
#
# Youngs Moduli (GPa) = 113.76638 68.69926 64.66972
#
# Poissons Ratio (x) = 0.22309 0.22521
# Poissons Ratio (y) = 0.36943 0.23261
# Poissons Ratio (z) = 0.39619 0.24710
#
# Static dielectric constant tensor:
#      x y z
#    x 3.967200 0.000000 0.182740 
#    y 0.000000 3.864000 0.000000 
#    z 0.182740 0.000000 3.667070 
# 
# 
# High freq. dielectric constant tensor:
#      x y z
#    x 1.826070 0.000000 0.010700 
#    y 0.000000 1.826790 0.000000 
#    z 0.010700 0.000000 1.792790 
# 
# From -- ./inp_files/41499.got.cif
#   From: 2010.06.25/outbox.cif.g09.slc.cpg/sg12_21_cif.got.tgz:41499.got - 2010.06.28 00:19:55.
