data_PCOD8110940
_publ_section_title
;
Structure prediction by ZEFSAII (Michael W. Deem and Ramdas Pophale) SiO2 
 PCOD8110940
Probable space group: C 2/M
;
_chemical_formula_sum "Si O2"
_cell_formula_units_Z 64
_cell_length_a 14.829871
_cell_length_b 31.050536
_cell_length_c 8.825290
_cell_angle_alpha 90.000000
_cell_angle_beta 45.950972
_cell_angle_gamma 90.000000
_cell_volume 2920.857488
_symmetry_space_group_name_H-M "C 2/M"
_symmetry_group_IT_number 12
_symmetry_cell_setting 'monoclinic'
loop_
_space_group_symop_operation_xyz
x,y,z
-x,y,-z
-x,-y,-z
x,-y,z
1/2+x,1/2+y,z
1/2-x,1/2+y,-z
1/2-x,1/2-y,-z
1/2+x,1/2-y,z
loop_
_atom_site_type_symbol
_atom_site_label
_atom_site_fract_x
_atom_site_fract_y
_atom_site_fract_z
Si Si1 0.817027 0.326880 0.614731
Si Si2 0.114139 0.950744 0.483200
Si Si3 0.086320 0.156240 0.266582
Si Si4 0.869572 0.748794 0.730232
Si Si5 0.161570 0.376701 0.113179
Si Si6 0.886856 0.450976 0.020835
Si Si7 0.468726 0.196757 0.868020
Si Si8 0.918360 0.876714 0.234552
O O1 0.771925 0.282152 0.751934
O O2 0.877901 0.357271 0.676839
O O3 0.707827 0.354645 0.671785
O O4 0.907239 0.313668 0.373062
O O5 0.250903 0.942131 0.251853
O O6 0.103706 0.918307 0.635882
O O7 0.000000 0.942839 0.500000
O O8 0.108162 0.000000 0.550079
O O9 0.153413 0.200191 0.246222
O O10 0.000000 0.136064 0.500000
O O11 0.992160 0.161958 0.235191
O O12 0.188518 0.122212 0.088887
O O13 0.879177 0.733476 0.894576
O O14 0.000000 0.736843 0.500000
O O15 0.109303 0.347210 0.037047
O O16 0.105431 0.423978 0.146145
O O17 0.904452 0.500000 0.950986
O O18 0.000000 0.437051 0.000000
O O19 0.500000 0.212553 0.000000
O O20 0.000000 0.893818 0.000000
#
# Coordination Sequence:
#
# PCOD8110940 Si02
#       8
#     8   8   8   8   8   8   8   8
#     4  10  23  42  61  88 130 166 207 263 316 386
#     4  10  23  44  70  96 130 174 217 265 321 390
#     4  11  23  40  63  92 125 171 215 265 313 375
#     4   8  19  43  60  84 128 167 212 261 320 373
#     4  11  21  39  63  89 125 171 204 249 318 382
#     4  10  22  40  67 103 133 161 211 270 318 376
#     4  10  22  38  62  91 113 165 218 256 307 368
#     4  12  24  40  62  97 130 163 214 269 324 375
#
# _framework density 21.911373000000001
#
# number of rings (size 3 to 8) (size 9 to 14) (size 15 to 20)
#    0.000    1.750    1.250    3.375    5.250    2.750 
#    2.250    2.500    0.000    1.500    0.000    0.000 
#    0.000    0.000    0.000    0.000    0.000    0.000 
#
# Total GULP energy -396428.814339 kJ/mol
# GULP energy per Si atom -12388.400448 kJ/mol
# Density = 2.186150 g / cm^3
# Si number density = 21.911373 Si / 1000 Ang^3
#
#
#
# Elastic Constant Matrix: (Units=GPa)
#
#
# Indices 1 2 3 4 5 6 
#
# 1 114.0400 49.2145 25.7367 0.0000 11.6867 0.0000
# 2 49.2145 119.2323 19.4854 0.0000 15.4678 0.0000
# 3 25.7367 19.4854 90.9045 0.0000 11.2566 0.0000
# 4 0.0000 0.0000 0.0000 7.4245 0.0000 15.2041
# 5 11.6867 15.4678 11.2566 0.0000 37.3185 0.0000
# 6 0.0000 0.0000 0.0000 15.2041 0.0000 24.2937
#
#
#
# Elastic Compliance Matrix: (Units=1/GPa)
#
#
# Indices 1 2 3 4 5 6 
#
# 1 0.011137 -0.004100 -0.002132 0.000000 -0.001145 0.000000
# 2 -0.004100 0.010574 -0.000750 0.000000 -0.002873 0.000000
# 3 -0.002132 -0.000750 0.012096 0.000000 -0.002670 0.000000
# 4 0.000000 0.000000 0.000000 -0.478259 0.000000 0.299315
# 5 -0.001145 -0.002873 -0.002670 0.000000 0.029151 0.000000
# 6 0.000000 0.000000 0.000000 0.299315 0.000000 -0.146162
#
#
# Mechanical properties :
#
#
# Convention : Reuss Voigt Hill
#
# Bulk Modulus (GPa) = 50.39784 57.00553 53.70168
# Shear Modulus (GPa) = -9.24413 29.12337 9.93962
#
# Velocity S-wave (km/s) = -2.05622 3.64970 2.13217
# Velocity P-wave (km/s) = 4.17293 6.62067 5.53383
#
# Compressibility (1/GPa) = 0.01984212
#
# Stress axis : x y z
#
# Youngs Moduli (GPa) = 89.79308 94.56724 82.67416
#
# Poissons Ratio (x) = 0.38770 0.17630
# Poissons Ratio (y) = 0.36813 0.06202
# Poissons Ratio (z) = 0.19148 0.07094
#
# Static dielectric constant tensor:
#      x y z
#    x 4.120430 0.000000 -0.092400 
#    y 0.000000 3.915980 0.000000 
#    z -0.092400 0.000000 4.082790 
# 
# 
# High freq. dielectric constant tensor:
#      x y z
#    x 1.862590 0.000000 -0.011110 
#    y 0.000000 1.858420 0.000000 
#    z -0.011110 0.000000 1.865320 
# 
# From -- ./inp_files/68609.got.cif
#   From: 2010.06.25/outbox.cif.g09.slc.cpg/sg12_35_cif.got.tgz:68609.got - 2010.06.28 00:19:55.
