data_PCOD8110057
_publ_section_title
;
Structure prediction by ZEFSAII (Michael W. Deem and Ramdas Pophale) SiO2 
 PCOD8110057
Probable space group: C 2/M
;
_chemical_formula_sum "Si O2"
_cell_formula_units_Z 56
_cell_length_a 23.837408
_cell_length_b 17.203852
_cell_length_c 15.550523
_cell_angle_alpha 90.000000
_cell_angle_beta 25.088309
_cell_angle_gamma 90.000000
_cell_volume 2704.024207
_symmetry_space_group_name_H-M "C 2/M"
_symmetry_group_IT_number 12
_symmetry_cell_setting 'monoclinic'
loop_
_space_group_symop_operation_xyz
x,y,z
-x,y,-z
-x,-y,-z
x,-y,z
1/2+x,1/2+y,z
1/2-x,1/2+y,-z
1/2-x,1/2-y,-z
1/2+x,1/2-y,z
loop_
_atom_site_type_symbol
_atom_site_label
_atom_site_fract_x
_atom_site_fract_y
_atom_site_fract_z
Si Si1 0.395188 0.165368 0.572617
Si Si2 0.380964 0.092306 0.412888
Si Si3 0.641694 0.408914 0.003039
Si Si4 0.067153 0.410442 0.997917
Si Si5 0.085093 0.908588 0.803673
Si Si6 0.602285 0.589293 0.249093
Si Si7 0.836992 0.157219 0.663084
O O1 0.500000 0.139238 0.500000
O O2 0.437841 0.129458 0.421718
O O3 0.249772 0.135747 0.797743
O O4 0.391318 0.257602 0.568690
O O5 0.472090 0.118017 0.206623
O O6 0.233709 0.125519 0.596693
O O7 0.381103 0.000000 0.423615
O O8 0.669259 0.500000 0.953603
O O9 0.494113 0.388442 0.173795
O O10 0.650613 0.382041 0.089017
O O11 0.107604 0.500000 0.955851
O O12 0.196464 0.356974 0.814901
O O13 0.000000 0.398027 0.000000
O O14 0.098442 0.000000 0.798346
O O15 0.000000 0.872559 0.000000
O O16 0.641850 0.500000 0.208940
O O17 0.443696 0.596848 0.476929
O O18 0.676553 0.642889 0.215539
#
# Coordination Sequence:
#
# PCOD8110057 Si02
#       7
#     8   8   8   8   8   8   8
#     4  12  25  41  60  88 133 166 199 254 309 373
#     4  10  22  40  65  95 124 164 206 251 310 363
#     4  10  22  37  63  96 119 158 209 256 307 358
#     4  10  23  43  68  94 124 160 204 258 309 364
#     4   9  16  34  60  88 123 155 199 251 297 358
#     4  10  21  40  67  89 112 157 215 264 297 353
#     4  11  23  43  60  87 124 163 208 246 312 367
#
# _framework density 20.709873999999999
#
# number of rings (size 3 to 8) (size 9 to 14) (size 15 to 20)
#    0.000    1.714    2.857    2.143    4.000    2.857 
#    2.571    0.714    0.000    0.000    0.000    0.000 
#    0.000    0.000    0.000    0.000    0.000    0.000 
#
# Total GULP energy -347240.666518 kJ/mol
# GULP energy per Si atom -12401.452376 kJ/mol
# Density = 2.066274 g / cm^3
# Si number density = 20.709874 Si / 1000 Ang^3
#
#
#
# Elastic Constant Matrix: (Units=GPa)
#
#
# Indices 1 2 3 4 5 6 
#
# 1 113.6073 29.8798 42.3553 -0.0001 8.4555 0.0000
# 2 29.8798 42.5264 8.0818 0.0000 3.1271 -0.0001
# 3 42.3553 8.0818 74.8351 -0.0003 -3.8207 -0.0001
# 4 -0.0001 0.0000 -0.0003 14.5262 0.0000 -7.5949
# 5 8.4555 3.1271 -3.8207 0.0000 45.5925 0.0001
# 6 0.0000 -0.0001 -0.0001 -7.5949 0.0001 14.9843
#
#
#
# Elastic Compliance Matrix: (Units=1/GPa)
#
#
# Indices 1 2 3 4 5 6 
#
# 1 0.013761 -0.008140 -0.007041 0.000000 -0.002584 0.000000
# 2 -0.008140 0.028983 0.001459 0.000000 -0.000356 0.000000
# 3 -0.007041 0.001459 0.017326 0.000000 0.002658 0.000000
# 4 0.000000 0.000000 0.000000 0.093662 0.000000 0.047473
# 5 -0.002584 -0.000356 0.002658 0.000000 0.022660 0.000000
# 6 0.000000 0.000000 0.000000 0.047473 0.000000 0.090798
#
#
# Mechanical properties :
#
#
# Convention : Reuss Voigt Hill
#
# Bulk Modulus (GPa) = 30.65117 43.51140 37.08129
# Shear Modulus (GPa) = 16.36611 25.06405 20.71508
#
# Velocity S-wave (km/s) = 2.81420 3.48263 3.16611
# Velocity P-wave (km/s) = 5.03905 6.10141 5.59550
#
# Compressibility (1/GPa) = 0.03262518
#
# Stress axis : x y z
#
# Youngs Moduli (GPa) = 72.67118 34.50264 57.71692
#
# Poissons Ratio (x) = 0.28086 0.40639
# Poissons Ratio (y) = 0.59157 -0.08422
# Poissons Ratio (z) = 0.51168 -0.05034
#
# Static dielectric constant tensor:
#      x y z
#    x 3.922520 0.000000 0.005750 
#    y 0.000000 3.460760 0.000000 
#    z 0.005750 0.000000 3.759650 
# 
# 
# High freq. dielectric constant tensor:
#      x y z
#    x 1.823810 0.000000 -0.000910 
#    y 0.000000 1.779900 0.000000 
#    z -0.000910 0.000000 1.810840 
# 
# From -- ./inp_files/234665.got.cif
#   From: 2010.06.25/outbox.cif.g09.slc.cpg/sg12_118_cif.got.tgz:234665.got - 2010.06.28 00:19:55.
