data_PCOD8110757
_publ_section_title
;
Structure prediction by ZEFSAII (Michael W. Deem and Ramdas Pophale) SiO2 
 PCOD8110757
Probable space group: C 2/M
;
_chemical_formula_sum "Si O2"
_cell_formula_units_Z 56
_cell_length_a 8.321796
_cell_length_b 29.159528
_cell_length_c 14.184106
_cell_angle_alpha 90.000000
_cell_angle_beta 126.673270
_cell_angle_gamma 90.000000
_cell_volume 2760.599023
_symmetry_space_group_name_H-M "C 2/M"
_symmetry_group_IT_number 12
_symmetry_cell_setting 'monoclinic'
loop_
_space_group_symop_operation_xyz
x,y,z
-x,y,-z
-x,-y,-z
x,-y,z
1/2+x,1/2+y,z
1/2-x,1/2+y,-z
1/2-x,1/2-y,-z
1/2+x,1/2-y,z
loop_
_atom_site_type_symbol
_atom_site_label
_atom_site_fract_x
_atom_site_fract_y
_atom_site_fract_z
Si Si1 0.506232 0.500000 0.163305
Si Si2 0.731456 0.658161 0.055828
Si Si3 0.153609 0.553133 0.468757
Si Si4 0.923435 0.179942 0.186048
Si Si5 0.051051 0.586112 0.231833
Si Si6 0.339840 0.743986 0.868059
Si Si7 0.183919 0.500000 0.886944
Si Si8 0.481416 0.586870 0.292802
O O1 0.719888 0.500000 0.184643
O O2 0.489441 0.546189 0.218675
O O3 0.341733 0.500000 0.025503
O O4 0.792734 0.708211 0.116390
O O5 0.893769 0.625748 0.158437
O O6 0.500000 0.644784 0.000000
O O7 0.735564 0.658163 0.943858
O O8 0.181990 0.500000 0.451634
O O9 0.070747 0.580509 0.350700
O O10 0.367996 0.574006 0.571070
O O11 0.000000 0.559447 0.500000
O O12 0.794711 0.212382 0.212570
O O13 0.041315 0.137255 0.273939
O O14 0.078889 0.214739 0.191256
O O15 0.262996 0.594791 0.258457
O O16 0.960131 0.542410 0.149115
O O17 0.500000 0.762549 0.000000
#
# Coordination Sequence:
#
# PCOD8110757 Si02
#       8
#     4   8   8   8   8   8   4   8
#     4  11  25  42  61  90 148 169 219 256 327 400
#     4   9  21  37  63  95 135 170 214 263 322 398
#     4  11  25  46  71  90 121 174 232 273 325 389
#     4  10  22  37  64  99 134 176 212 265 330 388
#     4  12  25  40  66  96 128 171 220 272 322 384
#     4   9  19  36  60  90 133 171 216 259 313 395
#     4  11  25  38  63  90 129 188 205 262 323 393
#     4  12  26  41  66  98 134 168 221 278 327 384
#
# _framework density 20.285454000000001
#
# number of rings (size 3 to 8) (size 9 to 14) (size 15 to 20)
#    0.000    1.714    1.429    4.286   14.000    2.857 
#    0.000    0.000    0.000    0.857    0.000    0.000 
#    0.000    0.000    0.000    0.000    0.000    0.000 
#
# Total GULP energy -346998.592973 kJ/mol
# GULP energy per Si atom -12392.806892 kJ/mol
# Density = 2.023928 g / cm^3
# Si number density = 20.285454 Si / 1000 Ang^3
#
#
#
# Elastic Constant Matrix: (Units=GPa)
#
#
# Indices 1 2 3 4 5 6 
#
# 1 60.2439 31.0414 24.4584 0.0000 7.2125 0.0000
# 2 31.0414 116.0789 42.3189 0.0000 7.9769 0.0000
# 3 24.4584 42.3189 92.7970 0.0000 5.1284 0.0000
# 4 0.0000 0.0000 0.0000 25.4734 0.0000 2.3805
# 5 7.2125 7.9769 5.1284 0.0000 28.8260 0.0000
# 6 0.0000 0.0000 0.0000 2.3805 0.0000 28.0305
#
#
#
# Elastic Compliance Matrix: (Units=1/GPa)
#
#
# Indices 1 2 3 4 5 6 
#
# 1 0.020439 -0.004002 -0.003374 0.000000 -0.003406 0.000000
# 2 -0.004002 0.011236 -0.003992 0.000000 -0.001398 0.000000
# 3 -0.003374 -0.003992 0.013511 0.000000 -0.000455 0.000000
# 4 0.000000 0.000000 0.000000 0.039571 0.000000 -0.003361
# 5 -0.003406 -0.001398 -0.000455 0.000000 0.036011 0.000000
# 6 0.000000 0.000000 0.000000 -0.003361 0.000000 0.035961
#
#
# Mechanical properties :
#
#
# Convention : Reuss Voigt Hill
#
# Bulk Modulus (GPa) = 44.54171 51.63966 48.09069
# Shear Modulus (GPa) = 26.74545 27.88607 27.31576
#
# Velocity S-wave (km/s) = 3.63499 3.71169 3.67354
# Velocity P-wave (km/s) = 6.29466 6.62425 6.46155
#
# Compressibility (1/GPa) = 0.02245087
#
# Stress axis : x y z
#
# Youngs Moduli (GPa) = 48.92709 88.99613 74.01246
#
# Poissons Ratio (x) = 0.35612 0.24971
# Poissons Ratio (y) = 0.19578 0.29548
# Poissons Ratio (z) = 0.16507 0.35530
#
# Static dielectric constant tensor:
#      x y z
#    x 3.796830 0.000000 0.039590 
#    y 0.000000 3.751420 0.000000 
#    z 0.039590 0.000000 3.540710 
# 
# 
# High freq. dielectric constant tensor:
#      x y z
#    x 1.800070 0.000000 0.003540 
#    y 0.000000 1.802930 0.000000 
#    z 0.003540 0.000000 1.763220 
# 
# From -- ./inp_files/201032.got.cif
#   From: 2010.06.25/outbox.cif.g09.slc.cpg/sg12_101_cif.got.tgz:201032.got - 2010.06.28 00:19:55.
