data_PCOD8110569
_publ_section_title
;
Structure prediction by ZEFSAII (Michael W. Deem and Ramdas Pophale) SiO2 
 PCOD8110569
Probable space group: C 2/M
;
_chemical_formula_sum "Si O2"
_cell_formula_units_Z 48
_cell_length_a 9.685108
_cell_length_b 21.290279
_cell_length_c 21.378139
_cell_angle_alpha 90.000000
_cell_angle_beta 143.766622
_cell_angle_gamma 90.000000
_cell_volume 2605.546319
_symmetry_space_group_name_H-M "C 2/M"
_symmetry_group_IT_number 12
_symmetry_cell_setting 'monoclinic'
loop_
_space_group_symop_operation_xyz
x,y,z
-x,y,-z
-x,-y,-z
x,-y,z
1/2+x,1/2+y,z
1/2-x,1/2+y,-z
1/2-x,1/2-y,-z
1/2+x,1/2-y,z
loop_
_atom_site_type_symbol
_atom_site_label
_atom_site_fract_x
_atom_site_fract_y
_atom_site_fract_z
Si Si1 0.047000 0.871449 0.609736
Si Si2 0.155386 0.323753 0.385865
Si Si3 0.236578 0.500000 0.673531
Si Si4 0.485324 0.714485 0.067403
Si Si5 0.428019 0.296364 0.260352
Si Si6 0.348052 0.369299 0.769401
Si Si7 0.693757 0.500000 0.448596
O O1 0.852393 0.824243 0.511064
O O2 0.271220 0.868674 0.645767
O O3 0.118868 0.848343 0.704179
O O4 0.944280 0.940935 0.574922
O O5 0.130020 0.252381 0.353376
O O6 0.919356 0.348605 0.329858
O O7 0.351779 0.442244 0.752920
O O8 0.311538 0.500000 0.628482
O O9 0.955053 0.500000 0.572286
O O10 0.687916 0.761415 0.160999
O O11 0.525769 0.648037 0.118582
O O12 0.500000 0.698017 0.000000
O O13 0.250000 0.750000 0.000000
O O14 0.506745 0.330393 0.227246
#
# Coordination Sequence:
#
# PCOD8110569 Si02
#       7
#     8   8   4   8   8   8   4
#     4  11  22  37  55  87 126 165 205 240 293 359
#     4  10  22  35  55  88 128 160 197 253 300 354
#     4  11  22  41  59  89 121 168 210 241 289 361
#     4  11  23  42  66  93 119 153 199 259 321 364
#     4  11  22  38  61  91 120 158 200 248 311 365
#     4  11  22  39  64  89 119 161 206 249 299 365
#     4  11  22  38  61  81 125 177 207 235 283 365
#
# _framework density 18.422239999999999
#
# number of rings (size 3 to 8) (size 9 to 14) (size 15 to 20)
#    0.000    1.167    5.000    2.500    2.333    4.000 
#    0.000    0.417    0.000    3.000    0.000    0.000 
#    0.000    0.000    0.000    0.000    0.000    0.000 
#
# Total GULP energy -297592.278899 kJ/mol
# GULP energy per Si atom -12399.678287 kJ/mol
# Density = 1.838031 g / cm^3
# Si number density = 18.422240 Si / 1000 Ang^3
#
#
#
# Elastic Constant Matrix: (Units=GPa)
#
#
# Indices 1 2 3 4 5 6 
#
# 1 101.2826 29.1628 36.0330 -0.0005 -9.6954 -0.0012
# 2 29.1628 121.3505 43.7914 -0.0001 -6.2387 -0.0004
# 3 36.0330 43.7914 92.6388 0.0008 -11.3401 -0.0014
# 4 -0.0005 -0.0001 0.0008 26.0435 0.0000 -5.8212
# 5 -9.6954 -6.2387 -11.3401 0.0000 32.0134 -0.0014
# 6 -0.0012 -0.0004 -0.0014 -5.8212 -0.0014 27.2091
#
#
#
# Elastic Compliance Matrix: (Units=1/GPa)
#
#
# Indices 1 2 3 4 5 6 
#
# 1 0.011774 -0.001402 -0.003673 0.000000 0.001992 0.000001
# 2 -0.001402 0.010105 -0.004226 0.000000 0.000048 0.000000
# 3 -0.003673 -0.004226 0.014618 0.000000 0.003242 0.000001
# 4 0.000000 0.000000 0.000000 0.040326 0.000000 0.008627
# 5 0.001992 0.000048 0.003242 0.000000 0.032998 0.000002
# 6 0.000001 0.000000 0.000001 0.008627 0.000002 0.038598
#
#
# Mechanical properties :
#
#
# Convention : Reuss Voigt Hill
#
# Bulk Modulus (GPa) = 55.87939 59.24957 57.56448
# Shear Modulus (GPa) = 28.90416 30.80551 29.85483
#
# Velocity S-wave (km/s) = 3.96533 4.09368 4.03002
# Velocity P-wave (km/s) = 7.16684 7.38756 7.27804
#
# Compressibility (1/GPa) = 0.01789568
#
# Stress axis : x y z
#
# Youngs Moduli (GPa) = 84.92949 98.96319 68.40967
#
# Poissons Ratio (x) = 0.13871 0.25130
# Poissons Ratio (y) = 0.11904 0.28907
# Poissons Ratio (z) = 0.31199 0.41818
#
# Static dielectric constant tensor:
#      x y z
#    x 3.623890 0.000000 -0.092900 
#    y 0.000000 3.431040 0.000000 
#    z -0.092900 0.000000 3.401670 
# 
# 
# High freq. dielectric constant tensor:
#      x y z
#    x 1.736920 0.000000 -0.004690 
#    y 0.000000 1.705420 0.000000 
#    z -0.004690 0.000000 1.702100 
# 
# From -- ./inp_files/247123.got.cif
#   From: 2010.06.25/outbox.cif.g09.slc.cpg/sg12_124_cif.got.tgz:247123.got - 2010.06.28 00:19:55.
