data_PCOD8110496
_publ_section_title
;
Structure prediction by ZEFSAII (Michael W. Deem and Ramdas Pophale) SiO2 
 PCOD8110496
Probable space group: C 2/M
;
_chemical_formula_sum "Si O2"
_cell_formula_units_Z 28
_cell_length_a 18.432543
_cell_length_b 7.509878
_cell_length_c 17.437715
_cell_angle_alpha 90.000000
_cell_angle_beta 38.358302
_cell_angle_gamma 90.000000
_cell_volume 1497.971591
_symmetry_space_group_name_H-M "C 2/M"
_symmetry_group_IT_number 12
_symmetry_cell_setting 'monoclinic'
loop_
_space_group_symop_operation_xyz
x,y,z
-x,y,-z
-x,-y,-z
x,-y,z
1/2+x,1/2+y,z
1/2-x,1/2+y,-z
1/2-x,1/2-y,-z
1/2+x,1/2-y,z
loop_
_atom_site_type_symbol
_atom_site_label
_atom_site_fract_x
_atom_site_fract_y
_atom_site_fract_z
Si Si1 0.971965 0.500000 0.367727
Si Si2 0.260251 0.500000 0.351932
Si Si3 0.671902 0.207864 0.991707
Si Si4 0.573625 0.195101 0.739655
Si Si5 0.735092 0.000000 0.195302
O O1 0.875441 0.500000 0.513987
O O2 0.959645 0.674956 0.323289
O O3 0.095690 0.500000 0.306856
O O4 0.319133 0.327039 0.339948
O O5 0.276800 0.500000 0.247714
O O6 0.714128 0.322095 0.884871
O O7 0.680543 0.000000 0.963677
O O8 0.750000 0.250000 0.000000
O O9 0.539334 0.264706 0.120710
O O10 0.611339 0.000000 0.740286
#
# Coordination Sequence:
#
# PCOD8110496 Si02
#       5
#     4   4   8   8   4
#     4  10  21  44  60  83 122 161 201 237 280 364
#     4  12  24  38  61  90 123 155 197 242 300 343
#     4  11  19  37  63  89 117 150 202 244 289 359
#     4   9  21  38  63  86 113 157 202 238 287 347
#     4  12  24  38  61  94 120 154 189 255 304 335
#
# _framework density 18.691943999999999
#
# number of rings (size 3 to 8) (size 9 to 14) (size 15 to 20)
#    0.857    0.571    4.286    2.143    0.000    3.429 
#    0.000    2.857    0.000    3.429    0.000    0.000 
#    0.000    0.000    0.000    0.000    0.000    0.000 
#
# Total GULP energy -173573.604683 kJ/mol
# GULP energy per Si atom -12398.114620 kJ/mol
# Density = 1.864940 g / cm^3
# Si number density = 18.691944 Si / 1000 Ang^3
#
#
#
# Elastic Constant Matrix: (Units=GPa)
#
#
# Indices 1 2 3 4 5 6 
#
# 1 46.8661 17.9187 6.1960 0.0003 4.2732 0.0000
# 2 17.9187 89.4893 34.9740 0.0041 -7.3317 0.0015
# 3 6.1960 34.9740 98.0463 0.0001 -11.1708 0.0001
# 4 0.0003 0.0041 0.0001 12.4493 0.0000 -10.3822
# 5 4.2732 -7.3317 -11.1708 0.0000 37.4945 0.0000
# 6 0.0000 0.0015 0.0001 -10.3822 0.0000 11.9270
#
#
#
# Elastic Compliance Matrix: (Units=1/GPa)
#
#
# Indices 1 2 3 4 5 6 
#
# 1 0.023595 -0.004974 -0.000139 0.000006 -0.003703 0.000005
# 2 -0.004974 0.014085 -0.004484 -0.000021 0.001985 -0.000020
# 3 -0.000139 -0.004484 0.012121 0.000006 0.002750 0.000006
# 4 0.000006 -0.000021 0.000006 0.293106 -0.000002 0.255142
# 5 -0.003703 0.001985 0.002750 -0.000002 0.028300 -0.000002
# 6 0.000005 -0.000020 0.000006 0.255142 -0.000002 0.305940
#
#
# Mechanical properties :
#
#
# Convention : Reuss Voigt Hill
#
# Bulk Modulus (GPa) = 32.67064 39.17544 35.92304
# Shear Modulus (GPa) = 7.07672 24.06170 15.56921
#
# Velocity S-wave (km/s) = 1.94787 3.59176 2.88920
# Velocity P-wave (km/s) = 4.75135 6.18101 5.51272
#
# Compressibility (1/GPa) = 0.03060853
#
# Stress axis : x y z
#
# Youngs Moduli (GPa) = 42.38196 70.99537 82.50256
#
# Poissons Ratio (x) = 0.35310 0.01145
# Poissons Ratio (y) = 0.21079 0.36993
# Poissons Ratio (z) = 0.00588 0.31834
#
# Static dielectric constant tensor:
#      x y z
#    x 3.176880 0.000000 -0.090070 
#    y 0.000000 3.946960 0.000000 
#    z -0.090070 0.000000 3.446310 
# 
# 
# High freq. dielectric constant tensor:
#      x y z
#    x 1.711190 0.000000 -0.012640 
#    y 0.000000 1.723740 0.000000 
#    z -0.012640 0.000000 1.732780 
# 
# From -- ./inp_files/220445.got.cif
#   From: 2010.06.25/outbox.cif.g09.slc.cpg/sg12_111_cif.got.tgz:220445.got - 2010.06.28 00:19:55.
