data_PCOD8110454
_publ_section_title
;
Structure prediction by ZEFSAII (Michael W. Deem and Ramdas Pophale) SiO2 
 PCOD8110454
Probable space group: C 2/M
;
_chemical_formula_sum "Si O2"
_cell_formula_units_Z 32
_cell_length_a 7.557267
_cell_length_b 17.889480
_cell_length_c 10.492025
_cell_angle_alpha 90.000000
_cell_angle_beta 112.722939
_cell_angle_gamma 90.000000
_cell_volume 1308.378298
_symmetry_space_group_name_H-M "C 2/M"
_symmetry_group_IT_number 12
_symmetry_cell_setting 'monoclinic'
loop_
_space_group_symop_operation_xyz
x,y,z
-x,y,-z
-x,-y,-z
x,-y,z
1/2+x,1/2+y,z
1/2-x,1/2+y,-z
1/2-x,1/2-y,-z
1/2+x,1/2-y,z
loop_
_atom_site_type_symbol
_atom_site_label
_atom_site_fract_x
_atom_site_fract_y
_atom_site_fract_z
Si Si1 0.799544 0.085353 0.004397
Si Si2 0.531429 0.832450 0.748623
Si Si3 0.657830 0.585308 0.683862
Si Si4 0.164847 0.193569 0.372943
O O1 0.629577 0.136928 0.903595
O O2 0.755295 0.000000 0.951495
O O3 0.803868 0.093880 0.155862
O O4 0.000000 0.111705 0.000000
O O5 0.337582 0.878155 0.660579
O O6 0.670721 0.843350 0.666582
O O7 0.479502 0.744739 0.753437
O O8 0.634287 0.500000 0.635089
O O9 0.457857 0.627445 0.595387
O O10 0.250000 0.250000 0.500000
#
# Coordination Sequence:
#
# PCOD8110454 Si02
#       4
#     8   8   8   8
#     4  10  21  42  71 107 151 187 231 299 368 440
#     4  12  24  44  73 103 141 194 239 297 370 427
#     4  11  25  46  75 111 147 188 239 300 368 437
#     4  12  27  47  71 103 147 193 246 307 359 424
#
# _framework density 24.457757000000001
#
# number of rings (size 3 to 8) (size 9 to 14) (size 15 to 20)
#    0.000    0.750    5.000    2.250    0.000    4.000 
#    4.500    3.750    0.000    7.500    0.000    0.000 
#    0.000    0.000    0.000    0.000    0.000    0.000 
#
# Total GULP energy -198499.140673 kJ/mol
# GULP energy per Si atom -12406.196292 kJ/mol
# Density = 2.440209 g / cm^3
# Si number density = 24.457757 Si / 1000 Ang^3
#
#
#
# Elastic Constant Matrix: (Units=GPa)
#
#
# Indices 1 2 3 4 5 6 
#
# 1 201.2888 67.5675 24.5752 0.0000 11.6021 0.0000
# 2 67.5675 158.1298 9.8656 0.0000 16.4198 0.0000
# 3 24.5752 9.8656 53.1212 0.0000 9.7043 0.0000
# 4 0.0000 0.0000 0.0000 30.2152 0.0000 4.5733
# 5 11.6021 16.4198 9.7043 0.0000 40.6147 0.0000
# 6 0.0000 0.0000 0.0000 4.5733 0.0000 48.4383
#
#
#
# Elastic Compliance Matrix: (Units=1/GPa)
#
#
# Indices 1 2 3 4 5 6 
#
# 1 0.006080 -0.002432 -0.002325 0.000000 -0.000198 0.000000
# 2 -0.002432 0.007604 0.000154 0.000000 -0.002416 0.000000
# 3 -0.002325 0.000154 0.020664 0.000000 -0.004336 0.000000
# 4 0.000000 0.000000 0.000000 0.033576 0.000000 -0.003170
# 5 -0.000198 -0.002416 -0.004336 0.000000 0.026691 0.000000
# 6 0.000000 0.000000 0.000000 -0.003170 0.000000 0.020944
#
#
# Mechanical properties :
#
#
# Convention : Reuss Voigt Hill
#
# Bulk Modulus (GPa) = 39.77299 68.50627 54.13963
# Shear Modulus (GPa) = 37.55311 44.55574 41.05442
#
# Velocity S-wave (km/s) = 3.92270 4.27282 4.10150
# Velocity P-wave (km/s) = 6.06746 7.23972 6.67935
#
# Compressibility (1/GPa) = 0.02514269
#
# Stress axis : x y z
#
# Youngs Moduli (GPa) = 164.48335 131.50181 48.39394
#
# Poissons Ratio (x) = 0.31984 0.11250
# Poissons Ratio (y) = 0.40005 -0.00747
# Poissons Ratio (z) = 0.38238 -0.02030
#
# Static dielectric constant tensor:
#      x y z
#    x 4.634020 0.000000 0.150300 
#    y 0.000000 4.688690 0.000000 
#    z 0.150300 0.000000 4.454250 
# 
# 
# High freq. dielectric constant tensor:
#      x y z
#    x 1.990260 0.000000 0.005740 
#    y 0.000000 1.971330 0.000000 
#    z 0.005740 0.000000 1.979440 
# 
# From -- ./inp_files/119793.got.cif
#   From: 2010.06.25/outbox.cif.g09.slc.cpg/sg12_60_cif.got.tgz:119793.got - 2010.06.28 00:19:55.
