data_PCOD8110872
_publ_section_title
;
Structure prediction by ZEFSAII (Michael W. Deem and Ramdas Pophale) SiO2 
 PCOD8110872
Probable space group: C 2/M
;
_chemical_formula_sum "Si O2"
_cell_formula_units_Z 32
_cell_length_a 12.664328
_cell_length_b 9.523923
_cell_length_c 23.015982
_cell_angle_alpha 90.000000
_cell_angle_beta 34.094383
_cell_angle_gamma 90.000000
_cell_volume 1556.137415
_symmetry_space_group_name_H-M "C 2/M"
_symmetry_group_IT_number 12
_symmetry_cell_setting 'monoclinic'
loop_
_space_group_symop_operation_xyz
x,y,z
-x,y,-z
-x,-y,-z
x,-y,z
1/2+x,1/2+y,z
1/2-x,1/2+y,-z
1/2-x,1/2-y,-z
1/2+x,1/2-y,z
loop_
_atom_site_type_symbol
_atom_site_label
_atom_site_fract_x
_atom_site_fract_y
_atom_site_fract_z
Si Si1 0.259171 0.841458 0.580744
Si Si2 0.507124 0.343260 0.399101
Si Si3 0.406637 0.246643 0.225367
Si Si4 0.808656 0.500000 0.872852
Si Si5 0.949974 0.000000 0.117855
O O1 0.448538 0.752090 0.481100
O O2 0.168115 0.828748 0.684882
O O3 0.098310 0.788372 0.610021
O O4 0.321093 0.000000 0.541299
O O5 0.444880 0.500000 0.443647
O O6 0.728594 0.341441 0.283525
O O7 0.574068 0.140925 0.166303
O O8 0.464745 0.360334 0.150530
O O9 0.738128 0.500000 0.837399
O O10 0.630616 0.500000 0.995292
#
# Coordination Sequence:
#
# PCOD8110872 Si02
#       5
#     8   8   8   4   4
#     4  10  22  38  59  92 130 167 211 258 312 382
#     4  10  22  38  59  92 130 167 211 258 312 382
#     4  12  22  42  68  92 126 174 214 264 328 382
#     4  11  26  46  68  97 129 165 218 278 332 387
#     4  11  26  46  68  97 129 165 218 278 332 387
#
# _framework density 20.563735999999999
#
# number of rings (size 3 to 8) (size 9 to 14) (size 15 to 20)
#    0.000    1.250    2.500    3.000    3.500    2.000 
#    0.000    0.000    0.000    6.000    0.000    0.000 
#    0.000    0.000    0.000    0.000    0.000    0.000 
#
# Total GULP energy -198330.945226 kJ/mol
# GULP energy per Si atom -12395.684077 kJ/mol
# Density = 2.051693 g / cm^3
# Si number density = 20.563736 Si / 1000 Ang^3
#
#
#
# Elastic Constant Matrix: (Units=GPa)
#
#
# Indices 1 2 3 4 5 6 
#
# 1 105.2902 31.8240 39.0715 0.0000 -4.4456 0.0000
# 2 31.8240 116.1503 37.7806 0.0000 -0.5435 0.0000
# 3 39.0715 37.7806 95.6869 -0.0002 -3.8725 -0.0001
# 4 0.0000 0.0000 -0.0002 29.2490 0.0000 12.4733
# 5 -4.4456 -0.5435 -3.8725 0.0000 38.1095 0.0000
# 6 0.0000 0.0000 -0.0001 12.4733 0.0000 18.0284
#
#
#
# Elastic Compliance Matrix: (Units=1/GPa)
#
#
# Indices 1 2 3 4 5 6 
#
# 1 0.011569 -0.001883 -0.003943 0.000000 0.000922 0.000000
# 2 -0.001883 0.010187 -0.003270 0.000000 -0.000407 0.000000
# 3 -0.003943 -0.003270 0.013386 0.000000 0.000854 0.000000
# 4 0.000000 0.000000 0.000000 0.048499 0.000000 -0.033555
# 5 0.000922 -0.000407 0.000854 0.000000 0.026429 0.000000
# 6 0.000000 0.000000 0.000000 -0.033555 0.000000 0.078684
#
#
# Mechanical properties :
#
#
# Convention : Reuss Voigt Hill
#
# Bulk Modulus (GPa) = 58.99466 59.38664 59.19065
# Shear Modulus (GPa) = 23.51880 30.97412 27.24646
#
# Velocity S-wave (km/s) = 3.38554 3.88525 3.64397
# Velocity P-wave (km/s) = 6.63577 7.00492 6.82284
#
# Compressibility (1/GPa) = 0.01695069
#
# Stress axis : x y z
#
# Youngs Moduli (GPa) = 86.43935 98.16330 74.70245
#
# Poissons Ratio (x) = 0.18482 0.29456
# Poissons Ratio (y) = 0.16275 0.24427
# Poissons Ratio (z) = 0.34084 0.32098
#
# Static dielectric constant tensor:
#      x y z
#    x 4.177690 0.000000 -0.094050 
#    y 0.000000 3.650740 0.000000 
#    z -0.094050 0.000000 3.584120 
# 
# 
# High freq. dielectric constant tensor:
#      x y z
#    x 1.834820 0.000000 -0.002010 
#    y 0.000000 1.808380 0.000000 
#    z -0.002010 0.000000 1.795050 
# 
# From -- ./inp_files/210547.got.cif
#   From: 2010.06.25/outbox.cif.g09.slc.cpg/sg12_106_cif.got.tgz:210547.got - 2010.06.28 00:19:55.
