data_PCOD8110280
_publ_section_title
;
Structure prediction by ZEFSAII (Michael W. Deem and Ramdas Pophale) SiO2 
 PCOD8110280
Probable space group: C 2/M
;
_chemical_formula_sum "Si O2"
_cell_formula_units_Z 64
_cell_length_a 30.839902
_cell_length_b 8.433962
_cell_length_c 19.612125
_cell_angle_alpha 90.000000
_cell_angle_beta 38.189666
_cell_angle_gamma 90.000000
_cell_volume 3153.879528
_symmetry_space_group_name_H-M "C 2/M"
_symmetry_group_IT_number 12
_symmetry_cell_setting 'monoclinic'
loop_
_space_group_symop_operation_xyz
x,y,z
-x,y,-z
-x,-y,-z
x,-y,z
1/2+x,1/2+y,z
1/2-x,1/2+y,-z
1/2-x,1/2-y,-z
1/2+x,1/2-y,z
loop_
_atom_site_type_symbol
_atom_site_label
_atom_site_fract_x
_atom_site_fract_y
_atom_site_fract_z
Si Si1 0.182523 0.684971 0.779740
Si Si2 0.304747 0.686730 0.876850
Si Si3 0.955738 0.813138 0.994103
Si Si4 0.182032 0.311652 0.623674
Si Si5 0.550006 0.187648 0.494616
Si Si6 0.033268 0.188185 0.765077
Si Si7 0.201339 0.311873 0.267181
Si Si8 0.044466 0.685930 0.267579
O O1 0.169476 0.500000 0.792447
O O2 0.123981 0.763623 0.899406
O O3 0.183667 0.751284 0.700300
O O4 0.251885 0.725132 0.734871
O O5 0.295877 0.500000 0.881447
O O6 0.285790 0.762658 0.827020
O O7 0.383476 0.725969 0.803473
O O8 0.250000 0.750000 0.000000
O O9 0.960810 0.000000 0.989308
O O10 0.000000 0.734905 0.000000
O O11 0.991772 0.749527 0.881887
O O12 0.181762 0.500000 0.621588
O O13 0.250000 0.250000 0.500000
O O14 0.113422 0.247123 0.669263
O O15 0.500000 0.263732 0.500000
O O16 0.626751 0.252840 0.384980
O O17 0.518829 0.241099 0.605216
O O18 0.551902 0.000000 0.485440
O O19 0.985598 0.270356 0.767860
O O20 0.033083 0.000000 0.755803
O O21 0.210813 0.500000 0.261180
O O22 0.060271 0.500000 0.254845
#
# Coordination Sequence:
#
# PCOD8110280 Si02
#       8
#     8   8   8   8   8   8   8   8
#     4  11  25  42  63  95 130 165 212 266 318 376
#     4  12  26  45  66  93 129 170 214 266 322 378
#     4  10  21  41  67  91 121 164 212 260 315 379
#     4  11  25  44  65  92 129 172 216 267 324 382
#     4   9  18  38  66  93 121 160 210 257 308 371
#     4  11  24  42  65  95 129 167 213 265 319 380
#     4  11  23  42  68  95 128 170 212 259 315 381
#     4  11  23  42  67  96 129 169 213 260 316 380
#
# _framework density 20.292468
#
# number of rings (size 3 to 8) (size 9 to 14) (size 15 to 20)
#    0.000    1.250    2.500    3.000    3.500    2.750 
#    0.000    2.500    0.000    0.000    0.000    0.000 
#    0.000    0.000    0.000    0.000    0.000    0.000 
#
# Total GULP energy -396733.951042 kJ/mol
# GULP energy per Si atom -12397.935970 kJ/mol
# Density = 2.024628 g / cm^3
# Si number density = 20.292468 Si / 1000 Ang^3
#
#
#
# Elastic Constant Matrix: (Units=GPa)
#
#
# Indices 1 2 3 4 5 6 
#
# 1 69.6953 -129.8356 5.7893 -0.0092 50.3236 0.0304
# 2 -129.8356 -471.9694 -16.5799 -0.0416 185.0978 0.0894
# 3 5.7893 -16.5799 112.9110 0.0126 14.1422 -0.0049
# 4 -0.0092 -0.0416 0.0126 24.4349 0.0129 -0.4532
# 5 50.3236 185.0978 14.1422 0.0129 -24.9068 -0.0235
# 6 0.0304 0.0894 -0.0049 -0.4532 -0.0235 35.1841
#
#
#
# Elastic Compliance Matrix: (Units=1/GPa)
#
#
# Indices 1 2 3 4 5 6 
#
# 1 0.009576 -0.002500 -0.000891 0.000000 0.000262 -0.000002
# 2 -0.002500 0.001845 -0.000640 -0.000002 0.008296 0.000003
# 3 -0.000891 -0.000640 0.008990 -0.000005 -0.001451 0.000003
# 4 0.000000 -0.000002 -0.000005 0.040935 0.000004 0.000527
# 5 0.000262 0.008296 -0.001451 0.000004 0.021207 -0.000007
# 6 -0.000002 0.000003 0.000003 0.000527 -0.000007 0.028429
#
#
# Mechanical properties :
#
#
# Convention : Reuss Voigt Hill
#
# Bulk Modulus (GPa) = 80.98027 -63.40173 8.78927
# Shear Modulus (GPa) = 40.59805 -2.97335 18.81235
#
# Velocity S-wave (km/s) = 4.47771 -1.21179 3.04807
# Velocity P-wave (km/s) = 8.16862 5.76799 4.09003
#
# Compressibility (1/GPa) = 0.01234869
#
# Stress axis : x y z
#
# Youngs Moduli (GPa) = 104.43290 542.04882 111.23423
#
# Poissons Ratio (x) = 1.35511 0.09910
# Poissons Ratio (y) = 0.26108 0.07119
# Poissons Ratio (z) = 0.09304 0.34689
#
# Static dielectric constant tensor:
#      x y z
#    x 3.852280 -0.000030 0.067390 
#    y -0.000030 3.568270 0.000060 
#    z 0.067390 0.000060 4.003710 
# 
# 
# High freq. dielectric constant tensor:
#      x y z
#    x 1.806900 0.000000 0.000320 
#    y 0.000000 1.787240 0.000010 
#    z 0.000320 0.000010 1.811100 
# 
# From -- ./inp_files/295452.got.cif
#   From: 2010.06.25/outbox.cif.g09.slc.cpg/sg12_148_cif.got.tgz:295452.got - 2010.06.28 00:19:55.
