data_PCOD8110816
_publ_section_title
;
Structure prediction by ZEFSAII (Michael W. Deem and Ramdas Pophale) SiO2 
 PCOD8110816
Probable space group: C 2/M
;
_chemical_formula_sum "Si O2"
_cell_formula_units_Z 48
_cell_length_a 33.139380
_cell_length_b 13.575367
_cell_length_c 17.351905
_cell_angle_alpha 90.000000
_cell_angle_beta 162.879841
_cell_angle_gamma 90.000000
_cell_volume 2297.980800
_symmetry_space_group_name_H-M "C 2/M"
_symmetry_group_IT_number 12
_symmetry_cell_setting 'monoclinic'
loop_
_space_group_symop_operation_xyz
x,y,z
-x,y,-z
-x,-y,-z
x,-y,z
1/2+x,1/2+y,z
1/2-x,1/2+y,-z
1/2-x,1/2-y,-z
1/2+x,1/2-y,z
loop_
_atom_site_type_symbol
_atom_site_label
_atom_site_fract_x
_atom_site_fract_y
_atom_site_fract_z
Si Si1 0.284951 0.240999 0.255328
Si Si2 0.838922 0.616257 0.211657
Si Si3 0.641009 0.394187 0.715428
Si Si4 0.652222 0.747295 0.249310
Si Si5 0.380219 0.886552 0.944453
Si Si6 0.677990 0.110521 0.537209
O O1 0.255595 0.167706 0.129964
O O2 0.388203 0.322276 0.409435
O O3 0.161309 0.309290 0.063495
O O4 0.355700 0.176603 0.449997
O O5 0.827835 0.500000 0.205086
O O6 0.000000 0.649033 0.500000
O O7 0.760879 0.647106 0.990564
O O8 0.500000 0.407309 0.500000
O O9 0.689964 0.500000 0.772864
O O10 0.750000 0.750000 0.500000
O O11 0.671578 0.846116 0.232935
O O12 0.691297 0.652481 0.269388
O O13 0.500000 0.731656 0.000000
O O14 0.327539 0.000000 0.860801
O O15 0.544702 0.886784 0.240125
O O16 0.713336 0.000000 0.628379
#
# Coordination Sequence:
#
# PCOD8110816 Si02
#       6
#     8   8   8   8   8   8
#     4  11  22  36  62  86 121 163 208 256 303 366
#     4  10  22  38  59  88 119 160 214 266 315 363
#     4  10  22  38  57  84 119 160 209 262 314 362
#     4  11  22  42  71  96 124 160 204 250 300 365
#     4  10  23  41  64  94 127 167 206 245 304 375
#     4  10  23  41  63  94 129 164 204 250 307 369
#
# _framework density 20.887903000000001
#
# number of rings (size 3 to 8) (size 9 to 14) (size 15 to 20)
#    0.000    1.667    1.667    2.000    4.667    1.333 
#    0.000    0.000    0.000    0.000    0.000    0.000 
#    0.000    0.000    0.000    0.000    0.000    0.000 
#
# Total GULP energy -297324.755578 kJ/mol
# GULP energy per Si atom -12388.531482 kJ/mol
# Density = 2.084036 g / cm^3
# Si number density = 20.887903 Si / 1000 Ang^3
#
#
#
# Elastic Constant Matrix: (Units=GPa)
#
#
# Indices 1 2 3 4 5 6 
#
# 1 127.6100 74.7683 43.5703 0.0000 -7.9597 0.0000
# 2 74.7683 155.6852 44.1912 0.0000 -13.3594 0.0000
# 3 43.5703 44.1912 96.3935 0.0000 -0.1266 0.0000
# 4 0.0000 0.0000 0.0000 52.0519 0.0000 19.2934
# 5 -7.9597 -13.3594 -0.1266 0.0000 25.8869 0.0000
# 6 0.0000 0.0000 0.0000 19.2934 0.0000 39.6457
#
#
#
# Elastic Compliance Matrix: (Units=1/GPa)
#
#
# Indices 1 2 3 4 5 6 
#
# 1 0.011698 -0.004615 -0.003170 0.000000 0.001200 0.000000
# 2 -0.004615 0.009597 -0.002309 0.000000 0.003523 0.000000
# 3 -0.003170 -0.002309 0.012863 0.000000 -0.002104 0.000000
# 4 0.000000 0.000000 0.000000 0.023440 0.000000 -0.011407
# 5 0.001200 0.003523 -0.002104 0.000000 0.040806 0.000000
# 6 0.000000 0.000000 0.000000 -0.011407 0.000000 0.030774
#
#
# Mechanical properties :
#
#
# Convention : Reuss Voigt Hill
#
# Bulk Modulus (GPa) = 71.58590 78.30536 74.94563
# Shear Modulus (GPa) = 32.46272 37.99416 35.22844
#
# Velocity S-wave (km/s) = 3.94653 4.26955 4.11121
# Velocity P-wave (km/s) = 7.42379 7.86608 7.64813
#
# Compressibility (1/GPa) = 0.01396923
#
# Stress axis : x y z
#
# Youngs Moduli (GPa) = 85.48787 104.19547 77.74291
#
# Poissons Ratio (x) = 0.48087 0.24645
# Poissons Ratio (y) = 0.39453 0.17953
# Poissons Ratio (z) = 0.27100 0.24061
#
# Static dielectric constant tensor:
#      x y z
#    x 3.948910 0.000000 -0.171470 
#    y 0.000000 4.220960 0.000000 
#    z -0.171470 0.000000 3.676490 
# 
# 
# High freq. dielectric constant tensor:
#      x y z
#    x 1.821830 0.000000 -0.001870 
#    y 0.000000 1.840720 0.000000 
#    z -0.001870 0.000000 1.793290 
# 
# From -- ./inp_files/251513.got.cif
#   From: 2010.06.25/outbox.cif.g09.slc.cpg/sg12_126_cif.got.tgz:251513.got - 2010.06.28 00:19:55.
