data_PCOD8110662
_publ_section_title
;
Structure prediction by ZEFSAII (Michael W. Deem and Ramdas Pophale) SiO2 
 PCOD8110662
Probable space group: C 2/M
;
_chemical_formula_sum "Si O2"
_cell_formula_units_Z 48
_cell_length_a 15.597013
_cell_length_b 25.400910
_cell_length_c 12.689271
_cell_angle_alpha 90.000000
_cell_angle_beta 150.054177
_cell_angle_gamma 90.000000
_cell_volume 2509.489222
_symmetry_space_group_name_H-M "C 2/M"
_symmetry_group_IT_number 12
_symmetry_cell_setting 'monoclinic'
loop_
_space_group_symop_operation_xyz
x,y,z
-x,y,-z
-x,-y,-z
x,-y,z
1/2+x,1/2+y,z
1/2-x,1/2+y,-z
1/2-x,1/2-y,-z
1/2+x,1/2-y,z
loop_
_atom_site_type_symbol
_atom_site_label
_atom_site_fract_x
_atom_site_fract_y
_atom_site_fract_z
Si Si1 0.966552 0.617923 0.085898
Si Si2 0.820390 0.123030 0.525064
Si Si3 0.382335 0.773983 0.057392
Si Si4 0.323735 0.280341 0.369375
Si Si5 0.623024 0.690986 0.229058
Si Si6 0.396039 0.438999 0.282868
O O1 0.949342 0.666986 0.151565
O O2 0.144358 0.589680 0.315979
O O3 0.798867 0.581432 0.917057
O O4 0.000000 0.633267 0.000000
O O5 0.802441 0.175544 0.434984
O O6 0.832893 0.138027 0.661580
O O7 0.994516 0.090799 0.689408
O O8 0.531579 0.731290 0.212445
O O9 0.250000 0.750000 0.000000
O O10 0.317028 0.785975 0.870464
O O11 0.500000 0.288233 0.500000
O O12 0.300814 0.220658 0.387909
O O13 0.500000 0.676604 0.000000
O O14 0.500000 0.427995 0.500000
O O15 0.387611 0.500000 0.245179
#
# Coordination Sequence:
#
# PCOD8110662 Si02
#       6
#     8   8   8   8   8   8
#     4  12  21  36  57  84 115 154 195 231 281 346
#     4  12  22  38  61  81 116 159 192 235 290 339
#     4  11  20  32  50  78 118 157 191 227 271 331
#     4  11  20  31  51  80 116 153 191 227 272 333
#     4  10  22  37  52  83 118 151 196 233 277 339
#     4  11  24  40  59  87 117 147 187 240 296 349
#
# _framework density 19.127396999999998
#
# number of rings (size 3 to 8) (size 9 to 14) (size 15 to 20)
#    0.000    0.833    5.000    4.500    2.333    1.000 
#    0.000    0.000    0.000    0.500    0.000    1.167 
#    0.000    0.000    0.000    0.000    0.000    0.000 
#
# Total GULP energy -297324.272690 kJ/mol
# GULP energy per Si atom -12388.511362 kJ/mol
# Density = 1.908386 g / cm^3
# Si number density = 19.127397 Si / 1000 Ang^3
#
#
#
# Elastic Constant Matrix: (Units=GPa)
#
#
# Indices 1 2 3 4 5 6 
#
# 1 63.7414 33.7870 29.9633 0.0000 6.6119 0.0000
# 2 33.7870 68.1738 37.7630 0.0000 -2.2407 0.0000
# 3 29.9633 37.7630 93.1630 0.0000 15.8583 0.0000
# 4 0.0000 0.0000 0.0000 20.9168 0.0000 3.0050
# 5 6.6119 -2.2407 15.8583 0.0000 29.9501 0.0000
# 6 0.0000 0.0000 0.0000 3.0050 0.0000 19.6557
#
#
#
# Elastic Compliance Matrix: (Units=1/GPa)
#
#
# Indices 1 2 3 4 5 6 
#
# 1 0.022597 -0.009976 -0.002470 0.000000 -0.004427 0.000000
# 2 -0.009976 0.024361 -0.008079 0.000000 0.008303 0.000000
# 3 -0.002470 -0.008079 0.016281 0.000000 -0.008680 0.000000
# 4 0.000000 0.000000 0.000000 0.048882 0.000000 -0.007473
# 5 -0.004427 0.008303 -0.008680 0.000000 0.039583 0.000000
# 6 0.000000 0.000000 0.000000 -0.007473 0.000000 0.052018
#
#
# Mechanical properties :
#
#
# Convention : Reuss Voigt Hill
#
# Bulk Modulus (GPa) = 45.07168 47.56717 46.31942
# Shear Modulus (GPa) = 19.82800 22.34218 21.08509
#
# Velocity S-wave (km/s) = 3.22316 3.42141 3.32377
# Velocity P-wave (km/s) = 6.12101 6.36637 6.24490
#
# Compressibility (1/GPa) = 0.02218688
#
# Stress axis : x y z
#
# Youngs Moduli (GPa) = 44.25403 41.04967 61.42247
#
# Poissons Ratio (x) = 0.40952 0.15173
# Poissons Ratio (y) = 0.44148 0.49625
# Poissons Ratio (z) = 0.10932 0.33165
#
# Static dielectric constant tensor:
#      x y z
#    x 3.526680 0.000000 0.186770 
#    y 0.000000 3.245710 0.000000 
#    z 0.186770 0.000000 3.798280 
# 
# 
# High freq. dielectric constant tensor:
#      x y z
#    x 1.739490 0.000000 0.021670 
#    y 0.000000 1.700280 0.000000 
#    z 0.021670 0.000000 1.757270 
# 
# From -- ./inp_files/106811.got.cif
#   From: 2010.06.25/outbox.cif.g09.slc.cpg/sg12_54_cif.got.tgz:106811.got - 2010.06.28 00:19:55.
