data_PCOD8110532
_publ_section_title
;
Structure prediction by ZEFSAII (Michael W. Deem and Ramdas Pophale) SiO2 
 PCOD8110532
Probable space group: C 2/M
;
_chemical_formula_sum "Si O2"
_cell_formula_units_Z 52
_cell_length_a 8.754166
_cell_length_b 17.821923
_cell_length_c 18.285902
_cell_angle_alpha 90.000000
_cell_angle_beta 90.593266
_cell_angle_gamma 90.000000
_cell_volume 2852.741675
_symmetry_space_group_name_H-M "C 2/M"
_symmetry_group_IT_number 12
_symmetry_cell_setting 'monoclinic'
loop_
_space_group_symop_operation_xyz
x,y,z
-x,y,-z
-x,-y,-z
x,-y,z
1/2+x,1/2+y,z
1/2-x,1/2+y,-z
1/2-x,1/2-y,-z
1/2+x,1/2-y,z
loop_
_atom_site_type_symbol
_atom_site_label
_atom_site_fract_x
_atom_site_fract_y
_atom_site_fract_z
Si Si1 0.444109 0.802548 0.184510
Si Si2 0.347318 0.304276 0.724006
Si Si3 0.112557 0.086040 0.708512
Si Si4 0.747103 0.301963 0.601356
Si Si5 0.000000 0.736123 0.500000
Si Si6 0.696663 0.913538 0.144937
Si Si7 0.139141 0.200261 0.951459
O O1 0.539557 0.759660 0.246502
O O2 0.279849 0.824741 0.216343
O O3 0.532103 0.878123 0.162654
O O4 0.425252 0.749039 0.115257
O O5 0.443563 0.378664 0.706951
O O6 0.270543 0.273080 0.649889
O O7 0.224739 0.125244 0.651165
O O8 0.185854 0.096841 0.788217
O O9 0.097126 0.000000 0.685928
O O10 0.891583 0.316380 0.549112
O O11 0.597097 0.290588 0.552206
O O12 0.769618 0.872392 0.075665
O O13 0.669673 0.000000 0.125019
O O14 0.250000 0.250000 0.000000
O O15 0.000000 0.170799 0.000000
#
# Coordination Sequence:
#
# PCOD8110532 Si02
#       7
#     8   8   8   8   4   8   8
#     4  12  20  37  62  91 111 153 205 250 285 344
#     4  12  19  36  67  87 113 153 207 245 283 345
#     4  11  23  39  61  91 123 151 192 256 307 334
#     4  11  19  37  59  91 114 157 195 244 282 352
#     4  10  22  32  62  90 118 150 208 232 278 350
#     4  11  24  41  60  90 122 151 195 256 303 338
#     4  12  22  37  62  87 114 158 200 237 291 363
#
# _framework density 18.228079999999999
#
# number of rings (size 3 to 8) (size 9 to 14) (size 15 to 20)
#    0.000    0.615    9.231    0.000    0.000    0.923 
#    0.000    2.308    0.000    0.000    0.000    0.000 
#    0.000    0.000    0.000    0.000    0.000    0.000 
#
# Total GULP energy -322509.727902 kJ/mol
# GULP energy per Si atom -12404.220304 kJ/mol
# Density = 1.818659 g / cm^3
# Si number density = 18.228080 Si / 1000 Ang^3
#
#
#
# Elastic Constant Matrix: (Units=GPa)
#
#
# Indices 1 2 3 4 5 6 
#
# 1 105.1207 49.9445 30.6196 0.0000 -23.2012 0.0000
# 2 49.9445 132.6080 42.0334 0.0000 -14.6957 0.0000
# 3 30.6196 42.0334 80.7322 0.0000 -10.5418 0.0000
# 4 0.0000 0.0000 0.0000 15.1861 0.0000 -3.6410
# 5 -23.2012 -14.6957 -10.5418 0.0000 40.0150 0.0000
# 6 0.0000 0.0000 0.0000 -3.6410 0.0000 31.4879
#
#
#
# Elastic Compliance Matrix: (Units=1/GPa)
#
#
# Indices 1 2 3 4 5 6 
#
# 1 0.013160 -0.003568 -0.002391 0.000000 0.005690 0.000000
# 2 -0.003568 0.010182 -0.003862 0.000000 0.000653 0.000000
# 3 -0.002391 -0.003862 0.015470 0.000000 0.001271 0.000000
# 4 0.000000 0.000000 0.000000 0.067727 0.000000 0.007832
# 5 0.005690 0.000653 0.001271 0.000000 0.028865 0.000000
# 6 0.000000 0.000000 0.000000 0.007832 0.000000 0.032664
#
#
# Mechanical properties :
#
#
# Convention : Reuss Voigt Hill
#
# Bulk Modulus (GPa) = 52.16567 62.62842 57.39705
# Shear Modulus (GPa) = 25.75982 30.39535 28.07759
#
# Velocity S-wave (km/s) = 3.76333 4.08794 3.92898
# Velocity P-wave (km/s) = 6.89666 7.53090 7.22075
#
# Compressibility (1/GPa) = 0.01916969
#
# Stress axis : x y z
#
# Youngs Moduli (GPa) = 75.98510 98.21622 64.64013
#
# Poissons Ratio (x) = 0.35047 0.15452
# Poissons Ratio (y) = 0.27114 0.24967
# Poissons Ratio (z) = 0.18165 0.37936
#
# Static dielectric constant tensor:
#      x y z
#    x 3.723090 0.000000 -0.091560 
#    y 0.000000 3.083480 0.000000 
#    z -0.091560 0.000000 3.350840 
# 
# 
# High freq. dielectric constant tensor:
#      x y z
#    x 1.724190 0.000000 -0.004660 
#    y 0.000000 1.675520 0.000000 
#    z -0.004660 0.000000 1.720080 
# 
# From -- ./inp_files/256617.got.cif
#   From: 2010.06.25/outbox.cif.g09.slc.cpg/sg12_129_cif.got.tgz:256617.got - 2010.06.28 00:19:55.
