data_PCOD8110943
_publ_section_title
;
Structure prediction by ZEFSAII (Michael W. Deem and Ramdas Pophale) SiO2 
 PCOD8110943
Probable space group: C 2/M
;
_chemical_formula_sum "Si O2"
_cell_formula_units_Z 56
_cell_length_a 9.281795
_cell_length_b 18.484249
_cell_length_c 15.145056
_cell_angle_alpha 90.000000
_cell_angle_beta 94.001508
_cell_angle_gamma 90.000000
_cell_volume 2592.057650
_symmetry_space_group_name_H-M "C 2/M"
_symmetry_group_IT_number 12
_symmetry_cell_setting 'monoclinic'
loop_
_space_group_symop_operation_xyz
x,y,z
-x,y,-z
-x,-y,-z
x,-y,z
1/2+x,1/2+y,z
1/2-x,1/2+y,-z
1/2-x,1/2-y,-z
1/2+x,1/2-y,z
loop_
_atom_site_type_symbol
_atom_site_label
_atom_site_fract_x
_atom_site_fract_y
_atom_site_fract_z
Si Si1 0.963772 0.416796 0.897348
Si Si2 0.654849 0.696601 0.650963
Si Si3 0.993247 0.164180 0.902746
Si Si4 0.457536 0.583794 0.730564
Si Si5 0.367614 0.082978 0.265087
Si Si6 0.269443 0.782963 0.845296
Si Si7 0.540784 0.173441 0.407441
O O1 0.906847 0.500000 0.887890
O O2 0.103374 0.406804 0.839102
O O3 0.843550 0.361288 0.858356
O O4 0.000000 0.397932 0.000000
O O5 0.562668 0.624686 0.667736
O O6 0.724887 0.730672 0.741955
O O7 0.540966 0.750165 0.601520
O O8 0.785549 0.680654 0.589310
O O9 0.004959 0.099331 0.833311
O O10 0.855415 0.213909 0.881499
O O11 0.127069 0.218708 0.898677
O O12 0.000000 0.129066 0.000000
O O13 0.474091 0.500000 0.710691
O O14 0.291681 0.610647 0.714838
O O15 0.490235 0.124038 0.324574
O O16 0.381662 0.000000 0.291999
O O17 0.500000 0.137928 0.500000
#
# Coordination Sequence:
#
# PCOD8110943 Si02
#       7
#     8   8   8   8   8   8   8
#     4  10  22  38  62  92 126 170 215 259 309 366
#     4  11  23  42  66  93 127 165 204 263 310 380
#     4  11  24  36  57  87 124 166 213 268 311 365
#     4  10  24  42  63  88 122 172 213 256 320 376
#     4  10  22  42  65  90 130 172 209 258 315 375
#     4  11  22  38  60  88 125 167 209 256 315 373
#     4  12  24  42  70 101 128 161 207 257 317 384
#
# _framework density 21.604458000000001
#
# number of rings (size 3 to 8) (size 9 to 14) (size 15 to 20)
#    0.000    1.286    1.429    4.714    4.000    3.429 
#    0.000    0.000    0.000    2.143    0.000    0.000 
#    0.000    0.000    0.000    0.000    0.000    0.000 
#
# Total GULP energy -347206.126089 kJ/mol
# GULP energy per Si atom -12400.218789 kJ/mol
# Density = 2.155528 g / cm^3
# Si number density = 21.604458 Si / 1000 Ang^3
#
#
#
# Elastic Constant Matrix: (Units=GPa)
#
#
# Indices 1 2 3 4 5 6 
#
# 1 105.9383 22.1454 26.0545 0.0000 -10.9593 0.0000
# 2 22.1454 57.4311 18.5851 0.0000 6.5210 0.0000
# 3 26.0545 18.5851 96.2024 0.0000 -20.7621 0.0000
# 4 0.0000 0.0000 0.0000 16.8913 0.0000 -3.5383
# 5 -10.9593 6.5210 -20.7621 0.0000 28.6563 0.0000
# 6 0.0000 0.0000 0.0000 -3.5383 0.0000 23.1681
#
#
#
# Elastic Compliance Matrix: (Units=1/GPa)
#
#
# Indices 1 2 3 4 5 6 
#
# 1 0.011107 -0.004383 -0.001220 0.000000 0.004361 0.000000
# 2 -0.004383 0.022033 -0.005350 0.000000 -0.010566 0.000000
# 3 -0.001220 -0.005350 0.014130 0.000000 0.010988 0.000000
# 4 0.000000 0.000000 0.000000 0.061159 0.000000 0.009340
# 5 0.004361 -0.010566 0.010988 0.000000 0.046930 0.000000
# 6 0.000000 0.000000 0.000000 0.009340 0.000000 0.044589
#
#
# Mechanical properties :
#
#
# Convention : Reuss Voigt Hill
#
# Bulk Modulus (GPa) = 39.42562 43.68240 41.55401
# Shear Modulus (GPa) = 21.70990 26.59559 24.15274
#
# Velocity S-wave (km/s) = 3.17342 3.51240 3.34721
# Velocity P-wave (km/s) = 5.63169 6.05907 5.84929
#
# Compressibility (1/GPa) = 0.02536422
#
# Stress axis : x y z
#
# Youngs Moduli (GPa) = 90.03368 45.38579 70.77041
#
# Poissons Ratio (x) = 0.19893 0.08635
# Poissons Ratio (y) = 0.39464 0.37861
# Poissons Ratio (z) = 0.10985 0.24281
#
# Static dielectric constant tensor:
#      x y z
#    x 4.107080 0.000000 -0.119680 
#    y 0.000000 3.749820 0.000000 
#    z -0.119680 0.000000 3.847920 
# 
# 
# High freq. dielectric constant tensor:
#      x y z
#    x 1.861720 0.000000 -0.008970 
#    y 0.000000 1.842690 0.000000 
#    z -0.008970 0.000000 1.838360 
# 
# From -- ./inp_files/197555.got.cif
#   From: 2010.06.25/outbox.cif.g09.slc.cpg/sg12_99_cif.got.tgz:197555.got - 2010.06.28 00:19:55.
