data_PCOD8110950
_publ_section_title
;
Structure prediction by ZEFSAII (Michael W. Deem and Ramdas Pophale) SiO2 
 PCOD8110950
Probable space group: C 2/M
;
_chemical_formula_sum "Si O2"
_cell_formula_units_Z 64
_cell_length_a 23.602490
_cell_length_b 14.754868
_cell_length_c 9.294684
_cell_angle_alpha 90.000000
_cell_angle_beta 100.150560
_cell_angle_gamma 90.000000
_cell_volume 3186.225168
_symmetry_space_group_name_H-M "C 2/M"
_symmetry_group_IT_number 12
_symmetry_cell_setting 'monoclinic'
loop_
_space_group_symop_operation_xyz
x,y,z
-x,y,-z
-x,-y,-z
x,-y,z
1/2+x,1/2+y,z
1/2-x,1/2+y,-z
1/2-x,1/2-y,-z
1/2+x,1/2-y,z
loop_
_atom_site_type_symbol
_atom_site_label
_atom_site_fract_x
_atom_site_fract_y
_atom_site_fract_z
Si Si1 0.938382 0.898218 0.009676
Si Si2 0.732719 0.663272 0.896108
Si Si3 0.859165 0.606902 0.307506
Si Si4 0.249854 0.284576 0.657327
Si Si5 0.648000 0.899852 0.023243
Si Si6 0.617965 0.399001 0.734457
Si Si7 0.623548 0.264170 0.216887
Si Si8 0.068667 0.248135 0.503369
O O1 0.895650 0.832284 0.912110
O O2 0.929277 0.000000 0.946639
O O3 0.935937 0.895773 0.182252
O O4 0.000000 0.859080 0.000000
O O5 0.731100 0.694770 0.731387
O O6 0.782409 0.589821 0.944690
O O7 0.668929 0.622027 0.875549
O O8 0.750000 0.750000 0.000000
O O9 0.866074 0.500000 0.333698
O O10 0.794859 0.634067 0.330953
O O11 0.908054 0.656723 0.423635
O O12 0.869632 0.634371 0.144831
O O13 0.250000 0.250000 0.500000
O O14 0.315032 0.310021 0.723463
O O15 0.626838 0.834256 0.141125
O O16 0.622156 0.000000 0.040272
O O17 0.626993 0.500000 0.672983
O O18 0.605592 0.330550 0.598583
O O19 0.583049 0.256935 0.339642
O O20 0.000000 0.239171 0.500000
#
# Coordination Sequence:
#
# PCOD8110950 Si02
#       8
#     8   8   8   8   8   8   8   8
#     4  10  22  39  59  88 123 158 204 258 308 363
#     4  11  18  34  60  89 125 158 196 244 301 377
#     4  11  23  42  65  92 128 169 212 261 320 383
#     4  11  20  38  59  89 126 159 199 250 315 370
#     4  10  22  38  62  95 128 161 200 254 315 376
#     4  11  22  38  62  90 123 165 210 256 312 376
#     4  11  23  38  66  93 123 165 211 260 315 379
#     4  12  25  44  65  88 125 172 218 266 319 378
#
# _framework density 20.086463999999999
#
# number of rings (size 3 to 8) (size 9 to 14) (size 15 to 20)
#    0.000    1.125    3.750    3.375    0.000    2.000 
#    0.000    1.875    0.000    1.875    0.000    0.000 
#    0.000    0.000    0.000    0.000    0.000    0.000 
#
# Total GULP energy -396452.923939 kJ/mol
# GULP energy per Si atom -12389.153873 kJ/mol
# Density = 2.004075 g / cm^3
# Si number density = 20.086464 Si / 1000 Ang^3
#
#
#
# Elastic Constant Matrix: (Units=GPa)
#
#
# Indices 1 2 3 4 5 6 
#
# 1 78.9159 24.1086 17.4630 0.0000 -3.1142 0.0000
# 2 24.1086 101.6554 44.9214 0.0000 5.8135 0.0000
# 3 17.4630 44.9214 112.7573 0.0000 -9.4063 0.0000
# 4 0.0000 0.0000 0.0000 23.0251 0.0000 0.3316
# 5 -3.1142 5.8135 -9.4063 0.0000 31.1739 0.0000
# 6 0.0000 0.0000 0.0000 0.3316 0.0000 21.5905
#
#
#
# Elastic Compliance Matrix: (Units=1/GPa)
#
#
# Indices 1 2 3 4 5 6 
#
# 1 0.013840 -0.003029 -0.000794 0.000000 0.001708 0.000000
# 2 -0.003029 0.013047 -0.005085 0.000000 -0.004270 0.000000
# 3 -0.000794 -0.005085 0.011376 0.000000 0.004301 0.000000
# 4 0.000000 0.000000 0.000000 0.043440 0.000000 -0.000667
# 5 0.001708 -0.004270 0.004301 0.000000 0.034343 0.000000
# 6 0.000000 0.000000 0.000000 -0.000667 0.000000 0.046327
#
#
# Mechanical properties :
#
#
# Convention : Reuss Voigt Hill
#
# Bulk Modulus (GPa) = 48.90702 51.81274 50.35988
# Shear Modulus (GPa) = 26.73725 28.94695 27.84210
#
# Velocity S-wave (km/s) = 3.65239 3.80032 3.72709
# Velocity P-wave (km/s) = 6.49521 6.71621 6.60663
#
# Compressibility (1/GPa) = 0.02044696
#
# Stress axis : x y z
#
# Youngs Moduli (GPa) = 72.25311 76.64801 87.90315
#
# Poissons Ratio (x) = 0.23217 0.06982
# Poissons Ratio (y) = 0.21886 0.44696
# Poissons Ratio (z) = 0.05739 0.38974
#
# Static dielectric constant tensor:
#      x y z
#    x 3.774930 0.000000 -0.064700 
#    y 0.000000 3.459400 0.000000 
#    z -0.064700 0.000000 3.771390 
# 
# 
# High freq. dielectric constant tensor:
#      x y z
#    x 1.781520 0.000000 -0.001430 
#    y 0.000000 1.779250 0.000000 
#    z -0.001430 0.000000 1.793190 
# 
# From -- ./inp_files/96916.got.cif
#   From: 2010.06.25/outbox.cif.g09.slc.cpg/sg12_49_cif.got.tgz:96916.got - 2010.06.28 00:19:55.
