data_PCOD8110574
_publ_section_title
;
Structure prediction by ZEFSAII (Michael W. Deem and Ramdas Pophale) SiO2 
 PCOD8110574
Probable space group: C 2/M
;
_chemical_formula_sum "Si O2"
_cell_formula_units_Z 48
_cell_length_a 18.243418
_cell_length_b 13.100000
_cell_length_c 13.871937
_cell_angle_alpha 90.000000
_cell_angle_beta 134.251765
_cell_angle_gamma 90.000000
_cell_volume 2374.639615
_symmetry_space_group_name_H-M "C 2/M"
_symmetry_group_IT_number 12
_symmetry_cell_setting 'monoclinic'
loop_
_space_group_symop_operation_xyz
x,y,z
-x,y,-z
-x,-y,-z
x,-y,z
1/2+x,1/2+y,z
1/2-x,1/2+y,-z
1/2-x,1/2-y,-z
1/2+x,1/2-y,z
loop_
_atom_site_type_symbol
_atom_site_label
_atom_site_fract_x
_atom_site_fract_y
_atom_site_fract_z
Si Si1 0.732132 0.214685 0.789696
Si Si2 0.923515 0.380315 0.221254
Si Si3 0.904034 0.618147 0.980794
Si Si4 0.323825 0.381754 0.589137
Si Si5 0.373134 0.793617 0.505706
Si Si6 0.592023 0.615802 0.139171
O O1 0.675225 0.186141 0.836456
O O2 0.802205 0.316816 0.860394
O O3 0.647694 0.216542 0.627113
O O4 0.807618 0.121319 0.834520
O O5 0.906004 0.500000 0.226032
O O6 0.017232 0.341475 0.372078
O O7 0.939569 0.359198 0.122845
O O8 0.872082 0.500000 0.939150
O O9 0.000000 0.644492 0.000000
O O10 0.343168 0.500000 0.587820
O O11 0.362745 0.322816 0.531702
O O12 0.205294 0.364235 0.506148
O O13 0.389088 0.335575 0.738730
O O14 0.560526 0.500000 0.128081
O O15 0.500000 0.674637 0.000000
#
# Coordination Sequence:
#
# PCOD8110574 Si02
#       6
#     8   8   8   8   8   8
#     4  11  22  38  61  89 123 158 199 254 304 359
#     4  11  24  42  64  91 124 162 205 253 308 367
#     4  10  24  43  65  92 122 164 209 250 301 365
#     4   9  19  35  54  85 122 157 202 252 301 357
#     4  10  22  35  59  91 119 162 205 249 308 359
#     4   9  18  32  54  85 117 155 200 248 300 349
#
# _framework density 20.213592999999999
#
# number of rings (size 3 to 8) (size 9 to 14) (size 15 to 20)
#    0.000    2.000    0.000    2.500    9.333    3.333 
#    0.000    0.833    0.000    2.000    0.000    0.000 
#    0.000    0.000    0.000    0.000    0.000    0.000 
#
# Total GULP energy -297452.953705 kJ/mol
# GULP energy per Si atom -12393.873071 kJ/mol
# Density = 2.016759 g / cm^3
# Si number density = 20.213593 Si / 1000 Ang^3
#
#
#
# Elastic Constant Matrix: (Units=GPa)
#
#
# Indices 1 2 3 4 5 6 
#
# 1 124.2365 42.6290 51.6307 0.0000 -6.7285 0.0000
# 2 42.6290 99.1979 37.8278 0.0000 -0.5254 0.0000
# 3 51.6307 37.8278 128.8610 0.0000 2.5204 0.0000
# 4 0.0000 0.0000 0.0000 25.1269 0.0000 7.5045
# 5 -6.7285 -0.5254 2.5204 0.0000 23.5528 0.0000
# 6 0.0000 0.0000 0.0000 7.5045 0.0000 18.5154
#
#
#
# Elastic Compliance Matrix: (Units=1/GPa)
#
#
# Indices 1 2 3 4 5 6 
#
# 1 0.010789 -0.003316 -0.003415 0.000000 0.003374 0.000000
# 2 -0.003316 0.012380 -0.002297 0.000000 -0.000425 0.000000
# 3 -0.003415 -0.002297 0.009844 0.000000 -0.002080 0.000000
# 4 0.000000 0.000000 0.000000 0.045279 0.000000 -0.018352
# 5 0.003374 -0.000425 -0.002080 0.000000 0.043635 0.000000
# 6 0.000000 0.000000 0.000000 -0.018352 0.000000 0.061448
#
#
# Mechanical properties :
#
#
# Convention : Reuss Voigt Hill
#
# Bulk Modulus (GPa) = 66.86639 68.49672 67.68156
# Shear Modulus (GPa) = 24.22290 28.11955 26.17122
#
# Velocity S-wave (km/s) = 3.46547 3.73382 3.60214
# Velocity P-wave (km/s) = 7.01173 7.24904 7.13137
#
# Compressibility (1/GPa) = 0.01495520
#
# Stress axis : x y z
#
# Youngs Moduli (GPa) = 92.68586 80.77765 101.58733
#
# Poissons Ratio (x) = 0.26788 0.34696
# Poissons Ratio (y) = 0.30737 0.23336
# Poissons Ratio (z) = 0.31656 0.18555
#
# Static dielectric constant tensor:
#      x y z
#    x 3.507520 0.000000 -0.058880 
#    y 0.000000 3.637050 0.000000 
#    z -0.058880 0.000000 3.982350 
# 
# 
# High freq. dielectric constant tensor:
#      x y z
#    x 1.777130 0.000000 -0.005300 
#    y 0.000000 1.790380 0.000000 
#    z -0.005300 0.000000 1.800140 
# 
# From -- ./inp_files/225449.got.cif
#   From: 2010.06.25/outbox.cif.g09.slc.cpg/sg12_113_cif.got.tgz:225449.got - 2010.06.28 00:19:55.
