data_PCOD8110841
_publ_section_title
;
Structure prediction by ZEFSAII (Michael W. Deem and Ramdas Pophale) SiO2 
 PCOD8110841
Probable space group: C 2/M
;
_chemical_formula_sum "Si O2"
_cell_formula_units_Z 36
_cell_length_a 9.119838
_cell_length_b 11.324593
_cell_length_c 18.056306
_cell_angle_alpha 90.000000
_cell_angle_beta 118.955844
_cell_angle_gamma 90.000000
_cell_volume 1631.711026
_symmetry_space_group_name_H-M "C 2/M"
_symmetry_group_IT_number 12
_symmetry_cell_setting 'monoclinic'
loop_
_space_group_symop_operation_xyz
x,y,z
-x,y,-z
-x,-y,-z
x,-y,z
1/2+x,1/2+y,z
1/2-x,1/2+y,-z
1/2-x,1/2-y,-z
1/2+x,1/2-y,z
loop_
_atom_site_type_symbol
_atom_site_label
_atom_site_fract_x
_atom_site_fract_y
_atom_site_fract_z
Si Si1 0.128928 0.364285 0.965006
Si Si2 0.878080 0.733440 0.320324
Si Si3 0.062181 0.367257 0.234023
Si Si4 0.000000 0.820830 0.500000
Si Si5 0.168653 0.500000 0.634804
Si Si6 0.729041 0.000000 0.479898
O O1 0.209324 0.500000 0.985894
O O2 0.030633 0.345835 0.865204
O O3 0.250000 0.250000 0.000000
O O4 0.000000 0.354430 0.000000
O O5 0.759912 0.843850 0.272958
O O6 0.982671 0.742044 0.422419
O O7 0.768198 0.613974 0.304138
O O8 0.999613 0.723720 0.280357
O O9 0.037268 0.500000 0.256459
O O10 0.826377 0.890381 0.467236
O O11 0.250967 0.500000 0.573839
O O12 0.964778 0.500000 0.588104
#
# Coordination Sequence:
#
# PCOD8110841 Si02
#       6
#     8   8   8   4   4   4
#     4  10  22  44  72 104 136 174 215 269 335 408
#     4  12  24  42  63  93 131 175 222 272 325 375
#     4  11  25  45  67  96 136 170 213 271 328 387
#     4  11  24  37  62  90 120 177 227 270 316 384
#     4  11  22  38  58  84 122 165 211 279 327 374
#     4  10  22  38  58  86 118 157 230 281 322 370
#
# _framework density 22.062729000000001
#
# number of rings (size 3 to 8) (size 9 to 14) (size 15 to 20)
#    0.000    1.111    1.111    5.333    3.111    3.111 
#    4.000    0.000    0.000    0.000    0.000    0.000 
#    0.000    0.000    0.000    0.000    0.000    0.000 
#
# Total GULP energy -223076.454652 kJ/mol
# GULP energy per Si atom -12393.136370 kJ/mol
# Density = 2.201251 g / cm^3
# Si number density = 22.062729 Si / 1000 Ang^3
#
#
#
# Elastic Constant Matrix: (Units=GPa)
#
#
# Indices 1 2 3 4 5 6 
#
# 1 109.5157 45.5189 42.3792 0.0000 -17.2559 0.0000
# 2 45.5189 118.0600 61.8112 0.0000 -1.3331 0.0000
# 3 42.3792 61.8112 115.7241 0.0000 -11.5062 0.0000
# 4 0.0000 0.0000 0.0000 43.7724 0.0000 1.2928
# 5 -17.2559 -1.3331 -11.5062 0.0000 34.6812 0.0000
# 6 0.0000 0.0000 0.0000 1.2928 0.0000 35.3628
#
#
#
# Elastic Compliance Matrix: (Units=1/GPa)
#
#
# Indices 1 2 3 4 5 6 
#
# 1 0.012246 -0.003594 -0.002040 0.000000 0.005278 0.000000
# 2 -0.003594 0.012909 -0.005902 0.000000 -0.003250 0.000000
# 3 -0.002040 -0.005902 0.012841 0.000000 0.003018 0.000000
# 4 0.000000 0.000000 0.000000 0.022870 0.000000 -0.000836
# 5 0.005278 -0.003250 0.003018 0.000000 0.032337 0.000000
# 6 0.000000 0.000000 0.000000 -0.000836 0.000000 0.028309
#
#
# Mechanical properties :
#
#
# Convention : Reuss Voigt Hill
#
# Bulk Modulus (GPa) = 67.00727 71.41313 69.21020
# Shear Modulus (GPa) = 33.43157 35.66931 34.55044
#
# Velocity S-wave (km/s) = 3.89690 4.02521 3.96158
# Velocity P-wave (km/s) = 7.11934 7.35130 7.23625
#
# Compressibility (1/GPa) = 0.01492375
#
# Stress axis : x y z
#
# Youngs Moduli (GPa) = 81.65962 77.46327 77.87496
#
# Poissons Ratio (x) = 0.27838 0.15889
# Poissons Ratio (y) = 0.29346 0.45964
# Poissons Ratio (z) = 0.16661 0.45721
#
# Static dielectric constant tensor:
#      x y z
#    x 3.822640 0.000000 -0.264950 
#    y 0.000000 4.595740 0.000000 
#    z -0.264950 0.000000 3.893210 
# 
# 
# High freq. dielectric constant tensor:
#      x y z
#    x 1.862570 0.000000 -0.027840 
#    y 0.000000 1.888720 0.000000 
#    z -0.027840 0.000000 1.861970 
# 
# From -- ./inp_files/254818.got.cif
#   From: 2010.06.25/outbox.cif.g09.slc.cpg/sg12_128_cif.got.tgz:254818.got - 2010.06.28 00:19:55.
