data_PCOD8110180
_publ_section_title
;
Structure prediction by ZEFSAII (Michael W. Deem and Ramdas Pophale) SiO2 
 PCOD8110180
Probable space group: C 2/M
;
_chemical_formula_sum "Si O2"
_cell_formula_units_Z 36
_cell_length_a 22.219737
_cell_length_b 13.239431
_cell_length_c 15.305078
_cell_angle_alpha 90.000000
_cell_angle_beta 24.153259
_cell_angle_gamma 90.000000
_cell_volume 1842.285402
_symmetry_space_group_name_H-M "C 2/M"
_symmetry_group_IT_number 12
_symmetry_cell_setting 'monoclinic'
loop_
_space_group_symop_operation_xyz
x,y,z
-x,y,-z
-x,-y,-z
x,-y,z
1/2+x,1/2+y,z
1/2-x,1/2+y,-z
1/2-x,1/2-y,-z
1/2+x,1/2-y,z
loop_
_atom_site_type_symbol
_atom_site_label
_atom_site_fract_x
_atom_site_fract_y
_atom_site_fract_z
Si Si1 0.841928 0.664301 0.422854
Si Si2 0.299801 0.500000 0.711414
Si Si3 0.500000 0.329722 0.500000
Si Si4 0.025242 0.000000 0.694110
Si Si5 0.418129 0.281028 0.788202
Si Si6 0.974350 0.500000 0.134838
Si Si7 0.132130 0.000000 0.753266
O O1 0.750000 0.750000 0.500000
O O2 0.736590 0.598975 0.627812
O O3 0.988568 0.707724 0.273171
O O4 0.887735 0.597873 0.279846
O O5 0.358319 0.400476 0.680775
O O6 0.335834 0.500000 0.558303
O O7 0.134848 0.500000 0.962217
O O8 0.489198 0.260992 0.599476
O O9 0.930030 0.101231 0.801828
O O10 0.072319 0.000000 0.732873
O O11 0.250000 0.250000 0.000000
O O12 0.000000 0.500000 0.000000
O O13 0.000000 0.000000 0.000000
#
# Coordination Sequence:
#
# PCOD8110180 Si02
#       7
#     8   4   4   4   8   4   4
#     4  11  24  43  64  95 131 167 217 269 322 391
#     4   9  17  37  59  91 118 159 204 267 319 365
#     4   9  20  34  62  87 124 158 210 257 314 375
#     4  10  21  41  63  90 140 163 214 281 324 370
#     4  11  23  40  66  94 130 174 217 268 330 391
#     4  11  24  37  67  95 124 159 222 266 316 378
#     4  11  24  43  63  92 134 179 213 271 331 389
#
# _framework density 19.540946000000002
#
# number of rings (size 3 to 8) (size 9 to 14) (size 15 to 20)
#    0.000    1.556    2.222    3.333    3.111    4.444 
#    0.000    0.000    0.000    4.667    0.000    0.000 
#    0.000    0.000    0.000    0.000    0.000    0.000 
#
# Total GULP energy -223042.337203 kJ/mol
# GULP energy per Si atom -12391.240956 kJ/mol
# Density = 1.949647 g / cm^3
# Si number density = 19.540946 Si / 1000 Ang^3
#
#
#
# Elastic Constant Matrix: (Units=GPa)
#
#
# Indices 1 2 3 4 5 6 
#
# 1 113.3700 49.9642 38.1759 0.0000 -2.5385 0.0000
# 2 49.9642 135.7669 65.4844 0.0000 -7.6900 0.0000
# 3 38.1759 65.4844 123.0745 0.0000 -14.0284 0.0000
# 4 0.0000 0.0000 0.0000 20.6430 0.0000 -16.0812
# 5 -2.5385 -7.6900 -14.0284 0.0000 38.6079 0.0000
# 6 0.0000 0.0000 0.0000 -16.0812 0.0000 26.1967
#
#
#
# Elastic Compliance Matrix: (Units=1/GPa)
#
#
# Indices 1 2 3 4 5 6 
#
# 1 0.010785 -0.003170 -0.001721 0.000000 -0.000548 0.000000
# 2 -0.003170 0.010840 -0.004759 0.000000 0.000221 0.000000
# 3 -0.001721 -0.004759 0.011549 0.000000 0.003135 0.000000
# 4 0.000000 0.000000 0.000000 0.092839 0.000000 0.056990
# 5 -0.000548 0.000221 0.003135 0.000000 0.027049 0.000000
# 6 0.000000 0.000000 0.000000 0.056990 0.000000 0.073157
#
#
# Mechanical properties :
#
#
# Convention : Reuss Voigt Hill
#
# Bulk Modulus (GPa) = 72.08127 75.49561 73.78844
# Shear Modulus (GPa) = 19.98854 31.66199 25.82526
#
# Velocity S-wave (km/s) = 3.20176 4.02965 3.63932
# Velocity P-wave (km/s) = 7.11588 7.76976 7.45000
#
# Compressibility (1/GPa) = 0.01387323
#
# Stress axis : x y z
#
# Youngs Moduli (GPa) = 92.72116 92.24913 86.59013
#
# Poissons Ratio (x) = 0.29242 0.14904
# Poissons Ratio (y) = 0.29392 0.41211
# Poissons Ratio (z) = 0.15959 0.43904
#
# Static dielectric constant tensor:
#      x y z
#    x 3.953790 0.000000 -0.176910 
#    y 0.000000 3.437320 0.000000 
#    z -0.176910 0.000000 3.039190 
# 
# 
# High freq. dielectric constant tensor:
#      x y z
#    x 1.769820 0.000000 -0.010590 
#    y 0.000000 1.762020 0.000000 
#    z -0.010590 0.000000 1.762400 
# 
# From -- ./inp_files/293061.got.cif
#   From: 2010.06.25/outbox.cif.g09.slc.cpg/sg12_147_cif.got.tgz:293061.got - 2010.06.28 00:19:55.
