data_PCOD8110948
_publ_section_title
;
Structure prediction by ZEFSAII (Michael W. Deem and Ramdas Pophale) SiO2 
 PCOD8110948
Probable space group: C 2/M
;
_chemical_formula_sum "Si O2"
_cell_formula_units_Z 48
_cell_length_a 11.595413
_cell_length_b 15.108563
_cell_length_c 27.411457
_cell_angle_alpha 90.000000
_cell_angle_beta 151.384852
_cell_angle_gamma 90.000000
_cell_volume 2299.895326
_symmetry_space_group_name_H-M "C 2/M"
_symmetry_group_IT_number 12
_symmetry_cell_setting 'monoclinic'
loop_
_space_group_symop_operation_xyz
x,y,z
-x,y,-z
-x,-y,-z
x,-y,z
1/2+x,1/2+y,z
1/2-x,1/2+y,-z
1/2-x,1/2-y,-z
1/2+x,1/2-y,z
loop_
_atom_site_type_symbol
_atom_site_label
_atom_site_fract_x
_atom_site_fract_y
_atom_site_fract_z
Si Si1 0.404856 0.251131 0.333085
Si Si2 0.167609 0.500000 0.488371
Si Si3 0.485082 0.357001 0.210171
Si Si4 0.137708 0.000000 0.335247
Si Si5 0.682449 0.602171 0.955185
Si Si6 0.378703 0.231339 0.866766
Si Si7 0.870026 0.151699 0.500722
O O1 0.252187 0.291835 0.232565
O O2 0.677348 0.228881 0.416070
O O3 0.421496 0.317779 0.384898
O O4 0.258164 0.167141 0.298530
O O5 0.355401 0.500000 0.603495
O O6 0.207677 0.581168 0.467622
O O7 0.902349 0.500000 0.410742
O O8 0.491293 0.416014 0.261182
O O9 0.367673 0.407171 0.120882
O O10 0.314865 0.272992 0.160855
O O11 0.677347 0.500000 0.974336
O O12 0.486015 0.668662 0.907110
O O13 0.934932 0.650903 0.057259
O O14 0.000000 0.116920 0.500000
#
# Coordination Sequence:
#
# PCOD8110948 Si02
#       7
#     8   4   8   4   8   8   8
#     4  10  22  39  59  88 123 164 215 258 325 375
#     4  11  23  38  56  92 128 167 208 276 325 373
#     4  11  20  38  64  93 122 165 215 266 321 382
#     4  11  22  36  61  96 131 158 215 282 321 374
#     4  10  22  40  64  94 128 164 216 263 326 392
#     4  10  22  38  62  94 128 166 207 274 322 384
#     4  11  22  39  61  86 124 171 214 257 319 396
#
# _framework density 20.870515000000001
#
# number of rings (size 3 to 8) (size 9 to 14) (size 15 to 20)
#    0.000    1.500    2.500    2.750    1.167    2.000 
#    1.500    0.000    1.833   13.000    0.000    0.000 
#    0.000    0.000    0.000    0.000    0.000    0.000 
#
# Total GULP energy -297387.478941 kJ/mol
# GULP energy per Si atom -12391.144956 kJ/mol
# Density = 2.082301 g / cm^3
# Si number density = 20.870515 Si / 1000 Ang^3
#
#
#
# Elastic Constant Matrix: (Units=GPa)
#
#
# Indices 1 2 3 4 5 6 
#
# 1 99.2410 29.7623 19.7000 -0.0011 5.9572 -0.0011
# 2 29.7623 107.4516 34.3086 -0.0007 -0.1179 -0.0009
# 3 19.7000 34.3086 101.3623 -0.0315 5.8179 -0.0298
# 4 -0.0011 -0.0007 -0.0315 136.8980 -0.0059 102.8769
# 5 5.9572 -0.1179 5.8179 -0.0059 21.4177 -0.0061
# 6 -0.0011 -0.0009 -0.0298 102.8769 -0.0061 124.5920
#
#
#
# Elastic Compliance Matrix: (Units=1/GPa)
#
#
# Indices 1 2 3 4 5 6 
#
# 1 0.011300 -0.002785 -0.001089 0.000000 -0.002862 0.000000
# 2 -0.002785 0.011143 -0.003330 0.000000 0.001741 0.000000
# 3 -0.001089 -0.003330 0.011365 0.000001 -0.002803 0.000001
# 4 0.000000 0.000000 0.000001 0.019249 0.000000 -0.015894
# 5 -0.002862 0.001741 -0.002803 0.000000 0.048258 0.000001
# 6 0.000000 0.000000 0.000001 -0.015894 0.000001 0.021150
#
#
# Mechanical properties :
#
#
# Convention : Reuss Voigt Hill
#
# Bulk Modulus (GPa) = 51.54882 52.84406 52.19644
# Shear Modulus (GPa) = 34.88204 71.53381 53.20792
#
# Velocity S-wave (km/s) = 4.09266 5.86084 5.05467
# Velocity P-wave (km/s) = 6.86193 8.43648 7.68961
#
# Compressibility (1/GPa) = 0.01939909
#
# Stress axis : x y z
#
# Youngs Moduli (GPa) = 88.49723 89.74057 87.98665
#
# Poissons Ratio (x) = 0.24995 0.09583
# Poissons Ratio (y) = 0.24649 0.29302
# Poissons Ratio (z) = 0.09638 0.29886
#
# Static dielectric constant tensor:
#      x y z
#    x 3.680040 0.000000 -0.022520 
#    y 0.000000 3.875710 0.000000 
#    z -0.022520 0.000000 3.968120 
# 
# 
# High freq. dielectric constant tensor:
#      x y z
#    x 1.806060 0.000000 -0.000160 
#    y 0.000000 1.801450 0.000000 
#    z -0.000160 0.000000 1.836340 
# 
# From -- ./inp_files/358363.got.cif
#   From: 2010.06.25/outbox.cif.g09.slc.cpg/sg12_180_cif.got.tgz:358363.got - 2010.06.28 00:19:55.
