data_PCOD8110366
_publ_section_title
;
Structure prediction by ZEFSAII (Michael W. Deem and Ramdas Pophale) SiO2 
 PCOD8110366
Probable space group: C 2/M
;
_chemical_formula_sum "Si O2"
_cell_formula_units_Z 64
_cell_length_a 14.777340
_cell_length_b 16.848715
_cell_length_c 14.043071
_cell_angle_alpha 90.000000
_cell_angle_beta 116.682755
_cell_angle_gamma 90.000000
_cell_volume 3124.085412
_symmetry_space_group_name_H-M "C 2/M"
_symmetry_group_IT_number 12
_symmetry_cell_setting 'monoclinic'
loop_
_space_group_symop_operation_xyz
x,y,z
-x,y,-z
-x,-y,-z
x,-y,z
1/2+x,1/2+y,z
1/2-x,1/2+y,-z
1/2-x,1/2-y,-z
1/2+x,1/2-y,z
loop_
_atom_site_type_symbol
_atom_site_label
_atom_site_fract_x
_atom_site_fract_y
_atom_site_fract_z
Si Si1 0.224749 0.341344 0.996048
Si Si2 0.896550 0.089176 0.417148
Si Si3 0.440864 0.804951 0.213671
Si Si4 0.381807 0.410078 0.927334
Si Si5 0.280583 0.590022 0.553133
Si Si6 0.780088 0.191121 0.222811
Si Si7 0.628838 0.704764 0.250801
Si Si8 0.049053 0.407141 0.424801
O O1 0.112621 0.356305 0.897036
O O2 0.313867 0.392022 0.988235
O O3 0.250000 0.250000 0.000000
O O4 0.224432 0.356333 0.109948
O O5 0.815048 0.092838 0.461331
O O6 0.856918 0.129503 0.304103
O O7 0.000000 0.131913 0.500000
O O8 0.923043 0.000000 0.398641
O O9 0.345668 0.766584 0.221947
O O10 0.514114 0.736540 0.206210
O O11 0.502083 0.861582 0.313162
O O12 0.359635 0.500000 0.885087
O O13 0.351440 0.351659 0.829211
O O14 0.500000 0.397201 0.000000
O O15 0.293679 0.500000 0.600657
O O16 0.342473 0.654658 0.642407
O O17 0.164868 0.616137 0.493912
O O18 0.699998 0.219144 0.265192
O O19 0.032503 0.500000 0.397705
O O20 0.000000 0.379135 0.500000
#
# Coordination Sequence:
#
# PCOD8110366 Si02
#       8
#     8   8   8   8   8   8   8   8
#     4  10  21  42  58  86 129 161 206 255 314 374
#     4  10  22  40  61  85 120 161 200 258 319 375
#     4  11  23  38  60  92 123 167 210 257 318 382
#     4  11  23  39  64  95 124 163 211 261 317 379
#     4  10  22  40  58  86 123 158 202 256 319 377
#     4  11  23  39  61  90 121 163 212 253 317 384
#     4  12  23  37  64  91 124 166 200 267 314 374
#     4  10  22  39  60  86 123 165 209 262 316 374
#
# _framework density 20.485997000000001
#
# number of rings (size 3 to 8) (size 9 to 14) (size 15 to 20)
#    0.000    1.375    2.500    4.125    0.000    5.500 
#    0.000    3.125    0.000    0.000    0.000    5.250 
#    0.000    0.000    0.000    0.000    0.000    0.000 
#
# Total GULP energy -396733.872824 kJ/mol
# GULP energy per Si atom -12397.933526 kJ/mol
# Density = 2.043937 g / cm^3
# Si number density = 20.485997 Si / 1000 Ang^3
#
#
#
# Elastic Constant Matrix: (Units=GPa)
#
#
# Indices 1 2 3 4 5 6 
#
# 1 85.4545 21.5052 30.2287 0.0000 21.3491 0.0000
# 2 21.5052 63.4016 50.7510 0.0000 3.1561 0.0000
# 3 30.2287 50.7510 142.2436 0.0000 6.9189 0.0000
# 4 0.0000 0.0000 0.0000 28.4245 0.0000 21.8105
# 5 21.3491 3.1561 6.9189 0.0000 30.8956 0.0000
# 6 0.0000 0.0000 0.0000 21.8105 0.0000 138.0398
#
#
#
# Elastic Compliance Matrix: (Units=1/GPa)
#
#
# Indices 1 2 3 4 5 6 
#
# 1 0.015682 -0.003558 -0.001571 0.000000 -0.010121 0.000000
# 2 -0.003558 0.022893 -0.007499 0.000000 0.001799 0.000000
# 3 -0.001571 -0.007499 0.010059 0.000000 -0.000401 0.000000
# 4 0.000000 0.000000 0.000000 0.040035 0.000000 -0.006325
# 5 -0.010121 0.001799 -0.000401 0.000000 0.039267 0.000000
# 6 0.000000 0.000000 0.000000 -0.006325 0.000000 0.008244
#
#
# Mechanical properties :
#
#
# Convention : Reuss Voigt Hill
#
# Bulk Modulus (GPa) = 42.77612 55.11883 48.94748
# Shear Modulus (GPa) = 29.54613 52.04631 40.79622
#
# Velocity S-wave (km/s) = 3.80183 5.04588 4.46737
# Velocity P-wave (km/s) = 6.34018 7.80461 7.11020
#
# Compressibility (1/GPa) = 0.02337753
#
# Stress axis : x y z
#
# Youngs Moduli (GPa) = 63.76871 43.68218 99.41146
#
# Poissons Ratio (x) = 0.15541 0.15616
# Poissons Ratio (y) = 0.22688 0.74551
# Poissons Ratio (z) = 0.10017 0.32758
#
# Static dielectric constant tensor:
#      x y z
#    x 3.759010 0.000000 0.079550 
#    y 0.000000 3.689260 0.000000 
#    z 0.079550 0.000000 3.795530 
# 
# 
# High freq. dielectric constant tensor:
#      x y z
#    x 1.806550 0.000000 0.005840 
#    y 0.000000 1.786710 0.000000 
#    z 0.005840 0.000000 1.811590 
# 
# From -- ./inp_files/216806.got.cif
#   From: 2010.06.25/outbox.cif.g09.slc.cpg/sg12_109_cif.got.tgz:216806.got - 2010.06.28 00:19:55.
