data_PCOD8110975
_publ_section_title
;
Structure prediction by ZEFSAII (Michael W. Deem and Ramdas Pophale) SiO2 
 PCOD8110975
Probable space group: C 2/M
;
_chemical_formula_sum "Si O2"
_cell_formula_units_Z 36
_cell_length_a 8.470686
_cell_length_b 29.647845
_cell_length_c 8.813740
_cell_angle_alpha 90.000000
_cell_angle_beta 129.951891
_cell_angle_gamma 90.000000
_cell_volume 1696.803852
_symmetry_space_group_name_H-M "C 2/M"
_symmetry_group_IT_number 12
_symmetry_cell_setting 'monoclinic'
loop_
_space_group_symop_operation_xyz
x,y,z
-x,y,-z
-x,-y,-z
x,-y,z
1/2+x,1/2+y,z
1/2-x,1/2+y,-z
1/2-x,1/2-y,-z
1/2+x,1/2-y,z
loop_
_atom_site_type_symbol
_atom_site_label
_atom_site_fract_x
_atom_site_fract_y
_atom_site_fract_z
Si Si1 0.146627 0.813743 0.350584
Si Si2 0.935826 0.389093 0.631227
Si Si3 0.132792 0.111216 0.949609
Si Si4 0.000000 0.745876 0.500000
Si Si5 0.718064 0.049973 0.213928
O O1 0.286253 0.846088 0.542721
O O2 0.022805 0.777383 0.369467
O O3 0.304351 0.785996 0.341849
O O4 0.984486 0.841969 0.153519
O O5 0.810244 0.429335 0.635497
O O6 0.000000 0.403452 0.500000
O O7 0.138416 0.377253 0.853025
O O8 0.132530 0.080495 0.798535
O O9 0.000000 0.086118 0.000000
O O10 0.814841 0.000000 0.290499
O O11 0.500000 0.046439 0.000000
#
# Coordination Sequence:
#
# PCOD8110975 Si02
#       5
#     8   8   8   4   8
#     4  11  21  41  59  91 119 156 199 252 296 368
#     4  11  21  40  65  85 123 165 200 243 298 360
#     4  11  21  39  65  88 120 165 200 242 303 357
#     4  10  22  38  64  86 126 150 196 262 304 336
#     4   9  21  39  61  93 125 157 202 249 297 351
#
# _framework density 21.216358
#
# number of rings (size 3 to 8) (size 9 to 14) (size 15 to 20)
#    0.000    1.556    3.333    1.333    0.000    0.889 
#    0.000   14.444    0.000    0.000    0.000    0.000 
#    0.000    0.000    0.000    0.000    0.000    0.000 
#
# Total GULP energy -223133.838455 kJ/mol
# GULP energy per Si atom -12396.324359 kJ/mol
# Density = 2.116807 g / cm^3
# Si number density = 21.216358 Si / 1000 Ang^3
#
#
#
# Elastic Constant Matrix: (Units=GPa)
#
#
# Indices 1 2 3 4 5 6 
#
# 1 135.9592 85.6107 49.7778 0.0000 -21.8690 0.0000
# 2 85.6107 154.3758 55.6128 0.0000 -15.6035 0.0000
# 3 49.7778 55.6128 97.1105 0.0000 4.2589 0.0000
# 4 0.0000 0.0000 0.0000 21.9885 0.0000 -9.0558
# 5 -21.8690 -15.6035 4.2589 0.0000 32.3026 0.0000
# 6 0.0000 0.0000 0.0000 -9.0558 0.0000 18.9205
#
#
#
# Elastic Compliance Matrix: (Units=1/GPa)
#
#
# Indices 1 2 3 4 5 6 
#
# 1 0.013241 -0.005136 -0.004155 0.000000 0.007031 0.000000
# 2 -0.005136 0.010889 -0.003703 0.000000 0.002271 0.000000
# 3 -0.004155 -0.003703 0.014835 0.000000 -0.006557 0.000000
# 4 0.000000 0.000000 0.000000 0.056644 0.000000 0.027111
# 5 0.007031 0.002271 -0.006557 0.000000 0.037679 0.000000
# 6 0.000000 0.000000 0.000000 0.027111 0.000000 0.065829
#
#
# Mechanical properties :
#
#
# Convention : Reuss Voigt Hill
#
# Bulk Modulus (GPa) = 77.04710 85.49424 81.27067
# Shear Modulus (GPa) = 21.79310 27.73861 24.76585
#
# Velocity S-wave (km/s) = 3.20845 3.61974 3.42028
# Velocity P-wave (km/s) = 7.07950 7.60618 7.34756
#
# Compressibility (1/GPa) = 0.01297907
#
# Stress axis : x y z
#
# Youngs Moduli (GPa) = 75.52326 91.83291 67.40622
#
# Poissons Ratio (x) = 0.47162 0.28004
# Poissons Ratio (y) = 0.38786 0.24962
# Poissons Ratio (z) = 0.31376 0.34008
#
# Static dielectric constant tensor:
#      x y z
#    x 4.360690 0.000000 -0.045480 
#    y 0.000000 4.036520 0.000000 
#    z -0.045480 0.000000 3.660340 
# 
# 
# High freq. dielectric constant tensor:
#      x y z
#    x 1.851360 0.000000 0.005620 
#    y 0.000000 1.826230 0.000000 
#    z 0.005620 0.000000 1.820230 
# 
# From -- ./inp_files/41298.got.cif
#   From: 2010.06.25/outbox.cif.g09.slc.cpg/sg12_21_cif.got.tgz:41298.got - 2010.06.28 00:19:55.
