data_PCOD8110890
_publ_section_title
;
Structure prediction by ZEFSAII (Michael W. Deem and Ramdas Pophale) SiO2 
 PCOD8110890
Probable space group: C 2/M
;
_chemical_formula_sum "Si O2"
_cell_formula_units_Z 52
_cell_length_a 9.329050
_cell_length_b 17.331129
_cell_length_c 21.152464
_cell_angle_alpha 90.000000
_cell_angle_beta 132.929594
_cell_angle_gamma 90.000000
_cell_volume 2504.088912
_symmetry_space_group_name_H-M "C 2/M"
_symmetry_group_IT_number 12
_symmetry_cell_setting 'monoclinic'
loop_
_space_group_symop_operation_xyz
x,y,z
-x,y,-z
-x,-y,-z
x,-y,z
1/2+x,1/2+y,z
1/2-x,1/2+y,-z
1/2-x,1/2-y,-z
1/2+x,1/2-y,z
loop_
_atom_site_type_symbol
_atom_site_label
_atom_site_fract_x
_atom_site_fract_y
_atom_site_fract_z
Si Si1 0.609693 0.694666 0.182276
Si Si2 0.443149 0.911706 0.309297
Si Si3 0.162812 0.086087 0.752560
Si Si4 0.000000 0.714634 0.500000
Si Si5 0.730011 0.914825 0.611967
Si Si6 0.684687 0.810798 0.099065
Si Si7 0.257026 0.309060 0.333887
O O1 0.730655 0.614811 0.219128
O O2 0.667670 0.731190 0.132179
O O3 0.376231 0.683417 0.112573
O O4 0.659723 0.745474 0.259390
O O5 0.434941 0.909618 0.382965
O O6 0.602342 0.847544 0.335830
O O7 0.486209 0.000000 0.299003
O O8 0.311451 0.123495 0.846301
O O9 0.160216 0.121753 0.682371
O O10 0.939515 0.095499 0.709403
O O11 0.235367 0.000000 0.766890
O O12 0.184791 0.654145 0.548085
O O13 0.056993 0.769863 0.575351
O O14 0.721789 0.000000 0.576697
O O15 0.500000 0.826123 0.000000
#
# Coordination Sequence:
#
# PCOD8110890 Si02
#       7
#     8   8   8   4   8   8   8
#     4  11  21  41  61  90 126 164 203 251 307 372
#     4  11  22  41  63  86 120 171 213 245 304 379
#     4  10  22  42  61  85 123 164 203 250 314 375
#     4  12  23  38  61  92 124 156 216 262 305 360
#     4  10  22  38  60  87 123 164 207 258 309 362
#     4  11  22  37  65  97 123 155 203 260 308 365
#     4  11  24  38  63  88 122 165 210 253 308 364
#
# _framework density 20.766034999999999
#
# number of rings (size 3 to 8) (size 9 to 14) (size 15 to 20)
#    0.000    1.231    4.615    1.154    2.154    2.769 
#    0.000    3.077    0.000    0.462    0.000    0.000 
#    0.000    0.000    0.000    0.000    0.000    0.000 
#
# Total GULP energy -322144.559961 kJ/mol
# GULP energy per Si atom -12390.175383 kJ/mol
# Density = 2.071877 g / cm^3
# Si number density = 20.766035 Si / 1000 Ang^3
#
#
#
# Elastic Constant Matrix: (Units=GPa)
#
#
# Indices 1 2 3 4 5 6 
#
# 1 67.1341 22.4614 18.5053 0.0000 -2.4935 0.0000
# 2 22.4614 121.6211 46.4093 0.0000 1.5704 0.0000
# 3 18.5053 46.4093 139.1900 0.0000 9.5701 0.0000
# 4 0.0000 0.0000 0.0000 18.2610 0.0000 7.6521
# 5 -2.4935 1.5704 9.5701 0.0000 16.1289 0.0000
# 6 0.0000 0.0000 0.0000 7.6521 0.0000 24.1077
#
#
#
# Elastic Compliance Matrix: (Units=1/GPa)
#
#
# Indices 1 2 3 4 5 6 
#
# 1 0.016294 -0.002444 -0.001606 0.000000 0.003710 0.000000
# 2 -0.002444 0.009803 -0.002973 0.000000 0.000432 0.000000
# 3 -0.001606 -0.002973 0.008743 0.000000 -0.005147 0.000000
# 4 0.000000 0.000000 0.000000 0.063162 0.000000 -0.020048
# 5 0.003710 0.000432 -0.005147 0.000000 0.065586 0.000000
# 6 0.000000 0.000000 0.000000 -0.020048 0.000000 0.047844
#
#
# Mechanical properties :
#
#
# Convention : Reuss Voigt Hill
#
# Bulk Modulus (GPa) = 48.09485 55.85524 51.97505
# Shear Modulus (GPa) = 21.51365 27.73746 24.62556
#
# Velocity S-wave (km/s) = 3.22219 3.65871 3.44736
# Velocity P-wave (km/s) = 6.08720 6.69358 6.39758
#
# Compressibility (1/GPa) = 0.02079225
#
# Stress axis : x y z
#
# Youngs Moduli (GPa) = 61.37256 102.01374 114.37471
#
# Poissons Ratio (x) = 0.24933 0.18374
# Poissons Ratio (y) = 0.15000 0.34006
# Poissons Ratio (z) = 0.09859 0.30330
#
# Static dielectric constant tensor:
#      x y z
#    x 3.726160 0.000000 0.103570 
#    y 0.000000 4.002040 0.000000 
#    z 0.103570 0.000000 3.607840 
# 
# 
# High freq. dielectric constant tensor:
#      x y z
#    x 1.801300 0.000000 0.006960 
#    y 0.000000 1.823910 0.000000 
#    z 0.006960 0.000000 1.797330 
# 
# From -- ./inp_files/301201.got.cif
#   From: 2010.06.25/outbox.cif.g09.slc.cpg/sg12_151_cif.got.tgz:301201.got - 2010.06.28 00:19:55.
