data_PCOD8110776
_publ_section_title
;
Structure prediction by ZEFSAII (Michael W. Deem and Ramdas Pophale) SiO2 
 PCOD8110776
Probable space group: C 2/M
;
_chemical_formula_sum "Si O2"
_cell_formula_units_Z 52
_cell_length_a 15.404619
_cell_length_b 17.116905
_cell_length_c 9.861612
_cell_angle_alpha 90.000000
_cell_angle_beta 102.737751
_cell_angle_gamma 90.000000
_cell_volume 2536.309103
_symmetry_space_group_name_H-M "C 2/M"
_symmetry_group_IT_number 12
_symmetry_cell_setting 'monoclinic'
loop_
_space_group_symop_operation_xyz
x,y,z
-x,y,-z
-x,-y,-z
x,-y,z
1/2+x,1/2+y,z
1/2-x,1/2+y,-z
1/2-x,1/2-y,-z
1/2+x,1/2-y,z
loop_
_atom_site_type_symbol
_atom_site_label
_atom_site_fract_x
_atom_site_fract_y
_atom_site_fract_z
Si Si1 0.973293 0.500000 0.145780
Si Si2 0.838622 0.088806 0.110916
Si Si3 0.612819 0.226902 0.186962
Si Si4 0.500000 0.348924 0.000000
Si Si5 0.148171 0.364306 0.947829
Si Si6 0.412901 0.000000 0.559442
Si Si7 0.598429 0.167834 0.481236
Si Si8 0.683944 0.259608 0.747435
O O1 0.911520 0.425317 0.154982
O O2 0.058895 0.500000 0.272121
O O3 0.000000 0.500000 0.000000
O O4 0.839860 0.148604 0.240019
O O5 0.836732 0.000000 0.166190
O O6 0.749142 0.105191 0.994133
O O7 0.925034 0.097996 0.045560
O O8 0.544868 0.295877 0.130637
O O9 0.591452 0.199435 0.328663
O O10 0.712282 0.258699 0.209659
O O11 0.604086 0.154013 0.079296
O O12 0.140610 0.284736 0.859543
O O13 0.500000 0.000000 0.500000
O O14 0.357853 0.079894 0.507545
O O15 0.500000 0.159369 0.500000
O O16 0.652539 0.228576 0.591138
#
# Coordination Sequence:
#
# PCOD8110776 Si02
#       8
#     4   8   8   4   8   4   8   8
#     4  12  24  34  62  99 134 162 205 262 322 388
#     4  11  22  40  63  94 127 165 213 274 319 373
#     4  11  23  37  65  91 121 166 221 258 311 386
#     4  12  21  38  64  95 128 164 222 267 314 380
#     4  11  21  40  62  94 130 168 207 262 326 379
#     4  10  22  38  54  90 126 165 201 243 318 389
#     4  11  23  40  61  90 127 169 206 262 316 386
#     4  11  22  43  64  89 125 171 216 261 325 379
#
# _framework density 20.502234000000001
#
# number of rings (size 3 to 8) (size 9 to 14) (size 15 to 20)
#    0.000    0.923    3.846    5.308    3.231    0.000 
#    1.385    0.000    0.000    5.077    0.000    0.000 
#    0.000    0.000    0.000    0.000    0.000    0.000 
#
# Total GULP energy -322369.314392 kJ/mol
# GULP energy per Si atom -12398.819784 kJ/mol
# Density = 2.045557 g / cm^3
# Si number density = 20.502234 Si / 1000 Ang^3
#
#
#
# Elastic Constant Matrix: (Units=GPa)
#
#
# Indices 1 2 3 4 5 6 
#
# 1 57.0639 29.4482 15.0285 0.0000 0.6047 0.0000
# 2 29.4482 165.4453 56.6645 0.0000 5.6522 0.0000
# 3 15.0285 56.6645 113.0082 0.0000 -12.2760 0.0000
# 4 0.0000 0.0000 0.0000 30.6219 0.0000 7.4187
# 5 0.6047 5.6522 -12.2760 0.0000 28.0862 0.0000
# 6 0.0000 0.0000 0.0000 7.4187 0.0000 22.5272
#
#
#
# Elastic Compliance Matrix: (Units=1/GPa)
#
#
# Indices 1 2 3 4 5 6 
#
# 1 0.019396 -0.003079 -0.001064 0.000000 -0.000263 0.000000
# 2 -0.003079 0.008075 -0.003999 0.000000 -0.003306 0.000000
# 3 -0.001064 -0.003999 0.011638 0.000000 0.005914 0.000000
# 4 0.000000 0.000000 0.000000 0.035488 0.000000 -0.011687
# 5 -0.000263 -0.003306 0.005914 0.000000 0.038861 0.000000
# 6 0.000000 0.000000 0.000000 -0.011687 0.000000 0.048240
#
#
# Mechanical properties :
#
#
# Convention : Reuss Voigt Hill
#
# Bulk Modulus (GPa) = 43.81066 59.75552 51.78309
# Shear Modulus (GPa) = 26.94131 31.87214 29.40673
#
# Velocity S-wave (km/s) = 3.62894 3.94708 3.79135
# Velocity P-wave (km/s) = 6.24292 7.06977 6.66917
#
# Compressibility (1/GPa) = 0.02282550
#
# Stress axis : x y z
#
# Youngs Moduli (GPa) = 51.55654 123.84238 85.92649
#
# Poissons Ratio (x) = 0.38130 0.09144
# Poissons Ratio (y) = 0.15874 0.34358
# Poissons Ratio (z) = 0.05486 0.49519
#
# Static dielectric constant tensor:
#      x y z
#    x 3.736570 0.000000 0.026890 
#    y 0.000000 4.070870 0.000000 
#    z 0.026890 0.000000 3.055560 
# 
# 
# High freq. dielectric constant tensor:
#      x y z
#    x 1.800910 0.000000 -0.008200 
#    y 0.000000 1.808210 0.000000 
#    z -0.008200 0.000000 1.790950 
# 
# From -- ./inp_files/75351.got.cif
#   From: 2010.06.25/outbox.cif.g09.slc.cpg/sg12_38_cif.got.tgz:75351.got - 2010.06.28 00:19:55.
