data_PCOD8110181
_publ_section_title
;
Structure prediction by ZEFSAII (Michael W. Deem and Ramdas Pophale) SiO2 
 PCOD8110181
Probable space group: C 2/M
;
_chemical_formula_sum "Si O2"
_cell_formula_units_Z 48
_cell_length_a 14.704375
_cell_length_b 24.097700
_cell_length_c 6.768028
_cell_angle_alpha 90.000000
_cell_angle_beta 102.519267
_cell_angle_gamma 90.000000
_cell_volume 2341.172536
_symmetry_space_group_name_H-M "C 2/M"
_symmetry_group_IT_number 12
_symmetry_cell_setting 'monoclinic'
loop_
_space_group_symop_operation_xyz
x,y,z
-x,y,-z
-x,-y,-z
x,-y,z
1/2+x,1/2+y,z
1/2-x,1/2+y,-z
1/2-x,1/2-y,-z
1/2+x,1/2-y,z
loop_
_atom_site_type_symbol
_atom_site_label
_atom_site_fract_x
_atom_site_fract_y
_atom_site_fract_z
Si Si1 0.289081 0.937462 0.694430
Si Si2 0.663576 0.765786 0.323072
Si Si3 0.395378 0.136488 0.452306
Si Si4 0.101906 0.845650 0.132031
Si Si5 0.789998 0.654401 0.000167
Si Si6 0.592968 0.562374 0.438878
O O1 0.329698 0.911175 0.512029
O O2 0.318719 0.901276 0.896689
O O3 0.177155 0.937448 0.634242
O O4 0.327587 0.000000 0.737428
O O5 0.750000 0.750000 0.500000
O O6 0.599718 0.809640 0.406063
O O7 0.604069 0.710571 0.260321
O O8 0.694826 0.791284 0.127502
O O9 0.500000 0.112644 0.500000
O O10 0.356144 0.155638 0.222205
O O11 0.123115 0.898741 0.274906
O O12 0.180968 0.844878 0.002121
O O13 0.000000 0.852761 0.000000
O O14 0.500000 0.585368 0.500000
O O15 0.575504 0.500000 0.349787
#
# Coordination Sequence:
#
# PCOD8110181 Si02
#       6
#     8   8   8   8   8   8
#     4  10  22  42  67  94 127 167 215 268 324 388
#     4  11  24  42  63  90 133 170 212 271 319 381
#     4  11  25  42  66  91 128 173 215 267 330 379
#     4  12  24  37  64  98 126 166 217 260 317 392
#     4  11  23  43  63  92 131 167 211 270 326 379
#     4  10  21  41  63  91 133 170 207 264 325 383
#
# _framework density 20.502545999999999
#
# number of rings (size 3 to 8) (size 9 to 14) (size 15 to 20)
#    0.000    1.167    3.333    2.500    2.333    4.667 
#    0.000    0.833    0.000    0.000    0.000    0.000 
#    0.000    0.000    0.000    0.000    0.000    0.000 
#
# Total GULP energy -297662.038211 kJ/mol
# GULP energy per Si atom -12402.584925 kJ/mol
# Density = 2.045588 g / cm^3
# Si number density = 20.502546 Si / 1000 Ang^3
#
#
#
# Elastic Constant Matrix: (Units=GPa)
#
#
# Indices 1 2 3 4 5 6 
#
# 1 102.1793 12.3395 29.4314 0.0000 -4.7338 0.0000
# 2 12.3395 124.4163 41.7889 0.0000 -8.1912 0.0000
# 3 29.4314 41.7889 110.5935 0.0000 -7.2297 0.0000
# 4 0.0000 0.0000 0.0000 26.8013 0.0000 -0.6551
# 5 -4.7338 -8.1912 -7.2297 0.0000 21.1354 0.0000
# 6 0.0000 0.0000 0.0000 -0.6551 0.0000 21.5223
#
#
#
# Elastic Compliance Matrix: (Units=1/GPa)
#
#
# Indices 1 2 3 4 5 6 
#
# 1 0.010643 -0.000047 -0.002721 0.000000 0.001435 0.000000
# 2 -0.000047 0.009330 -0.003352 0.000000 0.002459 0.000000
# 3 -0.002721 -0.003352 0.011157 0.000000 0.001908 0.000000
# 4 0.000000 0.000000 0.000000 0.037339 0.000000 0.001137
# 5 0.001435 0.002459 0.001908 0.000000 0.049241 0.000000
# 6 0.000000 0.000000 0.000000 0.001137 0.000000 0.046498
#
#
# Mechanical properties :
#
#
# Convention : Reuss Voigt Hill
#
# Bulk Modulus (GPa) = 52.93781 56.03431 54.48606
# Shear Modulus (GPa) = 27.36054 30.80042 29.08048
#
# Velocity S-wave (km/s) = 3.65704 3.88012 3.77023
# Velocity P-wave (km/s) = 6.61121 6.88938 6.75173
#
# Compressibility (1/GPa) = 0.01889009
#
# Stress axis : x y z
#
# Youngs Moduli (GPa) = 93.96277 107.18113 89.62589
#
# Poissons Ratio (x) = 0.00507 0.24383
# Poissons Ratio (y) = 0.00444 0.30044
# Poissons Ratio (z) = 0.25563 0.35928
#
# Static dielectric constant tensor:
#      x y z
#    x 3.638940 0.000000 -0.118000 
#    y 0.000000 3.803630 0.000000 
#    z -0.118000 0.000000 3.936600 
# 
# 
# High freq. dielectric constant tensor:
#      x y z
#    x 1.800210 0.000000 -0.003130 
#    y 0.000000 1.813570 0.000000 
#    z -0.003130 0.000000 1.799680 
# 
# From -- ./inp_files/12383.got.cif
#   From: 2010.06.25/outbox.cif.g09.slc.cpg/sg12_7_cif.got.tgz:12383.got - 2010.06.28 00:19:55.
