data_PCOD8110806
_publ_section_title
;
Structure prediction by ZEFSAII (Michael W. Deem and Ramdas Pophale) SiO2 
 PCOD8110806
Probable space group: C 2/M
;
_chemical_formula_sum "Si O2"
_cell_formula_units_Z 40
_cell_length_a 27.302760
_cell_length_b 8.818487
_cell_length_c 25.862455
_cell_angle_alpha 90.000000
_cell_angle_beta 160.306258
_cell_angle_gamma 90.000000
_cell_volume 2098.410831
_symmetry_space_group_name_H-M "C 2/M"
_symmetry_group_IT_number 12
_symmetry_cell_setting 'monoclinic'
loop_
_space_group_symop_operation_xyz
x,y,z
-x,y,-z
-x,-y,-z
x,-y,z
1/2+x,1/2+y,z
1/2-x,1/2+y,-z
1/2-x,1/2-y,-z
1/2+x,1/2-y,z
loop_
_atom_site_type_symbol
_atom_site_label
_atom_site_fract_x
_atom_site_fract_y
_atom_site_fract_z
Si Si1 0.169394 0.820285 0.371370
Si Si2 0.161494 0.821684 0.958221
Si Si3 0.171962 0.333063 0.666114
Si Si4 0.845946 0.678729 0.239211
Si Si5 0.841850 0.177573 0.450599
O O1 0.250000 0.750000 0.500000
O O2 0.239333 0.764597 0.388065
O O3 0.003356 0.763507 0.207372
O O4 0.180734 0.000000 0.385762
O O5 0.168883 0.000000 0.958865
O O6 0.250000 0.750000 0.000000
O O7 0.231392 0.771463 0.082064
O O8 0.234782 0.500000 0.714633
O O9 0.227218 0.279911 0.777825
O O10 0.214997 0.216109 0.663830
O O11 0.000000 0.343500 0.500000
O O12 0.883573 0.500000 0.274602
O O13 0.993314 0.770896 0.376442
O O14 0.829897 0.000000 0.448461
#
# Coordination Sequence:
#
# PCOD8110806 Si02
#       5
#     8   8   8   8   8
#     4  11  23  39  57  79 107 140 178 218 264 317
#     4  10  22  38  57  80 105 136 175 219 267 318
#     4   8  15  30  53  78 105 140 179 218 261 309
#     4   9  18  35  57  80 107 140 179 222 266 312
#     4  11  21  33  53  82 112 143 178 216 261 312
#
# _framework density 19.062042999999999
#
# number of rings (size 3 to 8) (size 9 to 14) (size 15 to 20)
#    0.000    2.200    0.000    4.800    0.000    9.200 
#    0.000    1.000    0.000    6.000    0.000    0.000 
#    0.000    0.000    0.000    0.000    0.000    0.000 
#
# Total GULP energy -247975.099360 kJ/mol
# GULP energy per Si atom -12398.754968 kJ/mol
# Density = 1.901866 g / cm^3
# Si number density = 19.062043 Si / 1000 Ang^3
#
#
#
# Elastic Constant Matrix: (Units=GPa)
#
#
# Indices 1 2 3 4 5 6 
#
# 1 157.8404 39.5656 80.6660 0.0001 -16.6868 0.0000
# 2 39.5656 63.4208 38.1835 0.0040 -0.3968 0.0008
# 3 80.6660 38.1835 121.2576 0.0047 -13.9541 0.0012
# 4 0.0001 0.0040 0.0047 22.5591 0.0012 -1.2152
# 5 -16.6868 -0.3968 -13.9541 0.0012 36.1232 0.0000
# 6 0.0000 0.0008 0.0012 -1.2152 0.0000 35.0949
#
#
#
# Elastic Compliance Matrix: (Units=1/GPa)
#
#
# Indices 1 2 3 4 5 6 
#
# 1 0.010188 -0.003005 -0.005540 0.000002 0.002533 0.000000
# 2 -0.003005 0.020519 -0.004810 -0.000002 -0.003021 0.000000
# 3 -0.005540 -0.004810 0.013758 -0.000002 0.002703 0.000000
# 4 0.000002 -0.000002 -0.000002 0.044411 -0.000002 0.001538
# 5 0.002533 -0.003021 0.002703 -0.000002 0.029864 0.000000
# 6 0.000000 0.000000 0.000000 0.001538 0.000000 0.028547
#
#
# Mechanical properties :
#
#
# Convention : Reuss Voigt Hill
#
# Bulk Modulus (GPa) = 56.31943 73.26099 64.79021
# Shear Modulus (GPa) = 27.79097 31.02902 29.41000
#
# Velocity S-wave (km/s) = 3.82242 4.03897 3.93218
# Velocity P-wave (km/s) = 7.00647 7.76320 7.39452
#
# Compressibility (1/GPa) = 0.01775586
#
# Stress axis : x y z
#
# Youngs Moduli (GPa) = 98.15937 48.73450 72.68575
#
# Poissons Ratio (x) = 0.14642 0.40265
# Poissons Ratio (y) = 0.29492 0.34964
# Poissons Ratio (z) = 0.54376 0.23443
#
# Static dielectric constant tensor:
#      x y z
#    x 4.010550 0.000000 -0.361860 
#    y 0.000000 3.388760 0.000000 
#    z -0.361860 0.000000 3.629460 
# 
# 
# High freq. dielectric constant tensor:
#      x y z
#    x 1.760560 0.000000 -0.015610 
#    y 0.000000 1.734030 0.000000 
#    z -0.015610 0.000000 1.720750 
# 
# From -- ./inp_files/93032.got.cif
#   From: 2010.06.25/outbox.cif.g09.slc.cpg/sg12_47_cif.got.tgz:93032.got - 2010.06.28 00:19:55.
