data_PCOD8110314
_publ_section_title
;
Structure prediction by ZEFSAII (Michael W. Deem and Ramdas Pophale) SiO2 
 PCOD8110314
Probable space group: C 2/M
;
_chemical_formula_sum "Si O2"
_cell_formula_units_Z 56
_cell_length_a 9.056583
_cell_length_b 19.298955
_cell_length_c 31.110843
_cell_angle_alpha 90.000000
_cell_angle_beta 30.593936
_cell_angle_gamma 90.000000
_cell_volume 2767.485356
_symmetry_space_group_name_H-M "C 2/M"
_symmetry_group_IT_number 12
_symmetry_cell_setting 'monoclinic'
loop_
_space_group_symop_operation_xyz
x,y,z
-x,y,-z
-x,-y,-z
x,-y,z
1/2+x,1/2+y,z
1/2-x,1/2+y,-z
1/2-x,1/2-y,-z
1/2+x,1/2-y,z
loop_
_atom_site_type_symbol
_atom_site_label
_atom_site_fract_x
_atom_site_fract_y
_atom_site_fract_z
Si Si1 0.648756 0.161814 0.922894
Si Si2 0.944689 0.078869 0.463831
Si Si3 0.332351 0.579905 0.234440
Si Si4 0.823967 0.186158 0.733748
Si Si5 0.173018 0.699796 0.078861
Si Si6 0.105828 0.325991 0.694975
Si Si7 0.289419 0.921457 0.638299
O O1 0.827134 0.222512 0.902205
O O2 0.418429 0.196598 0.948182
O O3 0.843793 0.109586 0.847033
O O4 0.500000 0.120543 0.000000
O O5 0.605315 0.089487 0.538605
O O6 0.000000 0.088961 0.500000
O O7 0.109197 0.139269 0.397141
O O8 0.041345 0.000000 0.426277
O O9 0.340403 0.500000 0.221327
O O10 0.190834 0.596413 0.315989
O O11 0.147417 0.617038 0.243848
O O12 0.579955 0.163212 0.829733
O O13 0.660505 0.195330 0.729957
O O14 0.000167 0.256612 0.697968
O O15 0.058849 0.125310 0.671388
O O16 0.500000 0.667159 0.000000
O O17 0.182862 0.000000 0.659156
#
# Coordination Sequence:
#
# PCOD8110314 Si02
#       7
#     8   8   8   8   8   8   8
#     4  11  22  37  64  93 124 162 208 260 315 379
#     4  10  21  41  68  93 125 168 214 256 308 378
#     4  11  22  40  65  91 125 169 211 257 314 378
#     4  12  25  42  66  95 127 167 208 266 316 371
#     4  11  22  38  63  94 125 164 208 256 315 369
#     4  12  25  40  64  95 128 162 216 261 314 370
#     4  10  22  43  67  91 126 171 210 253 315 380
#
# _framework density 20.234977000000001
#
# number of rings (size 3 to 8) (size 9 to 14) (size 15 to 20)
#    0.000    1.000    4.286    3.857    2.000    2.571 
#    0.000    1.429    0.000    0.857    0.000    0.000 
#    0.000    0.000    0.000    0.000    0.000    0.000 
#
# Total GULP energy -347121.683394 kJ/mol
# GULP energy per Si atom -12397.202978 kJ/mol
# Density = 2.018892 g / cm^3
# Si number density = 20.234977 Si / 1000 Ang^3
#
#
#
# Elastic Constant Matrix: (Units=GPa)
#
#
# Indices 1 2 3 4 5 6 
#
# 1 116.5369 52.8541 23.4072 0.0689 0.4600 -0.0562
# 2 52.8541 92.0290 41.6814 0.0446 -10.5976 -0.0241
# 3 23.4072 41.6814 111.4275 0.3595 -8.2533 -0.0991
# 4 0.0689 0.0446 0.3595 27.9072 0.0080 -3.9246
# 5 0.4600 -10.5976 -8.2533 0.0080 30.9152 -0.0100
# 6 -0.0562 -0.0241 -0.0991 -3.9246 -0.0100 29.5324
#
#
#
# Elastic Compliance Matrix: (Units=1/GPa)
#
#
# Indices 1 2 3 4 5 6 
#
# 1 0.011801 -0.007064 -0.000029 -0.000015 -0.002605 0.000014
# 2 -0.007064 0.017638 -0.004752 0.000048 0.004883 -0.000007
# 3 -0.000029 -0.004752 0.010853 -0.000130 0.001269 0.000016
# 4 -0.000015 0.000048 -0.000130 0.036517 -0.000026 0.004852
# 5 -0.002605 0.004883 0.001269 -0.000026 0.034398 0.000011
# 6 0.000014 -0.000007 0.000016 0.004852 0.000011 0.034506
#
#
# Mechanical properties :
#
#
# Convention : Reuss Voigt Hill
#
# Bulk Modulus (GPa) = 60.24179 61.76430 61.00305
# Shear Modulus (GPa) = 28.58158 31.14100 29.86129
#
# Velocity S-wave (km/s) = 3.76238 3.92723 3.84569
# Velocity P-wave (km/s) = 6.97924 7.15220 7.06625
#
# Compressibility (1/GPa) = 0.01659977
#
# Stress axis : x y z
#
# Youngs Moduli (GPa) = 84.73796 56.69606 92.14281
#
# Poissons Ratio (x) = 0.40052 0.00271
# Poissons Ratio (y) = 0.59861 0.43789
# Poissons Ratio (z) = 0.00249 0.26944
#
# Static dielectric constant tensor:
#      x y z
#    x 3.650080 0.000030 -0.063670 
#    y 0.000030 3.543100 -0.000070 
#    z -0.063670 -0.000070 4.138800 
# 
# 
# High freq. dielectric constant tensor:
#      x y z
#    x 1.794450 0.000010 -0.008730 
#    y 0.000010 1.771170 -0.000020 
#    z -0.008730 -0.000020 1.803070 
# 
# From -- ./inp_files/258247.got.cif
#   From: 2010.06.25/outbox.cif.g09.slc.cpg/sg12_130_cif.got.tgz:258247.got - 2010.06.28 00:19:55.
