data_PCOD8110628
_publ_section_title
;
Structure prediction by ZEFSAII (Michael W. Deem and Ramdas Pophale) SiO2 
 PCOD8110628
Probable space group: C 2/M
;
_chemical_formula_sum "Si O2"
_cell_formula_units_Z 64
_cell_length_a 19.402823
_cell_length_b 23.409622
_cell_length_c 16.164737
_cell_angle_alpha 90.000000
_cell_angle_beta 25.225889
_cell_angle_gamma 90.000000
_cell_volume 3129.170863
_symmetry_space_group_name_H-M "C 2/M"
_symmetry_group_IT_number 12
_symmetry_cell_setting 'monoclinic'
loop_
_space_group_symop_operation_xyz
x,y,z
-x,y,-z
-x,-y,-z
x,-y,z
1/2+x,1/2+y,z
1/2-x,1/2+y,-z
1/2-x,1/2-y,-z
1/2+x,1/2-y,z
loop_
_atom_site_type_symbol
_atom_site_label
_atom_site_fract_x
_atom_site_fract_y
_atom_site_fract_z
Si Si1 0.141281 0.864490 0.024784
Si Si2 0.396419 0.564419 0.195771
Si Si3 0.828201 0.642120 0.654044
Si Si4 0.213334 0.256208 0.416309
Si Si5 0.518456 0.243479 0.182917
Si Si6 0.736359 0.132803 0.943174
Si Si7 0.832571 0.566827 0.139547
Si Si8 0.424423 0.646690 0.500894
O O1 0.269016 0.889405 0.954618
O O2 0.985845 0.905109 0.176672
O O3 0.106765 0.803121 0.105589
O O4 0.214088 0.855025 0.856438
O O5 0.353168 0.500000 0.270552
O O6 0.233232 0.598828 0.350589
O O7 0.500000 0.562959 0.000000
O O8 0.831785 0.705434 0.613090
O O9 0.000000 0.620747 0.500000
O O10 0.403718 0.259502 0.229703
O O11 0.096871 0.276611 0.617077
O O12 0.190288 0.190181 0.421319
O O13 0.650149 0.194313 0.022084
O O14 0.654154 0.088744 0.969444
O O15 0.929086 0.130732 0.717988
O O16 0.803518 0.500000 0.169925
O O17 0.682608 0.592822 0.353615
O O18 0.000000 0.584148 0.000000
O O19 0.500000 0.676629 0.500000
#
# Coordination Sequence:
#
# PCOD8110628 Si02
#       8
#     8   8   8   8   8   8   8   8
#     4  11  22  40  60  91 125 164 211 258 321 384
#     4   9  20  41  61  83 117 160 207 256 308 375
#     4  11  23  36  62  93 124 165 214 265 319 384
#     4  11  22  38  58  89 132 165 214 262 327 393
#     4  11  23  37  59  88 130 170 205 271 328 384
#     4  11  23  38  62  92 128 166 211 264 332 383
#     4  10  23  45  68  93 128 173 223 270 317 385
#     4  10  22  36  58  89 121 163 205 254 312 385
#
# _framework density 20.452703
#
# number of rings (size 3 to 8) (size 9 to 14) (size 15 to 20)
#    0.000    1.500    2.500    2.250    5.250    3.000 
#    0.000    0.000    0.000    5.250    0.000    0.000 
#    0.000    0.000    0.000    0.000    0.000    0.000 
#
# Total GULP energy -396630.154752 kJ/mol
# GULP energy per Si atom -12394.692336 kJ/mol
# Density = 2.040615 g / cm^3
# Si number density = 20.452703 Si / 1000 Ang^3
#
#
#
# Elastic Constant Matrix: (Units=GPa)
#
#
# Indices 1 2 3 4 5 6 
#
# 1 127.9497 53.3256 37.5135 0.0002 -16.1800 -0.0450
# 2 53.3256 99.7343 37.5019 -0.0308 -12.1718 -0.0051
# 3 37.5135 37.5019 70.2552 -0.0545 -11.2082 0.0334
# 4 0.0002 -0.0308 -0.0545 20.3749 0.0219 -4.6096
# 5 -16.1800 -12.1718 -11.2082 0.0219 32.3961 -0.0046
# 6 -0.0450 -0.0051 0.0334 -4.6096 -0.0046 21.3297
#
#
#
# Elastic Compliance Matrix: (Units=1/GPa)
#
#
# Indices 1 2 3 4 5 6 
#
# 1 0.010859 -0.004324 -0.003053 -0.000012 0.002743 0.000025
# 2 -0.004324 0.014466 -0.005176 0.000007 0.001485 0.000004
# 3 -0.003053 -0.005176 0.019129 0.000033 0.003149 -0.000030
# 4 -0.000012 0.000007 0.000033 0.051603 -0.000025 0.011152
# 5 0.002743 0.001485 0.003149 -0.000025 0.033885 0.000003
# 6 0.000025 0.000004 -0.000030 0.011152 0.000003 0.049293
#
#
# Mechanical properties :
#
#
# Convention : Reuss Voigt Hill
#
# Bulk Modulus (GPa) = 51.68227 61.62459 56.65343
# Shear Modulus (GPa) = 23.72008 26.12670 24.92339
#
# Velocity S-wave (km/s) = 3.40921 3.57798 3.49461
# Velocity P-wave (km/s) = 6.38913 6.87495 6.63649
#
# Compressibility (1/GPa) = 0.01934899
#
# Stress axis : x y z
#
# Youngs Moduli (GPa) = 92.08531 69.12773 52.27530
#
# Poissons Ratio (x) = 0.29888 0.15960
# Poissons Ratio (y) = 0.39814 0.27060
# Poissons Ratio (z) = 0.28114 0.35783
#
# Static dielectric constant tensor:
#      x y z
#    x 4.078290 -0.000150 -0.137210 
#    y -0.000150 3.572190 0.000240 
#    z -0.137210 0.000240 3.678190 
# 
# 
# High freq. dielectric constant tensor:
#      x y z
#    x 1.823340 -0.000010 -0.009140 
#    y -0.000010 1.782170 0.000030 
#    z -0.009140 0.000030 1.785130 
# 
# From -- ./inp_files/228119.got.cif
#   From: 2010.06.25/outbox.cif.g09.slc.cpg/sg12_115_cif.got.tgz:228119.got - 2010.06.28 00:19:55.
