data_PCOD8110889
_publ_section_title
;
Structure prediction by ZEFSAII (Michael W. Deem and Ramdas Pophale) SiO2 
 PCOD8110889
Probable space group: C 2/M
;
_chemical_formula_sum "Si O2"
_cell_formula_units_Z 48
_cell_length_a 9.302612
_cell_length_b 29.502475
_cell_length_c 8.669292
_cell_angle_alpha 90.000000
_cell_angle_beta 89.894572
_cell_angle_gamma 90.000000
_cell_volume 2379.283837
_symmetry_space_group_name_H-M "C 2/M"
_symmetry_group_IT_number 12
_symmetry_cell_setting 'monoclinic'
loop_
_space_group_symop_operation_xyz
x,y,z
-x,y,-z
-x,-y,-z
x,-y,z
1/2+x,1/2+y,z
1/2-x,1/2+y,-z
1/2-x,1/2-y,-z
1/2+x,1/2-y,z
loop_
_atom_site_type_symbol
_atom_site_label
_atom_site_fract_x
_atom_site_fract_y
_atom_site_fract_z
Si Si1 0.096171 0.947871 0.770308
Si Si2 0.592736 0.120306 0.733393
Si Si3 0.784035 0.378437 0.604296
Si Si4 0.288455 0.448110 0.892934
Si Si5 0.270189 0.223055 0.657252
Si Si6 0.557625 0.218428 0.830541
O O1 0.162654 0.915664 0.639643
O O2 0.927952 0.936423 0.789346
O O3 0.116624 0.000000 0.719176
O O4 0.177182 0.938372 0.929745
O O5 0.678039 0.118796 0.574165
O O6 0.423896 0.111826 0.708556
O O7 0.652467 0.081637 0.844960
O O8 0.621578 0.167945 0.818444
O O9 0.719691 0.328817 0.639417
O O10 0.244406 0.500000 0.868255
O O11 0.250000 0.250000 0.500000
O O12 0.437569 0.224307 0.699440
O O13 0.181267 0.245207 0.796424
O O14 0.500000 0.228472 0.000000
#
# Coordination Sequence:
#
# PCOD8110889 Si02
#       6
#     8   8   8   8   8   8
#     4   9  20  40  62  88 123 157 198 249 297 355
#     4  10  22  38  60  87 122 156 198 246 300 358
#     4  10  22  39  59  88 119 161 200 243 299 358
#     4   9  20  39  61  88 122 159 197 245 302 355
#     4  11  22  43  63  86 125 165 202 247 310 367
#     4  11  24  41  63  90 122 158 205 258 303 359
#
# _framework density 20.174137999999999
#
# number of rings (size 3 to 8) (size 9 to 14) (size 15 to 20)
#    0.000    2.000    1.667    2.000    4.667    3.333 
#    6.000    5.000    0.000    0.000    0.000    0.000 
#    0.000    0.000    0.000    0.000    0.000    0.000 
#
# Total GULP energy -297706.504064 kJ/mol
# GULP energy per Si atom -12404.437669 kJ/mol
# Density = 2.012822 g / cm^3
# Si number density = 20.174138 Si / 1000 Ang^3
#
#
#
# Elastic Constant Matrix: (Units=GPa)
#
#
# Indices 1 2 3 4 5 6 
#
# 1 54.7139 49.9855 21.8677 0.0000 -4.8947 0.0000
# 2 49.9855 120.2254 38.3046 0.0000 -6.4404 0.0000
# 3 21.8677 38.3046 71.9888 0.0000 -10.4183 0.0000
# 4 0.0000 0.0000 0.0000 37.1007 0.0000 -3.1202
# 5 -4.8947 -6.4404 -10.4183 0.0000 38.8344 0.0000
# 6 0.0000 0.0000 0.0000 -3.1202 0.0000 43.2031
#
#
#
# Elastic Compliance Matrix: (Units=1/GPa)
#
#
# Indices 1 2 3 4 5 6 
#
# 1 0.030039 -0.011528 -0.002830 0.000000 0.001115 0.000000
# 2 -0.011528 0.014442 -0.004210 0.000000 -0.000187 0.000000
# 3 -0.002830 -0.004210 0.017518 0.000000 0.003645 0.000000
# 4 0.000000 0.000000 0.000000 0.027118 0.000000 0.001959
# 5 0.001115 -0.000187 0.003645 0.000000 0.026838 0.000000
# 6 0.000000 0.000000 0.000000 0.001959 0.000000 0.023288
#
#
# Mechanical properties :
#
#
# Convention : Reuss Voigt Hill
#
# Bulk Modulus (GPa) = 40.21770 51.91598 46.06684
# Shear Modulus (GPa) = 27.07592 32.94566 30.01079
#
# Velocity S-wave (km/s) = 3.66746 4.04550 3.86111
# Velocity P-wave (km/s) = 6.15729 6.90009 6.53925
#
# Compressibility (1/GPa) = 0.02486468
#
# Stress axis : x y z
#
# Youngs Moduli (GPa) = 33.28968 69.24307 57.08422
#
# Poissons Ratio (x) = 0.79824 0.16152
# Poissons Ratio (y) = 0.38377 0.24031
# Poissons Ratio (z) = 0.09419 0.29149
#
# Static dielectric constant tensor:
#      x y z
#    x 3.644850 0.000000 -0.019320 
#    y 0.000000 3.678540 0.000000 
#    z -0.019320 0.000000 3.522590 
# 
# 
# High freq. dielectric constant tensor:
#      x y z
#    x 1.783480 0.000000 -0.003480 
#    y 0.000000 1.791660 0.000000 
#    z -0.003480 0.000000 1.790160 
# 
# From -- ./inp_files/42176.got.cif
#   From: 2010.06.25/outbox.cif.g09.slc.cpg/sg12_22_cif.got.tgz:42176.got - 2010.06.28 00:19:55.
