data_PCOD8110434
_publ_section_title
;
Structure prediction by ZEFSAII (Michael W. Deem and Ramdas Pophale) SiO2 
 PCOD8110434
Probable space group: C 2/M
;
_chemical_formula_sum "Si O2"
_cell_formula_units_Z 56
_cell_length_a 17.145511
_cell_length_b 19.115915
_cell_length_c 8.405109
_cell_angle_alpha 90.000000
_cell_angle_beta 70.426538
_cell_angle_gamma 90.000000
_cell_volume 2595.600439
_symmetry_space_group_name_H-M "C 2/M"
_symmetry_group_IT_number 12
_symmetry_cell_setting 'monoclinic'
loop_
_space_group_symop_operation_xyz
x,y,z
-x,y,-z
-x,-y,-z
x,-y,z
1/2+x,1/2+y,z
1/2-x,1/2+y,-z
1/2-x,1/2-y,-z
1/2+x,1/2-y,z
loop_
_atom_site_type_symbol
_atom_site_label
_atom_site_fract_x
_atom_site_fract_y
_atom_site_fract_z
Si Si1 0.105059 0.076319 0.030206
Si Si2 0.083232 0.417953 0.845755
Si Si3 0.738070 0.137967 0.941445
Si Si4 0.067517 0.693329 0.591480
Si Si5 0.042013 0.923114 0.622007
Si Si6 0.288107 0.227128 0.741227
Si Si7 0.886615 0.814526 0.242414
O O1 0.193553 0.080169 0.059310
O O2 0.027065 0.074790 0.196630
O O3 0.106542 0.000000 0.938450
O O4 0.087946 0.144760 0.935301
O O5 0.090038 0.500000 0.804958
O O6 0.163822 0.394074 0.889311
O O7 0.078431 0.379299 0.678508
O O8 0.000000 0.400366 0.000000
O O9 0.792408 0.195594 0.811172
O O10 0.697303 0.170297 0.129361
O O11 0.150188 0.715507 0.444820
O O12 0.049101 0.754610 0.736865
O O13 0.000000 0.685625 0.500000
O O14 0.119390 0.875432 0.620005
O O15 0.000000 0.886708 0.500000
O O16 0.075719 0.000000 0.554564
O O17 0.199101 0.222853 0.722081
#
# Coordination Sequence:
#
# PCOD8110434 Si02
#       7
#     8   8   8   8   8   8   8
#     4  10  22  39  63  93 131 171 209 250 309 386
#     4  11  25  45  68  94 128 172 222 272 325 385
#     4  10  21  42  69  94 128 166 209 262 324 382
#     4  12  26  43  67  96 129 165 217 269 330 378
#     4  10  22  38  57  90 131 168 206 252 305 375
#     4  10  23  42  65  98 130 159 207 273 319 380
#     4  11  22  38  61  90 127 168 207 260 312 375
#
# _framework density 21.574968999999999
#
# number of rings (size 3 to 8) (size 9 to 14) (size 15 to 20)
#    0.000    1.429    1.429    3.000    4.000    2.571 
#    2.571    5.714    0.000    0.000    0.000    0.000 
#    0.000    0.000    0.000    0.000    0.000    0.000 
#
# Total GULP energy -346957.060847 kJ/mol
# GULP energy per Si atom -12391.323602 kJ/mol
# Density = 2.152586 g / cm^3
# Si number density = 21.574969 Si / 1000 Ang^3
#
#
#
# Elastic Constant Matrix: (Units=GPa)
#
#
# Indices 1 2 3 4 5 6 
#
# 1 94.2573 39.5696 23.7986 0.0000 36.1445 0.0000
# 2 39.5696 123.8700 45.6756 0.0000 14.1362 0.0000
# 3 23.7986 45.6756 85.3927 0.0000 14.0281 0.0000
# 4 0.0000 0.0000 0.0000 29.5785 0.0000 10.6328
# 5 36.1445 14.1362 14.0281 0.0000 40.1710 0.0000
# 6 0.0000 0.0000 0.0000 10.6328 0.0000 23.4727
#
#
#
# Elastic Compliance Matrix: (Units=1/GPa)
#
#
# Indices 1 2 3 4 5 6 
#
# 1 0.017981 -0.003878 -0.000534 0.000000 -0.014628 0.000000
# 2 -0.003878 0.011012 -0.005035 0.000000 0.001372 0.000000
# 3 -0.000534 -0.005035 0.015046 0.000000 -0.003002 0.000000
# 4 0.000000 0.000000 0.000000 0.040385 0.000000 -0.018294
# 5 -0.014628 0.001372 -0.003002 0.000000 0.038621 0.000000
# 6 0.000000 0.000000 0.000000 -0.018294 0.000000 0.050889
#
#
# Mechanical properties :
#
#
# Convention : Reuss Voigt Hill
#
# Bulk Modulus (GPa) = 39.76879 57.95641 48.86260
# Shear Modulus (GPa) = 24.84994 31.60952 28.22973
#
# Velocity S-wave (km/s) = 3.39749 3.83182 3.62117
# Velocity P-wave (km/s) = 5.81923 6.81896 6.33884
#
# Compressibility (1/GPa) = 0.02514534
#
# Stress axis : x y z
#
# Youngs Moduli (GPa) = 55.61339 90.81351 66.46466
#
# Poissons Ratio (x) = 0.35215 0.03550
# Poissons Ratio (y) = 0.21565 0.33463
# Poissons Ratio (z) = 0.02970 0.45722
#
# Static dielectric constant tensor:
#      x y z
#    x 4.646960 0.000000 -0.435800 
#    y 0.000000 4.416190 0.000000 
#    z -0.435800 0.000000 4.915240 
# 
# 
# High freq. dielectric constant tensor:
#      x y z
#    x 1.855630 0.000000 0.026980 
#    y 0.000000 1.856440 0.000000 
#    z 0.026980 0.000000 1.840890 
# 
# From -- ./inp_files/75870.got.cif
#   From: 2010.06.25/outbox.cif.g09.slc.cpg/sg12_38_cif.got.tgz:75870.got - 2010.06.28 00:19:55.
