data_PCOD8110714
_publ_section_title
;
Structure prediction by ZEFSAII (Michael W. Deem and Ramdas Pophale) SiO2 
 PCOD8110714
Probable space group: C 2/M
;
_chemical_formula_sum "Si O2"
_cell_formula_units_Z 56
_cell_length_a 22.824131
_cell_length_b 25.021638
_cell_length_c 13.774268
_cell_angle_alpha 90.000000
_cell_angle_beta 22.348209
_cell_angle_gamma 90.000000
_cell_volume 2991.093838
_symmetry_space_group_name_H-M "C 2/M"
_symmetry_group_IT_number 12
_symmetry_cell_setting 'monoclinic'
loop_
_space_group_symop_operation_xyz
x,y,z
-x,y,-z
-x,-y,-z
x,-y,z
1/2+x,1/2+y,z
1/2-x,1/2+y,-z
1/2-x,1/2-y,-z
1/2+x,1/2-y,z
loop_
_atom_site_type_symbol
_atom_site_label
_atom_site_fract_x
_atom_site_fract_y
_atom_site_fract_z
Si Si1 0.395073 0.437889 0.070027
Si Si2 0.629770 0.125051 0.545591
Si Si3 0.355668 0.707747 0.283274
Si Si4 0.360632 0.940372 0.282286
Si Si5 0.578811 0.373646 0.654058
Si Si6 0.578893 0.185611 0.275703
Si Si7 0.560044 0.691604 0.300139
O O1 0.411377 0.500000 0.039959
O O2 0.218461 0.421360 0.352271
O O3 0.500000 0.415731 0.000000
O O4 0.447233 0.415221 0.886297
O O5 0.745822 0.174616 0.380215
O O6 0.578892 0.097330 0.723692
O O7 0.482943 0.145075 0.710972
O O8 0.250000 0.750000 0.500000
O O9 0.429355 0.671654 0.252553
O O10 0.500000 0.732759 0.000000
O O11 0.236235 0.907095 0.411621
O O12 0.298676 0.000000 0.411350
O O13 0.500000 0.952133 0.000000
O O14 0.548460 0.346366 0.597635
O O15 0.500000 0.171946 0.500000
O O16 0.535550 0.246120 0.312010
O O17 0.762499 0.176984 0.993810
O O18 0.500000 0.680188 0.500000
#
# Coordination Sequence:
#
# PCOD8110714 Si02
#       7
#     8   8   8   8   8   8   8
#     4  11  19  34  62  89 114 146 194 240 295 357
#     4  11  20  37  60  87 114 152 196 246 299 352
#     4  11  22  36  54  87 124 156 189 247 305 363
#     4  10  22  37  58  89 121 152 189 242 308 368
#     4  11  20  38  61  84 114 155 200 241 294 358
#     4  10  22  40  61  85 118 158 201 247 289 342
#     4  10  23  41  60  85 116 163 207 238 286 352
#
# _framework density 18.722248
#
# number of rings (size 3 to 8) (size 9 to 14) (size 15 to 20)
#    0.000    1.429    4.286    2.571    2.000    2.286 
#    5.143    0.000    0.000   11.143    0.000    0.000 
#    0.000    0.000    0.000    0.000    0.000    0.000 
#
# Total GULP energy -347045.880473 kJ/mol
# GULP energy per Si atom -12394.495731 kJ/mol
# Density = 1.867964 g / cm^3
# Si number density = 18.722248 Si / 1000 Ang^3
#
#
#
# Elastic Constant Matrix: (Units=GPa)
#
#
# Indices 1 2 3 4 5 6 
#
# 1 100.4933 55.3619 37.7496 0.0014 -5.7239 0.0055
# 2 55.3619 91.1756 40.1779 -0.0320 -1.7135 -0.0091
# 3 37.7496 40.1779 105.3391 -0.0110 15.1071 0.0241
# 4 0.0014 -0.0320 -0.0110 28.8248 0.0013 1.3862
# 5 -5.7239 -1.7135 15.1071 0.0013 25.6886 0.0025
# 6 0.0055 -0.0091 0.0241 1.3862 0.0025 27.1820
#
#
#
# Elastic Compliance Matrix: (Units=1/GPa)
#
#
# Indices 1 2 3 4 5 6 
#
# 1 0.015967 -0.008133 -0.003334 -0.000011 0.004976 -0.000003
# 2 -0.008133 0.017752 -0.004113 0.000018 0.001791 0.000010
# 3 -0.003334 -0.004113 0.013545 0.000002 -0.008983 -0.000012
# 4 -0.000011 0.000018 0.000002 0.034778 -0.000004 -0.001774
# 5 0.004976 0.001791 -0.008983 -0.000004 0.045439 0.000004
# 6 -0.000003 0.000010 -0.000012 -0.001774 0.000004 0.036880
#
#
# Mechanical properties :
#
#
# Convention : Reuss Voigt Hill
#
# Bulk Modulus (GPa) = 62.09317 62.62076 62.35696
# Shear Modulus (GPa) = 24.88959 27.25367 26.07163
#
# Velocity S-wave (km/s) = 3.65007 3.81948 3.73573
# Velocity P-wave (km/s) = 7.14153 7.27812 7.21015
#
# Compressibility (1/GPa) = 0.01610483
#
# Stress axis : x y z
#
# Youngs Moduli (GPa) = 62.63003 56.33095 73.82803
#
# Poissons Ratio (x) = 0.45811 0.24611
# Poissons Ratio (y) = 0.50934 0.30369
# Poissons Ratio (z) = 0.20878 0.23171
#
# Static dielectric constant tensor:
#      x y z
#    x 3.468490 -0.001110 0.037100 
#    y -0.001110 4.381870 0.000120 
#    z 0.037100 0.000120 3.443770 
# 
# 
# High freq. dielectric constant tensor:
#      x y z
#    x 1.703960 0.000000 0.012640 
#    y 0.000000 1.730940 0.000010 
#    z 0.012640 0.000010 1.735430 
# 
# From -- ./inp_files/242142.got.cif
#   From: 2010.06.25/outbox.cif.g09.slc.cpg/sg12_122_cif.got.tgz:242142.got - 2010.06.28 00:19:55.
