data_PCOD8110499
_publ_section_title
;
Structure prediction by ZEFSAII (Michael W. Deem and Ramdas Pophale) SiO2 
 PCOD8110499
Probable space group: C 2/M
;
_chemical_formula_sum "Si O2"
_cell_formula_units_Z 48
_cell_length_a 9.184779
_cell_length_b 29.153292
_cell_length_c 17.137447
_cell_angle_alpha 90.000000
_cell_angle_beta 149.861124
_cell_angle_gamma 90.000000
_cell_volume 2304.043199
_symmetry_space_group_name_H-M "C 2/M"
_symmetry_group_IT_number 12
_symmetry_cell_setting 'monoclinic'
loop_
_space_group_symop_operation_xyz
x,y,z
-x,y,-z
-x,-y,-z
x,-y,z
1/2+x,1/2+y,z
1/2-x,1/2+y,-z
1/2-x,1/2-y,-z
1/2+x,1/2-y,z
loop_
_atom_site_type_symbol
_atom_site_label
_atom_site_fract_x
_atom_site_fract_y
_atom_site_fract_z
Si Si1 0.224655 0.308393 0.412369
Si Si2 0.446990 0.052045 0.704035
Si Si3 0.488662 0.446871 0.360473
Si Si4 0.844357 0.124907 0.159760
Si Si5 0.166391 0.869773 0.149082
Si Si6 0.180347 0.208795 0.372481
O O1 0.500000 0.334742 0.500000
O O2 0.140877 0.261792 0.325449
O O3 0.367534 0.292237 0.558242
O O4 0.947281 0.339556 0.299357
O O5 0.283493 0.061248 0.709395
O O6 0.734215 0.081735 0.838992
O O7 0.266549 0.064839 0.542324
O O8 0.543519 0.000000 0.743480
O O9 0.497190 0.500000 0.335321
O O10 0.479709 0.412730 0.282009
O O11 0.965172 0.118248 0.128908
O O12 0.932974 0.176713 0.221727
O O13 0.500000 0.119752 0.000000
O O14 0.000000 0.845002 0.000000
O O15 0.500000 0.189816 0.500000
#
# Coordination Sequence:
#
# PCOD8110499 Si02
#       6
#     8   8   8   8   8   8
#     4  10  23  40  69  93 120 161 204 258 309 367
#     4   9  20  40  66  95 124 159 205 255 304 367
#     4   9  20  40  67  95 123 160 206 253 308 366
#     4  12  26  41  61  91 131 168 204 256 309 364
#     4  12  26  41  60  94 128 166 209 251 312 371
#     4  10  21  44  65  93 122 156 210 258 306 364
#
# _framework density 20.832941999999999
#
# number of rings (size 3 to 8) (size 9 to 14) (size 15 to 20)
#    0.000    1.667    1.667    3.000    7.000    2.000 
#    0.000    3.333    0.000    0.000    0.000    0.000 
#    0.000    0.000    0.000    0.000    0.000    0.000 
#
# Total GULP energy -297432.506660 kJ/mol
# GULP energy per Si atom -12393.021111 kJ/mol
# Density = 2.078553 g / cm^3
# Si number density = 20.832942 Si / 1000 Ang^3
#
#
#
# Elastic Constant Matrix: (Units=GPa)
#
#
# Indices 1 2 3 4 5 6 
#
# 1 119.9722 31.0661 30.3147 0.0000 2.7769 0.0000
# 2 31.0661 81.6032 24.9273 0.0000 2.3913 0.0000
# 3 30.3147 24.9273 57.3091 0.0000 6.7422 0.0000
# 4 0.0000 0.0000 0.0000 15.3618 0.0000 4.2703
# 5 2.7769 2.3913 6.7422 0.0000 36.0141 0.0000
# 6 0.0000 0.0000 0.0000 4.2703 0.0000 29.5949
#
#
#
# Elastic Compliance Matrix: (Units=1/GPa)
#
#
# Indices 1 2 3 4 5 6 
#
# 1 0.010060 -0.002541 -0.004238 0.000000 0.000186 0.000000
# 2 -0.002541 0.014775 -0.005103 0.000000 0.000170 0.000000
# 3 -0.004238 -0.005103 0.022324 0.000000 -0.003514 0.000000
# 4 0.000000 0.000000 0.000000 0.067816 0.000000 -0.009785
# 5 0.000186 0.000170 -0.003514 0.000000 0.028399 0.000000
# 6 0.000000 0.000000 0.000000 -0.009785 0.000000 0.035202
#
#
# Mechanical properties :
#
#
# Convention : Reuss Voigt Hill
#
# Bulk Modulus (GPa) = 42.74244 47.94451 45.34347
# Shear Modulus (GPa) = 23.79388 27.69925 25.74656
#
# Velocity S-wave (km/s) = 3.38320 3.65031 3.51929
# Velocity P-wave (km/s) = 5.98521 6.38984 6.19083
#
# Compressibility (1/GPa) = 0.02339595
#
# Stress axis : x y z
#
# Youngs Moduli (GPa) = 99.40638 67.68017 44.79477
#
# Poissons Ratio (x) = 0.17194 0.18985
# Poissons Ratio (y) = 0.25254 0.22858
# Poissons Ratio (z) = 0.42130 0.34536
#
# Static dielectric constant tensor:
#      x y z
#    x 3.819080 0.000000 -0.013170 
#    y 0.000000 3.926920 0.000000 
#    z -0.013170 0.000000 3.559120 
# 
# 
# High freq. dielectric constant tensor:
#      x y z
#    x 1.824630 0.000000 0.004120 
#    y 0.000000 1.822290 0.000000 
#    z 0.004120 0.000000 1.796750 
# 
# From -- ./inp_files/260223.got.cif
#   From: 2010.06.25/outbox.cif.g09.slc.cpg/sg12_131_cif.got.tgz:260223.got - 2010.06.28 00:19:55.
