data_PCOD8110158
_publ_section_title
;
Structure prediction by ZEFSAII (Michael W. Deem and Ramdas Pophale) SiO2 
 PCOD8110158
Probable space group: C 2/M
;
_chemical_formula_sum "Si O2"
_cell_formula_units_Z 60
_cell_length_a 16.189796
_cell_length_b 17.576651
_cell_length_c 12.258208
_cell_angle_alpha 90.000000
_cell_angle_beta 61.188504
_cell_angle_gamma 90.000000
_cell_volume 3056.417647
_symmetry_space_group_name_H-M "C 2/M"
_symmetry_group_IT_number 12
_symmetry_cell_setting 'monoclinic'
loop_
_space_group_symop_operation_xyz
x,y,z
-x,y,-z
-x,-y,-z
x,-y,z
1/2+x,1/2+y,z
1/2-x,1/2+y,-z
1/2-x,1/2-y,-z
1/2+x,1/2-y,z
loop_
_atom_site_type_symbol
_atom_site_label
_atom_site_fract_x
_atom_site_fract_y
_atom_site_fract_z
Si Si1 0.187699 0.331931 0.657776
Si Si2 0.984610 0.182823 0.634837
Si Si3 0.830756 0.913655 0.147904
Si Si4 0.500000 0.306132 0.000000
Si Si5 0.682541 0.657479 0.617199
Si Si6 0.313118 0.086198 0.941346
Si Si7 0.300951 0.411750 0.772418
Si Si8 0.982129 0.696726 0.809447
O O1 0.237912 0.367693 0.519838
O O2 0.204112 0.241360 0.648928
O O3 0.231354 0.365843 0.738918
O O4 0.076614 0.351461 0.723499
O O5 0.907699 0.116703 0.693752
O O6 0.949859 0.257674 0.722001
O O7 0.000000 0.206621 0.500000
O O8 0.081381 0.151943 0.623702
O O9 0.812889 0.901520 0.287002
O O10 0.733352 0.898300 0.146330
O O11 0.908510 0.858256 0.048626
O O12 0.864393 0.000000 0.106772
O O13 0.491817 0.256051 0.112861
O O14 0.401387 0.141053 0.902057
O O15 0.350459 0.000000 0.927448
O O16 0.234373 0.102639 0.082560
O O17 0.298970 0.500000 0.741350
#
# Coordination Sequence:
#
# PCOD8110158 Si02
#       8
#     8   8   8   4   8   8   8   8
#     4  10  21  41  62  88 121 162 205 256 299 357
#     4  11  22  40  62  97 122 157 201 252 314 364
#     4  11  24  41  62  89 129 165 199 250 308 372
#     4  12  21  40  61 100 120 160 208 244 313 366
#     4  10  22  41  62  88 125 159 204 250 303 367
#     4  10  25  43  60  90 126 166 208 253 303 355
#     4  11  24  40  62  93 128 162 201 252 312 368
#     4  11  24  39  67  91 121 165 209 256 295 364
#
# _framework density 19.630825000000002
#
# number of rings (size 3 to 8) (size 9 to 14) (size 15 to 20)
#    0.000    1.333    4.000    1.800    1.867    2.933 
#    0.000    1.667    0.000    2.000    0.000    0.000 
#    0.000    0.000    0.000    0.000    0.000    0.000 
#
# Total GULP energy -372143.486685 kJ/mol
# GULP energy per Si atom -12404.782890 kJ/mol
# Density = 1.958614 g / cm^3
# Si number density = 19.630825 Si / 1000 Ang^3
#
#
#
# Elastic Constant Matrix: (Units=GPa)
#
#
# Indices 1 2 3 4 5 6 
#
# 1 94.3437 54.6708 38.2200 0.0000 0.7474 0.0000
# 2 54.6708 76.3904 31.4182 0.0000 -2.6452 0.0000
# 3 38.2200 31.4182 104.4781 0.0000 3.6756 0.0000
# 4 0.0000 0.0000 0.0000 24.2313 0.0000 -4.1421
# 5 0.7474 -2.6452 3.6756 0.0000 41.4985 0.0000
# 6 0.0000 0.0000 0.0000 -4.1421 0.0000 20.6011
#
#
#
# Elastic Compliance Matrix: (Units=1/GPa)
#
#
# Indices 1 2 3 4 5 6 
#
# 1 0.019072 -0.012349 -0.003234 0.000000 -0.000844 0.000000
# 2 -0.012349 0.023010 -0.002469 0.000000 0.001908 0.000000
# 3 -0.003234 -0.002469 0.011536 0.000000 -0.001121 0.000000
# 4 0.000000 0.000000 0.000000 0.042738 0.000000 0.008593
# 5 -0.000844 0.001908 -0.001121 0.000000 0.024333 0.000000
# 6 0.000000 0.000000 0.000000 0.008593 0.000000 0.050269
#
#
# Mechanical properties :
#
#
# Convention : Reuss Voigt Hill
#
# Bulk Modulus (GPa) = 57.09380 58.20337 57.64858
# Shear Modulus (GPa) = 23.48519 27.32641 25.40580
#
# Velocity S-wave (km/s) = 3.46257 3.73502 3.60137
# Velocity P-wave (km/s) = 6.71809 6.95081 6.83544
#
# Compressibility (1/GPa) = 0.01751504
#
# Stress axis : x y z
#
# Youngs Moduli (GPa) = 52.43231 43.45950 86.68275
#
# Poissons Ratio (x) = 0.53667 0.28032
# Poissons Ratio (y) = 0.64747 0.21403
# Poissons Ratio (z) = 0.16956 0.10731
#
# Static dielectric constant tensor:
#      x y z
#    x 3.568420 0.000000 -0.015800 
#    y 0.000000 3.457970 0.000000 
#    z -0.015800 0.000000 3.835880 
# 
# 
# High freq. dielectric constant tensor:
#      x y z
#    x 1.768320 0.000000 0.000680 
#    y 0.000000 1.751380 0.000000 
#    z 0.000680 0.000000 1.782850 
# 
# From -- ./inp_files/146097.got.cif
#   From: 2010.06.25/outbox.cif.g09.slc.cpg/sg12_74_cif.got.tgz:146097.got - 2010.06.28 00:19:55.
