data_PCOD8110008
_publ_section_title
;
Structure prediction by ZEFSAII (Michael W. Deem and Ramdas Pophale) SiO2 
 PCOD8110008
Probable space group: C 2/M
;
_chemical_formula_sum "Si O2"
_cell_formula_units_Z 60
_cell_length_a 15.507185
_cell_length_b 27.026270
_cell_length_c 14.976798
_cell_angle_alpha 90.000000
_cell_angle_beta 28.022930
_cell_angle_gamma 90.000000
_cell_volume 2948.995209
_symmetry_space_group_name_H-M "C 2/M"
_symmetry_group_IT_number 12
_symmetry_cell_setting 'monoclinic'
loop_
_space_group_symop_operation_xyz
x,y,z
-x,y,-z
-x,-y,-z
x,-y,z
1/2+x,1/2+y,z
1/2-x,1/2+y,-z
1/2-x,1/2-y,-z
1/2+x,1/2-y,z
loop_
_atom_site_type_symbol
_atom_site_label
_atom_site_fract_x
_atom_site_fract_y
_atom_site_fract_z
Si Si1 0.390522 0.443571 0.933281
Si Si2 0.000000 0.629006 0.500000
Si Si3 0.334090 0.647501 0.089486
Si Si4 0.783873 0.597295 0.535664
Si Si5 0.294035 0.304678 0.494324
Si Si6 0.472630 0.846245 0.127290
Si Si7 0.188448 0.804384 0.078286
Si Si8 0.526501 0.944508 0.163355
O O1 0.403845 0.500000 0.952837
O O2 0.581346 0.424908 0.717999
O O3 0.336754 0.411715 0.070065
O O4 0.240598 0.436865 0.991765
O O5 0.137894 0.662219 0.312869
O O6 0.132116 0.595774 0.441523
O O7 0.500000 0.665217 0.000000
O O8 0.368421 0.672225 0.963364
O O9 0.784825 0.654359 0.501974
O O10 0.910491 0.563071 0.359173
O O11 0.250000 0.250000 0.500000
O O12 0.203131 0.316187 0.674108
O O13 0.513678 0.307677 0.303510
O O14 0.454527 0.905783 0.154270
O O15 0.500000 0.830963 0.000000
O O16 0.648063 0.833122 0.025463
O O17 0.250000 0.750000 0.000000
O O18 0.492716 0.000000 0.157627
#
# Coordination Sequence:
#
# PCOD8110008 Si02
#       8
#     8   4   8   8   8   8   8   8
#     4  11  21  37  60  87 122 168 211 253 312 375
#     4  12  22  36  59  86 126 168 202 262 315 370
#     4  12  23  42  62  91 128 170 211 260 319 375
#     4  11  21  39  58  87 127 164 213 257 318 379
#     4  11  22  42  68  91 123 171 212 260 323 377
#     4  11  24  43  67  98 134 165 213 269 322 378
#     4  12  24  44  68  90 129 172 215 263 319 382
#     4  10  21  40  66  90 122 171 216 260 321 379
#
# _framework density 20.345911999999998
#
# number of rings (size 3 to 8) (size 9 to 14) (size 15 to 20)
#    0.000    0.800    6.667    1.200    0.000    1.600 
#    2.400    1.667    0.000    0.000    0.000    7.467 
#    0.000    0.000    0.000    0.000    0.000    0.000 
#
# Total GULP energy -371989.984928 kJ/mol
# GULP energy per Si atom -12399.666164 kJ/mol
# Density = 2.029960 g / cm^3
# Si number density = 20.345912 Si / 1000 Ang^3
#
#
#
# Elastic Constant Matrix: (Units=GPa)
#
#
# Indices 1 2 3 4 5 6 
#
# 1 78.3353 34.9460 38.4910 -0.1041 13.5578 0.1322
# 2 34.9460 120.5351 39.1522 -0.0328 1.9859 0.0362
# 3 38.4910 39.1522 168.7681 0.1057 0.3219 -0.0685
# 4 -0.1041 -0.0328 0.1057 28.9099 0.0154 -2.6673
# 5 13.5578 1.9859 0.3219 0.0154 31.4753 0.0507
# 6 0.1322 0.0362 -0.0685 -2.6673 0.0507 3.7313
#
#
#
# Elastic Compliance Matrix: (Units=1/GPa)
#
#
# Indices 1 2 3 4 5 6 
#
# 1 0.017220 -0.003897 -0.003010 0.000025 -0.007140 -0.000513
# 2 -0.003897 0.009864 -0.001402 0.000002 0.001071 0.000004
# 3 -0.003010 -0.001402 0.006934 -0.000019 0.001314 0.000216
# 4 0.000025 0.000002 -0.000019 0.037033 -0.000072 0.026473
# 5 -0.007140 0.001071 0.001314 -0.000072 0.034766 -0.000257
# 6 -0.000513 0.000004 0.000216 0.026473 -0.000257 0.286953
#
#
# Mechanical properties :
#
#
# Convention : Reuss Voigt Hill
#
# Bulk Modulus (GPa) = 57.46719 65.86852 61.66786
# Shear Modulus (GPa) = 12.04278 29.82660 20.93469
#
# Velocity S-wave (km/s) = 2.43554 3.83296 3.21119
# Velocity P-wave (km/s) = 6.01794 7.21342 6.64262
#
# Compressibility (1/GPa) = 0.01740123
#
# Stress axis : x y z
#
# Youngs Moduli (GPa) = 58.07331 101.38119 144.20693
#
# Poissons Ratio (x) = 0.39507 0.43404
# Poissons Ratio (y) = 0.22631 0.20211
# Poissons Ratio (z) = 0.17479 0.14209
#
# Static dielectric constant tensor:
#      x y z
#    x 3.362880 -0.007900 -0.109620 
#    y -0.007900 2.585890 0.006740 
#    z -0.109620 0.006740 3.979240 
# 
# 
# High freq. dielectric constant tensor:
#      x y z
#    x 1.767840 -0.000020 -0.010830 
#    y -0.000020 1.794760 0.000060 
#    z -0.010830 0.000060 1.818200 
# 
# From -- ./inp_files/219466.got.cif
#   From: 2010.06.25/outbox.cif.g09.slc.cpg/sg12_110_cif.got.tgz:219466.got - 2010.06.28 00:19:55.
