data_PCOD8110737
_publ_section_title
;
Structure prediction by ZEFSAII (Michael W. Deem and Ramdas Pophale) SiO2 
 PCOD8110737
Probable space group: C 2/M
;
_chemical_formula_sum "Si O2"
_cell_formula_units_Z 32
_cell_length_a 14.443797
_cell_length_b 23.957560
_cell_length_c 5.057352
_cell_angle_alpha 90.000000
_cell_angle_beta 119.147153
_cell_angle_gamma 90.000000
_cell_volume 1528.432454
_symmetry_space_group_name_H-M "C 2/M"
_symmetry_group_IT_number 12
_symmetry_cell_setting 'monoclinic'
loop_
_space_group_symop_operation_xyz
x,y,z
-x,y,-z
-x,-y,-z
x,-y,z
1/2+x,1/2+y,z
1/2-x,1/2+y,-z
1/2-x,1/2-y,-z
1/2+x,1/2-y,z
loop_
_atom_site_type_symbol
_atom_site_label
_atom_site_fract_x
_atom_site_fract_y
_atom_site_fract_z
Si Si1 0.607099 0.336824 0.772018
Si Si2 0.074776 0.000000 0.351554
Si Si3 0.301481 0.388961 0.576181
Si Si4 0.500000 0.230394 0.500000
Si Si5 0.437573 0.877129 0.657275
O O1 0.500000 0.365518 0.500000
O O2 0.699053 0.348653 0.683311
O O3 0.587006 0.269946 0.768052
O O4 0.630801 0.361848 0.091753
O O5 0.151450 0.052866 0.452855
O O6 0.000000 0.000000 0.500000
O O7 0.000000 0.000000 0.000000
O O8 0.182166 0.398467 0.505598
O O9 0.559967 0.190699 0.371234
O O10 0.500000 0.905628 0.500000
O O11 0.500000 0.896874 0.000000
#
# Coordination Sequence:
#
# PCOD8110737 Si02
#       5
#     8   4   8   4   8
#     4  10  22  37  61  92 126 159 207 254 312 378
#     4  12  26  44  68  96 126 156 204 268 313 380
#     4  12  23  41  66  89 125 171 207 252 329 357
#     4   8  24  38  62  88 138 156 214 254 316 344
#     4  10  23  42  59  91 130 164 214 264 288 374
#
# _framework density 20.936484
#
# number of rings (size 3 to 8) (size 9 to 14) (size 15 to 20)
#    1.500    0.000    0.000    6.000    3.500    2.000 
#    0.000    1.250    0.000    0.000    0.000    0.000 
#    0.000    0.000    0.000    0.000    0.000    0.000 
#
# Total GULP energy -198298.367285 kJ/mol
# GULP energy per Si atom -12393.647955 kJ/mol
# Density = 2.088883 g / cm^3
# Si number density = 20.936484 Si / 1000 Ang^3
#
#
#
# Elastic Constant Matrix: (Units=GPa)
#
#
# Indices 1 2 3 4 5 6 
#
# 1 165.0746 56.8825 40.1428 0.0000 -0.7210 0.0000
# 2 56.8825 70.4784 35.2690 0.0000 -0.0838 0.0000
# 3 40.1428 35.2690 99.7980 0.0000 -13.1675 0.0000
# 4 0.0000 0.0000 0.0000 4.1837 0.0000 8.8700
# 5 -0.7210 -0.0838 -13.1675 0.0000 46.0945 0.0000
# 6 0.0000 0.0000 0.0000 8.8700 0.0000 6.5366
#
#
#
# Elastic Compliance Matrix: (Units=1/GPa)
#
#
# Indices 1 2 3 4 5 6 
#
# 1 0.008513 -0.006246 -0.001248 0.000000 -0.000235 0.000000
# 2 -0.006246 0.021962 -0.005462 0.000000 -0.001618 0.000000
# 3 -0.001248 -0.005462 0.012936 0.000000 0.003666 0.000000
# 4 0.000000 0.000000 0.000000 -0.127344 0.000000 0.172803
# 5 -0.000235 -0.001618 0.003666 0.000000 0.022735 0.000000
# 6 0.000000 0.000000 0.000000 0.172803 0.000000 -0.081506
#
#
# Mechanical properties :
#
#
# Convention : Reuss Voigt Hill
#
# Bulk Modulus (GPa) = 57.14965 66.65994 61.90479
# Shear Modulus (GPa) = -45.06203 24.90008 -10.08098
#
# Velocity S-wave (km/s) = -4.64434 3.45239 -2.19670
# Velocity P-wave (km/s) = 1.18489 6.91377 4.81644
#
# Compressibility (1/GPa) = 0.01749792
#
# Stress axis : x y z
#
# Youngs Moduli (GPa) = 117.47188 45.53370 77.30276
#
# Poissons Ratio (x) = 0.28443 0.09644
# Poissons Ratio (y) = 0.73378 0.42225
# Poissons Ratio (z) = 0.14655 0.24872
#
# Static dielectric constant tensor:
#      x y z
#    x 3.855860 0.000000 -0.079900 
#    y 0.000000 2.300130 0.000000 
#    z -0.079900 0.000000 3.602050 
# 
# 
# High freq. dielectric constant tensor:
#      x y z
#    x 1.830530 0.000000 -0.012370 
#    y 0.000000 1.797120 0.000000 
#    z -0.012370 0.000000 1.812560 
# 
# From -- ./inp_files/11501.got.cif
#   From: 2010.06.25/outbox.cif.g09.slc.cpg/sg12_6_cif.got.tgz:11501.got - 2010.06.28 00:19:55.
