data_PCOD8110140
_publ_section_title
;
Structure prediction by ZEFSAII (Michael W. Deem and Ramdas Pophale) SiO2 
 PCOD8110140
Probable space group: C 2/M
;
_chemical_formula_sum "Si O2"
_cell_formula_units_Z 52
_cell_length_a 15.523676
_cell_length_b 28.408310
_cell_length_c 9.422160
_cell_angle_alpha 90.000000
_cell_angle_beta 141.109277
_cell_angle_gamma 90.000000
_cell_volume 2608.779527
_symmetry_space_group_name_H-M "C 2/M"
_symmetry_group_IT_number 12
_symmetry_cell_setting 'monoclinic'
loop_
_space_group_symop_operation_xyz
x,y,z
-x,y,-z
-x,-y,-z
x,-y,z
1/2+x,1/2+y,z
1/2-x,1/2+y,-z
1/2-x,1/2-y,-z
1/2+x,1/2-y,z
loop_
_atom_site_type_symbol
_atom_site_label
_atom_site_fract_x
_atom_site_fract_y
_atom_site_fract_z
Si Si1 0.056918 0.220713 0.721948
Si Si2 0.568689 0.000000 0.239927
Si Si3 0.804191 0.402850 0.535847
Si Si4 0.274641 0.898179 0.168716
Si Si5 0.500000 0.848610 0.000000
Si Si6 0.982712 0.140812 0.814774
Si Si7 0.872588 0.500000 0.234221
Si Si8 0.860554 0.683381 0.088478
O O1 0.035056 0.276690 0.718815
O O2 0.000000 0.205035 0.500000
O O3 0.969233 0.191677 0.724432
O O4 0.213083 0.204823 0.928917
O O5 0.670314 0.957505 0.406221
O O6 0.429261 0.000000 0.149367
O O7 0.500000 0.000000 0.000000
O O8 0.820086 0.388909 0.390088
O O9 0.916704 0.377155 0.775380
O O10 0.651181 0.390288 0.391301
O O11 0.371198 0.866074 0.189302
O O12 0.284942 0.953142 0.145843
O O13 0.116062 0.887309 0.932563
O O14 0.608515 0.820347 0.041201
O O15 0.000000 0.152320 0.000000
O O16 0.000000 0.500000 0.500000
#
# Coordination Sequence:
#
# PCOD8110140 Si02
#       8
#     8   4   8   8   4   8   4   8
#     4  10  21  41  61  83 119 160 198 249 298 355
#     4  12  24  39  57  91 127 156 196 247 298 355
#     4  11  22  39  63  90 122 160 195 248 301 353
#     4  10  22  41  63  89 120 158 203 245 295 359
#     4  12  24  35  58  90 122 154 198 245 304 358
#     4   9  21  41  64  88 120 158 200 246 298 355
#     4  12  22  37  63  89 121 157 199 246 295 351
#     4  10  24  39  59  90 118 155 203 246 302 356
#
# _framework density 19.932691999999999
#
# number of rings (size 3 to 8) (size 9 to 14) (size 15 to 20)
#    0.000    1.538    2.308    1.846    3.231    0.615 
#    0.000    3.846    0.000    0.923    0.000    0.000 
#    0.000    0.000    0.000    0.000    0.000    0.000 
#
# Total GULP energy -322263.039755 kJ/mol
# GULP energy per Si atom -12394.732298 kJ/mol
# Density = 1.988732 g / cm^3
# Si number density = 19.932692 Si / 1000 Ang^3
#
#
#
# Elastic Constant Matrix: (Units=GPa)
#
#
# Indices 1 2 3 4 5 6 
#
# 1 116.0593 51.7527 26.3823 0.0000 -10.3640 0.0000
# 2 51.7527 144.9259 30.2050 0.0000 -1.3445 0.0000
# 3 26.3823 30.2050 86.6475 0.0000 -7.8971 0.0000
# 4 0.0000 0.0000 0.0000 -0.6175 0.0000 -24.6160
# 5 -10.3640 -1.3445 -7.8971 0.0000 26.0823 0.0000
# 6 0.0000 0.0000 0.0000 -24.6160 0.0000 10.4624
#
#
#
# Elastic Compliance Matrix: (Units=1/GPa)
#
#
# Indices 1 2 3 4 5 6 
#
# 1 0.010898 -0.003489 -0.001773 0.000000 0.003614 0.000000
# 2 -0.003489 0.008562 -0.002066 0.000000 -0.001570 0.000000
# 3 -0.001773 -0.002066 0.013088 0.000000 0.003152 0.000000
# 4 0.000000 0.000000 0.000000 -0.017084 0.000000 -0.040195
# 5 0.003614 -0.001570 0.003152 0.000000 0.040650 0.000000
# 6 0.000000 0.000000 0.000000 -0.040195 0.000000 0.001008
#
#
# Mechanical properties :
#
#
# Convention : Reuss Voigt Hill
#
# Bulk Modulus (GPa) = 55.88473 62.70142 59.29307
# Shear Modulus (GPa) = 64.31772 23.13828 43.72800
#
# Velocity S-wave (km/s) = 5.68661 3.41078 4.68887
# Velocity P-wave (km/s) = 8.43885 6.85828 7.68929
#
# Compressibility (1/GPa) = 0.01789398
#
# Stress axis : x y z
#
# Youngs Moduli (GPa) = 91.76402 116.79874 76.40558
#
# Poissons Ratio (x) = 0.40745 0.13544
# Poissons Ratio (y) = 0.32012 0.15782
# Poissons Ratio (z) = 0.16266 0.24125
#
# Static dielectric constant tensor:
#      x y z
#    x 2.478260 0.000000 1.427980 
#    y 0.000000 3.107670 0.000000 
#    z 1.427980 0.000000 2.015820 
# 
# 
# High freq. dielectric constant tensor:
#      x y z
#    x 1.785610 0.000000 -0.006160 
#    y 0.000000 1.782750 0.000000 
#    z -0.006160 0.000000 1.775280 
# 
# From -- ./inp_files/68700.got.cif
#   From: 2010.06.25/outbox.cif.g09.slc.cpg/sg12_35_cif.got.tgz:68700.got - 2010.06.28 00:19:55.
