data_PCOD8110170
_publ_section_title
;
Structure prediction by ZEFSAII (Michael W. Deem and Ramdas Pophale) SiO2 
 PCOD8110170
Probable space group: C 2/M
;
_chemical_formula_sum "Si O2"
_cell_formula_units_Z 64
_cell_length_a 33.145151
_cell_length_b 8.796202
_cell_length_c 13.830423
_cell_angle_alpha 90.000000
_cell_angle_beta 126.596518
_cell_angle_gamma 90.000000
_cell_volume 3237.330780
_symmetry_space_group_name_H-M "C 2/M"
_symmetry_group_IT_number 12
_symmetry_cell_setting 'monoclinic'
loop_
_space_group_symop_operation_xyz
x,y,z
-x,y,-z
-x,-y,-z
x,-y,z
1/2+x,1/2+y,z
1/2-x,1/2+y,-z
1/2-x,1/2-y,-z
1/2+x,1/2-y,z
loop_
_atom_site_type_symbol
_atom_site_label
_atom_site_fract_x
_atom_site_fract_y
_atom_site_fract_z
Si Si1 0.778706 0.819581 0.263482
Si Si2 0.414441 0.677329 0.971727
Si Si3 0.826627 0.679867 0.968443
Si Si4 0.205935 0.179753 0.499013
Si Si5 0.145575 0.179360 0.791095
Si Si6 0.498336 0.822478 0.791305
Si Si7 0.461101 0.823235 0.361602
Si Si8 0.402278 0.677546 0.730597
O O1 0.724622 0.757293 0.151907
O O2 0.790427 0.755989 0.386812
O O3 0.821961 0.761336 0.253250
O O4 0.777821 0.000000 0.263738
O O5 0.406050 0.500000 0.979655
O O6 0.373123 0.771418 0.969864
O O7 0.410374 0.717395 0.853788
O O8 0.469246 0.726640 0.085976
O O9 0.826769 0.500000 0.976770
O O10 0.831104 0.745972 0.081189
O O11 0.250000 0.250000 0.500000
O O12 0.153118 0.231099 0.378526
O O13 0.211886 0.000000 0.505299
O O14 0.088403 0.225625 0.692105
O O15 0.149068 0.000000 0.808038
O O16 0.515104 0.781287 0.707232
O O17 0.440716 0.773479 0.720685
O O18 0.504895 0.000000 0.822392
O O19 0.500000 0.776620 0.500000
O O20 0.446773 0.000000 0.346767
O O21 0.410587 0.500000 0.721432
#
# Coordination Sequence:
#
# PCOD8110170 Si02
#       8
#     8   8   8   8   8   8   8   8
#     4   9  21  38  59  87 119 154 196 243 292 347
#     4  11  22  38  59  87 120 155 196 245 296 349
#     4  11  21  37  60  86 119 158 195 242 296 347
#     4  10  21  41  63  87 120 156 196 244 291 348
#     4  11  22  38  61  90 118 154 199 242 293 354
#     4  11  23  39  61  88 118 155 198 242 294 352
#     4  10  23  42  61  85 122 159 193 241 295 347
#     4  10  23  39  60  87 120 156 195 246 299 347
#
# _framework density 19.769373999999999
#
# number of rings (size 3 to 8) (size 9 to 14) (size 15 to 20)
#    0.000    1.625    1.250    3.000    1.750    3.750 
#    0.000    3.750    0.000    0.000    0.000    0.000 
#    0.000    0.000    0.000    0.000    0.000    0.000 
#
# Total GULP energy -396981.573845 kJ/mol
# GULP energy per Si atom -12405.674183 kJ/mol
# Density = 1.972438 g / cm^3
# Si number density = 19.769374 Si / 1000 Ang^3
#
#
#
# Elastic Constant Matrix: (Units=GPa)
#
#
# Indices 1 2 3 4 5 6 
#
# 1 148.5281 36.9475 68.0792 0.0000 9.4216 0.0000
# 2 36.9475 52.2467 37.9259 0.0000 0.3884 0.0000
# 3 68.0792 37.9259 161.7082 0.0000 6.0198 0.0000
# 4 0.0000 0.0000 0.0000 16.9320 0.0000 4.5223
# 5 9.4216 0.3884 6.0198 0.0000 29.5420 0.0000
# 6 0.0000 0.0000 0.0000 4.5223 0.0000 27.4979
#
#
#
# Elastic Compliance Matrix: (Units=1/GPa)
#
#
# Indices 1 2 3 4 5 6 
#
# 1 0.009272 -0.004542 -0.002751 0.000000 -0.002337 0.000000
# 2 -0.004542 0.025311 -0.004097 0.000000 0.001951 0.000000
# 3 -0.002751 -0.004097 0.008332 0.000000 -0.000766 0.000000
# 4 0.000000 0.000000 0.000000 0.061773 0.000000 -0.010159
# 5 -0.002337 0.001951 -0.000766 0.000000 0.034726 0.000000
# 6 0.000000 0.000000 0.000000 -0.010159 0.000000 0.038037
#
#
# Mechanical properties :
#
#
# Convention : Reuss Voigt Hill
#
# Bulk Modulus (GPa) = 49.66588 72.04313 60.85451
# Shear Modulus (GPa) = 24.16124 29.42976 26.79550
#
# Velocity S-wave (km/s) = 3.49973 3.86249 3.68558
# Velocity P-wave (km/s) = 6.44267 7.51084 6.99717
#
# Compressibility (1/GPa) = 0.02013455
#
# Stress axis : x y z
#
# Youngs Moduli (GPa) = 107.85240 39.50774 120.02585
#
# Poissons Ratio (x) = 0.17946 0.33021
# Poissons Ratio (y) = 0.48991 0.49170
# Poissons Ratio (z) = 0.29672 0.16185
#
# Static dielectric constant tensor:
#      x y z
#    x 3.754430 0.000000 -0.073180 
#    y 0.000000 3.458100 0.000000 
#    z -0.073180 0.000000 3.912010 
# 
# 
# High freq. dielectric constant tensor:
#      x y z
#    x 1.785970 0.000000 0.000520 
#    y 0.000000 1.759790 0.000000 
#    z 0.000520 0.000000 1.786330 
# 
# From -- ./inp_files/249961.got.cif
#   From: 2010.06.25/outbox.cif.g09.slc.cpg/sg12_125_cif.got.tgz:249961.got - 2010.06.28 00:19:55.
