data_PCOD8110396
_publ_section_title
;
Structure prediction by ZEFSAII (Michael W. Deem and Ramdas Pophale) SiO2 
 PCOD8110396
Probable space group: C 2/M
;
_chemical_formula_sum "Si O2"
_cell_formula_units_Z 40
_cell_length_a 9.334109
_cell_length_b 24.864181
_cell_length_c 11.693583
_cell_angle_alpha 90.000000
_cell_angle_beta 128.246003
_cell_angle_gamma 90.000000
_cell_volume 2131.392691
_symmetry_space_group_name_H-M "C 2/M"
_symmetry_group_IT_number 12
_symmetry_cell_setting 'monoclinic'
loop_
_space_group_symop_operation_xyz
x,y,z
-x,y,-z
-x,-y,-z
x,-y,z
1/2+x,1/2+y,z
1/2-x,1/2+y,-z
1/2-x,1/2-y,-z
1/2+x,1/2-y,z
loop_
_atom_site_type_symbol
_atom_site_label
_atom_site_fract_x
_atom_site_fract_y
_atom_site_fract_z
Si Si1 0.298164 0.850542 0.159505
Si Si2 0.147424 0.868082 0.664181
Si Si3 0.514562 0.329841 0.835544
Si Si4 0.866141 0.724036 0.660866
Si Si5 0.983191 0.437329 0.858792
O O1 0.463531 0.813978 0.292167
O O2 0.367849 0.907376 0.145311
O O3 0.151348 0.862193 0.186288
O O4 0.192528 0.821930 0.002454
O O5 0.059614 0.863592 0.745313
O O6 0.233042 0.810355 0.675317
O O7 0.285483 0.917314 0.724436
O O8 0.000000 0.884933 0.500000
O O9 0.445251 0.270321 0.778079
O O10 0.750000 0.750000 0.500000
O O11 0.006162 0.500000 0.846485
O O12 0.000000 0.422355 0.000000
#
# Coordination Sequence:
#
# PCOD8110396 Si02
#       5
#     8   8   8   8   8
#     4  10  23  38  58  87 121 154 196 247 289 357
#     4  11  22  38  60  88 120 155 200 242 285 361
#     4  11  21  37  56  88 124 156 193 237 298 341
#     4  11  22  36  57  87 124 162 197 230 288 352
#     4  10  21  42  66  84 111 152 201 252 302 351
#
# _framework density 18.767073
#
# number of rings (size 3 to 8) (size 9 to 14) (size 15 to 20)
#    0.000    1.400    4.000    1.800    0.000    2.000 
#    0.000    3.000    0.000    1.200    0.000    0.000 
#    0.000    0.000    0.000    0.000    0.000    0.000 
#
# Total GULP energy -247978.706354 kJ/mol
# GULP energy per Si atom -12398.935318 kJ/mol
# Density = 1.872436 g / cm^3
# Si number density = 18.767073 Si / 1000 Ang^3
#
#
#
# Elastic Constant Matrix: (Units=GPa)
#
#
# Indices 1 2 3 4 5 6 
#
# 1 135.4035 49.2656 51.3637 0.0000 -0.4640 0.0000
# 2 49.2656 98.6518 42.0340 0.0000 8.0376 0.0000
# 3 51.3637 42.0340 128.4318 0.0000 13.1472 0.0000
# 4 0.0000 0.0000 0.0000 45.6714 0.0000 -6.2993
# 5 -0.4640 8.0376 13.1472 0.0000 29.8554 0.0000
# 6 0.0000 0.0000 0.0000 -6.2993 0.0000 18.2517
#
#
#
# Elastic Compliance Matrix: (Units=1/GPa)
#
#
# Indices 1 2 3 4 5 6 
#
# 1 0.009935 -0.003908 -0.002951 0.000000 0.002506 0.000000
# 2 -0.003908 0.013385 -0.002558 0.000000 -0.002538 0.000000
# 3 -0.002951 -0.002558 0.010197 0.000000 -0.003848 0.000000
# 4 0.000000 0.000000 0.000000 0.022990 0.000000 0.007935
# 5 0.002506 -0.002538 -0.003848 0.000000 0.035911 0.000000
# 6 0.000000 0.000000 0.000000 0.007935 0.000000 0.057528
#
#
# Mechanical properties :
#
#
# Convention : Reuss Voigt Hill
#
# Bulk Modulus (GPa) = 68.10316 71.97929 70.04123
# Shear Modulus (GPa) = 28.78928 33.41065 31.09996
#
# Velocity S-wave (km/s) = 3.92092 4.22391 4.07523
# Velocity P-wave (km/s) = 7.54093 7.88834 7.71659
#
# Compressibility (1/GPa) = 0.01468361
#
# Stress axis : x y z
#
# Youngs Moduli (GPa) = 100.65081 74.70960 98.06441
#
# Poissons Ratio (x) = 0.29200 0.28937
# Poissons Ratio (y) = 0.39339 0.25084
# Poissons Ratio (z) = 0.29700 0.19110
#
# Static dielectric constant tensor:
#      x y z
#    x 3.591800 0.000000 0.136400 
#    y 0.000000 3.189710 0.000000 
#    z 0.136400 0.000000 3.637230 
# 
# 
# High freq. dielectric constant tensor:
#      x y z
#    x 1.740820 0.000000 0.010790 
#    y 0.000000 1.704850 0.000000 
#    z 0.010790 0.000000 1.741730 
# 
# From -- ./inp_files/39198.got.cif
#   From: 2010.06.25/outbox.cif.g09.slc.cpg/sg12_20_cif.got.tgz:39198.got - 2010.06.28 00:19:55.
