data_PCOD8110968
_publ_section_title
;
Structure prediction by ZEFSAII (Michael W. Deem and Ramdas Pophale) SiO2 
 PCOD8110968
Probable space group: C 2/M
;
_chemical_formula_sum "Si O2"
_cell_formula_units_Z 64
_cell_length_a 9.408826
_cell_length_b 27.194975
_cell_length_c 17.208745
_cell_angle_alpha 90.000000
_cell_angle_beta 137.245536
_cell_angle_gamma 90.000000
_cell_volume 2989.180993
_symmetry_space_group_name_H-M "C 2/M"
_symmetry_group_IT_number 12
_symmetry_cell_setting 'monoclinic'
loop_
_space_group_symop_operation_xyz
x,y,z
-x,y,-z
-x,-y,-z
x,-y,z
1/2+x,1/2+y,z
1/2-x,1/2+y,-z
1/2-x,1/2-y,-z
1/2+x,1/2-y,z
loop_
_atom_site_type_symbol
_atom_site_label
_atom_site_fract_x
_atom_site_fract_y
_atom_site_fract_z
Si Si1 0.796308 0.557139 0.866225
Si Si2 0.928976 0.555525 0.743597
Si Si3 0.630167 0.270221 0.744288
Si Si4 0.066426 0.127003 0.316477
Si Si5 0.270713 0.632787 0.884285
Si Si6 0.616808 0.827594 0.672599
Si Si7 0.693262 0.383257 0.531190
Si Si8 0.082015 0.279115 0.885314
O O1 0.735535 0.500000 0.859660
O O2 0.846312 0.565066 0.796555
O O3 0.595565 0.593779 0.800599
O O4 0.000000 0.571879 0.000000
O O5 0.988642 0.500000 0.753034
O O6 0.757381 0.570779 0.610966
O O7 0.144438 0.583643 0.816806
O O8 0.527550 0.322686 0.686613
O O9 0.595313 0.231991 0.657651
O O10 0.534731 0.247553 0.784573
O O11 0.875055 0.280838 0.853846
O O12 0.279005 0.142951 0.356867
O O13 0.131092 0.097080 0.420167
O O14 0.277861 0.665192 0.808965
O O15 0.160759 0.665042 0.906846
O O16 0.500000 0.616326 0.000000
O O17 0.385934 0.846086 0.600586
O O18 0.500000 0.357498 0.500000
O O19 0.250000 0.250000 0.000000
#
# Coordination Sequence:
#
# PCOD8110968 Si02
#       8
#     8   8   8   8   8   8   8   8
#     4  10  23  42  68 103 137 172 220 274 334 406
#     4  10  22  43  68  99 132 170 224 281 335 402
#     4  11  23  38  60  92 133 175 228 266 333 400
#     4  12  24  42  70  96 134 183 222 279 340 393
#     4  10  22  38  63  94 136 176 219 273 329 402
#     4  10  24  44  60  96 139 172 224 277 333 401
#     4  11  24  43  70  97 123 174 227 281 334 398
#     4  11  21  37  58  92 132 181 223 273 317 394
#
# _framework density 21.410547000000001
#
# number of rings (size 3 to 8) (size 9 to 14) (size 15 to 20)
#    0.000    1.375    2.500    3.000    5.250    2.500 
#    0.000    2.500    0.000    3.750    0.000    0.000 
#    0.000    0.000    0.000    0.000    0.000    0.000 
#
# Total GULP energy -396646.427113 kJ/mol
# GULP energy per Si atom -12395.200847 kJ/mol
# Density = 2.136182 g / cm^3
# Si number density = 21.410547 Si / 1000 Ang^3
#
#
#
# Elastic Constant Matrix: (Units=GPa)
#
#
# Indices 1 2 3 4 5 6 
#
# 1 98.5239 34.3605 37.3755 0.0000 14.4467 0.0000
# 2 34.3605 117.9802 41.6898 0.0000 4.4367 0.0000
# 3 37.3755 41.6898 117.4721 0.0001 4.2008 -0.0002
# 4 0.0000 0.0000 0.0001 14.9940 0.0000 -4.3900
# 5 14.4467 4.4367 4.2008 0.0000 38.2650 0.0000
# 6 0.0000 0.0000 -0.0002 -4.3900 0.0000 23.6506
#
#
#
# Elastic Compliance Matrix: (Units=1/GPa)
#
#
# Indices 1 2 3 4 5 6 
#
# 1 0.012787 -0.002494 -0.003033 0.000000 -0.004205 0.000000
# 2 -0.002494 0.010199 -0.002829 0.000000 0.000070 0.000000
# 3 -0.003033 -0.002829 0.010470 0.000000 0.000324 0.000000
# 4 0.000000 0.000000 0.000000 0.070526 0.000000 0.013091
# 5 -0.004205 0.000070 0.000324 0.000000 0.027678 0.000000
# 6 0.000000 0.000000 0.000000 0.013091 0.000000 0.044712
#
#
# Mechanical properties :
#
#
# Convention : Reuss Voigt Hill
#
# Bulk Modulus (GPa) = 59.71970 62.31421 61.01696
# Shear Modulus (GPa) = 25.16803 30.08530 27.62667
#
# Velocity S-wave (km/s) = 3.43227 3.75262 3.59601
# Velocity P-wave (km/s) = 6.60761 6.92415 6.76773
#
# Compressibility (1/GPa) = 0.01674489
#
# Stress axis : x y z
#
# Youngs Moduli (GPa) = 78.20556 98.04597 95.51252
#
# Poissons Ratio (x) = 0.24455 0.28967
# Poissons Ratio (y) = 0.19506 0.27016
# Poissons Ratio (z) = 0.23718 0.27733
#
# Static dielectric constant tensor:
#      x y z
#    x 3.926600 0.000000 -0.064980 
#    y 0.000000 3.056510 -0.000010 
#    z -0.064980 -0.000010 3.946080 
# 
# 
# High freq. dielectric constant tensor:
#      x y z
#    x 1.839260 0.000000 0.005560 
#    y 0.000000 1.828910 0.000000 
#    z 0.005560 0.000000 1.844350 
# 
# From -- ./inp_files/260391.got.cif
#   From: 2010.06.25/outbox.cif.g09.slc.cpg/sg12_131_cif.got.tgz:260391.got - 2010.06.28 00:19:55.
