data_PCOD8110834
_publ_section_title
;
Structure prediction by ZEFSAII (Michael W. Deem and Ramdas Pophale) SiO2 
 PCOD8110834
Probable space group: C 2/M
;
_chemical_formula_sum "Si O2"
_cell_formula_units_Z 48
_cell_length_a 21.753810
_cell_length_b 9.151145
_cell_length_c 16.474330
_cell_angle_alpha 90.000000
_cell_angle_beta 49.713785
_cell_angle_gamma 90.000000
_cell_volume 2501.743802
_symmetry_space_group_name_H-M "C 2/M"
_symmetry_group_IT_number 12
_symmetry_cell_setting 'monoclinic'
loop_
_space_group_symop_operation_xyz
x,y,z
-x,y,-z
-x,-y,-z
x,-y,z
1/2+x,1/2+y,z
1/2-x,1/2+y,-z
1/2-x,1/2-y,-z
1/2+x,1/2-y,z
loop_
_atom_site_type_symbol
_atom_site_label
_atom_site_fract_x
_atom_site_fract_y
_atom_site_fract_z
Si Si1 0.264349 0.828020 0.248925
Si Si2 0.461378 0.830590 0.374035
Si Si3 0.046744 0.835211 0.173887
Si Si4 0.606485 0.664268 0.290949
Si Si5 0.077463 0.670709 0.985211
Si Si6 0.221154 0.329397 0.444562
O O1 0.187339 0.774697 0.262734
O O2 0.343791 0.785478 0.132050
O O3 0.267997 0.740229 0.329333
O O4 0.261123 0.000000 0.270238
O O5 0.469594 0.750020 0.278896
O O6 0.528649 0.765268 0.378979
O O7 0.374008 0.801871 0.486308
O O8 0.478328 0.000000 0.345261
O O9 0.116814 0.834762 0.183563
O O10 0.020303 0.000000 0.174499
O O11 0.080674 0.756497 0.066317
O O12 0.588714 0.500000 0.336895
O O13 0.074941 0.500000 0.007558
O O14 0.000000 0.719410 0.000000
O O15 0.241490 0.500000 0.433597
O O16 0.250000 0.250000 0.500000
#
# Coordination Sequence:
#
# PCOD8110834 Si02
#       6
#     8   8   8   8   8   8
#     4  10  22  40  59  85 120 155 192 238 291 345
#     4   9  19  37  60  84 113 150 191 234 286 341
#     4   9  19  36  59  86 114 149 192 235 289 344
#     4   8  18  36  58  87 118 150 191 236 290 346
#     4  10  22  38  58  84 117 155 195 238 288 343
#     4  11  25  41  60  86 117 154 194 238 288 344
#
# _framework density 19.186616000000001
#
# number of rings (size 3 to 8) (size 9 to 14) (size 15 to 20)
#    1.000    1.500    0.000    1.000    2.333    5.667 
#    0.000    3.333    0.000    0.000    0.000    0.000 
#    0.000    0.000    0.000    0.000    0.000    0.000 
#
# Total GULP energy -297481.207360 kJ/mol
# GULP energy per Si atom -12395.050307 kJ/mol
# Density = 1.914295 g / cm^3
# Si number density = 19.186616 Si / 1000 Ang^3
#
#
#
# Elastic Constant Matrix: (Units=GPa)
#
#
# Indices 1 2 3 4 5 6 
#
# 1 59.8002 18.0573 3.2936 0.0000 -5.5070 0.0000
# 2 18.0573 77.4615 36.7775 0.0002 -0.4319 -0.0002
# 3 3.2936 36.7775 75.3353 0.0000 1.9841 0.0001
# 4 0.0000 0.0002 0.0000 35.4865 0.0000 4.4141
# 5 -5.5070 -0.4319 1.9841 0.0000 32.5655 0.0001
# 6 0.0000 -0.0002 0.0001 4.4141 0.0001 25.5933
#
#
#
# Elastic Compliance Matrix: (Units=1/GPa)
#
#
# Indices 1 2 3 4 5 6 
#
# 1 0.018425 -0.005024 0.001569 0.000000 0.002954 0.000000
# 2 -0.005024 0.018191 -0.008659 0.000000 -0.000081 0.000000
# 3 0.001569 -0.008659 0.017457 0.000000 -0.000913 0.000000
# 4 0.000000 0.000000 0.000000 0.028798 0.000000 -0.004967
# 5 0.002954 -0.000081 -0.000913 0.000000 0.031261 0.000000
# 6 0.000000 0.000000 0.000000 -0.004967 0.000000 0.039929
#
#
# Mechanical properties :
#
#
# Convention : Reuss Voigt Hill
#
# Bulk Modulus (GPa) = 33.50541 36.53931 35.02236
# Shear Modulus (GPa) = 26.56230 29.02697 27.79463
#
# Velocity S-wave (km/s) = 3.72481 3.89379 3.81024
# Velocity P-wave (km/s) = 5.99998 6.26905 6.13599
#
# Compressibility (1/GPa) = 0.02984593
#
# Stress axis : x y z
#
# Youngs Moduli (GPa) = 54.27454 54.97095 57.28483
#
# Poissons Ratio (x) = 0.27615 -0.08989
# Poissons Ratio (y) = 0.27265 0.49603
# Poissons Ratio (z) = -0.08516 0.47599
#
# Static dielectric constant tensor:
#      x y z
#    x 3.464220 0.000000 -0.066000 
#    y 0.000000 3.503210 0.000000 
#    z -0.066000 0.000000 3.334640 
# 
# 
# High freq. dielectric constant tensor:
#      x y z
#    x 1.741060 0.000000 0.001970 
#    y 0.000000 1.749380 0.000000 
#    z 0.001970 0.000000 1.736510 
# 
# From -- ./inp_files/280765.got.cif
#   From: 2010.06.25/outbox.cif.g09.slc.cpg/sg12_141_cif.got.tgz:280765.got - 2010.06.28 00:19:55.
