data_PCOD8110635
_publ_section_title
;
Structure prediction by ZEFSAII (Michael W. Deem and Ramdas Pophale) SiO2 
 PCOD8110635
Probable space group: C 2/M
;
_chemical_formula_sum "Si O2"
_cell_formula_units_Z 40
_cell_length_a 27.778180
_cell_length_b 14.875770
_cell_length_c 8.559394
_cell_angle_alpha 90.000000
_cell_angle_beta 146.923951
_cell_angle_gamma 90.000000
_cell_volume 1930.284749
_symmetry_space_group_name_H-M "C 2/M"
_symmetry_group_IT_number 12
_symmetry_cell_setting 'monoclinic'
loop_
_space_group_symop_operation_xyz
x,y,z
-x,y,-z
-x,-y,-z
x,-y,z
1/2+x,1/2+y,z
1/2-x,1/2+y,-z
1/2-x,1/2-y,-z
1/2+x,1/2-y,z
loop_
_atom_site_type_symbol
_atom_site_label
_atom_site_fract_x
_atom_site_fract_y
_atom_site_fract_z
Si Si1 0.415436 0.000000 0.495532
Si Si2 0.671318 0.000000 0.410591
Si Si3 0.545063 0.854823 0.958784
Si Si4 0.758481 0.000000 0.136945
Si Si5 0.431905 0.338780 0.094027
Si Si6 0.110901 0.099117 0.697193
Si Si7 0.158190 0.000000 0.296900
O O1 0.476288 0.089512 0.661862
O O2 0.349986 0.000000 0.464874
O O3 0.348602 0.000000 0.165232
O O4 0.775876 0.000000 0.672022
O O5 0.631888 0.912954 0.220216
O O6 0.582876 0.764075 0.989976
O O7 0.500000 0.833273 0.000000
O O8 0.799084 0.910689 0.160507
O O9 0.786923 0.000000 0.394002
O O10 0.375541 0.352399 0.099769
O O11 0.536922 0.348463 0.398674
O O12 0.400546 0.409538 0.875892
O O13 0.072000 0.000000 0.626685
#
# Coordination Sequence:
#
# PCOD8110635 Si02
#       7
#     4   4   8   4   8   8   4
#     4   9  18  45  63  79 116 158 195 235 288 350
#     4   9  20  43  61  83 112 156 196 240 291 337
#     4   9  21  37  66  87 108 152 204 241 281 340
#     4  10  22  36  59  86 119 159 188 235 295 337
#     4  11  19  36  61  90 114 153 194 236 292 346
#     4   9  19  37  57  84 114 163 190 225 296 349
#     4  12  22  34  61  90 126 144 186 253 284 338
#
# _framework density 20.722332000000002
#
# number of rings (size 3 to 8) (size 9 to 14) (size 15 to 20)
#    0.600    1.600    2.000    3.000    2.800    1.600 
#    7.200    2.000    0.000    0.000    0.000    0.000 
#    0.000    0.000    0.000    0.000    0.000    0.000 
#
# Total GULP energy -247856.839271 kJ/mol
# GULP energy per Si atom -12392.841964 kJ/mol
# Density = 2.067517 g / cm^3
# Si number density = 20.722332 Si / 1000 Ang^3
#
#
#
# Elastic Constant Matrix: (Units=GPa)
#
#
# Indices 1 2 3 4 5 6 
#
# 1 41.1941 23.1738 7.3273 0.0000 -3.7593 0.0000
# 2 23.1738 146.9283 35.2006 0.0000 -14.4993 0.0000
# 3 7.3273 35.2006 106.5396 0.0000 -18.9228 0.0000
# 4 0.0000 0.0000 0.0000 2.5937 0.0000 1.2500
# 5 -3.7593 -14.4993 -18.9228 0.0000 29.3990 0.0000
# 6 0.0000 0.0000 0.0000 1.2500 0.0000 -0.8050
#
#
#
# Elastic Compliance Matrix: (Units=1/GPa)
#
#
# Indices 1 2 3 4 5 6 
#
# 1 0.026701 -0.004020 -0.000287 0.000000 0.001247 0.000000
# 2 -0.004020 0.008142 -0.002023 0.000000 0.002199 0.000000
# 3 -0.000287 -0.002023 0.011167 0.000000 0.006153 0.000000
# 4 0.000000 0.000000 0.000000 0.220520 0.000000 0.342420
# 5 0.001247 0.002199 0.006153 0.000000 0.039220 0.000000
# 6 0.000000 0.000000 0.000000 0.342420 0.000000 -0.710479
#
#
# Mechanical properties :
#
#
# Convention : Reuss Voigt Hill
#
# Bulk Modulus (GPa) = 29.98346 47.34060 38.66203
# Shear Modulus (GPa) = -13.12497 21.50156 4.18829
#
# Velocity S-wave (km/s) = -2.51942 3.22468 1.42321
# Velocity P-wave (km/s) = 2.45708 6.06297 4.62584
#
# Compressibility (1/GPa) = 0.03335172
#
# Stress axis : x y z
#
# Youngs Moduli (GPa) = 37.45121 122.82444 89.54778
#
# Poissons Ratio (x) = 0.49370 0.02568
# Poissons Ratio (y) = 0.15054 0.18115
# Poissons Ratio (z) = 0.01074 0.24847
#
# Static dielectric constant tensor:
#      x y z
#    x 3.444000 0.000000 -0.058580 
#    y 0.000000 3.649310 0.000000 
#    z -0.058580 0.000000 3.662550 
# 
# 
# High freq. dielectric constant tensor:
#      x y z
#    x 1.794500 0.000000 -0.003580 
#    y 0.000000 1.794200 0.000000 
#    z -0.003580 0.000000 1.811840 
# 
# From -- ./inp_files/72906.got.cif
#   From: 2010.06.25/outbox.cif.g09.slc.cpg/sg12_37_cif.got.tgz:72906.got - 2010.06.28 00:19:55.
