data_PCOD8110624
_publ_section_title
;
Structure prediction by ZEFSAII (Michael W. Deem and Ramdas Pophale) SiO2 
 PCOD8110624
Probable space group: C 2/M
;
_chemical_formula_sum "Si O2"
_cell_formula_units_Z 44
_cell_length_a 17.796772
_cell_length_b 12.981981
_cell_length_c 11.214331
_cell_angle_alpha 90.000000
_cell_angle_beta 49.400511
_cell_angle_gamma 90.000000
_cell_volume 1967.233378
_symmetry_space_group_name_H-M "C 2/M"
_symmetry_group_IT_number 12
_symmetry_cell_setting 'monoclinic'
loop_
_space_group_symop_operation_xyz
x,y,z
-x,y,-z
-x,-y,-z
x,-y,z
1/2+x,1/2+y,z
1/2-x,1/2+y,-z
1/2-x,1/2-y,-z
1/2+x,1/2-y,z
loop_
_atom_site_type_symbol
_atom_site_label
_atom_site_fract_x
_atom_site_fract_y
_atom_site_fract_z
Si Si1 0.612398 0.500000 0.353189
Si Si2 0.117292 0.000000 0.872714
Si Si3 0.559723 0.885631 0.815739
Si Si4 0.311245 0.715219 0.223377
Si Si5 0.773013 0.000000 0.990130
Si Si6 0.614593 0.722683 0.357746
Si Si7 0.629999 0.191256 0.089971
O O1 0.500000 0.500000 0.500000
O O2 0.631195 0.500000 0.192796
O O3 0.651424 0.608698 0.364073
O O4 0.146475 0.105574 0.775180
O O5 0.181763 0.000000 0.925978
O O6 0.000000 0.000000 0.000000
O O7 0.649024 0.803386 0.728107
O O8 0.481300 0.853919 0.795652
O O9 0.603210 0.000000 0.745523
O O10 0.500000 0.886032 0.000000
O O11 0.191054 0.705064 0.351320
O O12 0.346291 0.742352 0.052493
O O13 0.705922 0.098864 0.031764
O O14 0.500000 0.749212 0.500000
O O15 0.635747 0.730754 0.194810
#
# Coordination Sequence:
#
# PCOD8110624 Si02
#       7
#     4   4   8   8   4   8   8
#     4  10  22  36  57  93 130 155 199 259 313 358
#     4  12  24  38  56  94 128 162 204 253 311 370
#     4   9  19  33  60  91 119 151 199 264 312 353
#     4  11  22  38  60  91 124 160 203 259 313 363
#     4  12  20  36  68  92 121 154 213 257 300 364
#     4  11  23  39  60  92 126 164 209 252 310 366
#     4  11  20  38  62  95 116 156 213 260 301 358
#
# _framework density 22.366436
#
# number of rings (size 3 to 8) (size 9 to 14) (size 15 to 20)
#    0.000    1.273    4.545    3.273    2.545    0.000 
#    0.000    2.727    0.000    0.000    0.000    0.000 
#    0.000    0.000    0.000    0.000    0.000    0.000 
#
# Total GULP energy -272539.636867 kJ/mol
# GULP energy per Si atom -12388.165312 kJ/mol
# Density = 2.231553 g / cm^3
# Si number density = 22.366436 Si / 1000 Ang^3
#
#
#
# Elastic Constant Matrix: (Units=GPa)
#
#
# Indices 1 2 3 4 5 6 
#
# 1 130.8627 58.7147 19.0975 0.0000 -38.1194 0.0000
# 2 58.7147 176.7118 27.0516 0.0000 -29.0668 0.0000
# 3 19.0975 27.0516 53.8485 0.0000 -25.8147 0.0000
# 4 0.0000 0.0000 0.0000 36.9047 0.0000 4.6142
# 5 -38.1194 -29.0668 -25.8147 0.0000 33.6934 0.0000
# 6 0.0000 0.0000 0.0000 4.6142 0.0000 45.6203
#
#
#
# Elastic Compliance Matrix: (Units=1/GPa)
#
#
# Indices 1 2 3 4 5 6 
#
# 1 0.012528 -0.002261 0.004034 0.000000 0.015314 0.000000
# 2 -0.002261 0.007032 -0.001658 0.000000 0.002238 0.000000
# 3 0.004034 -0.001658 0.030781 0.000000 0.026717 0.000000
# 4 0.000000 0.000000 0.000000 0.027444 0.000000 -0.002776
# 5 0.015314 0.002238 0.026717 0.000000 0.069406 0.000000
# 6 0.000000 0.000000 0.000000 -0.002776 0.000000 0.022201
#
#
# Mechanical properties :
#
#
# Convention : Reuss Voigt Hill
#
# Bulk Modulus (GPa) = 19.77383 63.46118 41.61751
# Shear Modulus (GPa) = 26.87897 40.34762 33.61329
#
# Velocity S-wave (km/s) = 3.47039 4.25188 3.88086
# Velocity P-wave (km/s) = 4.99182 7.24843 6.22326
#
# Compressibility (1/GPa) = 0.05057190
#
# Stress axis : x y z
#
# Youngs Moduli (GPa) = 79.81873 142.20318 32.48776
#
# Poissons Ratio (x) = 0.32156 -0.13107
# Poissons Ratio (y) = 0.18049 0.05386
# Poissons Ratio (z) = -0.32202 0.23575
#
# Static dielectric constant tensor:
#      x y z
#    x 4.391330 0.000000 -0.344360 
#    y 0.000000 3.155740 0.000000 
#    z -0.344360 0.000000 3.725700 
# 
# 
# High freq. dielectric constant tensor:
#      x y z
#    x 1.881940 0.000000 -0.030540 
#    y 0.000000 1.901520 0.000000 
#    z -0.030540 0.000000 1.833340 
# 
# From -- ./inp_files/155869.got.cif
#   From: 2010.06.25/outbox.cif.g09.slc.cpg/sg12_78_cif.got.tgz:155869.got - 2010.06.28 00:19:55.
