data_PCOD8110430
_publ_section_title
;
Structure prediction by ZEFSAII (Michael W. Deem and Ramdas Pophale) SiO2 
 PCOD8110430
Probable space group: C 2/M
;
_chemical_formula_sum "Si O2"
_cell_formula_units_Z 40
_cell_length_a 7.900797
_cell_length_b 18.652470
_cell_length_c 12.229649
_cell_angle_alpha 90.000000
_cell_angle_beta 118.817958
_cell_angle_gamma 90.000000
_cell_volume 1579.074093
_symmetry_space_group_name_H-M "C 2/M"
_symmetry_group_IT_number 12
_symmetry_cell_setting 'monoclinic'
loop_
_space_group_symop_operation_xyz
x,y,z
-x,y,-z
-x,-y,-z
x,-y,z
1/2+x,1/2+y,z
1/2-x,1/2+y,-z
1/2-x,1/2-y,-z
1/2+x,1/2-y,z
loop_
_atom_site_type_symbol
_atom_site_label
_atom_site_fract_x
_atom_site_fract_y
_atom_site_fract_z
Si Si1 0.739764 0.000000 0.055256
Si Si2 0.000000 0.368800 0.000000
Si Si3 0.711662 0.285801 0.761373
Si Si4 0.673700 0.500000 0.197514
Si Si5 0.717242 0.624226 0.561475
Si Si6 0.309456 0.349727 0.689727
Si Si7 0.583877 0.000000 0.253180
O O1 0.958280 0.000000 0.080735
O O2 0.644482 0.924870 0.982990
O O3 0.706384 0.000000 0.178671
O O4 0.101801 0.315695 0.116944
O O5 0.725949 0.305692 0.638671
O O6 0.526860 0.319048 0.762045
O O7 0.698138 0.198857 0.746089
O O8 0.694815 0.431937 0.280568
O O9 0.846367 0.500000 0.160402
O O10 0.500000 0.591172 0.500000
O O11 0.778216 0.650604 0.459929
O O12 0.868130 0.567774 0.656795
#
# Coordination Sequence:
#
# PCOD8110430 Si02
#       7
#     4   4   8   4   8   8   4
#     4  11  22  48  74 105 152 198 240 304 367 439
#     4  11  22  44  80  97 140 204 248 295 370 434
#     4  11  24  43  72 102 140 196 239 306 368 429
#     4  12  26  48  71 113 149 186 247 310 354 450
#     4  10  21  42  69 107 145 194 237 300 367 441
#     4  11  25  45  69 104 150 183 246 300 367 436
#     4  12  23  42  78 109 152 191 248 291 382 430
#
# _framework density 25.331299000000001
#
# number of rings (size 3 to 8) (size 9 to 14) (size 15 to 20)
#    0.000    1.000    4.000    2.700    2.800    2.400 
#    0.000    2.000    0.000    0.000    0.000    0.000 
#    0.000    0.000    0.000    0.000    0.000    0.000 
#
# Total GULP energy -247863.125068 kJ/mol
# GULP energy per Si atom -12393.156253 kJ/mol
# Density = 2.527364 g / cm^3
# Si number density = 25.331299 Si / 1000 Ang^3
#
#
#
# Elastic Constant Matrix: (Units=GPa)
#
#
# Indices 1 2 3 4 5 6 
#
# 1 121.3528 31.8937 47.4354 0.0000 6.2747 0.0000
# 2 31.8937 165.2069 24.5891 0.0000 -12.6829 0.0000
# 3 47.4354 24.5891 83.6449 0.0000 7.2504 0.0000
# 4 0.0000 0.0000 0.0000 45.1472 0.0000 -6.3470
# 5 6.2747 -12.6829 7.2504 0.0000 41.3185 0.0000
# 6 0.0000 0.0000 0.0000 -6.3470 0.0000 32.9584
#
#
#
# Elastic Compliance Matrix: (Units=1/GPa)
#
#
# Indices 1 2 3 4 5 6 
#
# 1 0.010865 -0.001334 -0.005677 0.000000 -0.001063 0.000000
# 2 -0.001334 0.006718 -0.001436 0.000000 0.002517 0.000000
# 3 -0.005677 -0.001436 0.015801 0.000000 -0.002351 0.000000
# 4 0.000000 0.000000 0.000000 0.022766 0.000000 0.004384
# 5 -0.001063 0.002517 -0.002351 0.000000 0.025549 0.000000
# 6 0.000000 0.000000 0.000000 0.004384 0.000000 0.031186
#
#
# Mechanical properties :
#
#
# Convention : Reuss Voigt Hill
#
# Bulk Modulus (GPa) = 60.64958 64.22678 62.43818
# Shear Modulus (GPa) = 36.96143 41.63724 39.29933
#
# Velocity S-wave (km/s) = 3.82399 4.05866 3.94307
# Velocity P-wave (km/s) = 6.59482 6.88284 6.74037
#
# Compressibility (1/GPa) = 0.01648816
#
# Stress axis : x y z
#
# Youngs Moduli (GPa) = 92.03622 148.86354 63.28710
#
# Poissons Ratio (x) = 0.19861 0.35930
# Poissons Ratio (y) = 0.12279 0.09090
# Poissons Ratio (z) = 0.52252 0.21381
#
# Static dielectric constant tensor:
#      x y z
#    x 4.531820 0.000000 0.307080 
#    y 0.000000 4.632080 0.000000 
#    z 0.307080 0.000000 4.754000 
# 
# 
# High freq. dielectric constant tensor:
#      x y z
#    x 2.002670 0.000000 0.004280 
#    y 0.000000 2.020070 0.000000 
#    z 0.004280 0.000000 2.024940 
# 
# From -- ./inp_files/197367.got.cif
#   From: 2010.06.25/outbox.cif.g09.slc.cpg/sg12_99_cif.got.tgz:197367.got - 2010.06.28 00:19:55.
