data_PCOD8110045
_publ_section_title
;
Structure prediction by ZEFSAII (Michael W. Deem and Ramdas Pophale) SiO2 
 PCOD8110045
Probable space group: C 2/M
;
_chemical_formula_sum "Si O2"
_cell_formula_units_Z 64
_cell_length_a 27.698737
_cell_length_b 13.977677
_cell_length_c 18.871899
_cell_angle_alpha 90.000000
_cell_angle_beta 25.136608
_cell_angle_gamma 90.000000
_cell_volume 3103.648403
_symmetry_space_group_name_H-M "C 2/M"
_symmetry_group_IT_number 12
_symmetry_cell_setting 'monoclinic'
loop_
_space_group_symop_operation_xyz
x,y,z
-x,y,-z
-x,-y,-z
x,-y,z
1/2+x,1/2+y,z
1/2-x,1/2+y,-z
1/2-x,1/2-y,-z
1/2+x,1/2-y,z
loop_
_atom_site_type_symbol
_atom_site_label
_atom_site_fract_x
_atom_site_fract_y
_atom_site_fract_z
Si Si1 0.585575 0.804475 0.320016
Si Si2 0.518237 0.603778 0.392545
Si Si3 0.105800 0.285518 0.812795
Si Si4 0.837071 0.890384 0.515239
Si Si5 0.015765 0.233779 0.785224
Si Si6 0.515056 0.891384 0.681579
Si Si7 0.268986 0.606398 0.306850
Si Si8 0.199781 0.109547 0.896528
O O1 0.500000 0.805015 0.500000
O O2 0.597888 0.695811 0.272087
O O3 0.536537 0.876250 0.327221
O O4 0.710689 0.840120 0.171197
O O5 0.500000 0.596905 0.500000
O O6 0.570000 0.500000 0.298494
O O7 0.400800 0.622277 0.506057
O O8 0.208830 0.355134 0.695861
O O9 0.078179 0.288032 0.766424
O O10 0.134170 0.176259 0.794355
O O11 0.000000 0.321150 0.000000
O O12 0.895703 0.829541 0.375995
O O13 0.835905 0.000000 0.492278
O O14 0.961307 0.317591 0.809129
O O15 0.918110 0.165242 0.943789
O O16 0.649588 0.869607 0.502243
O O17 0.490079 0.000000 0.738296
O O18 0.310035 0.500000 0.272232
O O19 0.249900 0.615888 0.248604
O O20 0.180401 0.000000 0.946188
#
# Coordination Sequence:
#
# PCOD8110045 Si02
#       8
#     8   8   8   8   8   8   8   8
#     4  11  20  37  68  97 132 168 215 264 320 376
#     4   9  19  36  63  95 129 171 216 255 306 380
#     4  12  25  43  67  93 125 167 222 271 325 380
#     4  11  24  44  67  94 129 171 217 265 322 385
#     4  12  25  44  64  91 133 171 213 266 327 387
#     4  11  23  41  66  97 131 167 212 265 326 385
#     4  10  21  40  66  96 128 163 212 269 323 383
#     4  11  24  40  65  99 131 170 216 263 320 389
#
# _framework density 20.620892999999999
#
# number of rings (size 3 to 8) (size 9 to 14) (size 15 to 20)
#    0.000    1.125    5.000    1.125    1.750    3.000 
#    0.000    0.625    0.000    0.000    0.000    0.000 
#    0.000    0.000    0.000    0.000    0.000    0.000 
#
# Total GULP energy -396816.155029 kJ/mol
# GULP energy per Si atom -12400.504845 kJ/mol
# Density = 2.057396 g / cm^3
# Si number density = 20.620893 Si / 1000 Ang^3
#
#
#
# Elastic Constant Matrix: (Units=GPa)
#
#
# Indices 1 2 3 4 5 6 
#
# 1 113.1467 36.3258 21.6860 0.0000 -1.9184 0.0000
# 2 36.3258 133.2527 26.1608 0.0000 -1.3639 0.0000
# 3 21.6860 26.1608 45.4448 0.0000 -1.1293 0.0000
# 4 0.0000 0.0000 0.0000 -73.4214 0.0000 -43.2091
# 5 -1.9184 -1.3639 -1.1293 0.0000 23.9597 0.0000
# 6 0.0000 0.0000 0.0000 -43.2091 0.0000 16.9678
#
#
#
# Elastic Compliance Matrix: (Units=1/GPa)
#
#
# Indices 1 2 3 4 5 6 
#
# 1 0.010212 -0.002057 -0.003676 0.000000 0.000527 0.000000
# 2 -0.002057 0.008877 -0.004125 0.000000 0.000146 0.000000
# 3 -0.003676 -0.004125 0.026151 0.000000 0.000703 0.000000
# 4 0.000000 0.000000 0.000000 -0.005451 0.000000 -0.013881
# 5 0.000527 0.000146 0.000703 0.000000 0.041820 0.000000
# 6 0.000000 0.000000 0.000000 -0.013881 0.000000 0.023587
#
#
# Mechanical properties :
#
#
# Convention : Reuss Voigt Hill
#
# Bulk Modulus (GPa) = 39.17839 51.13215 45.15527
# Shear Modulus (GPa) = 37.47604 7.34600 22.41102
#
# Velocity S-wave (km/s) = 4.26770 1.88948 3.30026
# Velocity P-wave (km/s) = 6.58217 5.44153 6.03884
#
# Compressibility (1/GPa) = 0.02552428
#
# Stress axis : x y z
#
# Youngs Moduli (GPa) = 97.92503 112.65685 38.23969
#
# Poissons Ratio (x) = 0.23171 0.14057
# Poissons Ratio (y) = 0.20141 0.15773
# Poissons Ratio (z) = 0.35997 0.46468
#
# Static dielectric constant tensor:
#      x y z
#    x 3.757290 0.000000 -0.000140 
#    y 0.000000 4.168100 0.000000 
#    z -0.000140 0.000000 3.490260 
# 
# 
# High freq. dielectric constant tensor:
#      x y z
#    x 1.816170 0.000000 -0.005160 
#    y 0.000000 1.826010 0.000000 
#    z -0.005160 0.000000 1.778420 
# 
# From -- ./inp_files/290100.got.cif
#   From: 2010.06.25/outbox.cif.g09.slc.cpg/sg12_146_cif.got.tgz:290100.got - 2010.06.28 00:19:55.
