data_PCOD8110870
_publ_section_title
;
Structure prediction by ZEFSAII (Michael W. Deem and Ramdas Pophale) SiO2 
 PCOD8110870
Probable space group: C 2/M
;
_chemical_formula_sum "Si O2"
_cell_formula_units_Z 56
_cell_length_a 17.849565
_cell_length_b 18.353107
_cell_length_c 9.294118
_cell_angle_alpha 90.000000
_cell_angle_beta 74.384581
_cell_angle_gamma 90.000000
_cell_volume 2932.326749
_symmetry_space_group_name_H-M "C 2/M"
_symmetry_group_IT_number 12
_symmetry_cell_setting 'monoclinic'
loop_
_space_group_symop_operation_xyz
x,y,z
-x,y,-z
-x,-y,-z
x,-y,z
1/2+x,1/2+y,z
1/2-x,1/2+y,-z
1/2-x,1/2-y,-z
1/2+x,1/2-y,z
loop_
_atom_site_type_symbol
_atom_site_label
_atom_site_fract_x
_atom_site_fract_y
_atom_site_fract_z
Si Si1 0.764568 0.083876 0.230837
Si Si2 0.445311 0.310965 0.396925
Si Si3 0.845634 0.416437 0.241816
Si Si4 0.374308 0.085369 0.899795
Si Si5 0.483097 0.855415 0.343897
Si Si6 0.231163 0.832800 0.487753
Si Si7 0.060221 0.919054 0.842204
O O1 0.709297 0.105035 0.126134
O O2 0.737976 0.126156 0.386878
O O3 0.853811 0.103185 0.144644
O O4 0.754077 0.000000 0.274619
O O5 0.500000 0.328580 0.500000
O O6 0.450349 0.226623 0.348840
O O7 0.360604 0.338825 0.487444
O O8 0.473018 0.360344 0.251020
O O9 0.817865 0.500000 0.255958
O O10 0.773500 0.366103 0.326485
O O11 0.917537 0.408086 0.313749
O O12 0.871785 0.392723 0.068481
O O13 0.438685 0.134994 0.788911
O O14 0.395171 0.000000 0.869807
O O15 0.500000 0.877145 0.500000
O O16 0.250000 0.750000 0.500000
O O17 0.064528 0.000000 0.769921
O O18 0.000000 0.919170 0.000000
#
# Coordination Sequence:
#
# PCOD8110870 Si02
#       7
#     8   8   8   8   8   8   8
#     4   9  19  37  60  86 114 151 195 238 292 356
#     4  10  23  39  58  85 118 152 196 244 291 347
#     4  11  23  39  61  89 120 156 196 246 298 349
#     4  10  22  38  59  91 125 153 193 242 294 359
#     4  11  22  38  60  86 124 162 197 237 291 357
#     4  11  21  39  60  82 117 153 194 245 285 343
#     4   9  19  37  61  85 113 151 197 246 294 345
#
# _framework density 19.097463000000001
#
# number of rings (size 3 to 8) (size 9 to 14) (size 15 to 20)
#    0.000    1.857    1.429    2.143    2.000    6.571 
#    0.000    2.143    0.000    0.000    0.000    0.000 
#    0.000    0.000    0.000    0.000    0.000    0.000 
#
# Total GULP energy -347246.230581 kJ/mol
# GULP energy per Si atom -12401.651092 kJ/mol
# Density = 1.905400 g / cm^3
# Si number density = 19.097463 Si / 1000 Ang^3
#
#
#
# Elastic Constant Matrix: (Units=GPa)
#
#
# Indices 1 2 3 4 5 6 
#
# 1 88.0130 37.7117 51.0140 0.0000 7.2587 0.0000
# 2 37.7117 75.1118 53.4690 0.0000 1.1313 0.0000
# 3 51.0140 53.4690 129.5477 0.0000 -3.1054 0.0000
# 4 0.0000 0.0000 0.0000 25.8228 0.0000 -5.0195
# 5 7.2587 1.1313 -3.1054 0.0000 33.8131 0.0000
# 6 0.0000 0.0000 0.0000 -5.0195 0.0000 31.6223
#
#
#
# Elastic Compliance Matrix: (Units=1/GPa)
#
#
# Indices 1 2 3 4 5 6 
#
# 1 0.016415 -0.004983 -0.004498 0.000000 -0.003770 0.000000
# 2 -0.004983 0.020427 -0.006474 0.000000 -0.000208 0.000000
# 3 -0.004498 -0.006474 0.012217 0.000000 0.002304 0.000000
# 4 0.000000 0.000000 0.000000 0.039958 0.000000 0.006343
# 5 -0.003770 -0.000208 0.002304 0.000000 0.030602 0.000000
# 6 0.000000 0.000000 0.000000 0.006343 0.000000 0.032630
#
#
# Mechanical properties :
#
#
# Convention : Reuss Voigt Hill
#
# Bulk Modulus (GPa) = 58.30729 64.11798 61.21263
# Shear Modulus (GPa) = 26.33306 28.28348 27.30827
#
# Velocity S-wave (km/s) = 3.71735 3.85256 3.78556
# Velocity P-wave (km/s) = 7.00162 7.31003 7.15749
#
# Compressibility (1/GPa) = 0.01715051
#
# Stress axis : x y z
#
# Youngs Moduli (GPa) = 60.92009 48.95536 81.85043
#
# Poissons Ratio (x) = 0.24395 0.36814
# Poissons Ratio (y) = 0.30357 0.52987
# Poissons Ratio (z) = 0.27400 0.31692
#
# Static dielectric constant tensor:
#      x y z
#    x 4.690790 0.000000 -1.062900 
#    y 0.000000 3.582290 0.000000 
#    z -1.062900 0.000000 4.495830 
# 
# 
# High freq. dielectric constant tensor:
#      x y z
#    x 1.752200 0.000000 -0.005420 
#    y 0.000000 1.743340 0.000000 
#    z -0.005420 0.000000 1.739990 
# 
# From -- ./inp_files/75913.got.cif
#   From: 2010.06.25/outbox.cif.g09.slc.cpg/sg12_38_cif.got.tgz:75913.got - 2010.06.28 00:19:55.
