data_PCOD8110487
_publ_section_title
;
Structure prediction by ZEFSAII (Michael W. Deem and Ramdas Pophale) SiO2 
 PCOD8110487
Probable space group: C 2/M
;
_chemical_formula_sum "Si O2"
_cell_formula_units_Z 56
_cell_length_a 9.741119
_cell_length_b 28.689186
_cell_length_c 22.506047
_cell_angle_alpha 90.000000
_cell_angle_beta 153.850850
_cell_angle_gamma 90.000000
_cell_volume 2771.906476
_symmetry_space_group_name_H-M "C 2/M"
_symmetry_group_IT_number 12
_symmetry_cell_setting 'monoclinic'
loop_
_space_group_symop_operation_xyz
x,y,z
-x,y,-z
-x,-y,-z
x,-y,z
1/2+x,1/2+y,z
1/2-x,1/2+y,-z
1/2-x,1/2-y,-z
1/2+x,1/2-y,z
loop_
_atom_site_type_symbol
_atom_site_label
_atom_site_fract_x
_atom_site_fract_y
_atom_site_fract_z
Si Si1 0.207955 0.862596 0.715143
Si Si2 0.779780 0.946853 0.360884
Si Si3 0.627612 0.204342 0.485742
Si Si4 0.640973 0.124004 0.992922
Si Si5 0.565862 0.446814 0.091860
Si Si6 0.605538 0.293862 0.196624
Si Si7 0.325261 0.794103 0.153669
O O1 0.147634 0.914545 0.667473
O O2 0.437639 0.837227 0.757874
O O3 0.885344 0.835140 0.594300
O O4 0.358812 0.865835 0.838599
O O5 0.428109 0.941410 0.247517
O O6 0.000000 0.931201 0.500000
O O7 0.845961 0.000000 0.366636
O O8 0.500000 0.220048 0.500000
O O9 0.750000 0.250000 0.500000
O O10 0.347250 0.183263 0.336982
O O11 0.870351 0.083621 0.061314
O O12 0.828127 0.171610 0.073591
O O13 0.500000 0.106977 0.000000
O O14 0.451646 0.500000 0.053511
O O15 0.500000 0.428324 0.000000
O O16 0.456501 0.247937 0.166172
O O17 0.788330 0.279191 0.207784
O O18 0.000000 0.811391 0.000000
#
# Coordination Sequence:
#
# PCOD8110487 Si02
#       7
#     8   8   8   8   8   8   8
#     4  12  26  42  68  96 135 172 222 273 335 392
#     4  10  23  43  72 103 132 169 218 273 335 400
#     4  12  27  46  64  93 133 175 226 276 330 387
#     4  12  26  42  65  98 134 179 222 270 336 395
#     4  10  21  43  71 100 133 167 216 281 332 390
#     4  12  26  42  66  90 134 177 228 278 327 389
#     4  12  25  41  65  95 130 177 225 274 328 394
#
# _framework density 20.202701999999999
#
# number of rings (size 3 to 8) (size 9 to 14) (size 15 to 20)
#    0.000    0.571    4.286    3.429    6.000    0.286 
#    0.000    0.000    0.000    0.429    0.000    0.000 
#    0.000    0.000    0.000    0.000    0.000    0.000 
#
# Total GULP energy -347381.505938 kJ/mol
# GULP energy per Si atom -12406.482355 kJ/mol
# Density = 2.015672 g / cm^3
# Si number density = 20.202702 Si / 1000 Ang^3
#
#
#
# Elastic Constant Matrix: (Units=GPa)
#
#
# Indices 1 2 3 4 5 6 
#
# 1 157.3242 55.6001 39.8507 0.0258 -14.2817 0.0025
# 2 55.6001 108.4987 41.1483 0.0204 -6.0587 -0.0036
# 3 39.8507 41.1483 148.1109 0.1047 -16.4106 0.0156
# 4 0.0258 0.0204 0.1047 29.2514 0.0401 1.8595
# 5 -14.2817 -6.0587 -16.4106 0.0401 32.8404 -0.0076
# 6 0.0025 -0.0036 0.0156 1.8595 -0.0076 26.2825
#
#
#
# Elastic Compliance Matrix: (Units=1/GPa)
#
#
# Indices 1 2 3 4 5 6 
#
# 1 0.008100 -0.003679 -0.000892 -0.000005 0.002398 0.000000
# 2 -0.003679 0.011981 -0.002404 0.000004 -0.000591 0.000003
# 3 -0.000892 -0.002404 0.008011 -0.000030 0.003172 -0.000002
# 4 -0.000005 0.000004 -0.000030 0.034341 -0.000059 -0.002430
# 5 0.002398 -0.000591 0.003172 -0.000059 0.032969 0.000012
# 6 0.000000 0.000003 -0.000002 -0.002430 0.000012 0.038220
#
#
# Mechanical properties :
#
#
# Convention : Reuss Voigt Hill
#
# Bulk Modulus (GPa) = 70.70839 76.34799 73.52819
# Shear Modulus (GPa) = 32.83311 36.16384 34.49848
#
# Velocity S-wave (km/s) = 4.03573 4.23549 4.13682
# Velocity P-wave (km/s) = 7.53602 7.86080 7.70012
#
# Compressibility (1/GPa) = 0.01414259
#
# Stress axis : x y z
#
# Youngs Moduli (GPa) = 123.45711 83.46787 124.82869
#
# Poissons Ratio (x) = 0.30706 0.11130
# Poissons Ratio (y) = 0.45417 0.30011
# Poissons Ratio (z) = 0.11008 0.20067
#
# Static dielectric constant tensor:
#      x y z
#    x 3.789260 0.000020 -0.053980 
#    y 0.000020 3.749490 -0.000250 
#    z -0.053980 -0.000250 4.175790 
# 
# 
# High freq. dielectric constant tensor:
#      x y z
#    x 1.784990 0.000000 -0.002080 
#    y 0.000000 1.786850 -0.000010 
#    z -0.002080 -0.000010 1.812160 
# 
# From -- ./inp_files/303050.got.cif
#   From: 2010.06.25/outbox.cif.g09.slc.cpg/sg12_152_cif.got.tgz:303050.got - 2010.06.28 00:19:55.
