data_PCOD8110791
_publ_section_title
;
Structure prediction by ZEFSAII (Michael W. Deem and Ramdas Pophale) SiO2 
 PCOD8110791
Probable space group: C 2/M
;
_chemical_formula_sum "Si O2"
_cell_formula_units_Z 48
_cell_length_a 24.842455
_cell_length_b 9.053369
_cell_length_c 11.033743
_cell_angle_alpha 90.000000
_cell_angle_beta 100.535001
_cell_angle_gamma 90.000000
_cell_volume 2439.745163
_symmetry_space_group_name_H-M "C 2/M"
_symmetry_group_IT_number 12
_symmetry_cell_setting 'monoclinic'
loop_
_space_group_symop_operation_xyz
x,y,z
-x,y,-z
-x,-y,-z
x,-y,z
1/2+x,1/2+y,z
1/2-x,1/2+y,-z
1/2-x,1/2-y,-z
1/2+x,1/2-y,z
loop_
_atom_site_type_symbol
_atom_site_label
_atom_site_fract_x
_atom_site_fract_y
_atom_site_fract_z
Si Si1 0.193349 0.834475 0.458478
Si Si2 0.022016 0.176225 0.640134
Si Si3 0.857851 0.163888 0.304055
Si Si4 0.854687 0.674283 0.775835
Si Si5 0.963982 0.825994 0.867191
Si Si6 0.745980 0.324811 0.872025
O O1 0.250000 0.750000 0.500000
O O2 0.159379 0.846879 0.565448
O O3 0.151234 0.745113 0.358221
O O4 0.205690 0.000000 0.414184
O O5 0.083264 0.243474 0.683512
O O6 0.000000 0.236163 0.500000
O O7 0.988571 0.226856 0.746680
O O8 0.023796 0.000000 0.634050
O O9 0.808718 0.244024 0.211638
O O10 0.864530 0.000000 0.251876
O O11 0.862057 0.500000 0.768969
O O12 0.906775 0.743013 0.865090
O O13 0.799370 0.721522 0.820324
O O14 0.953545 0.000000 0.859562
O O15 0.000000 0.783448 0.000000
O O16 0.742335 0.500000 0.880303
O O17 0.750000 0.250000 0.000000
#
# Coordination Sequence:
#
# PCOD8110791 Si02
#       6
#     8   8   8   8   8   8
#     4  11  20  35  59  88 120 152 192 238 292 351
#     4   9  17  32  56  84 113 147 189 239 295 348
#     4   9  18  34  57  83 115 149 185 238 293 344
#     4  11  23  40  59  84 120 157 194 238 295 357
#     4  10  22  38  60  90 114 146 202 252 292 351
#     4  10  22  38  56  82 114 152 196 237 288 348
#
# _framework density 19.674185000000001
#
# number of rings (size 3 to 8) (size 9 to 14) (size 15 to 20)
#    0.000    2.000    1.667    2.000    2.333    4.333 
#    0.000    0.000    0.000    5.500    0.000    0.000 
#    0.000    0.000    0.000    0.000    0.000    0.000 
#
# Total GULP energy -297443.916440 kJ/mol
# GULP energy per Si atom -12393.496518 kJ/mol
# Density = 1.962941 g / cm^3
# Si number density = 19.674185 Si / 1000 Ang^3
#
#
#
# Elastic Constant Matrix: (Units=GPa)
#
#
# Indices 1 2 3 4 5 6 
#
# 1 141.7475 32.9858 64.0826 0.0000 31.5808 0.0000
# 2 32.9858 39.9527 28.9344 0.0000 12.9247 0.0000
# 3 64.0826 28.9344 153.3034 0.0000 21.1080 0.0000
# 4 0.0000 0.0000 0.0000 25.2963 0.0000 3.4376
# 5 31.5808 12.9247 21.1080 0.0000 37.5648 0.0000
# 6 0.0000 0.0000 0.0000 3.4376 0.0000 25.7814
#
#
#
# Elastic Compliance Matrix: (Units=1/GPa)
#
#
# Indices 1 2 3 4 5 6 
#
# 1 0.010752 -0.005018 -0.002754 0.000000 -0.005765 0.000000
# 2 -0.005018 0.033412 -0.003476 0.000000 -0.005325 0.000000
# 3 -0.002754 -0.003476 0.008505 0.000000 -0.001268 0.000000
# 4 0.000000 0.000000 0.000000 0.040261 0.000000 -0.005368
# 5 -0.005765 -0.005325 -0.001268 0.000000 0.034012 0.000000
# 6 0.000000 0.000000 0.000000 -0.005368 0.000000 0.039503
#
#
# Mechanical properties :
#
#
# Convention : Reuss Voigt Hill
#
# Bulk Modulus (GPa) = 33.14032 65.22324 49.18178
# Shear Modulus (GPa) = 25.12607 31.66190 28.39398
#
# Velocity S-wave (km/s) = 3.57754 4.01597 3.80308
# Velocity P-wave (km/s) = 5.82634 7.39782 6.65860
#
# Compressibility (1/GPa) = 0.03017473
#
# Stress axis : x y z
#
# Youngs Moduli (GPa) = 93.00764 29.92955 117.58347
#
# Poissons Ratio (x) = 0.15018 0.32377
# Poissons Ratio (y) = 0.46668 0.40867
# Poissons Ratio (z) = 0.25610 0.10402
#
# Static dielectric constant tensor:
#      x y z
#    x 4.496250 0.000000 -0.302360 
#    y 0.000000 3.106450 0.000000 
#    z -0.302360 0.000000 3.997370 
# 
# 
# High freq. dielectric constant tensor:
#      x y z
#    x 1.782050 0.000000 0.009830 
#    y 0.000000 1.725490 0.000000 
#    z 0.009830 0.000000 1.777450 
# 
# From -- ./inp_files/172087.got.cif
#   From: 2010.06.25/outbox.cif.g09.slc.cpg/sg12_87_cif.got.tgz:172087.got - 2010.06.28 00:19:55.
