data_PCOD8110979
_publ_section_title
;
Structure prediction by ZEFSAII (Michael W. Deem and Ramdas Pophale) SiO2 
 PCOD8110979
Probable space group: C 2/M
;
_chemical_formula_sum "Si O2"
_cell_formula_units_Z 64
_cell_length_a 15.036263
_cell_length_b 17.948747
_cell_length_c 15.742155
_cell_angle_alpha 90.000000
_cell_angle_beta 45.899209
_cell_angle_gamma 90.000000
_cell_volume 3050.937100
_symmetry_space_group_name_H-M "C 2/M"
_symmetry_group_IT_number 12
_symmetry_cell_setting 'monoclinic'
loop_
_space_group_symop_operation_xyz
x,y,z
-x,y,-z
-x,-y,-z
x,-y,z
1/2+x,1/2+y,z
1/2-x,1/2+y,-z
1/2-x,1/2-y,-z
1/2+x,1/2-y,z
loop_
_atom_site_type_symbol
_atom_site_label
_atom_site_fract_x
_atom_site_fract_y
_atom_site_fract_z
Si Si1 0.947943 0.316436 0.795196
Si Si2 0.996696 0.916960 0.134261
Si Si3 0.421325 0.179186 0.471874
Si Si4 0.797032 0.196679 0.813521
Si Si5 0.422798 0.259204 0.131906
Si Si6 0.308588 0.581966 0.405244
Si Si7 0.958416 0.847129 0.440593
Si Si8 0.226741 0.414872 0.993474
O O1 0.833458 0.260902 0.855799
O O2 0.017432 0.336358 0.660975
O O3 0.036662 0.277130 0.805685
O O4 0.887626 0.392501 0.869812
O O5 0.934913 0.849722 0.122200
O O6 0.933830 0.915750 0.267980
O O7 0.142480 0.901626 0.046599
O O8 0.974182 0.000000 0.107962
O O9 0.500000 0.148621 0.500000
O O10 0.289347 0.139789 0.566444
O O11 0.398621 0.266623 0.498878
O O12 0.719123 0.234144 0.788789
O O13 0.717283 0.134311 0.914639
O O14 0.921978 0.159695 0.697533
O O15 0.500000 0.228280 0.000000
O O16 0.247984 0.500000 0.446582
O O17 0.350745 0.603066 0.471893
O O18 0.000000 0.886336 0.500000
O O19 0.209691 0.500000 0.978037
#
# Coordination Sequence:
#
# PCOD8110979 Si02
#       8
#     8   8   8   8   8   8   8   8
#     4  11  23  43  64  96 130 167 220 270 310 384
#     4  10  22  39  62  94 127 167 209 261 321 380
#     4  10  24  43  68  95 123 169 217 266 319 375
#     4  11  22  40  64  95 130 170 213 264 326 373
#     4  12  23  37  68  96 129 169 211 260 325 382
#     4  11  23  41  64  90 131 170 208 265 326 379
#     4  10  22  38  64  95 124 165 221 271 314 376
#     4  11  21  41  67  92 129 171 211 262 324 381
#
# _framework density 20.977162
#
# number of rings (size 3 to 8) (size 9 to 14) (size 15 to 20)
#    0.000    1.250    3.750    2.250    7.000    1.250 
#    0.000    1.875    0.000    0.000    0.000    0.000 
#    0.000    0.000    0.000    0.000    0.000    0.000 
#
# Total GULP energy -396747.318279 kJ/mol
# GULP energy per Si atom -12398.353696 kJ/mol
# Density = 2.092942 g / cm^3
# Si number density = 20.977162 Si / 1000 Ang^3
#
#
#
# Elastic Constant Matrix: (Units=GPa)
#
#
# Indices 1 2 3 4 5 6 
#
# 1 132.8712 37.3363 27.2990 0.0000 14.2149 0.0000
# 2 37.3363 77.7215 25.2828 0.0000 -0.3163 0.0000
# 3 27.2990 25.2828 54.1402 0.0000 9.3291 -0.0001
# 4 0.0000 0.0000 0.0000 21.0299 0.0000 -2.2814
# 5 14.2149 -0.3163 9.3291 0.0000 29.9866 0.0000
# 6 0.0000 0.0000 -0.0001 -2.2814 0.0000 5.3485
#
#
#
# Elastic Compliance Matrix: (Units=1/GPa)
#
#
# Indices 1 2 3 4 5 6 
#
# 1 0.009486 -0.003808 -0.002349 0.000000 -0.003806 0.000000
# 2 -0.003808 0.016879 -0.006661 0.000000 0.004056 0.000000
# 3 -0.002349 -0.006661 0.023865 0.000000 -0.006381 0.000000
# 4 0.000000 0.000000 0.000000 0.049859 0.000000 0.021267
# 5 -0.003806 0.004056 -0.006381 0.000000 0.037181 0.000000
# 6 0.000000 0.000000 0.000000 0.021267 0.000000 0.196039
#
#
# Mechanical properties :
#
#
# Convention : Reuss Voigt Hill
#
# Bulk Modulus (GPa) = 40.66017 49.39660 45.02838
# Shear Modulus (GPa) = 13.61868 22.92732 18.27300
#
# Velocity S-wave (km/s) = 2.55073 3.30959 2.95463
# Velocity P-wave (km/s) = 5.30096 6.18089 5.75776
#
# Compressibility (1/GPa) = 0.02459409
#
# Stress axis : x y z
#
# Youngs Moduli (GPa) = 105.41868 59.24438 41.90226
#
# Poissons Ratio (x) = 0.22562 0.09842
# Poissons Ratio (y) = 0.40147 0.27911
# Poissons Ratio (z) = 0.24761 0.39462
#
# Static dielectric constant tensor:
#      x y z
#    x 3.734560 0.000000 0.093120 
#    y 0.000000 3.817540 0.000000 
#    z 0.093120 0.000000 3.739580 
# 
# 
# High freq. dielectric constant tensor:
#      x y z
#    x 1.818880 0.000000 0.004350 
#    y 0.000000 1.810790 0.000000 
#    z 0.004350 0.000000 1.822280 
# 
# From -- ./inp_files/216776.got.cif
#   From: 2010.06.25/outbox.cif.g09.slc.cpg/sg12_109_cif.got.tgz:216776.got - 2010.06.28 00:19:55.
