data_PCOD8110451
_publ_section_title
;
Structure prediction by ZEFSAII (Michael W. Deem and Ramdas Pophale) SiO2 
 PCOD8110451
Probable space group: C 2/M
;
_chemical_formula_sum "Si O2"
_cell_formula_units_Z 48
_cell_length_a 26.906883
_cell_length_b 11.083550
_cell_length_c 15.362472
_cell_angle_alpha 90.000000
_cell_angle_beta 28.868016
_cell_angle_gamma 90.000000
_cell_volume 2211.896923
_symmetry_space_group_name_H-M "C 2/M"
_symmetry_group_IT_number 12
_symmetry_cell_setting 'monoclinic'
loop_
_space_group_symop_operation_xyz
x,y,z
-x,y,-z
-x,-y,-z
x,-y,z
1/2+x,1/2+y,z
1/2-x,1/2+y,-z
1/2-x,1/2-y,-z
1/2+x,1/2-y,z
loop_
_atom_site_type_symbol
_atom_site_label
_atom_site_fract_x
_atom_site_fract_y
_atom_site_fract_z
Si Si1 0.464934 0.281725 0.797330
Si Si2 0.737736 0.218275 0.797330
Si Si3 0.943072 0.358825 0.500000
Si Si4 0.457497 0.500000 0.699694
Si Si5 0.381713 0.364222 0.295431
Si Si6 0.657190 0.500000 0.300306
Si Si7 0.677144 0.864222 0.704569
O O1 0.499687 0.177144 0.677486
O O2 0.416120 0.384673 0.813049
O O3 0.560543 0.333606 0.704114
O O4 0.378080 0.250000 0.000000
O O5 0.822827 0.322856 0.677486
O O6 0.770831 0.115327 0.813049
O O7 0.735343 0.166394 0.704114
O O8 0.947821 0.500000 0.500000
O O9 0.000000 0.303858 0.500000
O O10 0.582521 0.500000 0.500000
O O11 0.413108 0.500000 0.673783
O O12 0.415825 0.500000 0.208264
O O13 0.399211 0.250000 0.201579
O O14 0.260483 0.372869 0.500000
O O15 0.624088 0.000000 0.791736
#
# Coordination Sequence:
#
# PCOD8110451 Si02
#       7
#     8   8   8   4   8   4   8
#     4  12  25  43  68 100 134 177 224 277 336 405
#     4  12  25  43  68 100 134 177 224 277 336 405
#     4  11  26  45  64  95 140 180 220 279 341 398
#     4  11  22  42  72  96 127 179 235 281 327 391
#     4  10  21  42  70  99 132 174 225 280 338 406
#     4  11  22  42  72  96 127 179 235 281 327 391
#     4  10  21  42  70  99 132 174 225 280 338 406
#
# _framework density 21.700831000000001
#
# number of rings (size 3 to 8) (size 9 to 14) (size 15 to 20)
#    0.000    1.000    5.000    1.000    2.333    4.667 
#    0.000    1.667    0.000    0.000    0.000    0.000 
#    0.000    0.000    0.000    0.000    0.000    0.000 
#
# Total GULP energy -297339.469041 kJ/mol
# GULP energy per Si atom -12389.144543 kJ/mol
# Density = 2.165144 g / cm^3
# Si number density = 21.700831 Si / 1000 Ang^3
#
#
#
# Elastic Constant Matrix: (Units=GPa)
#
#
# Indices 1 2 3 4 5 6 
#
# 1 101.7134 59.6637 11.9572 0.0000 2.2189 0.0000
# 2 59.6637 164.9148 19.7994 0.0000 1.3612 0.0000
# 3 11.9572 19.7994 71.0060 0.0000 -1.1704 0.0000
# 4 0.0000 0.0000 0.0000 21.0515 0.0000 0.6527
# 5 2.2189 1.3612 -1.1704 0.0000 12.5017 0.0000
# 6 0.0000 0.0000 0.0000 0.6527 0.0000 40.1676
#
#
#
# Elastic Compliance Matrix: (Units=1/GPa)
#
#
# Indices 1 2 3 4 5 6 
#
# 1 0.012574 -0.004424 -0.000914 0.000000 -0.001836 0.000000
# 2 -0.004424 0.007839 -0.001444 0.000000 -0.000204 0.000000
# 3 -0.000914 -0.001444 0.014668 0.000000 0.001693 0.000000
# 4 0.000000 0.000000 0.000000 0.047527 0.000000 -0.000772
# 5 -0.001836 -0.000204 0.001693 0.000000 0.080495 0.000000
# 6 0.000000 0.000000 0.000000 -0.000772 0.000000 0.024908
#
#
# Mechanical properties :
#
#
# Convention : Reuss Voigt Hill
#
# Bulk Modulus (GPa) = 46.47631 57.83054 52.15343
# Shear Modulus (GPa) = 23.95218 31.15841 27.55530
#
# Velocity S-wave (km/s) = 3.32587 3.79333 3.56726
# Velocity P-wave (km/s) = 6.01763 6.77441 6.40720
#
# Compressibility (1/GPa) = 0.02151634
#
# Stress axis : x y z
#
# Youngs Moduli (GPa) = 79.52742 127.55983 68.17627
#
# Poissons Ratio (x) = 0.56436 0.06232
# Poissons Ratio (y) = 0.35185 0.09847
# Poissons Ratio (z) = 0.07269 0.18423
#
# Static dielectric constant tensor:
#      x y z
#    x 3.903690 0.000000 0.033960 
#    y 0.000000 4.297620 0.000000 
#    z 0.033960 0.000000 2.908990 
# 
# 
# High freq. dielectric constant tensor:
#      x y z
#    x 1.858830 0.000000 0.001050 
#    y 0.000000 1.868420 0.000000 
#    z 0.001050 0.000000 1.828140 
# 
# From -- ./inp_files/245852.got.cif
#   From: 2010.06.25/outbox.cif.g09.slc.cpg/sg12_123_cif.got.tgz:245852.got - 2010.06.28 00:19:55.
