data_PCOD8110615
_publ_section_title
;
Structure prediction by ZEFSAII (Michael W. Deem and Ramdas Pophale) SiO2 
 PCOD8110615
Probable space group: C 2/M
;
_chemical_formula_sum "Si O2"
_cell_formula_units_Z 56
_cell_length_a 9.740550
_cell_length_b 27.645989
_cell_length_c 18.126097
_cell_angle_alpha 90.000000
_cell_angle_beta 36.136775
_cell_angle_gamma 90.000000
_cell_volume 2878.471723
_symmetry_space_group_name_H-M "C 2/M"
_symmetry_group_IT_number 12
_symmetry_cell_setting 'monoclinic'
loop_
_space_group_symop_operation_xyz
x,y,z
-x,y,-z
-x,-y,-z
x,-y,z
1/2+x,1/2+y,z
1/2-x,1/2+y,-z
1/2-x,1/2-y,-z
1/2+x,1/2-y,z
loop_
_atom_site_type_symbol
_atom_site_label
_atom_site_fract_x
_atom_site_fract_y
_atom_site_fract_z
Si Si1 0.552185 0.898165 0.141912
Si Si2 0.681230 0.299048 0.489961
Si Si3 0.944206 0.122231 0.689241
Si Si4 0.640730 0.943044 0.512988
Si Si5 0.909948 0.368327 0.717303
Si Si6 0.454810 0.395399 0.850282
Si Si7 0.863996 0.500000 0.855418
Si Si8 0.065491 0.000000 0.851845
O O1 0.302788 0.873890 0.242790
O O2 0.670247 0.878199 0.164400
O O3 0.490660 0.954305 0.180543
O O4 0.726475 0.888753 0.999057
O O5 0.500000 0.292863 0.500000
O O6 0.750000 0.250000 0.500000
O O7 0.583884 0.332000 0.598211
O O8 0.923012 0.321931 0.356746
O O9 0.885354 0.123749 0.800838
O O10 0.090585 0.073324 0.610628
O O11 0.500000 0.928151 0.500000
O O12 0.535428 0.915264 0.628594
O O13 0.625273 0.000000 0.534119
O O14 0.664006 0.359805 0.783680
O O15 0.544155 0.451652 0.810918
O O16 0.810266 0.500000 0.790559
O O17 0.623630 0.500000 0.003247
#
# Coordination Sequence:
#
# PCOD8110615 Si02
#       8
#     8   8   8   8   8   8   4   4
#     4  11  22  38  58  91 133 170 210 258 302 361
#     4  11  26  47  72  95 119 153 205 265 319 384
#     4  11  24  41  61  93 125 158 209 258 320 373
#     4  10  22  36  56  85 122 170 215 262 303 352
#     4  11  22  39  63  92 122 162 213 250 311 372
#     4  11  22  36  63  90 129 178 211 250 301 367
#     4   9  18  31  51  82 123 178 216 247 280 333
#     4   9  18  31  51  84 121 174 228 239 268 347
#
# _framework density 19.454768999999999
#
# number of rings (size 3 to 8) (size 9 to 14) (size 15 to 20)
#    0.000    1.429    4.286    0.857    6.000    0.000 
#    0.000    2.857    0.000    5.143    0.000    0.000 
#    0.000    0.000    0.000    0.000    0.000    0.000 
#
# Total GULP energy -347059.531896 kJ/mol
# GULP energy per Si atom -12394.983282 kJ/mol
# Density = 1.941049 g / cm^3
# Si number density = 19.454769 Si / 1000 Ang^3
#
#
#
# Elastic Constant Matrix: (Units=GPa)
#
#
# Indices 1 2 3 4 5 6 
#
# 1 70.3369 25.6540 20.5026 0.0000 8.3293 0.0001
# 2 25.6540 89.4087 23.8561 0.0000 4.3229 0.0000
# 3 20.5026 23.8561 81.4404 0.0000 4.4273 -0.0001
# 4 0.0000 0.0000 0.0000 19.9304 0.0000 1.4768
# 5 8.3293 4.3229 4.4273 0.0000 43.7840 0.0000
# 6 0.0001 0.0000 -0.0001 1.4768 0.0000 57.5102
#
#
#
# Elastic Compliance Matrix: (Units=1/GPa)
#
#
# Indices 1 2 3 4 5 6 
#
# 1 0.016801 -0.003913 -0.002947 0.000000 -0.002512 0.000000
# 2 -0.003913 0.013075 -0.002831 0.000000 -0.000260 0.000000
# 3 -0.002947 -0.002831 0.013881 0.000000 -0.000563 0.000000
# 4 0.000000 0.000000 0.000000 0.050270 0.000000 -0.001291
# 5 -0.002512 -0.000260 -0.000563 0.000000 0.023400 0.000000
# 6 0.000000 0.000000 0.000000 -0.001291 0.000000 0.017421
#
#
# Mechanical properties :
#
#
# Convention : Reuss Voigt Hill
#
# Bulk Modulus (GPa) = 41.02487 42.35684 41.69085
# Shear Modulus (GPa) = 30.79674 35.65646 33.22660
#
# Velocity S-wave (km/s) = 3.98300 4.28575 4.13715
# Velocity P-wave (km/s) = 6.50273 6.80510 6.65563
#
# Compressibility (1/GPa) = 0.02437546
#
# Stress axis : x y z
#
# Youngs Moduli (GPa) = 59.52066 76.48033 72.04261
#
# Poissons Ratio (x) = 0.29926 0.21230
# Poissons Ratio (y) = 0.23290 0.20394
# Poissons Ratio (z) = 0.17540 0.21651
#
# Static dielectric constant tensor:
#      x y z
#    x 3.615780 0.000000 0.008540 
#    y 0.000000 3.413090 0.000000 
#    z 0.008540 0.000000 3.655120 
# 
# 
# High freq. dielectric constant tensor:
#      x y z
#    x 1.764420 0.000000 0.004960 
#    y 0.000000 1.721170 0.000000 
#    z 0.004960 0.000000 1.771810 
# 
# From -- ./inp_files/259844.got.cif
#   From: 2010.06.25/outbox.cif.g09.slc.cpg/sg12_130_cif.got.tgz:259844.got - 2010.06.28 00:19:55.
