data_PCOD8110885
_publ_section_title
;
Structure prediction by ZEFSAII (Michael W. Deem and Ramdas Pophale) SiO2 
 PCOD8110885
Probable space group: C 2/M
;
_chemical_formula_sum "Si O2"
_cell_formula_units_Z 40
_cell_length_a 19.251046
_cell_length_b 8.837734
_cell_length_c 24.789801
_cell_angle_alpha 90.000000
_cell_angle_beta 29.088318
_cell_angle_gamma 90.000000
_cell_volume 2050.430417
_symmetry_space_group_name_H-M "C 2/M"
_symmetry_group_IT_number 12
_symmetry_cell_setting 'monoclinic'
loop_
_space_group_symop_operation_xyz
x,y,z
-x,y,-z
-x,-y,-z
x,-y,z
1/2+x,1/2+y,z
1/2-x,1/2+y,-z
1/2-x,1/2-y,-z
1/2+x,1/2-y,z
loop_
_atom_site_type_symbol
_atom_site_label
_atom_site_fract_x
_atom_site_fract_y
_atom_site_fract_z
Si Si1 0.398815 0.326901 0.410685
Si Si2 0.121952 0.320687 0.182716
Si Si3 0.928519 0.321398 0.992701
Si Si4 0.065272 0.678965 0.788709
Si Si5 0.374007 0.673059 0.551564
O O1 0.397279 0.500000 0.391520
O O2 0.250000 0.250000 0.500000
O O3 0.524556 0.235337 0.297520
O O4 0.425224 0.316672 0.455928
O O5 0.129767 0.500000 0.178937
O O6 0.055297 0.260943 0.171241
O O7 0.277985 0.255723 0.085341
O O8 0.903944 0.500000 0.011277
O O9 0.029539 0.273517 0.874176
O O10 0.000000 0.264512 0.000000
O O11 0.070775 0.500000 0.778412
O O12 0.219235 0.750177 0.667624
O O13 0.500000 0.754348 0.500000
O O14 0.359471 0.500000 0.580820
#
# Coordination Sequence:
#
# PCOD8110885 Si02
#       5
#     8   8   8   8   8
#     4  11  21  36  60  88 116 147 189 233 281 336
#     4  11  22  38  59  82 116 154 189 231 283 341
#     4  10  22  38  60  87 112 143 192 244 285 332
#     4   9  18  35  56  82 114 148 189 233 279 334
#     4   9  18  32  56  85 114 147 183 229 282 333
#
# _framework density 19.508099999999999
#
# number of rings (size 3 to 8) (size 9 to 14) (size 15 to 20)
#    0.000    2.000    2.000    1.800    2.800    0.400 
#    0.000    1.000    0.000    2.400    0.000    0.000 
#    0.000    0.000    0.000    0.000    0.000    0.000 
#
# Total GULP energy -247967.105272 kJ/mol
# GULP energy per Si atom -12398.355264 kJ/mol
# Density = 1.946370 g / cm^3
# Si number density = 19.508100 Si / 1000 Ang^3
#
#
#
# Elastic Constant Matrix: (Units=GPa)
#
#
# Indices 1 2 3 4 5 6 
#
# 1 165.2486 32.8212 75.9558 -0.0002 -12.0797 0.0000
# 2 32.8212 16.6910 21.1240 -0.0003 -4.1480 -0.0004
# 3 75.9558 21.1240 131.5197 -0.0006 -1.1701 -0.0002
# 4 -0.0002 -0.0003 -0.0006 31.9623 -0.0002 -2.9208
# 5 -12.0797 -4.1480 -1.1701 -0.0002 37.1384 0.0001
# 6 0.0000 -0.0004 -0.0002 -2.9208 0.0001 17.2438
#
#
#
# Elastic Compliance Matrix: (Units=1/GPa)
#
#
# Indices 1 2 3 4 5 6 
#
# 1 0.011282 -0.017004 -0.003770 0.000000 0.001652 0.000000
# 2 -0.017004 0.103292 -0.006719 0.000001 0.005794 0.000002
# 3 -0.003770 -0.006719 0.010845 0.000000 -0.001635 0.000000
# 4 0.000000 0.000001 0.000000 0.031779 0.000000 0.005383
# 5 0.001652 0.005794 -0.001635 0.000000 0.028059 0.000000
# 6 0.000000 0.000002 0.000000 0.005383 0.000000 0.058904
#
#
# Mechanical properties :
#
#
# Convention : Reuss Voigt Hill
#
# Bulk Modulus (GPa) = 14.19757 63.69568 38.94663
# Shear Modulus (GPa) = 15.49793 29.50613 22.50203
#
# Velocity S-wave (km/s) = 2.82163 3.89332 3.39996
# Velocity P-wave (km/s) = 4.23191 7.27546 5.95153
#
# Compressibility (1/GPa) = 0.07043457
#
# Stress axis : x y z
#
# Youngs Moduli (GPa) = 88.63381 9.68132 92.20596
#
# Poissons Ratio (x) = 0.16462 0.34763
# Poissons Ratio (y) = 1.50711 0.61949
# Poissons Ratio (z) = 0.33416 0.06504
#
# Static dielectric constant tensor:
#      x y z
#    x 4.193820 0.000000 0.383420 
#    y 0.000000 3.297090 0.000000 
#    z 0.383420 0.000000 4.104980 
# 
# 
# High freq. dielectric constant tensor:
#      x y z
#    x 1.774790 0.000000 -0.000580 
#    y 0.000000 1.719210 0.000000 
#    z -0.000580 0.000000 1.775050 
# 
# From -- ./inp_files/151673.got.cif
#   From: 2010.06.25/outbox.cif.g09.slc.cpg/sg12_76_cif.got.tgz:151673.got - 2010.06.28 00:19:55.
