data_PCOD8110461
_publ_section_title
;
Structure prediction by ZEFSAII (Michael W. Deem and Ramdas Pophale) SiO2 
 PCOD8110461
Probable space group: C 2/M
;
_chemical_formula_sum "Si O2"
_cell_formula_units_Z 40
_cell_length_a 14.351714
_cell_length_b 14.644545
_cell_length_c 14.671054
_cell_angle_alpha 90.000000
_cell_angle_beta 139.420258
_cell_angle_gamma 90.000000
_cell_volume 2005.820616
_symmetry_space_group_name_H-M "C 2/M"
_symmetry_group_IT_number 12
_symmetry_cell_setting 'monoclinic'
loop_
_space_group_symop_operation_xyz
x,y,z
-x,y,-z
-x,-y,-z
x,-y,z
1/2+x,1/2+y,z
1/2-x,1/2+y,-z
1/2-x,1/2-y,-z
1/2+x,1/2-y,z
loop_
_atom_site_type_symbol
_atom_site_label
_atom_site_fract_x
_atom_site_fract_y
_atom_site_fract_z
Si Si1 0.478235 0.344046 0.210827
Si Si2 0.701161 0.895399 0.100765
Si Si3 0.921665 0.344257 0.804350
Si Si4 0.954254 0.000000 0.864055
Si Si5 0.147363 0.500000 0.555735
Si Si6 0.753718 0.358446 0.509202
O O1 0.324800 0.336349 0.144814
O O2 0.531576 0.250596 0.205879
O O3 0.468244 0.412760 0.120295
O O4 0.588344 0.385929 0.368365
O O5 0.665410 0.837810 0.165517
O O6 0.746955 0.000000 0.156922
O O7 0.564830 0.901506 0.931751
O O8 0.815763 0.392559 0.652462
O O9 0.781982 0.000000 0.724844
O O10 0.000000 0.000000 0.000000
O O11 0.151007 0.407770 0.497598
O O12 0.000000 0.500000 0.500000
O O13 0.750000 0.250000 0.500000
#
# Coordination Sequence:
#
# PCOD8110461 Si02
#       6
#     8   8   8   4   4   8
#     4  10  21  43  60  88 119 159 198 249 291 357
#     4  11  23  39  61  90 122 155 199 244 298 356
#     4  10  22  39  61  90 120 155 198 248 298 351
#     4  10  22  38  61  84 125 155 200 245 294 350
#     4  10  22  40  63  90 119 159 202 249 300 350
#     4   9  21  42  61  86 125 155 198 251 296 356
#
# _framework density 19.941960999999999
#
# number of rings (size 3 to 8) (size 9 to 14) (size 15 to 20)
#    0.000    2.000    1.000    1.800    5.600    2.400 
#   21.600    1.000    0.000    0.000    0.000    0.000 
#    0.000    0.000    0.000    0.000    0.000    0.000 
#
# Total GULP energy -247809.909291 kJ/mol
# GULP energy per Si atom -12390.495465 kJ/mol
# Density = 1.989657 g / cm^3
# Si number density = 19.941961 Si / 1000 Ang^3
#
#
#
# Elastic Constant Matrix: (Units=GPa)
#
#
# Indices 1 2 3 4 5 6 
#
# 1 163.1763 53.0460 77.6480 0.0000 6.8294 0.0000
# 2 53.0460 97.4466 19.8349 0.0000 -6.5919 0.0000
# 3 77.6480 19.8349 151.0998 0.0000 -25.8747 0.0000
# 4 0.0000 0.0000 0.0000 24.6232 0.0000 -2.5525
# 5 6.8294 -6.5919 -25.8747 0.0000 28.0346 0.0000
# 6 0.0000 0.0000 0.0000 -2.5525 0.0000 35.6573
#
#
#
# Elastic Compliance Matrix: (Units=1/GPa)
#
#
# Indices 1 2 3 4 5 6 
#
# 1 0.011889 -0.005740 -0.007225 0.000000 -0.010914 0.000000
# 2 -0.005740 0.013363 0.002343 0.000000 0.006703 0.000000
# 3 -0.007225 0.002343 0.012375 0.000000 0.013733 0.000000
# 4 0.000000 0.000000 0.000000 0.040916 0.000000 0.002929
# 5 -0.010914 0.006703 0.013733 0.000000 0.052580 0.000000
# 6 0.000000 0.000000 0.000000 0.002929 0.000000 0.028254
#
#
# Mechanical properties :
#
#
# Convention : Reuss Voigt Hill
#
# Bulk Modulus (GPa) = 61.03568 79.19783 70.11675
# Shear Modulus (GPa) = 26.86991 35.07595 30.97293
#
# Velocity S-wave (km/s) = 3.67468 4.19848 3.94528
# Velocity P-wave (km/s) = 6.97693 7.95634 7.48267
#
# Compressibility (1/GPa) = 0.01638386
#
# Stress axis : x y z
#
# Youngs Moduli (GPa) = 84.11042 74.83400 80.80720
#
# Poissons Ratio (x) = 0.42952 0.58385
# Poissons Ratio (y) = 0.48276 -0.18934
# Poissons Ratio (z) = 0.60772 -0.17535
#
# Static dielectric constant tensor:
#      x y z
#    x 3.477380 0.000000 -0.034000 
#    y 0.000000 3.204180 0.000000 
#    z -0.034000 0.000000 4.272690 
# 
# 
# High freq. dielectric constant tensor:
#      x y z
#    x 1.762360 0.000000 -0.000350 
#    y 0.000000 1.778720 0.000000 
#    z -0.000350 0.000000 1.795250 
# 
# From -- ./inp_files/129832.got.cif
#   From: 2010.06.25/outbox.cif.g09.slc.cpg/sg12_65_cif.got.tgz:129832.got - 2010.06.28 00:19:55.
