data_PCOD8110842
_publ_section_title
;
Structure prediction by ZEFSAII (Michael W. Deem and Ramdas Pophale) SiO2 
 PCOD8110842
Probable space group: C 2/M
;
_chemical_formula_sum "Si O2"
_cell_formula_units_Z 56
_cell_length_a 10.278167
_cell_length_b 14.331529
_cell_length_c 22.667773
_cell_angle_alpha 90.000000
_cell_angle_beta 56.649791
_cell_angle_gamma 90.000000
_cell_volume 2789.157326
_symmetry_space_group_name_H-M "C 2/M"
_symmetry_group_IT_number 12
_symmetry_cell_setting 'monoclinic'
loop_
_space_group_symop_operation_xyz
x,y,z
-x,y,-z
-x,-y,-z
x,-y,z
1/2+x,1/2+y,z
1/2-x,1/2+y,-z
1/2-x,1/2-y,-z
1/2+x,1/2-y,z
loop_
_atom_site_type_symbol
_atom_site_label
_atom_site_fract_x
_atom_site_fract_y
_atom_site_fract_z
Si Si1 0.755225 0.756636 0.201633
Si Si2 0.604756 0.731403 0.111854
Si Si3 0.098043 0.897273 0.617702
Si Si4 0.105693 0.605861 0.528826
Si Si5 0.641070 0.109370 0.010123
Si Si6 0.953978 0.701808 0.335756
Si Si7 0.252387 0.102293 0.292086
O O1 0.678032 0.750293 0.157042
O O2 0.636236 0.811181 0.274305
O O3 0.776633 0.654608 0.224357
O O4 0.925569 0.804685 0.158938
O O5 0.607392 0.829867 0.076625
O O6 0.699115 0.648281 0.057331
O O7 0.213479 0.884286 0.533856
O O8 0.108765 0.808611 0.659435
O O9 0.921704 0.894574 0.638050
O O10 0.130985 0.000000 0.639720
O O11 0.066522 0.500000 0.557970
O O12 0.067623 0.675744 0.590885
O O13 0.000000 0.635752 0.500000
O O14 0.661316 0.000000 0.021111
O O15 0.500000 0.124738 0.000000
O O16 0.858383 0.635730 0.318245
O O17 0.306473 0.000000 0.261606
#
# Coordination Sequence:
#
# PCOD8110842 Si02
#       7
#     8   8   8   8   8   8   8
#     4  11  23  40  63  92 133 173 208 253 320 375
#     4  11  22  43  66  98 134 170 207 263 307 373
#     4   9  21  39  58  83 115 156 207 264 323 383
#     4  10  22  38  58  86 120 159 209 272 336 386
#     4  10  22  41  71 101 129 171 217 257 307 370
#     4  11  22  38  63  88 123 162 216 262 325 378
#     4  10  22  39  62  91 122 162 217 268 314 385
#
# _framework density 20.077748
#
# number of rings (size 3 to 8) (size 9 to 14) (size 15 to 20)
#    0.000    1.714    2.857    0.857    4.000    1.714 
#    0.000    5.000    0.000    0.857    0.000    0.000 
#    0.000    0.000    0.000    0.000    0.000    0.000 
#
# Total GULP energy -347042.853295 kJ/mol
# GULP energy per Si atom -12394.387618 kJ/mol
# Density = 2.003205 g / cm^3
# Si number density = 20.077748 Si / 1000 Ang^3
#
#
#
# Elastic Constant Matrix: (Units=GPa)
#
#
# Indices 1 2 3 4 5 6 
#
# 1 117.4317 37.6781 53.8743 0.0000 -1.8610 0.0000
# 2 37.6781 82.5956 35.2906 0.0000 -1.1537 0.0000
# 3 53.8743 35.2906 112.1789 0.0000 -13.3939 0.0000
# 4 0.0000 0.0000 0.0000 23.5341 0.0000 2.4765
# 5 -1.8610 -1.1537 -13.3939 0.0000 44.7949 0.0000
# 6 0.0000 0.0000 0.0000 2.4765 0.0000 29.4616
#
#
#
# Elastic Compliance Matrix: (Units=1/GPa)
#
#
# Indices 1 2 3 4 5 6 
#
# 1 0.011733 -0.003359 -0.004698 0.000000 -0.001004 0.000000
# 2 -0.003359 0.014991 -0.003187 0.000000 -0.000706 0.000000
# 3 -0.004698 -0.003187 0.012590 0.000000 0.003487 0.000000
# 4 0.000000 0.000000 0.000000 0.042871 0.000000 -0.003604
# 5 -0.001004 -0.000706 0.003487 0.000000 0.023307 0.000000
# 6 0.000000 0.000000 0.000000 -0.003604 0.000000 0.034245
#
#
# Mechanical properties :
#
#
# Convention : Reuss Voigt Hill
#
# Bulk Modulus (GPa) = 59.43406 62.87691 61.15549
# Shear Modulus (GPa) = 29.79150 31.91568 30.85359
#
# Velocity S-wave (km/s) = 3.85620 3.99131 3.92434
# Velocity P-wave (km/s) = 7.03514 7.25434 7.14558
#
# Compressibility (1/GPa) = 0.01682537
#
# Stress axis : x y z
#
# Youngs Moduli (GPa) = 85.23264 66.70466 79.43109
#
# Poissons Ratio (x) = 0.22406 0.37315
# Poissons Ratio (y) = 0.28629 0.25318
# Poissons Ratio (z) = 0.40040 0.21261
#
# Static dielectric constant tensor:
#      x y z
#    x 3.676610 0.000000 -0.298770 
#    y 0.000000 3.844550 0.000000 
#    z -0.298770 0.000000 3.805720 
# 
# 
# High freq. dielectric constant tensor:
#      x y z
#    x 1.782750 0.000000 -0.019320 
#    y 0.000000 1.781350 0.000000 
#    z -0.019320 0.000000 1.788930 
# 
# From -- ./inp_files/332839.got.cif
#   From: 2010.06.25/outbox.cif.g09.slc.cpg/sg12_167_cif.got.tgz:332839.got - 2010.06.28 00:19:55.
