data_PCOD8110482
_publ_section_title
;
Structure prediction by ZEFSAII (Michael W. Deem and Ramdas Pophale) SiO2 
 PCOD8110482
Probable space group: C 2/M
;
_chemical_formula_sum "Si O2"
_cell_formula_units_Z 44
_cell_length_a 12.123487
_cell_length_b 25.029996
_cell_length_c 7.902888
_cell_angle_alpha 90.000000
_cell_angle_beta 118.921442
_cell_angle_gamma 90.000000
_cell_volume 2099.050815
_symmetry_space_group_name_H-M "C 2/M"
_symmetry_group_IT_number 12
_symmetry_cell_setting 'monoclinic'
loop_
_space_group_symop_operation_xyz
x,y,z
-x,y,-z
-x,-y,-z
x,-y,z
1/2+x,1/2+y,z
1/2-x,1/2+y,-z
1/2-x,1/2-y,-z
1/2+x,1/2-y,z
loop_
_atom_site_type_symbol
_atom_site_label
_atom_site_fract_x
_atom_site_fract_y
_atom_site_fract_z
Si Si1 0.545781 0.882570 0.360010
Si Si2 0.133128 0.720405 0.334569
Si Si3 0.741398 0.938963 0.279242
Si Si4 0.450675 0.684204 0.144398
Si Si5 0.314791 0.158842 0.972164
Si Si6 0.000000 0.108963 0.500000
O O1 0.500000 0.909648 0.500000
O O2 0.625636 0.829324 0.460293
O O3 0.627965 0.927038 0.326335
O O4 0.437735 0.853443 0.170548
O O5 0.250000 0.750000 0.500000
O O6 0.157077 0.696053 0.167177
O O7 0.009551 0.757916 0.232083
O O8 0.728985 0.900850 0.109515
O O9 0.880476 0.928217 0.457783
O O10 0.728226 0.000000 0.211380
O O11 0.298772 0.687969 0.011280
O O12 0.482030 0.644950 0.321210
O O13 0.500000 0.662731 0.000000
#
# Coordination Sequence:
#
# PCOD8110482 Si02
#       6
#     8   8   8   8   8   4
#     4  11  25  39  60  91 129 161 211 269 307 370
#     4  11  23  38  60  90 126 171 210 253 310 378
#     4  10  21  43  70  89 120 164 205 260 328 380
#     4  11  23  38  65  89 130 175 210 255 316 374
#     4  10  24  42  58  93 126 160 219 260 309 381
#     4  10  23  42  64 102 128 158 213 260 312 394
#
# _framework density 20.961855
#
# number of rings (size 3 to 8) (size 9 to 14) (size 15 to 20)
#    0.000    1.455    0.000    6.818    8.909    3.273 
#    0.000    0.000    0.000    2.727    0.000    0.000 
#    0.000    0.000    0.000    0.000    0.000    0.000 
#
# Total GULP energy -272583.536286 kJ/mol
# GULP energy per Si atom -12390.160740 kJ/mol
# Density = 2.091414 g / cm^3
# Si number density = 20.961855 Si / 1000 Ang^3
#
#
#
# Elastic Constant Matrix: (Units=GPa)
#
#
# Indices 1 2 3 4 5 6 
#
# 1 128.5087 32.0161 21.5608 0.0000 -1.3024 0.0000
# 2 32.0161 118.9592 13.6398 0.0000 4.9088 0.0000
# 3 21.5608 13.6398 65.7000 0.0000 -5.0681 0.0000
# 4 0.0000 0.0000 0.0000 9.9733 0.0000 3.1756
# 5 -1.3024 4.9088 -5.0681 0.0000 39.1700 0.0000
# 6 0.0000 0.0000 0.0000 3.1756 0.0000 22.7311
#
#
#
# Elastic Compliance Matrix: (Units=1/GPa)
#
#
# Indices 1 2 3 4 5 6 
#
# 1 0.008705 -0.002077 -0.002407 0.000000 0.000238 0.000000
# 2 -0.002077 0.009175 -0.001331 0.000000 -0.001391 0.000000
# 3 -0.002407 -0.001331 0.016458 0.000000 0.002216 0.000000
# 4 0.000000 0.000000 0.000000 0.104936 0.000000 -0.014660
# 5 0.000238 -0.001391 0.002216 0.000000 0.025999 0.000000
# 6 0.000000 0.000000 0.000000 -0.014660 0.000000 0.046041
#
#
# Mechanical properties :
#
#
# Convention : Reuss Voigt Hill
#
# Bulk Modulus (GPa) = 44.03528 49.73346 46.88437
# Shear Modulus (GPa) = 21.69082 30.77163 26.23122
#
# Velocity S-wave (km/s) = 3.22028 3.83558 3.54132
# Velocity P-wave (km/s) = 5.90592 6.58732 6.25591
#
# Compressibility (1/GPa) = 0.02270906
#
# Stress axis : x y z
#
# Youngs Moduli (GPa) = 114.87313 108.99034 60.76115
#
# Poissons Ratio (x) = 0.22634 0.14627
# Poissons Ratio (y) = 0.23856 0.08085
# Poissons Ratio (z) = 0.27653 0.14502
#
# Static dielectric constant tensor:
#      x y z
#    x 4.510190 0.000000 0.241660 
#    y 0.000000 3.711290 0.000000 
#    z 0.241660 0.000000 3.808010 
# 
# 
# High freq. dielectric constant tensor:
#      x y z
#    x 1.840220 0.000000 0.018030 
#    y 0.000000 1.810870 0.000000 
#    z 0.018030 0.000000 1.815850 
# 
# From -- ./inp_files/51573.got.cif
#   From: 2010.06.25/outbox.cif.g09.slc.cpg/sg12_26_cif.got.tgz:51573.got - 2010.06.28 00:19:55.
