data_PCOD8110397
_publ_section_title
;
Structure prediction by ZEFSAII (Michael W. Deem and Ramdas Pophale) SiO2 
 PCOD8110397
Probable space group: C 2/M
;
_chemical_formula_sum "Si O2"
_cell_formula_units_Z 64
_cell_length_a 24.871877
_cell_length_b 19.719099
_cell_length_c 18.332661
_cell_angle_alpha 90.000000
_cell_angle_beta 159.938041
_cell_angle_gamma 90.000000
_cell_volume 3084.331028
_symmetry_space_group_name_H-M "C 2/M"
_symmetry_group_IT_number 12
_symmetry_cell_setting 'monoclinic'
loop_
_space_group_symop_operation_xyz
x,y,z
-x,y,-z
-x,-y,-z
x,-y,z
1/2+x,1/2+y,z
1/2-x,1/2+y,-z
1/2-x,1/2-y,-z
1/2+x,1/2-y,z
loop_
_atom_site_type_symbol
_atom_site_label
_atom_site_fract_x
_atom_site_fract_y
_atom_site_fract_z
Si Si1 0.258514 0.291242 0.345069
Si Si2 0.667176 0.076076 0.713874
Si Si3 0.028562 0.728913 0.921725
Si Si4 0.041196 0.870073 0.973204
Si Si5 0.429397 0.421941 0.589738
Si Si6 0.286249 0.076025 0.061546
Si Si7 0.708232 0.573460 0.427766
Si Si8 0.959274 0.674664 0.682084
O O1 0.341735 0.363307 0.432573
O O2 0.381850 0.234418 0.533596
O O3 0.121614 0.304810 0.230128
O O4 0.182951 0.271974 0.170488
O O5 0.500000 0.113753 0.500000
O O6 0.744015 0.078859 0.890826
O O7 0.643666 0.000000 0.654648
O O8 0.775598 0.113262 0.793727
O O9 0.994898 0.807700 0.861766
O O10 0.057195 0.699253 0.877708
O O11 0.936290 0.933276 0.813851
O O12 0.000000 0.843188 0.000000
O O13 0.386145 0.500000 0.511569
O O14 0.372052 0.407497 0.598505
O O15 0.614021 0.409610 0.810192
O O16 0.416393 0.131080 0.205790
O O17 0.343420 0.000000 0.112071
O O18 0.791821 0.500000 0.538760
O O19 0.825039 0.628377 0.544898
#
# Coordination Sequence:
#
# PCOD8110397 Si02
#       8
#     8   8   8   8   8   8   8   8
#     4  11  22  42  65  92 131 166 210 262 332 377
#     4  10  23  39  56  84 130 176 210 259 318 377
#     4  11  23  40  62  97 132 160 209 277 319 373
#     4  12  22  38  60  90 125 170 212 265 319 377
#     4  10  21  42  66  86 119 166 211 263 319 378
#     4  10  23  43  62  90 131 169 212 262 320 380
#     4  11  21  35  60  92 121 162 218 257 305 381
#     4  12  23  40  67  94 127 173 207 265 321 375
#
# _framework density 20.750043000000002
#
# number of rings (size 3 to 8) (size 9 to 14) (size 15 to 20)
#    0.000    1.125    5.000    1.875    3.500    1.500 
#    0.000    3.125    0.000    1.500    0.000    0.000 
#    0.000    0.000    0.000    0.000    0.000    0.000 
#
# Total GULP energy -396470.656686 kJ/mol
# GULP energy per Si atom -12389.708021 kJ/mol
# Density = 2.070281 g / cm^3
# Si number density = 20.750043 Si / 1000 Ang^3
#
#
#
# Elastic Constant Matrix: (Units=GPa)
#
#
# Indices 1 2 3 4 5 6 
#
# 1 56.2370 42.9173 41.7182 0.0000 9.7626 0.0000
# 2 42.9173 114.4717 58.2847 0.0000 9.6097 0.0000
# 3 41.7182 58.2847 109.0221 0.0001 6.4188 0.0001
# 4 0.0000 0.0000 0.0001 27.4605 0.0001 3.3798
# 5 9.7626 9.6097 6.4188 0.0001 38.0072 0.0001
# 6 0.0000 0.0000 0.0001 3.3798 0.0001 18.8529
#
#
#
# Elastic Compliance Matrix: (Units=1/GPa)
#
#
# Indices 1 2 3 4 5 6 
#
# 1 0.029176 -0.006883 -0.007218 0.000000 -0.004535 0.000000
# 2 -0.006883 0.013775 -0.004676 0.000000 -0.000925 0.000000
# 3 -0.007218 -0.004676 0.014399 0.000000 0.000605 0.000000
# 4 0.000000 0.000000 0.000000 0.037238 0.000000 -0.006676
# 5 -0.004535 -0.000925 0.000605 0.000000 0.027608 0.000000
# 6 0.000000 0.000000 0.000000 -0.006676 0.000000 0.054239
#
#
# Mechanical properties :
#
#
# Convention : Reuss Voigt Hill
#
# Bulk Modulus (GPa) = 50.51440 62.84127 56.67783
# Shear Modulus (GPa) = 22.66695 25.98483 24.32589
#
# Velocity S-wave (km/s) = 3.30870 3.54259 3.42764
# Velocity P-wave (km/s) = 6.24450 6.86177 6.56040
#
# Compressibility (1/GPa) = 0.01979634
#
# Stress axis : x y z
#
# Youngs Moduli (GPa) = 34.27450 72.59662 69.45111
#
# Poissons Ratio (x) = 0.49967 0.50129
# Poissons Ratio (y) = 0.23591 0.32475
# Poissons Ratio (z) = 0.24739 0.33945
#
# Static dielectric constant tensor:
#      x y z
#    x 3.490200 0.000000 0.030080 
#    y 0.000000 3.796570 0.000000 
#    z 0.030080 0.000000 3.815510 
# 
# 
# High freq. dielectric constant tensor:
#      x y z
#    x 1.788160 0.000000 0.006270 
#    y 0.000000 1.818330 0.000000 
#    z 0.006270 0.000000 1.811710 
# 
# From -- ./inp_files/290930.got.cif
#   From: 2010.06.25/outbox.cif.g09.slc.cpg/sg12_146_cif.got.tgz:290930.got - 2010.06.28 00:19:55.
