data_PCOD8110909
_publ_section_title
;
Structure prediction by ZEFSAII (Michael W. Deem and Ramdas Pophale) SiO2 
 PCOD8110909
Probable space group: C 2/M
;
_chemical_formula_sum "Si O2"
_cell_formula_units_Z 48
_cell_length_a 8.018273
_cell_length_b 21.824181
_cell_length_c 13.557019
_cell_angle_alpha 90.000000
_cell_angle_beta 66.006669
_cell_angle_gamma 90.000000
_cell_volume 2167.383005
_symmetry_space_group_name_H-M "C 2/M"
_symmetry_group_IT_number 12
_symmetry_cell_setting 'monoclinic'
loop_
_space_group_symop_operation_xyz
x,y,z
-x,y,-z
-x,-y,-z
x,-y,z
1/2+x,1/2+y,z
1/2-x,1/2+y,-z
1/2-x,1/2-y,-z
1/2+x,1/2-y,z
loop_
_atom_site_type_symbol
_atom_site_label
_atom_site_fract_x
_atom_site_fract_y
_atom_site_fract_z
Si Si1 0.102452 0.720464 0.301445
Si Si2 0.326990 0.432197 0.974502
Si Si3 0.221161 0.163898 0.365121
Si Si4 0.555396 0.430247 0.271838
Si Si5 0.789857 0.192220 0.058355
Si Si6 0.296420 0.126401 0.562814
O O1 0.075703 0.789749 0.348391
O O2 0.247327 0.712442 0.179458
O O3 0.172307 0.686336 0.380823
O O4 0.916630 0.694773 0.300882
O O5 0.224997 0.500000 0.995331
O O6 0.400413 0.411411 0.850026
O O7 0.500000 0.443394 0.000000
O O8 0.201906 0.374335 0.045160
O O9 0.199283 0.101900 0.309845
O O10 0.195639 0.148178 0.486450
O O11 0.595493 0.500000 0.281654
O O12 0.341561 0.418479 0.347907
O O13 0.750000 0.250000 0.000000
O O14 0.000000 0.176556 0.000000
O O15 0.500000 0.095762 0.500000
#
# Coordination Sequence:
#
# PCOD8110909 Si02
#       6
#     8   8   8   8   8   8
#     4  11  22  39  61  90 124 157 202 256 309 364
#     4   9  19  37  61  87 115 154 202 247 298 362
#     4  11  23  39  61  88 122 160 204 251 305 362
#     4  11  23  41  63  88 123 163 203 249 303 363
#     4  11  21  35  59  88 120 154 195 246 303 363
#     4  10  22  38  60  91 122 158 201 251 305 363
#
# _framework density 22.146525
#
# number of rings (size 3 to 8) (size 9 to 14) (size 15 to 20)
#    0.000    1.500    0.000    6.000    0.000    4.333 
#    0.000    3.333    0.000    2.500    0.000    0.000 
#    0.000    0.000    0.000    0.000    0.000    0.000 
#
# Total GULP energy -297390.935766 kJ/mol
# GULP energy per Si atom -12391.288990 kJ/mol
# Density = 2.209612 g / cm^3
# Si number density = 22.146525 Si / 1000 Ang^3
#
#
#
# Elastic Constant Matrix: (Units=GPa)
#
#
# Indices 1 2 3 4 5 6 
#
# 1 61.1788 23.0981 20.6971 0.0000 17.8836 0.0000
# 2 23.0981 139.5613 37.2788 0.0000 21.4109 0.0000
# 3 20.6971 37.2788 118.5398 0.0000 32.6555 0.0000
# 4 0.0000 0.0000 0.0000 37.5188 0.0000 6.9022
# 5 17.8836 21.4109 32.6555 0.0000 23.2337 0.0000
# 6 0.0000 0.0000 0.0000 6.9022 0.0000 35.1398
#
#
#
# Elastic Compliance Matrix: (Units=1/GPa)
#
#
# Indices 1 2 3 4 5 6 
#
# 1 0.021402 -0.001268 0.001433 0.000000 -0.017320 0.000000
# 2 -0.001268 0.008470 -0.000915 0.000000 -0.005543 0.000000
# 3 0.001433 -0.000915 0.013944 0.000000 -0.019859 0.000000
# 4 0.000000 0.000000 0.000000 0.027653 0.000000 -0.005432
# 5 -0.017320 -0.005543 -0.019859 0.000000 0.089393 0.000000
# 6 0.000000 0.000000 0.000000 -0.005432 0.000000 0.029525
#
#
# Mechanical properties :
#
#
# Convention : Reuss Voigt Hill
#
# Bulk Modulus (GPa) = 23.63137 53.49197 38.56167
# Shear Modulus (GPa) = 24.27279 35.05884 29.66581
#
# Velocity S-wave (km/s) = 3.31419 3.98306 3.66392
# Velocity P-wave (km/s) = 5.03377 6.73492 5.94550
#
# Compressibility (1/GPa) = 0.04231663
#
# Stress axis : x y z
#
# Youngs Moduli (GPa) = 46.72408 118.06315 71.71390
#
# Poissons Ratio (x) = 0.14969 -0.10278
# Poissons Ratio (y) = 0.05924 0.06564
# Poissons Ratio (z) = -0.06696 0.10806
#
# Static dielectric constant tensor:
#      x y z
#    x 4.383110 0.000000 -0.382800 
#    y 0.000000 4.509640 0.000000 
#    z -0.382800 0.000000 4.576130 
# 
# 
# High freq. dielectric constant tensor:
#      x y z
#    x 1.855070 0.000000 0.015140 
#    y 0.000000 1.880380 0.000000 
#    z 0.015140 0.000000 1.884950 
# 
# From -- ./inp_files/122452.got.cif
#   From: 2010.06.25/outbox.cif.g09.slc.cpg/sg12_62_cif.got.tgz:122452.got - 2010.06.28 00:19:55.
