data_PCOD8110604
_publ_section_title
;
Structure prediction by ZEFSAII (Michael W. Deem and Ramdas Pophale) SiO2 
 PCOD8110604
Probable space group: C 2/M
;
_chemical_formula_sum "Si O2"
_cell_formula_units_Z 52
_cell_length_a 17.804279
_cell_length_b 21.794619
_cell_length_c 13.474047
_cell_angle_alpha 90.000000
_cell_angle_beta 150.400704
_cell_angle_gamma 90.000000
_cell_volume 2582.487187
_symmetry_space_group_name_H-M "C 2/M"
_symmetry_group_IT_number 12
_symmetry_cell_setting 'monoclinic'
loop_
_space_group_symop_operation_xyz
x,y,z
-x,y,-z
-x,-y,-z
x,-y,z
1/2+x,1/2+y,z
1/2-x,1/2+y,-z
1/2-x,1/2-y,-z
1/2+x,1/2-y,z
loop_
_atom_site_type_symbol
_atom_site_label
_atom_site_fract_x
_atom_site_fract_y
_atom_site_fract_z
Si Si1 0.328600 0.904955 0.800001
Si Si2 0.210937 0.070839 0.882031
Si Si3 0.104998 0.934864 0.384170
Si Si4 0.263544 0.726319 0.363022
Si Si5 0.000000 0.718025 0.500000
Si Si6 0.934122 0.185708 0.750521
Si Si7 0.731007 0.814767 0.921365
O O1 0.241472 0.918734 0.801621
O O2 0.250344 0.941656 0.621385
O O3 0.330105 0.833834 0.771149
O O4 0.500000 0.929074 0.000000
O O5 0.033647 0.082065 0.701365
O O6 0.257880 0.000000 0.965384
O O7 0.295298 0.125454 0.038986
O O8 0.127891 0.884128 0.325278
O O9 0.078178 0.000000 0.299247
O O10 0.363820 0.740236 0.382809
O O11 0.140407 0.779997 0.241767
O O12 0.381181 0.719980 0.589363
O O13 0.920465 0.679564 0.320581
O O14 0.116251 0.181614 0.969645
O O15 0.750000 0.750000 0.000000
#
# Coordination Sequence:
#
# PCOD8110604 Si02
#       7
#     8   8   8   8   4   8   8
#     4  11  23  32  54  87 125 158 195 241 303 365
#     4  10  22  40  60  84 119 160 199 247 304 362
#     4   9  19  37  60  84 114 157 203 242 292 364
#     4  10  22  36  55  87 119 156 196 249 298 358
#     4  12  24  36  61  88 117 154 210 248 308 358
#     4   9  20  38  57  83 122 154 193 247 303 348
#     4  11  22  38  63  88 117 157 203 251 300 357
#
# _framework density 20.135628000000001
#
# number of rings (size 3 to 8) (size 9 to 14) (size 15 to 20)
#    0.000    1.846    1.538    1.846    8.615    3.692 
#    0.000    0.385    0.000    0.923    0.000    4.308 
#    0.000    0.000    0.000    0.000    0.000    0.000 
#
# Total GULP energy -322208.444020 kJ/mol
# GULP energy per Si atom -12392.632462 kJ/mol
# Density = 2.008980 g / cm^3
# Si number density = 20.135628 Si / 1000 Ang^3
#
#
#
# Elastic Constant Matrix: (Units=GPa)
#
#
# Indices 1 2 3 4 5 6 
#
# 1 56.0759 42.3144 -4.0636 0.0000 7.8340 0.0000
# 2 42.3144 152.5092 25.1415 0.0000 -6.7628 0.0000
# 3 -4.0636 25.1415 91.7456 0.0000 -7.8718 0.0000
# 4 0.0000 0.0000 0.0000 11.2961 0.0000 7.0579
# 5 7.8340 -6.7628 -7.8718 0.0000 23.9192 0.0000
# 6 0.0000 0.0000 0.0000 7.0579 0.0000 23.8046
#
#
#
# Elastic Compliance Matrix: (Units=1/GPa)
#
#
# Indices 1 2 3 4 5 6 
#
# 1 0.025287 -0.007848 0.002438 0.000000 -0.009698 0.000000
# 2 -0.007848 0.009346 -0.002533 0.000000 0.004379 0.000000
# 3 0.002438 -0.002533 0.011908 0.000000 0.002404 0.000000
# 4 0.000000 0.000000 0.000000 0.108655 0.000000 -0.032216
# 5 -0.009698 0.004379 0.002404 0.000000 0.047013 0.000000
# 6 0.000000 0.000000 0.000000 -0.032216 0.000000 0.051560
#
#
# Mechanical properties :
#
#
# Convention : Reuss Voigt Hill
#
# Bulk Modulus (GPa) = 32.62015 47.45725 40.03870
# Shear Modulus (GPa) = 17.86525 27.59988 22.73257
#
# Velocity S-wave (km/s) = 2.98190 3.70631 3.36366
# Velocity P-wave (km/s) = 5.30010 6.47577 5.91721
#
# Compressibility (1/GPa) = 0.03065590
#
# Stress axis : x y z
#
# Youngs Moduli (GPa) = 39.54679 106.99548 83.97622
#
# Poissons Ratio (x) = 0.83969 -0.20477
# Poissons Ratio (y) = 0.31036 0.21272
# Poissons Ratio (z) = -0.09643 0.27102
#
# Static dielectric constant tensor:
#      x y z
#    x 3.436580 0.000000 0.088080 
#    y 0.000000 3.865420 0.000000 
#    z 0.088080 0.000000 3.627030 
# 
# 
# High freq. dielectric constant tensor:
#      x y z
#    x 1.763090 0.000000 0.014000 
#    y 0.000000 1.792480 0.000000 
#    z 0.014000 0.000000 1.781750 
# 
# From -- ./inp_files/227452.got.cif
#   From: 2010.06.25/outbox.cif.g09.slc.cpg/sg12_114_cif.got.tgz:227452.got - 2010.06.28 00:19:55.
