data_PCOD8110031
_publ_section_title
;
Structure prediction by ZEFSAII (Michael W. Deem and Ramdas Pophale) SiO2 
 PCOD8110031
Probable space group: C 2/M
;
_chemical_formula_sum "Si O2"
_cell_formula_units_Z 64
_cell_length_a 8.584311
_cell_length_b 17.760642
_cell_length_c 28.809363
_cell_angle_alpha 90.000000
_cell_angle_beta 137.384528
_cell_angle_gamma 90.000000
_cell_volume 2973.954757
_symmetry_space_group_name_H-M "C 2/M"
_symmetry_group_IT_number 12
_symmetry_cell_setting 'monoclinic'
loop_
_space_group_symop_operation_xyz
x,y,z
-x,y,-z
-x,-y,-z
x,-y,z
1/2+x,1/2+y,z
1/2-x,1/2+y,-z
1/2-x,1/2-y,-z
1/2+x,1/2-y,z
loop_
_atom_site_type_symbol
_atom_site_label
_atom_site_fract_x
_atom_site_fract_y
_atom_site_fract_z
Si Si1 0.249466 0.411143 0.571998
Si Si2 0.543630 0.168049 0.693018
Si Si3 0.060356 0.166585 0.295048
Si Si4 0.116822 0.799071 0.906212
Si Si5 0.714911 0.086920 0.814365
Si Si6 0.885432 0.915467 0.425381
Si Si7 0.938883 0.365310 0.843164
Si Si8 0.965208 0.365712 0.040405
O O1 0.242510 0.500000 0.578389
O O2 0.314731 0.373771 0.634971
O O3 0.436207 0.387293 0.574590
O O4 0.000000 0.382267 0.500000
O O5 0.771231 0.167146 0.711829
O O6 0.510828 0.249959 0.706889
O O7 0.546230 0.107032 0.735027
O O8 0.322353 0.143402 0.615131
O O9 0.826984 0.123356 0.229086
O O10 0.323451 0.804480 0.913888
O O11 0.937292 0.863725 0.854623
O O12 0.998382 0.718826 0.873592
O O13 0.223458 0.819150 0.981239
O O14 0.594792 0.105840 0.836316
O O15 0.783192 0.000000 0.828190
O O16 0.000000 0.915266 0.500000
O O17 0.799497 0.000000 0.394730
O O18 0.010008 0.412105 0.905843
O O19 0.000000 0.415686 0.000000
#
# Coordination Sequence:
#
# PCOD8110031 Si02
#       8
#     8   8   8   8   8   8   8   8
#     4  10  22  43  69 100 137 175 223 277 335 405
#     4  12  25  43  62  94 132 172 222 276 337 399
#     4  12  26  40  69  97 128 177 223 279 334 402
#     4   9  20  40  65  91 125 173 222 275 333 401
#     4  12  26  41  65  98 136 176 222 280 348 410
#     4  10  21  40  66  93 128 173 216 267 330 396
#     4  12  21  40  65  96 132 171 224 283 336 401
#     4   8  21  37  65  96 120 173 230 277 326 402
#
# _framework density 21.520164999999999
#
# number of rings (size 3 to 8) (size 9 to 14) (size 15 to 20)
#    0.750    0.500    1.250    5.250    0.000    4.500 
#    0.000    6.875    0.000    0.000    0.000    0.000 
#    0.000    0.000    0.000    0.000    0.000    0.000 
#
# Total GULP energy -396467.291520 kJ/mol
# GULP energy per Si atom -12389.602860 kJ/mol
# Density = 2.147118 g / cm^3
# Si number density = 21.520165 Si / 1000 Ang^3
#
#
#
# Elastic Constant Matrix: (Units=GPa)
#
#
# Indices 1 2 3 4 5 6 
#
# 1 85.5665 16.8572 20.7517 -0.0005 -20.3259 0.0002
# 2 16.8572 59.8479 17.5451 -0.0005 -2.0717 0.0001
# 3 20.7517 17.5451 111.6624 -0.0001 -9.0332 -0.0001
# 4 -0.0005 -0.0005 -0.0001 -10.5280 -0.0004 8.2289
# 5 -20.3259 -2.0717 -9.0332 -0.0004 46.4550 0.0000
# 6 0.0002 0.0001 -0.0001 8.2289 0.0000 18.4359
#
#
#
# Elastic Compliance Matrix: (Units=1/GPa)
#
#
# Indices 1 2 3 4 5 6 
#
# 1 0.014086 -0.003290 -0.001640 -0.000001 0.005698 0.000000
# 2 -0.003290 0.018287 -0.002349 0.000000 -0.001081 0.000000
# 3 -0.001640 -0.002349 0.009716 0.000000 0.001067 0.000000
# 4 -0.000001 0.000000 0.000000 -0.070418 -0.000001 0.031431
# 5 0.005698 -0.001081 0.001067 -0.000001 0.024178 0.000000
# 6 0.000000 0.000000 0.000000 0.031431 0.000000 0.040213
#
#
# Mechanical properties :
#
#
# Convention : Reuss Voigt Hill
#
# Bulk Modulus (GPa) = 36.32292 40.82052 38.57172
# Shear Modulus (GPa) = 83.61629 24.33411 53.97520
#
# Velocity S-wave (km/s) = 6.24013 3.36632 5.01355
# Velocity P-wave (km/s) = 8.29663 5.84116 7.17472
#
# Compressibility (1/GPa) = 0.02753082
#
# Stress axis : x y z
#
# Youngs Moduli (GPa) = 70.99224 54.68382 102.92493
#
# Poissons Ratio (x) = 0.17989 0.16880
# Poissons Ratio (y) = 0.23353 0.24182
# Poissons Ratio (z) = 0.11643 0.12848
#
# Static dielectric constant tensor:
#      x y z
#    x 4.028950 0.000010 -0.069320 
#    y 0.000010 2.208620 0.000010 
#    z -0.069320 0.000010 4.379170 
# 
# 
# High freq. dielectric constant tensor:
#      x y z
#    x 1.857400 0.000000 -0.004230 
#    y 0.000000 1.812840 0.000000 
#    z -0.004230 0.000000 1.868720 
# 
# From -- ./inp_files/373004.got.cif
#   From: 2010.06.25/outbox.cif.g09.slc.cpg/sg12_187_cif.got.tgz:373004.got - 2010.06.28 00:19:55.
