data_PCOD8110623
_publ_section_title
;
Structure prediction by ZEFSAII (Michael W. Deem and Ramdas Pophale) SiO2 
 PCOD8110623
Probable space group: C 2/M
;
_chemical_formula_sum "Si O2"
_cell_formula_units_Z 44
_cell_length_a 24.603605
_cell_length_b 13.950883
_cell_length_c 7.344085
_cell_angle_alpha 90.000000
_cell_angle_beta 53.392523
_cell_angle_gamma 90.000000
_cell_volume 2023.544961
_symmetry_space_group_name_H-M "C 2/M"
_symmetry_group_IT_number 12
_symmetry_cell_setting 'monoclinic'
loop_
_space_group_symop_operation_xyz
x,y,z
-x,y,-z
-x,-y,-z
x,-y,z
1/2+x,1/2+y,z
1/2-x,1/2+y,-z
1/2-x,1/2-y,-z
1/2+x,1/2-y,z
loop_
_atom_site_type_symbol
_atom_site_label
_atom_site_fract_x
_atom_site_fract_y
_atom_site_fract_z
Si Si1 0.188865 0.320644 0.940766
Si Si2 0.579202 0.500000 0.834208
Si Si3 0.394807 0.000000 0.820379
Si Si4 0.659524 0.322542 0.310583
Si Si5 0.118293 0.795124 0.799279
Si Si6 0.500000 0.835870 0.000000
Si Si7 0.956304 0.500000 0.332884
Si Si8 0.578390 0.500000 0.412124
O O1 0.139798 0.409957 0.015887
O O2 0.166718 0.270179 0.171335
O O3 0.265191 0.361019 0.795245
O O4 0.181961 0.248682 0.781612
O O5 0.609570 0.406704 0.874024
O O6 0.595736 0.500000 0.590354
O O7 0.500000 0.500000 0.000000
O O8 0.393372 0.000000 0.601280
O O9 0.472384 0.000000 0.712195
O O10 0.624356 0.289029 0.568342
O O11 0.615996 0.401193 0.280539
O O12 0.052453 0.735053 0.997155
O O13 0.453209 0.902825 0.221269
O O14 0.500000 0.500000 0.500000
#
# Coordination Sequence:
#
# PCOD8110623 Si02
#       8
#     8   4   4   8   8   4   4   4
#     4  11  23  41  65  86 125 171 208 260 313 373
#     4  10  22  37  57  95 127 158 209 255 311 385
#     4  11  21  40  60  88 118 162 208 253 312 363
#     4  10  24  42  61  95 124 160 216 254 310 389
#     4  11  22  39  63  89 127 166 205 262 314 374
#     4  11  20  37  60  92 124 163 202 255 322 378
#     4  10  22  36  57  92 125 150 209 262 300 373
#     4  10  23  41  66  93 129 161 201 267 323 376
#
# _framework density 21.744019000000002
#
# number of rings (size 3 to 8) (size 9 to 14) (size 15 to 20)
#    0.000    1.455    2.727    2.182    2.545    0.000 
#    3.273    0.909    0.000    0.000    0.000    0.000 
#    0.000    0.000    0.000    0.000    0.000    0.000 
#
# Total GULP energy -272686.918199 kJ/mol
# GULP energy per Si atom -12394.859918 kJ/mol
# Density = 2.169453 g / cm^3
# Si number density = 21.744019 Si / 1000 Ang^3
#
#
#
# Elastic Constant Matrix: (Units=GPa)
#
#
# Indices 1 2 3 4 5 6 
#
# 1 99.3912 48.1937 14.8050 0.0000 -14.5548 0.0000
# 2 48.1937 146.8117 35.4516 0.0000 -11.3074 0.0000
# 3 14.8050 35.4516 58.3504 0.0000 -4.3467 0.0000
# 4 0.0000 0.0000 0.0000 24.1486 0.0000 -7.8960
# 5 -14.5548 -11.3074 -4.3467 0.0000 37.4644 0.0000
# 6 0.0000 0.0000 0.0000 -7.8960 0.0000 35.6380
#
#
#
# Elastic Compliance Matrix: (Units=1/GPa)
#
#
# Indices 1 2 3 4 5 6 
#
# 1 0.012467 -0.003647 -0.000674 0.000000 0.003664 0.000000
# 2 -0.003647 0.009181 -0.004591 0.000000 0.000821 0.000000
# 3 -0.000674 -0.004591 0.020150 0.000000 0.000690 0.000000
# 4 0.000000 0.000000 0.000000 0.044644 0.000000 0.009891
# 5 0.003664 0.000821 0.000690 0.000000 0.028443 0.000000
# 6 0.000000 0.000000 0.000000 0.009891 0.000000 0.030252
#
#
# Mechanical properties :
#
#
# Convention : Reuss Voigt Hill
#
# Bulk Modulus (GPa) = 41.71588 55.71708 48.71648
# Shear Modulus (GPa) = 29.24780 33.19042 31.21911
#
# Velocity S-wave (km/s) = 3.67153 3.91118 3.79325
# Velocity P-wave (km/s) = 6.09920 6.78794 6.45276
#
# Compressibility (1/GPa) = 0.02397168
#
# Stress axis : x y z
#
# Youngs Moduli (GPa) = 80.21256 108.92386 49.62833
#
# Poissons Ratio (x) = 0.39730 0.03346
# Poissons Ratio (y) = 0.29257 0.22786
# Poissons Ratio (z) = 0.05407 0.50010
#
# Static dielectric constant tensor:
#      x y z
#    x 3.795210 0.000000 0.037230 
#    y 0.000000 4.128140 0.000000 
#    z 0.037230 0.000000 3.953490 
# 
# 
# High freq. dielectric constant tensor:
#      x y z
#    x 1.844340 0.000000 0.000630 
#    y 0.000000 1.867620 0.000000 
#    z 0.000630 0.000000 1.847000 
# 
# From -- ./inp_files/96181.got.cif
#   From: 2010.06.25/outbox.cif.g09.slc.cpg/sg12_49_cif.got.tgz:96181.got - 2010.06.28 00:19:55.
