data_PCOD8110193
_publ_section_title
;
Structure prediction by ZEFSAII (Michael W. Deem and Ramdas Pophale) SiO2 
 PCOD8110193
Probable space group: C 2/M
;
_chemical_formula_sum "Si O2"
_cell_formula_units_Z 56
_cell_length_a 19.117554
_cell_length_b 13.884139
_cell_length_c 22.319347
_cell_angle_alpha 90.000000
_cell_angle_beta 26.835328
_cell_angle_gamma 90.000000
_cell_volume 2674.367445
_symmetry_space_group_name_H-M "C 2/M"
_symmetry_group_IT_number 12
_symmetry_cell_setting 'monoclinic'
loop_
_space_group_symop_operation_xyz
x,y,z
-x,y,-z
-x,-y,-z
x,-y,z
1/2+x,1/2+y,z
1/2-x,1/2+y,-z
1/2-x,1/2-y,-z
1/2+x,1/2-y,z
loop_
_atom_site_type_symbol
_atom_site_label
_atom_site_fract_x
_atom_site_fract_y
_atom_site_fract_z
Si Si1 0.332132 0.392435 0.100802
Si Si2 0.870025 0.739550 0.664797
Si Si3 0.829106 0.264489 0.294404
Si Si4 0.652966 0.888950 0.476159
Si Si5 0.173681 0.737187 0.994737
Si Si6 0.755989 0.108446 0.526363
Si Si7 0.106228 0.111451 0.252408
O O1 0.266064 0.500000 0.139868
O O2 0.238752 0.340451 0.223719
O O3 0.500000 0.397849 0.000000
O O4 0.320239 0.335906 0.047348
O O5 0.802912 0.781682 0.654403
O O6 0.879124 0.836237 0.695765
O O7 0.031942 0.682219 0.535847
O O8 0.817371 0.151712 0.324561
O O9 0.792554 0.325293 0.381855
O O10 0.994908 0.292678 0.140444
O O11 0.641567 0.875929 0.556986
O O12 0.632307 0.000000 0.472948
O O13 0.250000 0.750000 0.000000
O O14 0.269439 0.653289 0.889215
O O15 0.928243 0.127871 0.368213
O O16 0.743976 0.000000 0.559582
O O17 0.146493 0.000000 0.230162
#
# Coordination Sequence:
#
# PCOD8110193 Si02
#       7
#     8   8   8   8   8   8   8
#     4  10  21  41  64  88 128 174 211 255 321 390
#     4  11  23  40  63  96 131 166 214 268 315 386
#     4  12  24  40  63  97 131 162 215 270 320 372
#     4  11  24  40  65  97 133 173 212 261 325 387
#     4  11  25  41  65  95 127 166 213 272 321 378
#     4  10  23  43  67  94 127 170 217 264 321 385
#     4  10  23  44  68  91 126 174 217 262 325 386
#
# _framework density 20.939530000000001
#
# number of rings (size 3 to 8) (size 9 to 14) (size 15 to 20)
#    0.000    1.286    2.857    2.143    4.000    4.000 
#    0.000    2.143    0.000    0.000    0.000    0.000 
#    0.000    0.000    0.000    0.000    0.000    0.000 
#
# Total GULP energy -347015.771696 kJ/mol
# GULP energy per Si atom -12393.420418 kJ/mol
# Density = 2.089187 g / cm^3
# Si number density = 20.939530 Si / 1000 Ang^3
#
#
#
# Elastic Constant Matrix: (Units=GPa)
#
#
# Indices 1 2 3 4 5 6 
#
# 1 83.4379 2.7536 -21.0208 0.0007 -8.4365 0.0012
# 2 2.7536 93.2295 4.7731 0.0052 -8.5934 -0.0027
# 3 -21.0208 4.7731 66.5142 0.0146 -9.7752 -0.0045
# 4 0.0007 0.0052 0.0146 21.4446 -0.0049 -4.0330
# 5 -8.4365 -8.5934 -9.7752 -0.0049 23.8013 0.0011
# 6 0.0012 -0.0027 -0.0045 -4.0330 0.0011 22.1134
#
#
#
# Elastic Compliance Matrix: (Units=1/GPa)
#
#
# Indices 1 2 3 4 5 6 
#
# 1 0.014113 -0.000031 0.005530 -0.000003 0.007263 0.000000
# 2 -0.000031 0.011099 -0.000233 -0.000001 0.003901 0.000001
# 3 0.005530 -0.000233 0.018171 -0.000010 0.009339 0.000001
# 4 -0.000003 -0.000001 -0.000010 0.048288 0.000004 0.008807
# 5 0.007263 0.003901 0.009339 0.000004 0.049833 0.000000
# 6 0.000000 0.000001 0.000001 0.008807 0.000000 0.046828
#
#
# Mechanical properties :
#
#
# Convention : Reuss Voigt Hill
#
# Bulk Modulus (GPa) = 18.54725 24.02147 21.28436
# Shear Modulus (GPa) = 25.54012 30.58358 28.06185
#
# Velocity S-wave (km/s) = 3.49622 3.82588 3.66476
# Velocity P-wave (km/s) = 5.01745 5.56895 5.30038
#
# Compressibility (1/GPa) = 0.05391634
#
# Stress axis : x y z
#
# Youngs Moduli (GPa) = 70.85428 90.10156 55.03211
#
# Poissons Ratio (x) = 0.00275 -0.30432
# Poissons Ratio (y) = 0.00216 0.01281
# Poissons Ratio (z) = -0.39182 0.02098
#
# Static dielectric constant tensor:
#      x y z
#    x 3.846970 0.000000 0.010700 
#    y 0.000000 4.021980 0.000010 
#    z 0.010700 0.000010 4.139800 
# 
# 
# High freq. dielectric constant tensor:
#      x y z
#    x 1.831240 0.000000 0.002380 
#    y 0.000000 1.820710 0.000000 
#    z 0.002380 0.000000 1.826950 
# 
# From -- ./inp_files/316674.got.cif
#   From: 2010.06.25/outbox.cif.g09.slc.cpg/sg12_159_cif.got.tgz:316674.got - 2010.06.28 00:19:55.
