data_PCOD8110471
_publ_section_title
;
Structure prediction by ZEFSAII (Michael W. Deem and Ramdas Pophale) SiO2 
 PCOD8110471
Probable space group: C 2/M
;
_chemical_formula_sum "Si O2"
_cell_formula_units_Z 56
_cell_length_a 9.319262
_cell_length_b 25.819642
_cell_length_c 22.352978
_cell_angle_alpha 90.000000
_cell_angle_beta 30.471027
_cell_angle_gamma 90.000000
_cell_volume 2727.488707
_symmetry_space_group_name_H-M "C 2/M"
_symmetry_group_IT_number 12
_symmetry_cell_setting 'monoclinic'
loop_
_space_group_symop_operation_xyz
x,y,z
-x,y,-z
-x,-y,-z
x,-y,z
1/2+x,1/2+y,z
1/2-x,1/2+y,-z
1/2-x,1/2-y,-z
1/2+x,1/2-y,z
loop_
_atom_site_type_symbol
_atom_site_label
_atom_site_fract_x
_atom_site_fract_y
_atom_site_fract_z
Si Si1 0.772252 0.212110 0.252631
Si Si2 0.810450 0.665870 0.007798
Si Si3 0.176256 0.637481 0.636528
Si Si4 0.875345 0.441958 0.664606
Si Si5 0.250043 0.353411 0.373165
Si Si6 0.284562 0.170385 0.246758
Si Si7 0.215893 0.945101 0.064788
O O1 0.485991 0.186802 0.331504
O O2 0.864053 0.183846 0.280399
O O3 0.695791 0.271139 0.294959
O O4 0.037424 0.203421 0.112021
O O5 0.971977 0.680027 0.889432
O O6 0.705101 0.607262 0.030476
O O7 0.000000 0.669291 0.000000
O O8 0.500000 0.642046 0.500000
O O9 0.126948 0.639068 0.725755
O O10 0.047471 0.583790 0.657741
O O11 0.995424 0.500000 0.610101
O O12 0.895527 0.406525 0.598256
O O13 0.543922 0.443718 0.796533
O O14 0.524633 0.363447 0.314963
O O15 0.000000 0.325359 0.500000
O O16 0.201160 0.000000 0.032929
O O17 0.500000 0.944803 0.000000
#
# Coordination Sequence:
#
# PCOD8110471 Si02
#       7
#     8   8   8   8   8   8   8
#     4  11  23  42  60  89 128 177 213 257 324 375
#     4  11  20  39  62  91 130 161 214 275 312 376
#     4  11  25  43  61  92 131 167 213 266 317 378
#     4  10  21  43  68  90 127 169 206 260 331 388
#     4  11  22  40  64  93 125 164 223 269 304 373
#     4  12  24  38  65  92 128 171 216 264 316 377
#     4   9  16  32  62  89 115 158 203 253 316 371
#
# _framework density 20.531707999999998
#
# number of rings (size 3 to 8) (size 9 to 14) (size 15 to 20)
#    0.000    1.286    4.286    3.857    0.000    4.571 
#    0.000    1.429    0.000    1.714    0.000    0.000 
#    0.000    0.000    0.000    0.000    0.000    0.000 
#
# Total GULP energy -347001.312154 kJ/mol
# GULP energy per Si atom -12392.904005 kJ/mol
# Density = 2.048498 g / cm^3
# Si number density = 20.531708 Si / 1000 Ang^3
#
#
#
# Elastic Constant Matrix: (Units=GPa)
#
#
# Indices 1 2 3 4 5 6 
#
# 1 94.1254 42.5358 25.1707 -0.0166 -1.7491 0.0243
# 2 42.5358 114.5864 8.7944 -0.0323 6.0073 0.0474
# 3 25.1707 8.7944 111.7302 -0.0493 -10.2371 0.0619
# 4 -0.0166 -0.0323 -0.0493 -112.5107 0.0137 198.9774
# 5 -1.7491 6.0073 -10.2371 0.0137 31.1671 -0.0202
# 6 0.0243 0.0474 0.0619 198.9774 -0.0202 -317.6914
#
#
#
# Elastic Compliance Matrix: (Units=1/GPa)
#
#
# Indices 1 2 3 4 5 6 
#
# 1 0.013532 -0.004869 -0.002588 -0.000002 0.000848 -0.000001
# 2 -0.004869 0.010652 0.000047 0.000002 -0.002311 0.000003
# 3 -0.002588 0.000047 0.009810 0.000008 0.003068 0.000007
# 4 -0.000002 0.000002 0.000008 0.082553 -0.000001 0.051705
# 5 0.000848 -0.002311 0.003068 -0.000001 0.033586 -0.000002
# 6 -0.000001 0.000003 0.000007 0.051705 -0.000002 0.029236
#
#
# Mechanical properties :
#
#
# Convention : Reuss Voigt Hill
#
# Bulk Modulus (GPa) = 52.15184 52.60488 52.37836
# Shear Modulus (GPa) = 24.92742 -63.54427 -19.30843
#
# Velocity S-wave (km/s) = 3.48816 -5.56925 -3.06995
# Velocity P-wave (km/s) = 6.45591 3.95960 3.60558
#
# Compressibility (1/GPa) = 0.01917478
#
# Stress axis : x y z
#
# Youngs Moduli (GPa) = 73.89743 93.87806 101.93162
#
# Poissons Ratio (x) = 0.45711 0.26376
# Poissons Ratio (y) = 0.35982 -0.00477
# Poissons Ratio (z) = 0.19122 -0.00439
#
# Static dielectric constant tensor:
#      x y z
#    x 3.651620 0.000000 -0.040800 
#    y 0.000000 4.155800 0.000000 
#    z -0.040800 0.000000 3.724450 
# 
# 
# High freq. dielectric constant tensor:
#      x y z
#    x 1.784550 0.000000 -0.013190 
#    y 0.000000 1.804150 0.000000 
#    z -0.013190 0.000000 1.809550 
# 
# From -- ./inp_files/302998.got.cif
#   From: 2010.06.25/outbox.cif.g09.slc.cpg/sg12_152_cif.got.tgz:302998.got - 2010.06.28 00:19:55.
