data_PCOD8110554
_publ_section_title
;
Structure prediction by ZEFSAII (Michael W. Deem and Ramdas Pophale) SiO2 
 PCOD8110554
Probable space group: C 2/M
;
_chemical_formula_sum "Si O2"
_cell_formula_units_Z 36
_cell_length_a 25.630200
_cell_length_b 9.423339
_cell_length_c 13.811098
_cell_angle_alpha 90.000000
_cell_angle_beta 23.192652
_cell_angle_gamma 90.000000
_cell_volume 1313.672865
_symmetry_space_group_name_H-M "C 2/M"
_symmetry_group_IT_number 12
_symmetry_cell_setting 'monoclinic'
loop_
_space_group_symop_operation_xyz
x,y,z
-x,y,-z
-x,-y,-z
x,-y,z
1/2+x,1/2+y,z
1/2-x,1/2+y,-z
1/2-x,1/2-y,-z
1/2+x,1/2-y,z
loop_
_atom_site_type_symbol
_atom_site_label
_atom_site_fract_x
_atom_site_fract_y
_atom_site_fract_z
Si Si1 0.738476 0.500000 0.934146
Si Si2 0.168366 0.500000 0.515077
Si Si3 0.600791 0.808216 0.469013
Si Si4 0.890913 0.000000 0.291972
Si Si5 0.000000 0.745363 0.000000
Si Si6 0.565520 0.500000 0.567585
Si Si7 0.358749 0.000000 0.921610
Si Si8 0.382532 0.000000 0.096757
O O1 0.824237 0.364642 0.753486
O O2 0.735734 0.500000 0.056366
O O3 0.591224 0.500000 0.139739
O O4 0.184570 0.360041 0.420092
O O5 0.272767 0.500000 0.420191
O O6 0.028899 0.500000 0.803695
O O7 0.599534 0.641272 0.451845
O O8 0.450905 0.863491 0.741455
O O9 0.845558 0.000000 0.482455
O O10 0.968966 0.147652 0.142436
O O11 0.122219 0.643893 0.828488
O O12 0.298715 0.000000 0.136360
#
# Coordination Sequence:
#
# PCOD8110554 Si02
#       8
#     4   4   8   4   4   4   4   4
#     4  10  23  45  74  95 133 192 221 273 360 396
#     4   9  20  42  62  84 131 182 210 266 361 386
#     4   9  21  42  66  98 137 174 227 285 330 415
#     4  11  23  38  62  94 131 179 213 271 339 408
#     4  10  22  34  60  96 132 162 220 274 314 402
#     4  12  25  42  68 102 143 174 231 286 332 409
#     4   9  18  43  71  91 135 182 216 280 346 394
#     4   9  19  40  62  93 131 170 215 277 327 399
#
# _framework density 27.404083
#
# number of rings (size 3 to 8) (size 9 to 14) (size 15 to 20)
#    0.000    2.667    0.000    4.000    6.222    4.444 
#    0.000    6.667    4.889    0.000    0.000    0.000 
#    0.000    0.000    0.000    0.000    0.000    0.000 
#
# Total GULP energy -223031.517361 kJ/mol
# GULP energy per Si atom -12390.639853 kJ/mol
# Density = 2.734171 g / cm^3
# Si number density = 27.404083 Si / 1000 Ang^3
#
#
#
# Elastic Constant Matrix: (Units=GPa)
#
#
# Indices 1 2 3 4 5 6 
#
# 1 158.0059 42.9029 20.2436 0.0000 9.0249 0.0000
# 2 42.9029 246.7096 35.6823 0.0000 5.9142 0.0000
# 3 20.2436 35.6823 42.7849 0.0000 16.0644 0.0000
# 4 0.0000 0.0000 0.0000 19.0698 0.0000 10.7381
# 5 9.0249 5.9142 16.0644 0.0000 36.9234 0.0000
# 6 0.0000 0.0000 0.0000 10.7381 0.0000 16.9590
#
#
#
# Elastic Compliance Matrix: (Units=1/GPa)
#
#
# Indices 1 2 3 4 5 6 
#
# 1 0.006890 -0.000844 -0.002360 0.000000 -0.000522 0.000000
# 2 -0.000844 0.004752 -0.004010 0.000000 0.001190 0.000000
# 3 -0.002360 -0.004010 0.032721 0.000000 -0.013017 0.000000
# 4 0.000000 0.000000 0.000000 0.081495 0.000000 -0.051601
# 5 -0.000522 0.001190 -0.013017 0.000000 0.032683 0.000000
# 6 0.000000 0.000000 0.000000 -0.051601 0.000000 0.091638
#
#
# Mechanical properties :
#
#
# Convention : Reuss Voigt Hill
#
# Bulk Modulus (GPa) = 33.40633 71.68421 52.54527
# Shear Modulus (GPa) = 18.20917 37.83522 28.02219
#
# Velocity S-wave (km/s) = 2.58053 3.71973 3.20121
# Velocity P-wave (km/s) = 4.59299 6.68308 5.73407
#
# Compressibility (1/GPa) = 0.02993445
#
# Stress axis : x y z
#
# Youngs Moduli (GPa) = 145.13109 210.45265 30.56117
#
# Poissons Ratio (x) = 0.17771 0.07212
# Poissons Ratio (y) = 0.12255 0.12255
# Poissons Ratio (z) = 0.34249 0.84395
#
# Static dielectric constant tensor:
#      x y z
#    x 5.721300 0.000000 -0.330220 
#    y 0.000000 5.172660 0.000000 
#    z -0.330220 0.000000 5.277830 
# 
# 
# High freq. dielectric constant tensor:
#      x y z
#    x 2.106110 0.000000 0.003520 
#    y 0.000000 2.105380 0.000000 
#    z 0.003520 0.000000 2.110940 
# 
# From -- ./inp_files/244580.got.cif
#   From: 2010.06.25/outbox.cif.g09.slc.cpg/sg12_123_cif.got.tgz:244580.got - 2010.06.28 00:19:55.
