data_PCOD8110272
_publ_section_title
;
Structure prediction by ZEFSAII (Michael W. Deem and Ramdas Pophale) SiO2 
 PCOD8110272
Probable space group: C 2/M
;
_chemical_formula_sum "Si O2"
_cell_formula_units_Z 48
_cell_length_a 13.332223
_cell_length_b 17.790757
_cell_length_c 13.115558
_cell_angle_alpha 90.000000
_cell_angle_beta 135.864957
_cell_angle_gamma 90.000000
_cell_volume 2166.269695
_symmetry_space_group_name_H-M "C 2/M"
_symmetry_group_IT_number 12
_symmetry_cell_setting 'monoclinic'
loop_
_space_group_symop_operation_xyz
x,y,z
-x,y,-z
-x,-y,-z
x,-y,z
1/2+x,1/2+y,z
1/2-x,1/2+y,-z
1/2-x,1/2-y,-z
1/2+x,1/2-y,z
loop_
_atom_site_type_symbol
_atom_site_label
_atom_site_fract_x
_atom_site_fract_y
_atom_site_fract_z
Si Si1 0.542445 0.586832 0.423161
Si Si2 0.151968 0.301587 0.633025
Si Si3 0.171090 0.586744 0.467628
Si Si4 0.896865 0.649763 0.178278
Si Si5 0.888584 0.913995 0.109678
Si Si6 0.466188 0.270906 0.861320
O O1 0.500000 0.625144 0.500000
O O2 0.576960 0.500000 0.468600
O O3 0.688067 0.623352 0.483171
O O4 0.413328 0.598723 0.248630
O O5 0.141102 0.374652 0.553583
O O6 0.169479 0.325059 0.762809
O O7 0.297209 0.255831 0.712197
O O8 0.000000 0.256757 0.500000
O O9 0.196590 0.500000 0.510431
O O10 0.036803 0.597934 0.293822
O O11 0.935355 0.724585 0.144250
O O12 0.778697 0.601806 0.032149
O O13 0.993559 0.859114 0.122211
O O14 0.927040 0.000000 0.107437
O O15 0.500000 0.244084 0.000000
#
# Coordination Sequence:
#
# PCOD8110272 Si02
#       6
#     8   8   8   8   8   8
#     4   9  19  38  62  91 129 170 216 271 329 393
#     4  10  23  42  65  97 132 172 222 277 334 398
#     4  10  21  41  66  99 139 175 222 282 337 396
#     4  11  25  43  64  99 136 178 224 273 340 406
#     4  11  23  42  68  97 131 175 229 280 336 399
#     4  12  25  45  67  98 138 179 227 278 339 401
#
# _framework density 22.157905
#
# number of rings (size 3 to 8) (size 9 to 14) (size 15 to 20)
#    0.000    1.500    3.333    1.000    0.000    8.000 
#    0.000    0.000    0.000    5.000    0.000    0.000 
#    0.000    0.000    0.000    0.000    0.000    0.000 
#
# Total GULP energy -297587.860984 kJ/mol
# GULP energy per Si atom -12399.494208 kJ/mol
# Density = 2.210747 g / cm^3
# Si number density = 22.157905 Si / 1000 Ang^3
#
#
#
# Elastic Constant Matrix: (Units=GPa)
#
#
# Indices 1 2 3 4 5 6 
#
# 1 133.8103 31.1374 66.8578 0.0000 -2.2129 0.0000
# 2 31.1374 61.5394 20.8715 0.0000 -3.2111 0.0000
# 3 66.8578 20.8715 155.2616 0.0000 12.6411 0.0000
# 4 0.0000 0.0000 0.0000 13.3352 0.0000 7.6808
# 5 -2.2129 -3.2111 12.6411 0.0000 48.0307 0.0000
# 6 0.0000 0.0000 0.0000 7.6808 0.0000 21.9927
#
#
#
# Elastic Compliance Matrix: (Units=1/GPa)
#
#
# Indices 1 2 3 4 5 6 
#
# 1 0.010423 -0.003822 -0.004080 0.000000 0.001299 0.000000
# 2 -0.003822 0.018578 -0.000959 0.000000 0.001318 0.000000
# 3 -0.004080 -0.000959 0.008530 0.000000 -0.002497 0.000000
# 4 0.000000 0.000000 0.000000 0.093873 0.000000 -0.032784
# 5 0.001299 0.001318 -0.002497 0.000000 0.021625 0.000000
# 6 0.000000 0.000000 0.000000 -0.032784 0.000000 0.056919
#
#
# Mechanical properties :
#
#
# Convention : Reuss Voigt Hill
#
# Bulk Modulus (GPa) = 50.48419 65.37164 57.92791
# Shear Modulus (GPa) = 21.34266 32.12135 26.73201
#
# Velocity S-wave (km/s) = 3.10693 3.81157 3.47714
# Velocity P-wave (km/s) = 5.97528 6.99553 6.50543
#
# Compressibility (1/GPa) = 0.01980818
#
# Stress axis : x y z
#
# Youngs Moduli (GPa) = 95.94404 53.82820 117.23481
#
# Poissons Ratio (x) = 0.20574 0.47833
# Poissons Ratio (y) = 0.36671 0.11241
# Poissons Ratio (z) = 0.39146 0.05161
#
# Static dielectric constant tensor:
#      x y z
#    x 4.197370 0.000000 0.172460 
#    y 0.000000 3.633010 0.000000 
#    z 0.172460 0.000000 4.244050 
# 
# 
# High freq. dielectric constant tensor:
#      x y z
#    x 1.876540 0.000000 0.008110 
#    y 0.000000 1.850090 0.000000 
#    z 0.008110 0.000000 1.890020 
# 
# From -- ./inp_files/134083.got.cif
#   From: 2010.06.25/outbox.cif.g09.slc.cpg/sg12_68_cif.got.tgz:134083.got - 2010.06.28 00:19:55.
