data_PCOD8110342
_publ_section_title
;
Structure prediction by ZEFSAII (Michael W. Deem and Ramdas Pophale) SiO2 
 PCOD8110342
Probable space group: C 2/M
;
_chemical_formula_sum "Si O2"
_cell_formula_units_Z 56
_cell_length_a 11.213666
_cell_length_b 27.623859
_cell_length_c 11.109302
_cell_angle_alpha 90.000000
_cell_angle_beta 50.699358
_cell_angle_gamma 90.000000
_cell_volume 2662.968612
_symmetry_space_group_name_H-M "C 2/M"
_symmetry_group_IT_number 12
_symmetry_cell_setting 'monoclinic'
loop_
_space_group_symop_operation_xyz
x,y,z
-x,y,-z
-x,-y,-z
x,-y,z
1/2+x,1/2+y,z
1/2-x,1/2+y,-z
1/2-x,1/2-y,-z
1/2+x,1/2-y,z
loop_
_atom_site_type_symbol
_atom_site_label
_atom_site_fract_x
_atom_site_fract_y
_atom_site_fract_z
Si Si1 0.539407 0.908203 0.173029
Si Si2 0.702433 0.445570 0.134302
Si Si3 0.579231 0.807176 0.079597
Si Si4 0.584018 0.609694 0.697496
Si Si5 0.161762 0.445569 0.330478
Si Si6 0.205352 0.945855 0.406441
Si Si7 0.556233 0.698663 0.103662
O O1 0.506669 0.850625 0.205893
O O2 0.656286 0.928092 0.197626
O O3 0.387600 0.939219 0.285007
O O4 0.632819 0.918591 0.988517
O O5 0.718260 0.500000 0.076768
O O6 0.565343 0.417978 0.153112
O O7 0.646303 0.443574 0.308424
O O8 0.528076 0.754512 0.159357
O O9 0.500000 0.814113 0.000000
O O10 0.765216 0.813173 0.976452
O O11 0.731534 0.593159 0.675011
O O12 0.619927 0.596179 0.535610
O O13 0.552632 0.666698 0.739214
O O14 0.228457 0.500000 0.295682
O O15 0.000000 0.442408 0.500000
O O16 0.174173 0.000000 0.480859
O O17 0.500000 0.690322 0.000000
#
# Coordination Sequence:
#
# PCOD8110342 Si02
#       7
#     8   8   8   8   8   8   8
#     4  12  22  39  65  93 123 165 227 267 315 389
#     4  11  23  37  59  92 126 163 216 268 315 378
#     4  10  21  41  69  97 129 169 220 277 344 391
#     4  12  23  39  63  90 128 169 218 263 330 396
#     4  11  23  40  62  89 132 183 218 257 329 405
#     4  11  23  40  60  86 130 174 207 257 327 391
#     4  10  22  42  67  99 131 168 219 280 339 401
#
# _framework density 21.029164000000002
#
# number of rings (size 3 to 8) (size 9 to 14) (size 15 to 20)
#    0.000    1.000    2.857    5.143    0.000    2.286 
#    0.000    2.143    0.000    0.000    0.000    0.000 
#    0.000    0.000    0.000    0.000    0.000    0.000 
#
# Total GULP energy -346952.065980 kJ/mol
# GULP energy per Si atom -12391.145214 kJ/mol
# Density = 2.098130 g / cm^3
# Si number density = 21.029164 Si / 1000 Ang^3
#
#
#
# Elastic Constant Matrix: (Units=GPa)
#
#
# Indices 1 2 3 4 5 6 
#
# 1 108.2031 28.0937 9.6355 0.0000 -11.9314 0.0000
# 2 28.0937 154.2157 62.2021 0.0000 -2.4330 0.0000
# 3 9.6355 62.2021 93.8775 0.0000 -3.2013 0.0000
# 4 0.0000 0.0000 0.0000 36.8082 0.0000 -2.0086
# 5 -11.9314 -2.4330 -3.2013 0.0000 25.2037 0.0000
# 6 0.0000 0.0000 0.0000 -2.0086 0.0000 21.6779
#
#
#
# Elastic Compliance Matrix: (Units=1/GPa)
#
#
# Indices 1 2 3 4 5 6 
#
# 1 0.010232 -0.001953 0.000404 0.000000 0.004707 0.000000
# 2 -0.001953 0.009222 -0.005937 0.000000 -0.000788 0.000000
# 3 0.000404 -0.005937 0.014595 0.000000 0.001472 0.000000
# 4 0.000000 0.000000 0.000000 0.027306 0.000000 0.002530
# 5 0.004707 -0.000788 0.001472 0.000000 0.042016 0.000000
# 6 0.000000 0.000000 0.000000 0.002530 0.000000 0.046364
#
#
# Mechanical properties :
#
#
# Convention : Reuss Voigt Hill
#
# Bulk Modulus (GPa) = 52.41723 61.79544 57.10633
# Shear Modulus (GPa) = 29.22855 33.82896 31.52876
#
# Velocity S-wave (km/s) = 3.73219 4.01517 3.87626
# Velocity P-wave (km/s) = 6.59942 7.13757 6.87376
#
# Compressibility (1/GPa) = 0.01907770
#
# Stress axis : x y z
#
# Youngs Moduli (GPa) = 97.73381 108.43138 68.51777
#
# Poissons Ratio (x) = 0.21174 -0.02769
# Poissons Ratio (y) = 0.19085 0.40680
# Poissons Ratio (z) = -0.03950 0.64377
#
# Static dielectric constant tensor:
#      x y z
#    x 4.281860 0.000000 0.292220 
#    y 0.000000 3.854650 0.000000 
#    z 0.292220 0.000000 4.030250 
# 
# 
# High freq. dielectric constant tensor:
#      x y z
#    x 1.847250 0.000000 -0.009520 
#    y 0.000000 1.826990 0.000000 
#    z -0.009520 0.000000 1.798530 
# 
# From -- ./inp_files/136904.got.cif
#   From: 2010.06.25/outbox.cif.g09.slc.cpg/sg12_69_cif.got.tgz:136904.got - 2010.06.28 00:19:55.
