data_PCOD8110731
_publ_section_title
;
Structure prediction by ZEFSAII (Michael W. Deem and Ramdas Pophale) SiO2 
 PCOD8110731
Probable space group: C 2/M
;
_chemical_formula_sum "Si O2"
_cell_formula_units_Z 40
_cell_length_a 30.953034
_cell_length_b 14.892917
_cell_length_c 8.944924
_cell_angle_alpha 90.000000
_cell_angle_beta 27.647652
_cell_angle_gamma 90.000000
_cell_volume 1913.411754
_symmetry_space_group_name_H-M "C 2/M"
_symmetry_group_IT_number 12
_symmetry_cell_setting 'monoclinic'
loop_
_space_group_symop_operation_xyz
x,y,z
-x,y,-z
-x,-y,-z
x,-y,z
1/2+x,1/2+y,z
1/2-x,1/2+y,-z
1/2-x,1/2-y,-z
1/2+x,1/2-y,z
loop_
_atom_site_type_symbol
_atom_site_label
_atom_site_fract_x
_atom_site_fract_y
_atom_site_fract_z
Si Si1 0.486311 0.604733 0.867912
Si Si2 0.699200 0.665022 0.722116
Si Si3 0.075660 0.606057 0.551980
Si Si4 0.587463 0.730319 0.333780
Si Si5 0.883596 0.598593 0.248243
O O1 0.503397 0.500000 0.781745
O O2 0.562464 0.660982 0.542965
O O3 0.500000 0.626900 0.000000
O O4 0.381312 0.629727 0.139847
O O5 0.750000 0.750000 0.500000
O O6 0.783572 0.594255 0.475559
O O7 0.666253 0.684930 0.991252
O O8 0.089678 0.500000 0.466100
O O9 0.122456 0.672153 0.286539
O O10 0.122922 0.636235 0.563419
O O11 0.966726 0.641230 0.893249
O O12 0.500000 0.749967 0.500000
O O13 0.924462 0.500000 0.145394
#
# Coordination Sequence:
#
# PCOD8110731 Si02
#       5
#     8   8   8   8   8
#     4  10  23  43  65  89 121 163 206 254 306 361
#     4  11  23  38  59  90 121 157 203 250 304 356
#     4   9  19  36  59  87 119 157 197 239 299 362
#     4  10  22  37  61  88 116 161 200 247 302 359
#     4   9  18  34  58  84 114 154 194 242 297 354
#
# _framework density 20.905066999999999
#
# number of rings (size 3 to 8) (size 9 to 14) (size 15 to 20)
#    0.000    2.200    0.000    4.200    5.600    5.600 
#    0.000    2.000    0.000    0.000    0.000    0.000 
#    0.000    0.000    0.000    0.000    0.000    0.000 
#
# Total GULP energy -247786.965059 kJ/mol
# GULP energy per Si atom -12389.348253 kJ/mol
# Density = 2.085749 g / cm^3
# Si number density = 20.905067 Si / 1000 Ang^3
#
#
#
# Elastic Constant Matrix: (Units=GPa)
#
#
# Indices 1 2 3 4 5 6 
#
# 1 112.7364 46.0807 48.3565 0.0000 3.7349 0.0000
# 2 46.0807 104.6484 23.4418 0.0000 14.3292 0.0000
# 3 48.3565 23.4418 70.8606 0.0000 -5.0497 0.0000
# 4 0.0000 0.0000 0.0000 11.0575 0.0000 2.8720
# 5 3.7349 14.3292 -5.0497 0.0000 36.8426 0.0000
# 6 0.0000 0.0000 0.0000 2.8720 0.0000 35.5638
#
#
#
# Elastic Compliance Matrix: (Units=1/GPa)
#
#
# Indices 1 2 3 4 5 6 
#
# 1 0.014234 -0.004266 -0.008369 0.000000 -0.000931 0.000000
# 2 -0.004266 0.012405 -0.001520 0.000000 -0.004601 0.000000
# 3 -0.008369 -0.001520 0.020630 0.000000 0.004267 0.000000
# 4 0.000000 0.000000 0.000000 0.092374 0.000000 -0.007460
# 5 -0.000931 -0.004601 0.004267 0.000000 0.029611 0.000000
# 6 0.000000 0.000000 0.000000 -0.007460 0.000000 0.028721
#
#
# Mechanical properties :
#
#
# Convention : Reuss Voigt Hill
#
# Bulk Modulus (GPa) = 52.74504 58.22259 55.48381
# Shear Modulus (GPa) = 21.49558 28.05054 24.77306
#
# Velocity S-wave (km/s) = 3.21011 3.66704 3.44616
# Velocity P-wave (km/s) = 6.24702 6.77060 6.51407
#
# Compressibility (1/GPa) = 0.01895913
#
# Stress axis : x y z
#
# Youngs Moduli (GPa) = 70.25195 80.61433 48.47201
#
# Poissons Ratio (x) = 0.34389 0.40566
# Poissons Ratio (y) = 0.29968 0.07370
# Poissons Ratio (z) = 0.58794 0.12257
#
# Static dielectric constant tensor:
#      x y z
#    x 1.692850 0.000000 1.053280 
#    y 0.000000 3.527260 0.000000 
#    z 1.053280 0.000000 3.502910 
# 
# 
# High freq. dielectric constant tensor:
#      x y z
#    x 1.822070 0.000000 0.000720 
#    y 0.000000 1.823400 0.000000 
#    z 0.000720 0.000000 1.804060 
# 
# From -- ./inp_files/59236.got.cif
#   From: 2010.06.25/outbox.cif.g09.slc.cpg/sg12_30_cif.got.tgz:59236.got - 2010.06.28 00:19:55.
