data_PCOD8110328
_publ_section_title
;
Structure prediction by ZEFSAII (Michael W. Deem and Ramdas Pophale) SiO2 
 PCOD8110328
Probable space group: C 2/M
;
_chemical_formula_sum "Si O2"
_cell_formula_units_Z 64
_cell_length_a 8.724735
_cell_length_b 28.386448
_cell_length_c 11.877572
_cell_angle_alpha 90.000000
_cell_angle_beta 91.256050
_cell_angle_gamma 90.000000
_cell_volume 2940.942974
_symmetry_space_group_name_H-M "C 2/M"
_symmetry_group_IT_number 12
_symmetry_cell_setting 'monoclinic'
loop_
_space_group_symop_operation_xyz
x,y,z
-x,y,-z
-x,-y,-z
x,-y,z
1/2+x,1/2+y,z
1/2-x,1/2+y,-z
1/2-x,1/2-y,-z
1/2+x,1/2-y,z
loop_
_atom_site_type_symbol
_atom_site_label
_atom_site_fract_x
_atom_site_fract_y
_atom_site_fract_z
Si Si1 0.918277 0.867331 0.160735
Si Si2 0.068231 0.176793 0.377008
Si Si3 0.345708 0.271125 0.102499
Si Si4 0.867292 0.415542 0.919220
Si Si5 0.426299 0.226459 0.749353
Si Si6 0.421174 0.147387 0.383761
Si Si7 0.846960 0.052348 0.891523
Si Si8 0.427943 0.948297 0.269877
O O1 0.928037 0.821272 0.080091
O O2 0.736691 0.879448 0.154261
O O3 0.973566 0.855903 0.288510
O O4 0.019265 0.908866 0.107641
O O5 0.242783 0.159635 0.381123
O O6 0.000000 0.170458 0.500000
O O7 0.057942 0.231517 0.341235
O O8 0.482443 0.235631 0.132968
O O9 0.250021 0.277816 0.217053
O O10 0.250000 0.250000 0.000000
O O11 0.949622 0.448668 0.829696
O O12 0.754729 0.444979 0.997611
O O13 0.000000 0.390892 0.000000
O O14 0.491188 0.177229 0.708365
O O15 0.500000 0.161960 0.500000
O O16 0.454617 0.092333 0.361560
O O17 0.741647 0.060477 0.781302
O O18 0.921135 0.000000 0.888764
O O19 0.438241 0.000000 0.327759
#
# Coordination Sequence:
#
# PCOD8110328 Si02
#       8
#     8   8   8   8   8   8   8   8
#     4  11  24  42  66  96 139 178 225 275 337 403
#     4  11  26  46  69  97 132 171 232 288 340 397
#     4  11  25  42  65  98 139 181 215 263 331 410
#     4  10  22  38  65 100 135 174 225 272 327 397
#     4  11  24  45  68  98 135 172 225 275 332 403
#     4  12  26  43  73  98 130 176 227 287 349 395
#     4  10  21  41  68  96 133 182 226 275 332 397
#     4  10  22  43  67  99 140 174 221 281 339 409
#
# _framework density 21.761728000000002
#
# number of rings (size 3 to 8) (size 9 to 14) (size 15 to 20)
#    0.000    1.250    2.500    2.250    5.250   11.250 
#    0.000    0.000    0.000    0.750    0.000    0.000 
#    0.000    0.000    0.000    0.000    0.000    0.000 
#
# Total GULP energy -396606.653000 kJ/mol
# GULP energy per Si atom -12393.957906 kJ/mol
# Density = 2.171220 g / cm^3
# Si number density = 21.761728 Si / 1000 Ang^3
#
#
#
# Elastic Constant Matrix: (Units=GPa)
#
#
# Indices 1 2 3 4 5 6 
#
# 1 122.5512 44.6090 47.3021 0.0000 7.2121 0.0000
# 2 44.6090 138.7118 42.2627 0.0000 7.1904 0.0000
# 3 47.3021 42.2627 79.7610 0.0000 5.5938 0.0000
# 4 0.0000 0.0000 0.0000 41.9881 0.0000 0.0493
# 5 7.2121 7.1904 5.5938 0.0000 45.7129 0.0000
# 6 0.0000 0.0000 0.0000 0.0493 0.0000 35.0466
#
#
#
# Elastic Compliance Matrix: (Units=1/GPa)
#
#
# Indices 1 2 3 4 5 6 
#
# 1 0.010990 -0.001819 -0.005500 0.000000 -0.000775 0.000000
# 2 -0.001819 0.008927 -0.003604 0.000000 -0.000676 0.000000
# 3 -0.005500 -0.003604 0.017761 0.000000 -0.000739 0.000000
# 4 0.000000 0.000000 0.000000 0.023816 0.000000 -0.000033
# 5 -0.000775 -0.000676 -0.000739 0.000000 0.022195 0.000000
# 6 0.000000 0.000000 0.000000 -0.000033 0.000000 0.028533
#
#
# Mechanical properties :
#
#
# Convention : Reuss Voigt Hill
#
# Bulk Modulus (GPa) = 63.15993 67.70796 65.43395
# Shear Modulus (GPa) = 35.88201 38.33954 37.11077
#
# Velocity S-wave (km/s) = 4.06502 4.20192 4.13404
# Velocity P-wave (km/s) = 7.14975 7.39746 7.27466
#
# Compressibility (1/GPa) = 0.01583282
#
# Stress axis : x y z
#
# Youngs Moduli (GPa) = 90.99003 112.01651 56.30405
#
# Poissons Ratio (x) = 0.20371 0.30966
# Poissons Ratio (y) = 0.16547 0.20294
# Poissons Ratio (z) = 0.50043 0.40374
#
# Static dielectric constant tensor:
#      x y z
#    x 4.282010 0.000000 0.205680 
#    y 0.000000 3.898240 0.000000 
#    z 0.205680 0.000000 3.827220 
# 
# 
# High freq. dielectric constant tensor:
#      x y z
#    x 1.876260 0.000000 0.007830 
#    y 0.000000 1.853690 0.000000 
#    z 0.007830 0.000000 1.841350 
# 
# From -- ./inp_files/125760.got.cif
#   From: 2010.06.25/outbox.cif.g09.slc.cpg/sg12_63_cif.got.tgz:125760.got - 2010.06.28 00:19:55.
