data_PCOD8110436
_publ_section_title
;
Structure prediction by ZEFSAII (Michael W. Deem and Ramdas Pophale) SiO2 
 PCOD8110436
Probable space group: C 2/M
;
_chemical_formula_sum "Si O2"
_cell_formula_units_Z 64
_cell_length_a 7.576646
_cell_length_b 26.789981
_cell_length_c 14.769265
_cell_angle_alpha 90.000000
_cell_angle_beta 91.094407
_cell_angle_gamma 90.000000
_cell_volume 2997.291998
_symmetry_space_group_name_H-M "C 2/M"
_symmetry_group_IT_number 12
_symmetry_cell_setting 'monoclinic'
loop_
_space_group_symop_operation_xyz
x,y,z
-x,y,-z
-x,-y,-z
x,-y,z
1/2+x,1/2+y,z
1/2-x,1/2+y,-z
1/2-x,1/2-y,-z
1/2+x,1/2-y,z
loop_
_atom_site_type_symbol
_atom_site_label
_atom_site_fract_x
_atom_site_fract_y
_atom_site_fract_z
Si Si1 0.183985 0.371889 0.153654
Si Si2 0.435647 0.283441 0.592812
Si Si3 0.387768 0.442816 0.585115
Si Si4 0.508201 0.441991 0.786561
Si Si5 0.299192 0.871922 0.176601
Si Si6 0.853207 0.642372 0.380843
Si Si7 0.795754 0.192324 0.988363
Si Si8 0.799174 0.684989 0.664996
O O1 0.317650 0.417273 0.170170
O O2 0.205777 0.330371 0.231130
O O3 0.989349 0.395944 0.155863
O O4 0.200752 0.343221 0.059495
O O5 0.500000 0.258058 0.500000
O O6 0.265328 0.317207 0.566844
O O7 0.596872 0.317740 0.630160
O O8 0.379758 0.240692 0.662291
O O9 0.500000 0.424303 0.500000
O O10 0.332068 0.500000 0.573164
O O11 0.502066 0.434382 0.677615
O O12 0.202898 0.412825 0.587605
O O13 0.507891 0.500000 0.812363
O O14 0.341553 0.416406 0.833764
O O15 0.298199 0.848522 0.276320
O O16 0.260322 0.825151 0.111658
O O17 0.065802 0.649799 0.393349
O O18 0.750000 0.250000 0.000000
O O19 0.000000 0.183586 0.000000
#
# Coordination Sequence:
#
# PCOD8110436 Si02
#       8
#     8   8   8   8   8   8   8   8
#     4  11  24  42  64  95 129 164 213 264 313 389
#     4  12  24  39  57  84 124 167 209 259 308 377
#     4   9  18  37  66  97 127 167 217 268 325 382
#     4  10  21  42  69  95 130 172 210 268 330 378
#     4  10  22  43  61  94 128 161 213 262 313 383
#     4  10  22  38  61  89 124 167 204 262 315 376
#     4  12  25  41  67  95 131 171 210 262 315 376
#     4  11  24  38  59  85 123 164 208 255 310 373
#
# _framework density 21.352606999999999
#
# number of rings (size 3 to 8) (size 9 to 14) (size 15 to 20)
#    0.000    1.375    2.500    3.375    1.750    0.500 
#    0.000    3.125    0.000    2.250    0.000   37.625 
#    0.000    0.000    0.000    0.000    0.000    0.000 
#
# Total GULP energy -396799.114925 kJ/mol
# GULP energy per Si atom -12399.972341 kJ/mol
# Density = 2.130401 g / cm^3
# Si number density = 21.352607 Si / 1000 Ang^3
#
#
#
# Elastic Constant Matrix: (Units=GPa)
#
#
# Indices 1 2 3 4 5 6 
#
# 1 135.0052 35.6778 17.9823 0.0000 -5.7846 0.0000
# 2 35.6778 114.1365 32.3284 0.0000 -5.4641 0.0000
# 3 17.9823 32.3284 71.3802 0.0000 -13.3985 0.0000
# 4 0.0000 0.0000 0.0000 26.2294 0.0000 5.6801
# 5 -5.7846 -5.4641 -13.3985 0.0000 27.0588 0.0000
# 6 0.0000 0.0000 0.0000 5.6801 0.0000 19.4777
#
#
#
# Elastic Compliance Matrix: (Units=1/GPa)
#
#
# Indices 1 2 3 4 5 6 
#
# 1 0.008158 -0.002263 -0.000870 0.000000 0.000856 0.000000
# 2 -0.002263 0.010680 -0.004358 0.000000 -0.000485 0.000000
# 3 -0.000870 -0.004358 0.017642 0.000000 0.007670 0.000000
# 4 0.000000 0.000000 0.000000 0.040695 0.000000 -0.011867
# 5 0.000856 -0.000485 0.007670 0.000000 0.040839 0.000000
# 6 0.000000 0.000000 0.000000 -0.011867 0.000000 0.054802
#
#
# Mechanical properties :
#
#
# Convention : Reuss Voigt Hill
#
# Bulk Modulus (GPa) = 46.51377 54.72209 50.61793
# Shear Modulus (GPa) = 25.64600 30.18876 27.91738
#
# Velocity S-wave (km/s) = 3.46941 3.76416 3.61978
# Velocity P-wave (km/s) = 6.15467 6.67648 6.42088
#
# Compressibility (1/GPa) = 0.02149901
#
# Stress axis : x y z
#
# Youngs Moduli (GPa) = 122.58515 93.63403 56.68312
#
# Poissons Ratio (x) = 0.21186 0.04929
# Poissons Ratio (y) = 0.27737 0.24702
# Poissons Ratio (z) = 0.10659 0.40805
#
# Static dielectric constant tensor:
#      x y z
#    x 4.172470 0.000000 -0.071770 
#    y 0.000000 3.674360 0.000000 
#    z -0.071770 0.000000 3.845500 
# 
# 
# High freq. dielectric constant tensor:
#      x y z
#    x 1.850450 0.000000 -0.010870 
#    y 0.000000 1.823200 0.000000 
#    z -0.010870 0.000000 1.839260 
# 
# From -- ./inp_files/199829.got.cif
#   From: 2010.06.25/outbox.cif.g09.slc.cpg/sg12_100_cif.got.tgz:199829.got - 2010.06.28 00:19:55.
