data_PCOD8110991
_publ_section_title
;
Structure prediction by ZEFSAII (Michael W. Deem and Ramdas Pophale) SiO2 
 PCOD8110991
Probable space group: C 2/M
;
_chemical_formula_sum "Si O2"
_cell_formula_units_Z 28
_cell_length_a 13.880921
_cell_length_b 15.698481
_cell_length_c 5.032606
_cell_angle_alpha 90.000000
_cell_angle_beta 84.775806
_cell_angle_gamma 90.000000
_cell_volume 1092.096576
_symmetry_space_group_name_H-M "C 2/M"
_symmetry_group_IT_number 12
_symmetry_cell_setting 'monoclinic'
loop_
_space_group_symop_operation_xyz
x,y,z
-x,y,-z
-x,-y,-z
x,-y,z
1/2+x,1/2+y,z
1/2-x,1/2+y,-z
1/2-x,1/2-y,-z
1/2+x,1/2-y,z
loop_
_atom_site_type_symbol
_atom_site_label
_atom_site_fract_x
_atom_site_fract_y
_atom_site_fract_z
Si Si1 0.888778 0.845483 0.974071
Si Si2 0.606482 0.177466 0.353396
Si Si3 0.933293 0.500000 0.772326
Si Si4 0.722924 0.597861 0.483149
O O1 0.873252 0.750089 0.865809
O O2 0.842075 0.906887 0.764992
O O3 0.839269 0.859256 0.267999
O O4 0.000000 0.867725 0.000000
O O5 0.500000 0.190713 0.500000
O O6 0.626055 0.087979 0.193766
O O7 0.685668 0.163981 0.570296
O O8 0.000000 0.500000 0.500000
O O9 0.000000 0.500000 0.000000
O O10 0.755857 0.500000 0.536295
#
# Coordination Sequence:
#
# PCOD8110991 Si02
#       4
#     8   8   4   8
#     4  12  27  48  74 105 146 195 248 300 354 423
#     4  11  24  48  75 112 147 186 236 301 372 438
#     4  10  22  38  66 102 141 178 219 280 358 432
#     4  12  27  48  75 109 146 193 242 299 363 433
#
# _framework density 25.638757999999999
#
# number of rings (size 3 to 8) (size 9 to 14) (size 15 to 20)
#    0.000    0.571    1.429    6.000    0.000   12.571 
#    0.000    0.000    0.000    0.000    0.000    0.000 
#    0.000    0.000    0.000    0.000    0.000    0.000 
#
# Total GULP energy -173465.646136 kJ/mol
# GULP energy per Si atom -12390.403295 kJ/mol
# Density = 2.558040 g / cm^3
# Si number density = 25.638758 Si / 1000 Ang^3
#
#
#
# Elastic Constant Matrix: (Units=GPa)
#
#
# Indices 1 2 3 4 5 6 
#
# 1 172.7558 9.1656 41.5792 0.0000 13.4244 0.0000
# 2 9.1656 95.8712 -19.9391 0.0000 -14.5749 0.0000
# 3 41.5792 -19.9391 86.5829 0.0000 13.4260 0.0000
# 4 0.0000 0.0000 0.0000 22.8221 0.0000 5.1778
# 5 13.4244 -14.5749 13.4260 0.0000 40.2173 0.0000
# 6 0.0000 0.0000 0.0000 5.1778 0.0000 33.7505
#
#
#
# Elastic Compliance Matrix: (Units=1/GPa)
#
#
# Indices 1 2 3 4 5 6 
#
# 1 0.006823 -0.001619 -0.003380 0.000000 -0.001736 0.000000
# 2 -0.001619 0.011771 0.002893 0.000000 0.003841 0.000000
# 3 -0.003380 0.002893 0.014239 0.000000 -0.002577 0.000000
# 4 0.000000 0.000000 0.000000 0.045397 0.000000 -0.006965
# 5 -0.001736 0.003841 -0.002577 0.000000 0.027696 0.000000
# 6 0.000000 0.000000 0.000000 -0.006965 0.000000 0.030698
#
#
# Mechanical properties :
#
#
# Convention : Reuss Voigt Hill
#
# Bulk Modulus (GPa) = 34.94165 46.31347 40.62756
# Shear Modulus (GPa) = 33.24980 40.98492 37.11736
#
# Velocity S-wave (km/s) = 3.60510 4.00253 3.80900
# Velocity P-wave (km/s) = 5.56660 6.28199 5.93508
#
# Compressibility (1/GPa) = 0.02861914
#
# Stress axis : x y z
#
# Youngs Moduli (GPa) = 146.56594 84.95478 70.23153
#
# Poissons Ratio (x) = 0.13756 0.23740
# Poissons Ratio (y) = 0.23732 -0.20316
# Poissons Ratio (z) = 0.49543 -0.24575
#
# Static dielectric constant tensor:
#      x y z
#    x 5.167660 0.000000 0.400860 
#    y 0.000000 5.237340 0.000000 
#    z 0.400860 0.000000 4.377900 
# 
# 
# High freq. dielectric constant tensor:
#      x y z
#    x 2.048630 0.000000 0.020090 
#    y 0.000000 2.041590 0.000000 
#    z 0.020090 0.000000 2.015870 
# 
# From -- ./inp_files/9717.got.cif
#   From: 2010.06.25/outbox.cif.g09.slc.cpg/sg12_5_cif.got.tgz:9717.got - 2010.06.28 00:19:55.
