data_PCOD8110543
_publ_section_title
;
Structure prediction by ZEFSAII (Michael W. Deem and Ramdas Pophale) SiO2 
 PCOD8110543
Probable space group: C 2/M
;
_chemical_formula_sum "Si O2"
_cell_formula_units_Z 40
_cell_length_a 8.802502
_cell_length_b 21.473771
_cell_length_c 16.336483
_cell_angle_alpha 90.000000
_cell_angle_beta 136.230762
_cell_angle_gamma 90.000000
_cell_volume 2136.120141
_symmetry_space_group_name_H-M "C 2/M"
_symmetry_group_IT_number 12
_symmetry_cell_setting 'monoclinic'
loop_
_space_group_symop_operation_xyz
x,y,z
-x,y,-z
-x,-y,-z
x,-y,z
1/2+x,1/2+y,z
1/2-x,1/2+y,-z
1/2-x,1/2-y,-z
1/2+x,1/2-y,z
loop_
_atom_site_type_symbol
_atom_site_label
_atom_site_fract_x
_atom_site_fract_y
_atom_site_fract_z
Si Si1 0.287957 0.568090 0.805264
Si Si2 0.554436 0.200951 0.906967
Si Si3 0.332790 0.826056 0.363023
Si Si4 0.583547 0.744484 0.752222
Si Si5 0.209499 0.430536 0.959642
O O1 0.252633 0.500000 0.753423
O O2 0.182658 0.614470 0.700280
O O3 0.172089 0.572179 0.847972
O O4 0.542218 0.581423 0.918242
O O5 0.526556 0.202611 0.797251
O O6 0.332142 0.221088 0.866823
O O7 0.586341 0.129497 0.949176
O O8 0.750000 0.250000 0.000000
O O9 0.500000 0.840859 0.500000
O O10 0.429482 0.770332 0.345106
O O11 0.093567 0.810782 0.307607
O O12 0.131055 0.500000 0.960169
#
# Coordination Sequence:
#
# PCOD8110543 Si02
#       5
#     8   8   8   8   8
#     4   9  18  32  53  79 104 135 178 218 263 319
#     4  11  20  32  55  82 113 141 172 218 271 326
#     4  11  21  37  55  74 105 143 183 224 265 308
#     4  10  22  34  50  80 109 137 180 220 266 318
#     4   9  17  32  54  78 108 141 171 211 270 336
#
# _framework density 18.725538
#
# number of rings (size 3 to 8) (size 9 to 14) (size 15 to 20)
#    0.000    2.000    2.000    4.800    2.800    0.400 
#    0.000    1.000    0.000    4.800    0.000    2.800 
#    0.000    0.000    0.000    0.000    0.000    0.000 
#
# Total GULP energy -247813.089484 kJ/mol
# GULP energy per Si atom -12390.654474 kJ/mol
# Density = 1.868292 g / cm^3
# Si number density = 18.725538 Si / 1000 Ang^3
#
#
#
# Elastic Constant Matrix: (Units=GPa)
#
#
# Indices 1 2 3 4 5 6 
#
# 1 74.6680 19.1418 19.1400 0.0000 7.7640 0.0000
# 2 19.1418 120.4674 34.7112 0.0000 3.4772 0.0000
# 3 19.1400 34.7112 81.9993 0.0001 0.6414 0.0001
# 4 0.0000 0.0000 0.0001 24.6740 0.0000 -3.3046
# 5 7.7640 3.4772 0.6414 0.0000 24.8030 0.0000
# 6 0.0000 0.0000 0.0001 -3.3046 0.0000 21.4008
#
#
#
# Elastic Compliance Matrix: (Units=1/GPa)
#
#
# Indices 1 2 3 4 5 6 
#
# 1 0.014947 -0.001427 -0.002851 0.000000 -0.004405 0.000000
# 2 -0.001427 0.009627 -0.003736 0.000000 -0.000807 0.000000
# 3 -0.002851 -0.003736 0.014434 0.000000 0.001043 0.000000
# 4 0.000000 0.000000 0.000000 0.041384 0.000000 0.006390
# 5 -0.004405 -0.000807 0.001043 0.000000 0.041783 0.000000
# 6 0.000000 0.000000 0.000000 0.006390 0.000000 0.047714
#
#
# Mechanical properties :
#
#
# Convention : Reuss Voigt Hill
#
# Bulk Modulus (GPa) = 43.51219 47.01342 45.26280
# Shear Modulus (GPa) = 25.82955 27.78501 26.80728
#
# Velocity S-wave (km/s) = 3.71802 3.85620 3.78774
# Velocity P-wave (km/s) = 6.45901 6.70731 6.58433
#
# Compressibility (1/GPa) = 0.02298207
#
# Stress axis : x y z
#
# Youngs Moduli (GPa) = 66.90275 103.86948 69.28096
#
# Poissons Ratio (x) = 0.14817 0.19749
# Poissons Ratio (y) = 0.09544 0.25884
# Poissons Ratio (z) = 0.19071 0.38807
#
# Static dielectric constant tensor:
#      x y z
#    x 3.457940 0.000000 -0.084800 
#    y 0.000000 3.640320 0.000000 
#    z -0.084800 0.000000 3.191760 
# 
# 
# High freq. dielectric constant tensor:
#      x y z
#    x 1.723120 0.000000 -0.011530 
#    y 0.000000 1.729980 0.000000 
#    z -0.011530 0.000000 1.702480 
# 
# From -- ./inp_files/120058.got.cif
#   From: 2010.06.25/outbox.cif.g09.slc.cpg/sg12_61_cif.got.tgz:120058.got - 2010.06.28 00:19:55.
