data_PCOD8110157
_publ_section_title
;
Structure prediction by ZEFSAII (Michael W. Deem and Ramdas Pophale) SiO2 
 PCOD8110157
Probable space group: C 2/M
;
_chemical_formula_sum "Si O2"
_cell_formula_units_Z 56
_cell_length_a 20.980380
_cell_length_b 14.525003
_cell_length_c 21.884328
_cell_angle_alpha 90.000000
_cell_angle_beta 24.207050
_cell_angle_gamma 90.000000
_cell_volume 2734.538258
_symmetry_space_group_name_H-M "C 2/M"
_symmetry_group_IT_number 12
_symmetry_cell_setting 'monoclinic'
loop_
_space_group_symop_operation_xyz
x,y,z
-x,y,-z
-x,-y,-z
x,-y,z
1/2+x,1/2+y,z
1/2-x,1/2+y,-z
1/2-x,1/2-y,-z
1/2+x,1/2-y,z
loop_
_atom_site_type_symbol
_atom_site_label
_atom_site_fract_x
_atom_site_fract_y
_atom_site_fract_z
Si Si1 0.340195 0.603456 0.337221
Si Si2 0.405582 0.722964 0.830860
Si Si3 0.083748 0.397929 0.660076
Si Si4 0.823163 0.794123 0.677453
Si Si5 0.909231 0.396053 0.203240
Si Si6 0.317514 0.099173 0.653131
Si Si7 0.253597 0.608665 0.864054
O O1 0.410124 0.500000 0.272969
O O2 0.477189 0.679014 0.221506
O O3 0.240995 0.615961 0.485367
O O4 0.230921 0.621523 0.374334
O O5 0.466674 0.816148 0.744867
O O6 0.377933 0.647509 0.803031
O O7 0.250000 0.750000 0.000000
O O8 0.011884 0.500000 0.708892
O O9 0.121193 0.389478 0.698539
O O10 0.717982 0.832579 0.715748
O O11 0.769878 0.687440 0.735712
O O12 0.794375 0.852231 0.762601
O O13 0.000000 0.799528 0.500000
O O14 0.888661 0.500000 0.197184
O O15 0.081348 0.360989 0.035124
O O16 0.500000 0.087665 0.500000
O O17 0.242613 0.000000 0.739416
O O18 0.272374 0.500000 0.846205
#
# Coordination Sequence:
#
# PCOD8110157 Si02
#       7
#     8   8   8   8   8   8   8
#     4  10  22  40  67  96 127 166 211 267 323 378
#     4  12  24  39  64  95 131 172 209 259 314 388
#     4  10  22  39  64  94 125 163 211 261 315 378
#     4  11  24  38  64  95 121 160 214 268 314 375
#     4  10  21  41  62  86 125 167 207 257 317 382
#     4   9  20  39  63  91 125 163 205 259 321 376
#     4  11  25  43  61  88 127 171 209 254 319 384
#
# _framework density 20.478777999999998
#
# number of rings (size 3 to 8) (size 9 to 14) (size 15 to 20)
#    0.000    1.571    1.429    2.571    6.000    2.857 
#    0.000    0.000    0.000    1.714    0.000    0.000 
#    0.000    0.000    0.000    0.000    0.000    0.000 
#
# Total GULP energy -347102.100401 kJ/mol
# GULP energy per Si atom -12396.503586 kJ/mol
# Density = 2.043217 g / cm^3
# Si number density = 20.478778 Si / 1000 Ang^3
#
#
#
# Elastic Constant Matrix: (Units=GPa)
#
#
# Indices 1 2 3 4 5 6 
#
# 1 100.0895 51.6806 47.6306 -0.0192 -11.3348 0.0054
# 2 51.6806 154.6345 52.1713 -0.0392 -17.6458 0.0169
# 3 47.6306 52.1713 78.7766 -0.0845 -10.8549 0.0379
# 4 -0.0192 -0.0392 -0.0845 31.1357 0.0168 -3.7401
# 5 -11.3348 -17.6458 -10.8549 0.0168 28.8156 -0.0018
# 6 0.0054 0.0169 0.0379 -3.7401 -0.0018 31.2762
#
#
#
# Elastic Compliance Matrix: (Units=1/GPa)
#
#
# Indices 1 2 3 4 5 6 
#
# 1 0.014800 -0.002334 -0.007169 -0.000013 0.001691 0.000006
# 2 -0.002334 0.008983 -0.004120 -0.000003 0.003031 0.000000
# 3 -0.007169 -0.004120 0.020063 0.000042 0.002215 -0.000016
# 4 -0.000013 -0.000003 0.000042 0.032586 -0.000010 0.003897
# 5 0.001691 0.003031 0.002215 -0.000010 0.038059 -0.000004
# 6 0.000006 0.000000 -0.000016 0.003897 -0.000004 0.032439
#
#
# Mechanical properties :
#
#
# Convention : Reuss Voigt Hill
#
# Bulk Modulus (GPa) = 60.24900 70.71840 65.48370
# Shear Modulus (GPa) = 27.82275 30.38002 29.10138
#
# Velocity S-wave (km/s) = 3.68994 3.85579 3.77377
# Velocity P-wave (km/s) = 6.90205 7.37769 7.14383
#
# Compressibility (1/GPa) = 0.01659779
#
# Stress axis : x y z
#
# Youngs Moduli (GPa) = 67.56909 111.32226 49.84383
#
# Poissons Ratio (x) = 0.25987 0.35734
# Poissons Ratio (y) = 0.15773 0.20536
# Poissons Ratio (z) = 0.48442 0.45866
#
# Static dielectric constant tensor:
#      x y z
#    x 0.094670 0.003340 -0.242400 
#    y 0.003340 4.446590 0.000210 
#    z -0.242400 0.000210 3.524350 
# 
# 
# High freq. dielectric constant tensor:
#      x y z
#    x 1.801280 0.000000 -0.005950 
#    y 0.000000 1.832100 0.000000 
#    z -0.005950 0.000000 1.777350 
# 
# From -- ./inp_files/349730.got.cif
#   From: 2010.06.25/outbox.cif.g09.slc.cpg/sg12_175_cif.got.tgz:349730.got - 2010.06.28 00:19:55.
