data_PCOD8110709
_publ_section_title
;
Structure prediction by ZEFSAII (Michael W. Deem and Ramdas Pophale) SiO2 
 PCOD8110709
Probable space group: C 2/M
;
_chemical_formula_sum "Si O2"
_cell_formula_units_Z 64
_cell_length_a 25.229682
_cell_length_b 22.170067
_cell_length_c 10.951999
_cell_angle_alpha 90.000000
_cell_angle_beta 147.352576
_cell_angle_gamma 90.000000
_cell_volume 3304.743732
_symmetry_space_group_name_H-M "C 2/M"
_symmetry_group_IT_number 12
_symmetry_cell_setting 'monoclinic'
loop_
_space_group_symop_operation_xyz
x,y,z
-x,y,-z
-x,-y,-z
x,-y,z
1/2+x,1/2+y,z
1/2-x,1/2+y,-z
1/2-x,1/2-y,-z
1/2+x,1/2-y,z
loop_
_atom_site_type_symbol
_atom_site_label
_atom_site_fract_x
_atom_site_fract_y
_atom_site_fract_z
Si Si1 0.196235 0.568509 0.252538
Si Si2 0.315954 0.931670 0.493621
Si Si3 0.632374 0.569316 0.963785
Si Si4 0.809930 0.826503 0.365372
Si Si5 0.623219 0.246960 0.999534
Si Si6 0.386940 0.673495 0.250302
Si Si7 0.992320 0.149519 0.123910
Si Si8 0.506083 0.859140 0.872431
O O1 0.210793 0.500000 0.240521
O O2 0.224619 0.579682 0.448798
O O3 0.268998 0.606591 0.308774
O O4 0.082943 0.586059 0.013668
O O5 0.401745 0.884741 0.624873
O O6 0.356900 0.000000 0.563341
O O7 0.226976 0.920913 0.230542
O O8 0.617802 0.500000 0.896803
O O9 0.648464 0.610213 0.876007
O O10 0.534804 0.591083 0.847574
O O11 0.825253 0.815451 0.252057
O O12 0.909364 0.818288 0.635232
O O13 0.728502 0.777810 0.249904
O O14 0.628266 0.269910 0.869849
O O15 0.595792 0.302262 0.034765
O O16 0.540265 0.194916 0.850164
O O17 0.500000 0.666842 0.500000
O O18 0.000000 0.128540 0.000000
O O19 0.500000 0.835006 0.000000
#
# Coordination Sequence:
#
# PCOD8110709 Si02
#       8
#     8   8   8   8   8   8   8   8
#     4   9  18  32  56  88 118 149 184 222 272 330
#     4   9  17  33  56  86 121 150 179 222 274 330
#     4  10  22  38  57  83 112 145 189 230 276 331
#     4  11  22  39  58  82 112 144 188 233 274 327
#     4  10  22  37  58  83 110 145 188 230 276 326
#     4  11  22  44  59  79 106 143 191 235 278 325
#     4  11  23  39  58  84 117 147 180 226 277 329
#     4   9  17  32  56  88 119 149 184 222 271 331
#
# _framework density 19.366102000000001
#
# number of rings (size 3 to 8) (size 9 to 14) (size 15 to 20)
#    0.000    2.000    2.500    1.875    0.000    5.500 
#    2.250    0.000    0.000    0.000    0.000    4.375 
#    0.000    0.000    0.000    0.000    0.000    0.000 
#
# Total GULP energy -396826.553684 kJ/mol
# GULP energy per Si atom -12400.829803 kJ/mol
# Density = 1.932202 g / cm^3
# Si number density = 19.366102 Si / 1000 Ang^3
#
#
#
# Elastic Constant Matrix: (Units=GPa)
#
#
# Indices 1 2 3 4 5 6 
#
# 1 84.1002 31.2499 19.9878 0.0000 6.7103 0.0000
# 2 31.2499 106.5615 34.0540 0.0000 7.1476 0.0000
# 3 19.9878 34.0540 84.3464 0.0000 6.1980 0.0000
# 4 0.0000 0.0000 0.0000 27.2629 0.0000 -0.5225
# 5 6.7103 7.1476 6.1980 0.0000 25.9162 0.0000
# 6 0.0000 0.0000 0.0000 -0.5225 0.0000 28.8106
#
#
#
# Elastic Compliance Matrix: (Units=1/GPa)
#
#
# Indices 1 2 3 4 5 6 
#
# 1 0.013715 -0.003314 -0.001749 0.000000 -0.002219 0.000000
# 2 -0.003314 0.011675 -0.003822 0.000000 -0.001448 0.000000
# 3 -0.001749 -0.003822 0.013948 0.000000 -0.001829 0.000000
# 4 0.000000 0.000000 0.000000 0.036693 0.000000 0.000665
# 5 -0.002219 -0.001448 -0.001829 0.000000 0.039997 0.000000
# 6 0.000000 0.000000 0.000000 0.000665 0.000000 0.034721
#
#
# Mechanical properties :
#
#
# Convention : Reuss Voigt Hill
#
# Bulk Modulus (GPa) = 46.36647 49.51017 47.93832
# Shear Modulus (GPa) = 28.45646 29.04571 28.75109
#
# Velocity S-wave (km/s) = 3.83743 3.87696 3.85724
# Velocity P-wave (km/s) = 6.60519 6.75736 6.68171
#
# Compressibility (1/GPa) = 0.02156731
#
# Stress axis : x y z
#
# Youngs Moduli (GPa) = 72.91417 85.65604 71.69651
#
# Poissons Ratio (x) = 0.28388 0.12539
# Poissons Ratio (y) = 0.24165 0.27401
# Poissons Ratio (z) = 0.12752 0.32736
#
# Static dielectric constant tensor:
#      x y z
#    x 3.674700 0.000000 0.030270 
#    y 0.000000 3.602710 0.000000 
#    z 0.030270 0.000000 3.501440 
# 
# 
# High freq. dielectric constant tensor:
#      x y z
#    x 1.747110 0.000000 0.011240 
#    y 0.000000 1.756780 0.000000 
#    z 0.011240 0.000000 1.750570 
# 
# From -- ./inp_files/184708.got.cif
#   From: 2010.06.25/outbox.cif.g09.slc.cpg/sg12_93_cif.got.tgz:184708.got - 2010.06.28 00:19:55.
