data_PCOD8110820
_publ_section_title
;
Structure prediction by ZEFSAII (Michael W. Deem and Ramdas Pophale) SiO2 
 PCOD8110820
Probable space group: C 2/M
;
_chemical_formula_sum "Si O2"
_cell_formula_units_Z 64
_cell_length_a 29.235801
_cell_length_b 9.044135
_cell_length_c 11.821712
_cell_angle_alpha 90.000000
_cell_angle_beta 93.734590
_cell_angle_gamma 90.000000
_cell_volume 3119.171067
_symmetry_space_group_name_H-M "C 2/M"
_symmetry_group_IT_number 12
_symmetry_cell_setting 'monoclinic'
loop_
_space_group_symop_operation_xyz
x,y,z
-x,y,-z
-x,-y,-z
x,-y,z
1/2+x,1/2+y,z
1/2-x,1/2+y,-z
1/2-x,1/2-y,-z
1/2+x,1/2-y,z
loop_
_atom_site_type_symbol
_atom_site_label
_atom_site_fract_x
_atom_site_fract_y
_atom_site_fract_z
Si Si1 0.711424 0.673918 0.068684
Si Si2 0.392663 0.671676 0.991630
Si Si3 0.850395 0.667989 0.581901
Si Si4 0.001443 0.328528 0.631884
Si Si5 0.236166 0.666853 0.294127
Si Si6 0.092011 0.328078 0.785314
Si Si7 0.420409 0.672636 0.745833
Si Si8 0.660306 0.327185 0.644488
O O1 0.717131 0.500000 0.057753
O O2 0.660439 0.723084 0.023827
O O3 0.718572 0.718532 0.199118
O O4 0.750000 0.750000 0.000000
O O5 0.395250 0.500000 0.024114
O O6 0.419812 0.702831 0.879847
O O7 0.419020 0.765286 0.091832
O O8 0.867002 0.500000 0.566881
O O9 0.796634 0.676204 0.602233
O O10 0.877727 0.739554 0.688861
O O11 0.861784 0.755505 0.470052
O O12 0.987642 0.500000 0.642629
O O13 0.051304 0.296670 0.690857
O O14 0.000000 0.281141 0.500000
O O15 0.967105 0.229369 0.698559
O O16 0.236142 0.500000 0.243640
O O17 0.286316 0.711804 0.343324
O O18 0.102967 0.500000 0.796388
O O19 0.137160 0.243227 0.750634
O O20 0.414305 0.500000 0.718718
O O21 0.650417 0.500000 0.640840
#
# Coordination Sequence:
#
# PCOD8110820 Si02
#       8
#     8   8   8   8   8   8   8   8
#     4  11  22  37  58  84 120 164 212 260 306 363
#     4  10  23  42  61  87 126 165 203 255 312 367
#     4  11  22  38  61  89 124 163 206 255 309 369
#     4  10  23  44  67  93 126 160 199 253 314 375
#     4  10  22  38  57  86 121 161 206 254 309 365
#     4  11  24  41  64  93 123 160 207 254 308 370
#     4  11  23  41  66  94 123 162 210 255 312 374
#     4  11  23  39  60  88 125 164 206 256 310 368
#
# _framework density 20.518273000000001
#
# number of rings (size 3 to 8) (size 9 to 14) (size 15 to 20)
#    0.000    1.375    1.250    3.750    0.000    9.250 
#    0.000    2.500    0.000    0.000    0.000    0.000 
#    0.000    0.000    0.000    0.000    0.000    0.000 
#
# Total GULP energy -396966.946398 kJ/mol
# GULP energy per Si atom -12405.217075 kJ/mol
# Density = 2.047157 g / cm^3
# Si number density = 20.518273 Si / 1000 Ang^3
#
#
#
# Elastic Constant Matrix: (Units=GPa)
#
#
# Indices 1 2 3 4 5 6 
#
# 1 85.7317 50.1574 37.4494 0.0000 -9.9495 0.0000
# 2 50.1574 111.4132 64.9504 0.0000 1.8063 0.0000
# 3 37.4494 64.9504 131.7953 0.0000 0.3161 0.0000
# 4 0.0000 0.0000 0.0000 41.5704 0.0000 -0.8181
# 5 -9.9495 1.8063 0.3161 0.0000 32.6956 0.0000
# 6 0.0000 0.0000 0.0000 -0.8181 0.0000 31.6471
#
#
#
# Elastic Compliance Matrix: (Units=1/GPa)
#
#
# Indices 1 2 3 4 5 6 
#
# 1 0.016969 -0.006890 -0.001439 0.000000 0.005559 0.000000
# 2 -0.006890 0.015405 -0.005627 0.000000 -0.002893 0.000000
# 3 -0.001439 -0.005627 0.010770 0.000000 -0.000231 0.000000
# 4 0.000000 0.000000 0.000000 0.024068 0.000000 0.000622
# 5 0.005559 -0.002893 -0.000231 0.000000 0.032439 0.000000
# 6 0.000000 0.000000 0.000000 0.000622 0.000000 0.031615
#
#
# Mechanical properties :
#
#
# Convention : Reuss Voigt Hill
#
# Bulk Modulus (GPa) = 65.65643 70.45050 68.05346
# Shear Modulus (GPa) = 30.44030 32.94147 31.69089
#
# Velocity S-wave (km/s) = 3.85589 4.01118 3.93430
# Velocity P-wave (km/s) = 7.20363 7.47414 7.34013
#
# Compressibility (1/GPa) = 0.01523080
#
# Stress axis : x y z
#
# Youngs Moduli (GPa) = 58.92947 64.91477 92.84992
#
# Poissons Ratio (x) = 0.44729 0.13365
# Poissons Ratio (y) = 0.40605 0.52245
# Poissons Ratio (z) = 0.08483 0.36526
#
# Static dielectric constant tensor:
#      x y z
#    x 3.714990 0.000000 -0.044210 
#    y 0.000000 3.741680 0.000000 
#    z -0.044210 0.000000 3.728920 
# 
# 
# High freq. dielectric constant tensor:
#      x y z
#    x 1.803380 0.000000 -0.004980 
#    y 0.000000 1.807360 0.000000 
#    z -0.004980 0.000000 1.811410 
# 
# From -- ./inp_files/187625.got.cif
#   From: 2010.06.25/outbox.cif.g09.slc.cpg/sg12_94_cif.got.tgz:187625.got - 2010.06.28 00:19:55.
