data_PCOD8110076
_publ_section_title
;
Structure prediction by ZEFSAII (Michael W. Deem and Ramdas Pophale) SiO2 
 PCOD8110076
Probable space group: C 2/M
;
_chemical_formula_sum "Si O2"
_cell_formula_units_Z 48
_cell_length_a 9.367304
_cell_length_b 21.961514
_cell_length_c 23.477983
_cell_angle_alpha 90.000000
_cell_angle_beta 151.016958
_cell_angle_gamma 90.000000
_cell_volume 2340.329096
_symmetry_space_group_name_H-M "C 2/M"
_symmetry_group_IT_number 12
_symmetry_cell_setting 'monoclinic'
loop_
_space_group_symop_operation_xyz
x,y,z
-x,y,-z
-x,-y,-z
x,-y,z
1/2+x,1/2+y,z
1/2-x,1/2+y,-z
1/2-x,1/2-y,-z
1/2+x,1/2-y,z
loop_
_atom_site_type_symbol
_atom_site_label
_atom_site_fract_x
_atom_site_fract_y
_atom_site_fract_z
Si Si1 0.819492 0.432804 0.992387
Si Si2 0.741414 0.430642 0.447301
Si Si3 0.667199 0.931301 0.392710
Si Si4 0.750690 0.359372 0.167953
Si Si5 0.637128 0.882245 0.196798
Si Si6 0.055813 0.728524 0.085132
O O1 0.680978 0.500000 0.933190
O O2 0.573284 0.384176 0.927132
O O3 0.000000 0.410171 0.000000
O O4 0.056553 0.437637 0.126373
O O5 0.669582 0.500000 0.404442
O O6 0.889395 0.428267 0.560452
O O7 0.441627 0.392219 0.336738
O O8 0.000000 0.401521 0.500000
O O9 0.464301 0.881970 0.292019
O O10 0.000000 0.911534 0.500000
O O11 0.610093 0.000000 0.348738
O O12 0.770141 0.286448 0.168542
O O13 0.866557 0.381465 0.147101
O O14 0.674050 0.824508 0.167459
O O15 0.000000 0.708336 0.000000
O O16 0.750000 0.750000 0.000000
#
# Coordination Sequence:
#
# PCOD8110076 Si02
#       6
#     8   8   8   8   8   8
#     4  11  25  39  60  97 132 161 207 273 333 386
#     4  10  23  42  66  97 132 170 211 261 327 391
#     4  10  21  40  67  96 128 166 210 265 323 383
#     4  12  24  42  67  94 125 171 223 263 322 392
#     4  12  24  42  67  93 127 172 221 265 322 390
#     4  12  24  43  65  95 130 174 219 271 332 383
#
# _framework density 20.509937999999998
#
# number of rings (size 3 to 8) (size 9 to 14) (size 15 to 20)
#    0.000    0.833    5.000    2.000    2.333    2.667 
#    0.000    1.667    0.000    0.000    0.000    0.000 
#    0.000    0.000    0.000    0.000    0.000    0.000 
#
# Total GULP energy -297368.689469 kJ/mol
# GULP energy per Si atom -12390.362061 kJ/mol
# Density = 2.046326 g / cm^3
# Si number density = 20.509938 Si / 1000 Ang^3
#
#
#
# Elastic Constant Matrix: (Units=GPa)
#
#
# Indices 1 2 3 4 5 6 
#
# 1 148.3701 26.3257 35.7560 -0.0022 5.5676 0.0011
# 2 26.3257 98.6034 38.5561 -0.0056 -4.0065 -0.0017
# 3 35.7560 38.5561 87.2927 -0.0550 -13.0422 0.0045
# 4 -0.0022 -0.0056 -0.0550 14.5542 -0.0028 -3.9111
# 5 5.5676 -4.0065 -13.0422 -0.0028 31.7027 -0.0005
# 6 0.0011 -0.0017 0.0045 -3.9111 -0.0005 27.0179
#
#
#
# Elastic Compliance Matrix: (Units=1/GPa)
#
#
# Indices 1 2 3 4 5 6 
#
# 1 0.007781 -0.000944 -0.003188 -0.000012 -0.002797 -0.000002
# 2 -0.000944 0.012389 -0.005143 -0.000015 -0.000384 -0.000001
# 3 -0.003188 -0.005143 0.016003 0.000061 0.006493 0.000006
# 4 -0.000012 -0.000015 0.000061 0.071490 0.000032 0.010349
# 5 -0.002797 -0.000384 0.006493 0.000032 0.034657 0.000004
# 6 -0.000002 -0.000001 0.000006 0.010349 0.000004 0.038511
#
#
# Mechanical properties :
#
#
# Convention : Reuss Voigt Hill
#
# Bulk Modulus (GPa) = 56.74390 59.50463 58.12427
# Shear Modulus (GPa) = 24.36001 30.23020 27.29510
#
# Velocity S-wave (km/s) = 3.45007 3.84334 3.65200
# Velocity P-wave (km/s) = 6.60282 6.98360 6.79588
#
# Compressibility (1/GPa) = 0.01762304
#
# Stress axis : x y z
#
# Youngs Moduli (GPa) = 128.52325 80.71627 62.48777
#
# Poissons Ratio (x) = 0.07624 0.19920
# Poissons Ratio (y) = 0.12139 0.32135
# Poissons Ratio (z) = 0.40971 0.41509
#
# Static dielectric constant tensor:
#      x y z
#    x 3.997670 0.000100 -0.290310 
#    y 0.000100 1.581320 0.000360 
#    z -0.290310 0.000360 3.777320 
# 
# 
# High freq. dielectric constant tensor:
#      x y z
#    x 1.828830 0.000000 -0.004850 
#    y 0.000000 1.792870 0.000000 
#    z -0.004850 0.000000 1.791020 
# 
# From -- ./inp_files/334115.got.cif
#   From: 2010.06.25/outbox.cif.g09.slc.cpg/sg12_168_cif.got.tgz:334115.got - 2010.06.28 00:19:55.
