data_PCOD8110545
_publ_section_title
;
Structure prediction by ZEFSAII (Michael W. Deem and Ramdas Pophale) SiO2 
 PCOD8110545
Probable space group: C 2/M
;
_chemical_formula_sum "Si O2"
_cell_formula_units_Z 64
_cell_length_a 10.368561
_cell_length_b 25.697600
_cell_length_c 15.497705
_cell_angle_alpha 90.000000
_cell_angle_beta 124.621810
_cell_angle_gamma 90.000000
_cell_volume 3398.099890
_symmetry_space_group_name_H-M "C 2/M"
_symmetry_group_IT_number 12
_symmetry_cell_setting 'monoclinic'
loop_
_space_group_symop_operation_xyz
x,y,z
-x,y,-z
-x,-y,-z
x,-y,z
1/2+x,1/2+y,z
1/2-x,1/2+y,-z
1/2-x,1/2-y,-z
1/2+x,1/2-y,z
loop_
_atom_site_type_symbol
_atom_site_label
_atom_site_fract_x
_atom_site_fract_y
_atom_site_fract_z
Si Si1 0.599141 0.774900 0.116963
Si Si2 0.433676 0.737657 0.569280
Si Si3 0.102044 0.640586 0.867465
Si Si4 0.651303 0.060165 0.184805
Si Si5 0.517477 0.440467 0.603736
Si Si6 0.716514 0.634188 0.897659
Si Si7 0.912685 0.143165 0.684391
Si Si8 0.312206 0.812922 0.273700
O O1 0.490298 0.807193 0.140985
O O2 0.726338 0.812601 0.123634
O O3 0.680702 0.730116 0.202847
O O4 0.500000 0.750212 0.000000
O O5 0.500000 0.723909 0.500000
O O6 0.250000 0.750000 0.500000
O O7 0.472818 0.689556 0.646158
O O8 0.521328 0.788062 0.639911
O O9 0.168795 0.647166 0.797378
O O10 0.992988 0.589727 0.825607
O O11 0.249448 0.633008 0.987654
O O12 0.687520 0.085543 0.105663
O O13 0.802187 0.067926 0.302380
O O14 0.607365 0.000000 0.155389
O O15 0.500000 0.420210 0.500000
O O16 0.464661 0.500000 0.592533
O O17 0.400728 0.408092 0.620696
O O18 0.532456 0.631427 0.808627
O O19 0.745675 0.155538 0.664003
#
# Coordination Sequence:
#
# PCOD8110545 Si02
#       8
#     8   8   8   8   8   8   8   8
#     4   9  19  33  53  77 108 149 191 238 278 328
#     4  12  25  42  59  84 117 158 202 240 290 350
#     4  10  22  34  52  83 115 146 192 236 282 352
#     4   9  18  36  60  84 112 144 190 251 302 347
#     4   9  19  38  64  88 106 140 194 248 300 344
#     4   9  19  35  54  83 112 144 191 237 287 341
#     4  11  22  37  57  84 116 153 190 240 290 344
#     4  12  24  36  53  81 118 157 193 233 284 355
#
# _framework density 18.834054999999999
#
# number of rings (size 3 to 8) (size 9 to 14) (size 15 to 20)
#    0.000    1.875    2.500    2.250    1.750    3.000 
#    0.000    0.625    0.000    0.000    0.000    8.750 
#    0.000    0.000    0.000    0.000    0.000    0.000 
#
# Total GULP energy -396861.919768 kJ/mol
# GULP energy per Si atom -12401.934993 kJ/mol
# Density = 1.879119 g / cm^3
# Si number density = 18.834055 Si / 1000 Ang^3
#
#
#
# Elastic Constant Matrix: (Units=GPa)
#
#
# Indices 1 2 3 4 5 6 
#
# 1 97.0445 46.3892 46.1583 0.0000 -15.0728 0.0000
# 2 46.3892 97.1830 42.2403 0.0000 -5.3020 0.0000
# 3 46.1583 42.2403 101.1234 0.0000 -10.7577 0.0000
# 4 0.0000 0.0000 0.0000 24.3495 0.0000 -3.5646
# 5 -15.0728 -5.3020 -10.7577 0.0000 32.6080 0.0000
# 6 0.0000 0.0000 0.0000 -3.5646 0.0000 15.8374
#
#
#
# Elastic Compliance Matrix: (Units=1/GPa)
#
#
# Indices 1 2 3 4 5 6 
#
# 1 0.015716 -0.005306 -0.004432 0.000000 0.004940 0.000000
# 2 -0.005306 0.014367 -0.003722 0.000000 -0.001345 0.000000
# 3 -0.004432 -0.003722 0.013664 0.000000 0.001854 0.000000
# 4 0.000000 0.000000 0.000000 0.042468 0.000000 0.009559
# 5 0.004940 -0.001345 0.001854 0.000000 0.033344 0.000000
# 6 0.000000 0.000000 0.000000 0.009559 0.000000 0.065293
#
#
# Mechanical properties :
#
#
# Convention : Reuss Voigt Hill
#
# Bulk Modulus (GPa) = 59.42931 62.76961 61.09946
# Shear Modulus (GPa) = 23.00102 25.26318 24.13210
#
# Velocity S-wave (km/s) = 3.49842 3.66643 3.58341
# Velocity P-wave (km/s) = 6.92397 7.16405 7.04503
#
# Compressibility (1/GPa) = 0.01682671
#
# Stress axis : x y z
#
# Youngs Moduli (GPa) = 63.62868 69.60266 73.18540
#
# Poissons Ratio (x) = 0.36932 0.32434
# Poissons Ratio (y) = 0.33763 0.27242
# Poissons Ratio (z) = 0.28199 0.25909
#
# Static dielectric constant tensor:
#      x y z
#    x 3.241160 0.000000 0.002590 
#    y 0.000000 3.406340 0.000000 
#    z 0.002590 0.000000 3.708830 
# 
# 
# High freq. dielectric constant tensor:
#      x y z
#    x 1.710990 0.000000 -0.000350 
#    y 0.000000 1.716390 0.000000 
#    z -0.000350 0.000000 1.746710 
# 
# From -- ./inp_files/200960.got.cif
#   From: 2010.06.25/outbox.cif.g09.slc.cpg/sg12_101_cif.got.tgz:200960.got - 2010.06.28 00:19:55.
