data_PCOD8110317
_publ_section_title
;
Structure prediction by ZEFSAII (Michael W. Deem and Ramdas Pophale) SiO2 
 PCOD8110317
Probable space group: C 2/M
;
_chemical_formula_sum "Si O2"
_cell_formula_units_Z 48
_cell_length_a 18.372842
_cell_length_b 14.557217
_cell_length_c 13.809634
_cell_angle_alpha 90.000000
_cell_angle_beta 40.285019
_cell_angle_gamma 90.000000
_cell_volume 2388.174625
_symmetry_space_group_name_H-M "C 2/M"
_symmetry_group_IT_number 12
_symmetry_cell_setting 'monoclinic'
loop_
_space_group_symop_operation_xyz
x,y,z
-x,y,-z
-x,-y,-z
x,-y,z
1/2+x,1/2+y,z
1/2-x,1/2+y,-z
1/2-x,1/2-y,-z
1/2+x,1/2-y,z
loop_
_atom_site_type_symbol
_atom_site_label
_atom_site_fract_x
_atom_site_fract_y
_atom_site_fract_z
Si Si1 0.298430 0.105635 0.099650
Si Si2 0.490015 0.893249 0.623026
Si Si3 0.878050 0.242418 0.398654
Si Si4 0.890987 0.892661 0.555957
Si Si5 0.758144 0.105889 0.057252
Si Si6 0.452171 0.270939 0.945689
O O1 0.218436 0.131215 0.269963
O O2 0.337703 0.000000 0.062439
O O3 0.230930 0.125279 0.068521
O O4 0.410830 0.165673 0.993474
O O5 0.500000 0.871113 0.500000
O O6 0.581659 0.834836 0.588674
O O7 0.366131 0.864211 0.783423
O O8 0.514171 0.000000 0.620751
O O9 0.750000 0.250000 0.500000
O O10 0.886875 0.154256 0.457082
O O11 0.949344 0.220963 0.231372
O O12 0.000000 0.854156 0.500000
O O13 0.902334 0.000000 0.525184
O O14 0.781043 0.000000 0.059159
O O15 0.847327 0.165466 0.024712
O O16 0.500000 0.303718 0.000000
#
# Coordination Sequence:
#
# PCOD8110317 Si02
#       6
#     8   8   8   8   8   8
#     4  10  21  41  68  94 122 161 213 264 311 371
#     4  10  23  42  67  94 123 166 216 262 311 375
#     4  12  26  41  63  93 132 170 205 258 319 382
#     4  10  22  40  65  95 125 163 207 257 315 374
#     4  10  22  42  67  93 122 164 215 266 314 369
#     4  12  26  40  62  95 129 168 211 259 322 374
#
# _framework density 20.099032000000001
#
# number of rings (size 3 to 8) (size 9 to 14) (size 15 to 20)
#    0.000    1.333    1.667    3.000    7.000    3.333 
#    0.000    0.000    0.000    0.000    0.000    0.000 
#    0.000    0.000    0.000    0.000    0.000    0.000 
#
# Total GULP energy -297750.495701 kJ/mol
# GULP energy per Si atom -12406.270654 kJ/mol
# Density = 2.005329 g / cm^3
# Si number density = 20.099032 Si / 1000 Ang^3
#
#
#
# Elastic Constant Matrix: (Units=GPa)
#
#
# Indices 1 2 3 4 5 6 
#
# 1 143.8825 61.6119 78.3220 0.0000 -3.1697 0.0000
# 2 61.6119 79.7520 61.8742 0.0000 -4.1763 0.0000
# 3 78.3220 61.8742 152.1185 0.0000 7.5963 0.0000
# 4 0.0000 0.0000 0.0000 31.6171 0.0000 0.8276
# 5 -3.1697 -4.1763 7.5963 0.0000 41.5591 0.0000
# 6 0.0000 0.0000 0.0000 0.8276 0.0000 10.8060
#
#
#
# Elastic Compliance Matrix: (Units=1/GPa)
#
#
# Indices 1 2 3 4 5 6 
#
# 1 0.011482 -0.006140 -0.003459 0.000000 0.000891 0.000000
# 2 -0.006140 0.022044 -0.005947 0.000000 0.002834 0.000000
# 3 -0.003459 -0.005947 0.010916 0.000000 -0.002857 0.000000
# 4 0.000000 0.000000 0.000000 0.031692 0.000000 -0.002427
# 5 0.000891 0.002834 -0.002857 0.000000 0.024937 0.000000
# 6 0.000000 0.000000 0.000000 -0.002427 0.000000 0.092727
#
#
# Mechanical properties :
#
#
# Convention : Reuss Voigt Hill
#
# Bulk Modulus (GPa) = 74.89922 86.59657 80.74789
# Shear Modulus (GPa) = 21.80175 28.39278 25.09727
#
# Velocity S-wave (km/s) = 3.29708 3.76259 3.53750
# Velocity P-wave (km/s) = 7.20002 7.87748 7.54635
#
# Compressibility (1/GPa) = 0.01335127
#
# Stress axis : x y z
#
# Youngs Moduli (GPa) = 87.09505 45.36290 91.60839
#
# Poissons Ratio (x) = 0.27854 0.31684
# Poissons Ratio (y) = 0.53478 0.54476
# Poissons Ratio (z) = 0.30123 0.26976
#
# Static dielectric constant tensor:
#      x y z
#    x 3.584740 0.000000 0.089840 
#    y 0.000000 3.717950 0.000000 
#    z 0.089840 0.000000 3.948970 
# 
# 
# High freq. dielectric constant tensor:
#      x y z
#    x 1.779680 0.000000 0.009050 
#    y 0.000000 1.793080 0.000000 
#    z 0.009050 0.000000 1.801260 
# 
# From -- ./inp_files/225111.got.cif
#   From: 2010.06.25/outbox.cif.g09.slc.cpg/sg12_113_cif.got.tgz:225111.got - 2010.06.28 00:19:55.
