data_PCOD8110096
_publ_section_title
;
Structure prediction by ZEFSAII (Michael W. Deem and Ramdas Pophale) SiO2 
 PCOD8110096
Probable space group: C 2/M
;
_chemical_formula_sum "Si O2"
_cell_formula_units_Z 56
_cell_length_a 20.164308
_cell_length_b 30.676819
_cell_length_c 8.410396
_cell_angle_alpha 90.000000
_cell_angle_beta 32.058606
_cell_angle_gamma 90.000000
_cell_volume 2761.403689
_symmetry_space_group_name_H-M "C 2/M"
_symmetry_group_IT_number 12
_symmetry_cell_setting 'monoclinic'
loop_
_space_group_symop_operation_xyz
x,y,z
-x,y,-z
-x,-y,-z
x,-y,z
1/2+x,1/2+y,z
1/2-x,1/2+y,-z
1/2-x,1/2-y,-z
1/2+x,1/2-y,z
loop_
_atom_site_type_symbol
_atom_site_label
_atom_site_fract_x
_atom_site_fract_y
_atom_site_fract_z
Si Si1 0.180128 0.661640 0.991175
Si Si2 0.685098 0.604877 0.529220
Si Si3 0.944835 0.867616 0.902032
Si Si4 0.077490 0.214483 0.497719
Si Si5 0.952693 0.698322 0.275863
Si Si6 0.368186 0.050332 0.349050
Si Si7 0.192848 0.622077 0.290377
O O1 0.213303 0.631121 0.776100
O O2 0.289624 0.694243 0.823862
O O3 0.142285 0.630575 0.216111
O O4 0.063308 0.690000 0.175954
O O5 0.558870 0.596392 0.679590
O O6 0.753567 0.562448 0.462406
O O7 0.634202 0.635259 0.774752
O O8 0.001005 0.820474 0.754743
O O9 0.844733 0.880982 0.970282
O O10 0.105345 0.255460 0.554844
O O11 0.000000 0.228226 0.500000
O O12 0.848114 0.661009 0.507104
O O13 0.000000 0.699701 0.000000
O O14 0.361341 0.077195 0.527606
O O15 0.355205 0.000000 0.419823
O O16 0.500000 0.060865 0.000000
#
# Coordination Sequence:
#
# PCOD8110096 Si02
#       7
#     8   8   8   8   8   8   8
#     4  11  23  39  62  86 121 168 205 259 314 367
#     4   9  19  36  60  88 120 159 205 242 306 368
#     4   9  19  36  59  84 120 166 204 254 298 367
#     4  11  23  38  58  87 123 162 218 258 308 355
#     4  12  27  38  57  84 121 168 214 268 303 367
#     4  10  21  40  68  96 126 160 203 252 303 372
#     4  11  21  40  62  85 123 163 202 256 319 366
#
# _framework density 20.279540999999998
#
# number of rings (size 3 to 8) (size 9 to 14) (size 15 to 20)
#    0.000    1.571    1.429    4.286    6.000    1.714 
#    0.000    6.429    0.000    3.429    0.000   14.000 
#    0.000    0.000    0.000    0.000    0.000    0.000 
#
# Total GULP energy -347090.125724 kJ/mol
# GULP energy per Si atom -12396.075919 kJ/mol
# Density = 2.023338 g / cm^3
# Si number density = 20.279541 Si / 1000 Ang^3
#
#
#
# Elastic Constant Matrix: (Units=GPa)
#
#
# Indices 1 2 3 4 5 6 
#
# 1 97.5810 36.3522 33.0570 0.0000 -4.0373 0.0000
# 2 36.3522 113.1535 49.7713 0.0000 1.9922 0.0000
# 3 33.0570 49.7713 81.0690 0.0000 -6.9306 0.0000
# 4 0.0000 0.0000 0.0000 26.8930 0.0000 -1.5551
# 5 -4.0373 1.9922 -6.9306 0.0000 34.7777 0.0000
# 6 0.0000 0.0000 0.0000 -1.5551 0.0000 25.7738
#
#
#
# Elastic Compliance Matrix: (Units=1/GPa)
#
#
# Indices 1 2 3 4 5 6 
#
# 1 0.012375 -0.002473 -0.003452 0.000000 0.000890 0.000000
# 2 -0.002473 0.012771 -0.007039 0.000000 -0.002421 0.000000
# 3 -0.003452 -0.007039 0.018378 0.000000 0.003665 0.000000
# 4 0.000000 0.000000 0.000000 0.037315 0.000000 0.002251
# 5 0.000890 -0.002421 0.003665 0.000000 0.029726 0.000000
# 6 0.000000 0.000000 0.000000 0.002251 0.000000 0.038935
#
#
# Mechanical properties :
#
#
# Convention : Reuss Voigt Hill
#
# Bulk Modulus (GPa) = 56.83158 58.90716 57.86937
# Shear Modulus (GPa) = 27.57964 28.99710 28.28837
#
# Velocity S-wave (km/s) = 3.69178 3.78546 3.73892
# Velocity P-wave (km/s) = 6.80127 6.94384 6.87293
#
# Compressibility (1/GPa) = 0.01759585
#
# Stress axis : x y z
#
# Youngs Moduli (GPa) = 80.80546 78.30289 54.41429
#
# Poissons Ratio (x) = 0.19366 0.18782
# Poissons Ratio (y) = 0.19985 0.38303
# Poissons Ratio (z) = 0.27892 0.55118
#
# Static dielectric constant tensor:
#      x y z
#    x 3.981600 0.000000 -0.283980 
#    y 0.000000 3.328160 0.000000 
#    z -0.283980 0.000000 3.936220 
# 
# 
# High freq. dielectric constant tensor:
#      x y z
#    x 1.799940 0.000000 -0.008650 
#    y 0.000000 1.752230 0.000000 
#    z -0.008650 0.000000 1.810630 
# 
# From -- ./inp_files/91525.got.cif
#   From: 2010.06.25/outbox.cif.g09.slc.cpg/sg12_46_cif.got.tgz:91525.got - 2010.06.28 00:19:55.
