data_PCOD8110600
_publ_section_title
;
Structure prediction by ZEFSAII (Michael W. Deem and Ramdas Pophale) SiO2 
 PCOD8110600
Probable space group: C 2/M
;
_chemical_formula_sum "Si O2"
_cell_formula_units_Z 56
_cell_length_a 13.477955
_cell_length_b 25.606934
_cell_length_c 9.596040
_cell_angle_alpha 90.000000
_cell_angle_beta 116.910347
_cell_angle_gamma 90.000000
_cell_volume 2953.249238
_symmetry_space_group_name_H-M "C 2/M"
_symmetry_group_IT_number 12
_symmetry_cell_setting 'monoclinic'
loop_
_space_group_symop_operation_xyz
x,y,z
-x,y,-z
-x,-y,-z
x,-y,z
1/2+x,1/2+y,z
1/2-x,1/2+y,-z
1/2-x,1/2-y,-z
1/2+x,1/2-y,z
loop_
_atom_site_type_symbol
_atom_site_label
_atom_site_fract_x
_atom_site_fract_y
_atom_site_fract_z
Si Si1 0.704908 0.170462 0.384844
Si Si2 0.926893 0.228006 0.083637
Si Si3 0.924458 0.230866 0.583152
Si Si4 0.793852 0.323928 0.123725
Si Si5 0.110480 0.500000 0.666195
Si Si6 0.367437 0.890065 0.414563
Si Si7 0.367765 0.888810 0.927062
Si Si8 0.117303 0.500000 0.004699
O O1 0.829896 0.191257 0.473506
O O2 0.620537 0.216152 0.374707
O O3 0.681730 0.119214 0.462903
O O4 0.687169 0.151219 0.216176
O O5 0.865118 0.274420 0.123841
O O6 0.005132 0.201657 0.250974
O O7 0.837857 0.186561 0.970400
O O8 0.000000 0.248804 0.000000
O O9 0.000000 0.246201 0.500000
O O10 0.820314 0.340684 0.297993
O O11 0.830663 0.372364 0.055952
O O12 0.175986 0.446608 0.667271
O O13 0.094740 0.500000 0.823145
O O14 0.000000 0.500000 0.500000
O O15 0.500000 0.888768 0.500000
O O16 0.500000 0.887126 0.000000
O O17 0.321292 0.948385 0.895528
O O18 0.000000 0.500000 0.000000
#
# Coordination Sequence:
#
# PCOD8110600 Si02
#       8
#     8   8   8   8   4   8   8   4
#     4  11  23  35  57  85 109 154 190 222 280 339
#     4  11  22  35  54  80 111 144 185 236 270 326
#     4  11  22  39  55  80 118 148 189 233 276 327
#     4  11  21  35  55  80 108 149 188 219 280 336
#     4  10  22  36  56  84 118 150 182 228 288 340
#     4  11  21  35  56  82 116 146 181 226 278 340
#     4  11  21  35  56  81 116 146 186 224 277 338
#     4  10  22  36  54  84 118 151 182 230 284 341
#
# _framework density 18.962164000000001
#
# number of rings (size 3 to 8) (size 9 to 14) (size 15 to 20)
#    0.000    1.143    1.429    6.857    6.000    4.571 
#    0.000    0.000    0.000    0.000    0.000   20.000 
#    0.000    0.000    0.000    0.000    0.000    0.000 
#
# Total GULP energy -347084.454360 kJ/mol
# GULP energy per Si atom -12395.873370 kJ/mol
# Density = 1.891901 g / cm^3
# Si number density = 18.962164 Si / 1000 Ang^3
#
#
#
# Elastic Constant Matrix: (Units=GPa)
#
#
# Indices 1 2 3 4 5 6 
#
# 1 62.8310 14.2433 19.9159 0.0000 10.3165 0.0000
# 2 14.2433 88.4572 19.3393 0.0000 16.5818 0.0000
# 3 19.9159 19.3393 97.0558 0.0000 13.0351 0.0000
# 4 0.0000 0.0000 0.0000 31.0880 0.0000 -3.6742
# 5 10.3165 16.5818 13.0351 0.0000 28.6901 0.0000
# 6 0.0000 0.0000 0.0000 -3.6742 0.0000 16.3127
#
#
#
# Elastic Compliance Matrix: (Units=1/GPa)
#
#
# Indices 1 2 3 4 5 6 
#
# 1 0.017837 -0.001455 -0.002792 0.000000 -0.004305 0.000000
# 2 -0.001455 0.013048 -0.001447 0.000000 -0.006361 0.000000
# 3 -0.002792 -0.001447 0.011627 0.000000 -0.003442 0.000000
# 4 0.000000 0.000000 0.000000 0.033046 0.000000 0.007443
# 5 -0.004305 -0.006361 -0.003442 0.000000 0.041643 0.000000
# 6 0.000000 0.000000 0.000000 0.007443 0.000000 0.062978
#
#
# Mechanical properties :
#
#
# Convention : Reuss Voigt Hill
#
# Bulk Modulus (GPa) = 32.12960 39.48234 35.80597
# Shear Modulus (GPa) = 24.75945 28.20787 26.48366
#
# Velocity S-wave (km/s) = 3.61741 3.86111 3.74124
# Velocity P-wave (km/s) = 5.86757 6.38313 6.13077
#
# Compressibility (1/GPa) = 0.03112395
#
# Stress axis : x y z
#
# Youngs Moduli (GPa) = 56.06206 76.64091 86.00689
#
# Poissons Ratio (x) = 0.11150 0.24015
# Poissons Ratio (y) = 0.08156 0.12446
# Poissons Ratio (z) = 0.15654 0.11091
#
# Static dielectric constant tensor:
#      x y z
#    x 3.399870 0.000000 -0.056250 
#    y 0.000000 3.948960 0.000000 
#    z -0.056250 0.000000 3.682000 
# 
# 
# High freq. dielectric constant tensor:
#      x y z
#    x 1.715800 0.000000 -0.019540 
#    y 0.000000 1.728620 0.000000 
#    z -0.019540 0.000000 1.753770 
# 
# From -- ./inp_files/66884.got.cif
#   From: 2010.06.25/outbox.cif.g09.slc.cpg/sg12_34_cif.got.tgz:66884.got - 2010.06.28 00:19:55.
