data_PCOD8110698
_publ_section_title
;
Structure prediction by ZEFSAII (Michael W. Deem and Ramdas Pophale) SiO2 
 PCOD8110698
Probable space group: C 2/M
;
_chemical_formula_sum "Si O2"
_cell_formula_units_Z 64
_cell_length_a 30.110591
_cell_length_b 9.469886
_cell_length_c 15.472949
_cell_angle_alpha 90.000000
_cell_angle_beta 132.475704
_cell_angle_gamma 90.000000
_cell_volume 3254.143417
_symmetry_space_group_name_H-M "C 2/M"
_symmetry_group_IT_number 12
_symmetry_cell_setting 'monoclinic'
loop_
_space_group_symop_operation_xyz
x,y,z
-x,y,-z
-x,-y,-z
x,-y,z
1/2+x,1/2+y,z
1/2-x,1/2+y,-z
1/2-x,1/2-y,-z
1/2+x,1/2-y,z
loop_
_atom_site_type_symbol
_atom_site_label
_atom_site_fract_x
_atom_site_fract_y
_atom_site_fract_z
Si Si1 0.703082 0.667263 0.588248
Si Si2 0.115001 0.161802 0.618403
Si Si3 0.984487 0.844425 0.644899
Si Si4 0.593099 0.157699 0.753948
Si Si5 0.183049 0.332958 0.165146
Si Si6 0.710384 0.158711 0.012886
Si Si7 0.932520 0.332665 0.888512
Si Si8 0.112517 0.160964 0.332692
O O1 0.694925 0.500000 0.577284
O O2 0.663971 0.725793 0.616816
O O3 0.772180 0.714875 0.697164
O O4 0.675370 0.717955 0.459360
O O5 0.048847 0.175155 0.490414
O O6 0.119146 0.252932 0.709569
O O7 0.129837 0.000000 0.661797
O O8 0.937684 0.830888 0.660239
O O9 0.034598 0.725889 0.720369
O O10 0.014745 0.000000 0.686466
O O11 0.577156 0.000000 0.701156
O O12 0.641943 0.153303 0.892909
O O13 0.185174 0.500000 0.159019
O O14 0.207061 0.272141 0.104992
O O15 0.114574 0.286778 0.097889
O O16 0.737627 0.000000 0.051136
O O17 0.750000 0.250000 0.000000
O O18 0.932619 0.500000 0.874388
O O19 0.908118 0.262899 0.769871
O O20 0.000000 0.278936 0.000000
O O21 0.119420 0.000000 0.307414
#
# Coordination Sequence:
#
# PCOD8110698 Si02
#       8
#     8   8   8   8   8   8   8   8
#     4   8  15  31  57  81 102 136 182 229 272 322
#     4   9  17  32  53  75 102 142 187 224 267 327
#     4   9  19  34  52  75 103 141 186 224 265 330
#     4  11  22  31  47  77 110 141 178 228 280 325
#     4   9  18  35  57  80 107 145 188 224 267 327
#     4  10  22  38  56  79 108 143 184 228 272 323
#     4  10  22  37  57  82 111 149 187 218 261 331
#     4   9  19  36  57  82 108 135 177 231 280 318
#
# _framework density 19.667234000000001
#
# number of rings (size 3 to 8) (size 9 to 14) (size 15 to 20)
#    0.000    2.625    0.000    3.000    1.750    5.250 
#    0.000    2.500    0.000    1.500    0.000    0.000 
#    0.000    0.000    0.000    0.000    0.000    0.000 
#
# Total GULP energy -396592.024801 kJ/mol
# GULP energy per Si atom -12393.500775 kJ/mol
# Density = 1.962247 g / cm^3
# Si number density = 19.667234 Si / 1000 Ang^3
#
#
#
# Elastic Constant Matrix: (Units=GPa)
#
#
# Indices 1 2 3 4 5 6 
#
# 1 84.0216 21.4384 59.1228 0.0000 11.9156 0.0000
# 2 21.4384 56.7935 35.1804 0.0000 2.9393 0.0000
# 3 59.1228 35.1804 124.4214 0.0000 -0.6593 0.0000
# 4 0.0000 0.0000 0.0000 26.1828 0.0000 -3.0788
# 5 11.9156 2.9393 -0.6593 0.0000 32.9418 0.0000
# 6 0.0000 0.0000 0.0000 -3.0788 0.0000 17.8964
#
#
#
# Elastic Compliance Matrix: (Units=1/GPa)
#
#
# Indices 1 2 3 4 5 6 
#
# 1 0.019564 -0.001497 -0.008911 0.000000 -0.007121 0.000000
# 2 -0.001497 0.021597 -0.005403 0.000000 -0.001494 0.000000
# 3 -0.008911 -0.005403 0.013820 0.000000 0.003982 0.000000
# 4 0.000000 0.000000 0.000000 0.038982 0.000000 0.006706
# 5 -0.007121 -0.001494 0.003982 0.000000 0.033146 0.000000
# 6 0.000000 0.000000 0.000000 0.006706 0.000000 0.057031
#
#
# Mechanical properties :
#
#
# Convention : Reuss Voigt Hill
#
# Bulk Modulus (GPa) = 42.80920 55.19108 49.00014
# Shear Modulus (GPa) = 22.36665 25.37053 23.86859
#
# Velocity S-wave (km/s) = 3.37598 3.59554 3.48749
# Velocity P-wave (km/s) = 6.08361 6.73503 6.41759
#
# Compressibility (1/GPa) = 0.02335946
#
# Stress axis : x y z
#
# Youngs Moduli (GPa) = 51.11499 46.30283 72.35669
#
# Poissons Ratio (x) = 0.06929 0.64476
# Poissons Ratio (y) = 0.07650 0.39097
# Poissons Ratio (z) = 0.45548 0.25019
#
# Static dielectric constant tensor:
#      x y z
#    x 3.585280 0.000000 0.090010 
#    y 0.000000 3.379470 0.000000 
#    z 0.090010 0.000000 3.844160 
# 
# 
# High freq. dielectric constant tensor:
#      x y z
#    x 1.766600 0.000000 0.005850 
#    y 0.000000 1.729730 0.000000 
#    z 0.005850 0.000000 1.776050 
# 
# From -- ./inp_files/250085.got.cif
#   From: 2010.06.25/outbox.cif.g09.slc.cpg/sg12_126_cif.got.tgz:250085.got - 2010.06.28 00:19:55.
