data_PCOD8110103
_publ_section_title
;
Structure prediction by ZEFSAII (Michael W. Deem and Ramdas Pophale) SiO2 
 PCOD8110103
Probable space group: C 2/M
;
_chemical_formula_sum "Si O2"
_cell_formula_units_Z 40
_cell_length_a 15.851837
_cell_length_b 14.955834
_cell_length_c 8.480425
_cell_angle_alpha 90.000000
_cell_angle_beta 63.907786
_cell_angle_gamma 90.000000
_cell_volume 1805.620312
_symmetry_space_group_name_H-M "C 2/M"
_symmetry_group_IT_number 12
_symmetry_cell_setting 'monoclinic'
loop_
_space_group_symop_operation_xyz
x,y,z
-x,y,-z
-x,-y,-z
x,-y,z
1/2+x,1/2+y,z
1/2-x,1/2+y,-z
1/2-x,1/2-y,-z
1/2+x,1/2-y,z
loop_
_atom_site_type_symbol
_atom_site_label
_atom_site_fract_x
_atom_site_fract_y
_atom_site_fract_z
Si Si1 0.840896 0.334200 0.842942
Si Si2 0.943271 0.102141 0.271780
Si Si3 0.147782 0.739171 0.514619
Si Si4 0.864942 0.843913 0.001141
Si Si5 0.022661 0.400427 0.804993
O O1 0.845417 0.287750 0.670758
O O2 0.859082 0.261093 0.965356
O O3 0.924539 0.405208 0.789001
O O4 0.739706 0.383104 0.946584
O O5 0.907593 0.166024 0.440903
O O6 0.056497 0.105975 0.167480
O O7 0.912422 0.000000 0.327220
O O8 0.892731 0.142168 0.159299
O O9 0.250000 0.750000 0.500000
O O10 0.094133 0.666213 0.663212
O O11 0.066710 0.500000 0.769393
O O12 0.000000 0.367433 0.000000
#
# Coordination Sequence:
#
# PCOD8110103 Si02
#       5
#     8   8   8   8   8
#     4  11  23  40  71 101 131 177 220 272 339 398
#     4  11  23  43  68  97 134 177 222 271 329 393
#     4  12  25  43  68  96 138 174 219 275 334 394
#     4  10  21  40  68  97 131 174 223 265 328 400
#     4  11  26  47  71  98 133 176 225 280 337 399
#
# _framework density 22.153053
#
# number of rings (size 3 to 8) (size 9 to 14) (size 15 to 20)
#    0.000    1.000    4.000    3.000    2.800    4.000 
#    0.000    3.000    0.000    0.000    0.000    0.000 
#    0.000    0.000    0.000    0.000    0.000    0.000 
#
# Total GULP energy -247955.423836 kJ/mol
# GULP energy per Si atom -12397.771192 kJ/mol
# Density = 2.210263 g / cm^3
# Si number density = 22.153053 Si / 1000 Ang^3
#
#
#
# Elastic Constant Matrix: (Units=GPa)
#
#
# Indices 1 2 3 4 5 6 
#
# 1 156.0443 45.2425 52.0142 0.0000 -21.5522 0.0000
# 2 45.2425 119.2610 48.9398 0.0000 -10.8424 0.0000
# 3 52.0142 48.9398 85.2295 0.0000 -10.1555 0.0000
# 4 0.0000 0.0000 0.0000 6.1962 0.0000 5.9545
# 5 -21.5522 -10.8424 -10.1555 0.0000 38.4335 0.0000
# 6 0.0000 0.0000 0.0000 5.9545 0.0000 18.7402
#
#
#
# Elastic Compliance Matrix: (Units=1/GPa)
#
#
# Indices 1 2 3 4 5 6 
#
# 1 0.008620 -0.001268 -0.004129 0.000000 0.003385 0.000000
# 2 -0.001268 0.011238 -0.005561 0.000000 0.000990 0.000000
# 3 -0.004129 -0.005561 0.017536 0.000000 0.000749 0.000000
# 4 0.000000 0.000000 0.000000 0.232331 0.000000 -0.073820
# 5 0.003385 0.000990 0.000749 0.000000 0.028394 0.000000
# 6 0.000000 0.000000 0.000000 -0.073820 0.000000 0.076817
#
#
# Mechanical properties :
#
#
# Convention : Reuss Voigt Hill
#
# Bulk Modulus (GPa) = 64.61271 72.54754 68.58013
# Shear Modulus (GPa) = 12.43745 26.96319 19.70032
#
# Velocity S-wave (km/s) = 2.37203 3.49253 2.98532
# Velocity P-wave (km/s) = 6.06068 7.00593 6.55038
#
# Compressibility (1/GPa) = 0.01547683
#
# Stress axis : x y z
#
# Youngs Moduli (GPa) = 116.00979 88.98317 57.02638
#
# Poissons Ratio (x) = 0.11281 0.23548
# Poissons Ratio (y) = 0.14708 0.31714
# Poissons Ratio (z) = 0.47904 0.49487
#
# Static dielectric constant tensor:
#      x y z
#    x 3.982870 0.000000 -0.402820 
#    y 0.000000 3.764040 0.000000 
#    z -0.402820 0.000000 3.954270 
# 
# 
# High freq. dielectric constant tensor:
#      x y z
#    x 1.889010 0.000000 -0.007430 
#    y 0.000000 1.856530 0.000000 
#    z -0.007430 0.000000 1.869490 
# 
# From -- ./inp_files/58935.got.cif
#   From: 2010.06.25/outbox.cif.g09.slc.cpg/sg12_30_cif.got.tgz:58935.got - 2010.06.28 00:19:55.
