data_PCOD8110201
_publ_section_title
;
Structure prediction by ZEFSAII (Michael W. Deem and Ramdas Pophale) SiO2 
 PCOD8110201
Probable space group: C 2/M
;
_chemical_formula_sum "Si O2"
_cell_formula_units_Z 56
_cell_length_a 27.670822
_cell_length_b 17.459613
_cell_length_c 18.490508
_cell_angle_alpha 90.000000
_cell_angle_beta 18.817614
_cell_angle_gamma 90.000000
_cell_volume 2881.453301
_symmetry_space_group_name_H-M "C 2/M"
_symmetry_group_IT_number 12
_symmetry_cell_setting 'monoclinic'
loop_
_space_group_symop_operation_xyz
x,y,z
-x,y,-z
-x,-y,-z
x,-y,z
1/2+x,1/2+y,z
1/2-x,1/2+y,-z
1/2-x,1/2-y,-z
1/2+x,1/2-y,z
loop_
_atom_site_type_symbol
_atom_site_label
_atom_site_fract_x
_atom_site_fract_y
_atom_site_fract_z
Si Si1 0.859112 0.265708 0.645313
Si Si2 0.419674 0.412159 0.288161
Si Si3 0.527861 0.675934 0.643055
Si Si4 0.164261 0.587361 0.536371
Si Si5 0.379756 0.191477 0.924360
Si Si6 0.766240 0.086489 0.231829
Si Si7 0.609008 0.587592 0.281834
O O1 0.858030 0.215054 0.574045
O O2 0.851634 0.356258 0.639061
O O3 0.000000 0.251823 0.500000
O O4 0.698881 0.238956 0.901272
O O5 0.420300 0.500000 0.314674
O O6 0.404599 0.354085 0.377318
O O7 0.275772 0.395239 0.443722
O O8 0.566555 0.395569 0.032339
O O9 0.408801 0.744411 0.822504
O O10 0.459742 0.601671 0.699732
O O11 0.102493 0.500000 0.628444
O O12 0.256876 0.598559 0.331190
O O13 0.031163 0.648570 0.733767
O O14 0.268312 0.127704 0.053193
O O15 0.719041 0.000000 0.277647
O O16 0.500000 0.620061 0.500000
O O17 0.639828 0.500000 0.252815
#
# Coordination Sequence:
#
# PCOD8110201 Si02
#       7
#     8   8   8   8   8   8   8
#     4  12  24  42  59  91 131 159 199 253 311 362
#     4  10  22  41  64  91 124 161 205 253 303 364
#     4  12  22  39  63  88 123 159 203 254 306 360
#     4  10  22  41  64  91 124 161 205 253 303 364
#     4  12  22  39  63  88 123 159 203 254 306 360
#     4  10  21  41  64  91 124 163 201 245 308 371
#     4  11  23  40  62  87 120 166 208 248 305 373
#
# _framework density 19.434636000000001
#
# number of rings (size 3 to 8) (size 9 to 14) (size 15 to 20)
#    0.000    1.000    5.714    1.714    0.000    2.571 
#    0.000    0.714    0.000    1.714    0.000    0.000 
#    0.000    0.000    0.000    0.000    0.000    0.000 
#
# Total GULP energy -346994.315145 kJ/mol
# GULP energy per Si atom -12392.654112 kJ/mol
# Density = 1.939040 g / cm^3
# Si number density = 19.434636 Si / 1000 Ang^3
#
#
#
# Elastic Constant Matrix: (Units=GPa)
#
#
# Indices 1 2 3 4 5 6 
#
# 1 110.6436 52.0092 42.2901 0.0006 6.1746 -0.0006
# 2 52.0092 100.2873 -3.3450 0.0047 -21.6179 -0.0026
# 3 42.2901 -3.3450 -121.8254 -0.0260 -116.6473 0.0185
# 4 0.0006 0.0047 -0.0260 33.1886 -0.0204 -2.0806
# 5 6.1746 -21.6179 -116.6473 -0.0204 -52.1135 0.0136
# 6 -0.0006 -0.0026 0.0185 -2.0806 0.0136 34.5827
#
#
#
# Elastic Compliance Matrix: (Units=1/GPa)
#
#
# Indices 1 2 3 4 5 6 
#
# 1 0.011305 -0.004805 -0.000757 0.000003 0.005027 -0.000002
# 2 -0.004805 0.012603 -0.003094 -0.000003 0.001128 0.000002
# 3 -0.000757 -0.003094 0.008336 -0.000004 -0.017464 0.000002
# 4 0.000003 -0.000003 -0.000004 0.030245 -0.000002 0.001820
# 5 0.005027 0.001128 -0.017464 -0.000002 0.020030 0.000002
# 6 -0.000002 0.000002 0.000002 0.001820 0.000002 0.029026
#
#
# Mechanical properties :
#
#
# Convention : Reuss Voigt Hill
#
# Bulk Modulus (GPa) = 66.96682 30.11269 48.53975
# Shear Modulus (GPa) = 37.35995 3.00832 20.18413
#
# Velocity S-wave (km/s) = 4.38920 1.24550 3.22617
# Velocity P-wave (km/s) = 7.76010 4.19480 6.23760
#
# Compressibility (1/GPa) = 0.01493277
#
# Stress axis : x y z
#
# Youngs Moduli (GPa) = 88.45413 79.34646 119.96579
#
# Poissons Ratio (x) = 0.38122 0.09083
# Poissons Ratio (y) = 0.42498 0.37117
# Poissons Ratio (z) = 0.06697 0.24549
#
# Static dielectric constant tensor:
#      x y z
#    x 3.469910 0.000000 0.264780 
#    y 0.000000 3.785480 0.000010 
#    z 0.264780 0.000010 3.576760 
# 
# 
# High freq. dielectric constant tensor:
#      x y z
#    x 1.743900 0.000000 0.016890 
#    y 0.000000 1.780270 0.000000 
#    z 0.016890 0.000000 1.751710 
# 
# From -- ./inp_files/293873.got.cif
#   From: 2010.06.25/outbox.cif.g09.slc.cpg/sg12_147_cif.got.tgz:293873.got - 2010.06.28 00:19:55.
