data_PCOD8110969
_publ_section_title
;
Structure prediction by ZEFSAII (Michael W. Deem and Ramdas Pophale) SiO2 
 PCOD8110969
Probable space group: C 2/M
;
_chemical_formula_sum "Si O2"
_cell_formula_units_Z 48
_cell_length_a 14.277591
_cell_length_b 27.824937
_cell_length_c 11.492888
_cell_angle_alpha 90.000000
_cell_angle_beta 150.346621
_cell_angle_gamma 90.000000
_cell_volume 2258.944719
_symmetry_space_group_name_H-M "C 2/M"
_symmetry_group_IT_number 12
_symmetry_cell_setting 'monoclinic'
loop_
_space_group_symop_operation_xyz
x,y,z
-x,y,-z
-x,-y,-z
x,-y,z
1/2+x,1/2+y,z
1/2-x,1/2+y,-z
1/2-x,1/2-y,-z
1/2+x,1/2-y,z
loop_
_atom_site_type_symbol
_atom_site_label
_atom_site_fract_x
_atom_site_fract_y
_atom_site_fract_z
Si Si1 0.678929 0.554745 0.369000
Si Si2 0.367889 0.386092 0.133781
Si Si3 0.479098 0.897894 0.844979
Si Si4 0.681089 0.685452 0.516235
Si Si5 0.805253 0.219453 0.723201
Si Si6 0.706253 0.877438 0.708870
O O1 0.669732 0.500000 0.316738
O O2 0.497165 0.566482 0.253870
O O3 0.867493 0.562740 0.648844
O O4 0.674648 0.589075 0.250675
O O5 0.495352 0.346627 0.339049
O O6 0.308455 0.369491 0.941319
O O7 0.189864 0.395186 0.022419
O O8 0.371399 0.846886 0.720835
O O9 0.500000 0.915337 0.000000
O O10 0.704708 0.728553 0.635827
O O11 0.646516 0.712268 0.358635
O O12 0.672885 0.175463 0.619685
O O13 0.000000 0.217659 0.000000
O O14 0.500000 0.901709 0.500000
#
# Coordination Sequence:
#
# PCOD8110969 Si02
#       6
#     8   8   8   8   8   8
#     4  11  25  43  69 104 131 165 220 273 333 402
#     4  11  22  44  70  93 133 178 212 271 337 384
#     4  11  24  46  67  92 133 172 223 276 323 387
#     4  10  22  38  63  96 130 171 225 262 315 391
#     4  11  19  38  61  94 134 175 215 266 318 386
#     4  12  21  42  68  99 137 174 211 272 336 390
#
# _framework density 21.248860000000001
#
# number of rings (size 3 to 8) (size 9 to 14) (size 15 to 20)
#    0.000    1.000    6.667    1.000    0.000    5.333 
#    6.000    3.333    0.000    0.000    0.000    0.000 
#    0.000    0.000    0.000    0.000    0.000    0.000 
#
# Total GULP energy -297522.261943 kJ/mol
# GULP energy per Si atom -12396.760914 kJ/mol
# Density = 2.120050 g / cm^3
# Si number density = 21.248860 Si / 1000 Ang^3
#
#
#
# Elastic Constant Matrix: (Units=GPa)
#
#
# Indices 1 2 3 4 5 6 
#
# 1 116.0698 35.5036 43.5819 0.0000 20.2286 0.0000
# 2 35.5036 130.1569 17.9930 0.0000 15.0022 0.0000
# 3 43.5819 17.9930 79.9737 0.0000 23.0571 0.0000
# 4 0.0000 0.0000 0.0000 18.2500 0.0000 -0.4067
# 5 20.2286 15.0022 23.0571 0.0000 44.4255 0.0000
# 6 0.0000 0.0000 0.0000 -0.4067 0.0000 6.9814
#
#
#
# Elastic Compliance Matrix: (Units=1/GPa)
#
#
# Indices 1 2 3 4 5 6 
#
# 1 0.011599 -0.002225 -0.005308 0.000000 -0.001775 0.000000
# 2 -0.002225 0.008520 -0.000196 0.000000 -0.001762 0.000000
# 3 -0.005308 -0.000196 0.017316 0.000000 -0.006504 0.000000
# 4 0.000000 0.000000 0.000000 0.054866 0.000000 0.003196
# 5 -0.001775 -0.001762 -0.006504 0.000000 0.027288 0.000000
# 6 0.000000 0.000000 0.000000 0.003196 0.000000 0.143423
#
#
# Mechanical properties :
#
#
# Convention : Reuss Voigt Hill
#
# Bulk Modulus (GPa) = 45.50579 57.81749 51.66164
# Shear Modulus (GPa) = 17.49490 29.20618 23.35054
#
# Velocity S-wave (km/s) = 2.87249 3.71142 3.31857
# Velocity P-wave (km/s) = 5.69770 6.75537 6.24895
#
# Compressibility (1/GPa) = 0.02197523
#
# Stress axis : x y z
#
# Youngs Moduli (GPa) = 86.21639 117.36666 57.74943
#
# Poissons Ratio (x) = 0.26119 0.30656
# Poissons Ratio (y) = 0.19187 0.01133
# Poissons Ratio (z) = 0.45767 0.02302
#
# Static dielectric constant tensor:
#      x y z
#    x 3.750590 0.000000 -0.081340 
#    y 0.000000 3.908330 0.000000 
#    z -0.081340 0.000000 4.114610 
# 
# 
# High freq. dielectric constant tensor:
#      x y z
#    x 1.818700 0.000000 -0.002250 
#    y 0.000000 1.818120 0.000000 
#    z -0.002250 0.000000 1.853950 
# 
# From -- ./inp_files/149862.got.cif
#   From: 2010.06.25/outbox.cif.g09.slc.cpg/sg12_75_cif.got.tgz:149862.got - 2010.06.28 00:19:55.
