data_PCOD8110687
_publ_section_title
;
Structure prediction by ZEFSAII (Michael W. Deem and Ramdas Pophale) SiO2 
 PCOD8110687
Probable space group: C 2/M
;
_chemical_formula_sum "Si O2"
_cell_formula_units_Z 40
_cell_length_a 18.064953
_cell_length_b 24.428524
_cell_length_c 8.334117
_cell_angle_alpha 90.000000
_cell_angle_beta 30.349752
_cell_angle_gamma 90.000000
_cell_volume 1858.332045
_symmetry_space_group_name_H-M "C 2/M"
_symmetry_group_IT_number 12
_symmetry_cell_setting 'monoclinic'
loop_
_space_group_symop_operation_xyz
x,y,z
-x,y,-z
-x,-y,-z
x,-y,z
1/2+x,1/2+y,z
1/2-x,1/2+y,-z
1/2-x,1/2-y,-z
1/2+x,1/2-y,z
loop_
_atom_site_type_symbol
_atom_site_label
_atom_site_fract_x
_atom_site_fract_y
_atom_site_fract_z
Si Si1 0.661671 0.407815 0.139492
Si Si2 0.901644 0.646400 0.321782
Si Si3 0.333405 0.799955 0.761512
Si Si4 0.074890 0.559047 0.190732
Si Si5 0.343637 0.437577 0.218524
O O1 0.500000 0.397118 0.500000
O O2 0.750571 0.351952 0.982576
O O3 0.749303 0.444340 0.105553
O O4 0.658665 0.434640 0.969915
O O5 0.834834 0.693960 0.562826
O O6 0.772929 0.606569 0.494896
O O7 0.022283 0.607770 0.178449
O O8 0.000000 0.675414 0.000000
O O9 0.500000 0.797252 0.500000
O O10 0.250000 0.750000 0.000000
O O11 0.027041 0.500000 0.207821
O O12 0.000000 0.569954 0.500000
O O13 0.303485 0.500000 0.344433
O O14 0.500000 0.421008 0.000000
#
# Coordination Sequence:
#
# PCOD8110687 Si02
#       5
#     8   8   8   8   8
#     4  11  22  38  61  93 126 172 220 272 312 374
#     4  11  23  41  63  93 132 168 213 269 331 388
#     4  11  22  44  70  94 119 162 218 273 334 398
#     4  11  20  37  63  91 129 175 222 262 310 383
#     4  10  22  37  55  90 138 179 212 254 314 379
#
# _framework density 21.52468
#
# number of rings (size 3 to 8) (size 9 to 14) (size 15 to 20)
#    0.000    1.200    6.000    1.800    2.800    3.200 
#    0.000    1.000    0.000    2.400    0.000    0.000 
#    0.000    0.000    0.000    0.000    0.000    0.000 
#
# Total GULP energy -247769.640999 kJ/mol
# GULP energy per Si atom -12388.482050 kJ/mol
# Density = 2.147569 g / cm^3
# Si number density = 21.524680 Si / 1000 Ang^3
#
#
#
# Elastic Constant Matrix: (Units=GPa)
#
#
# Indices 1 2 3 4 5 6 
#
# 1 72.1347 26.0703 28.0287 0.0001 -24.3343 0.0000
# 2 26.0703 95.7232 45.6672 0.0000 8.0576 0.0000
# 3 28.0287 45.6672 153.9771 0.0012 -11.3254 -0.0001
# 4 0.0001 0.0000 0.0012 22.7116 -0.0003 -2.2975
# 5 -24.3343 8.0576 -11.3254 -0.0003 49.2598 0.0000
# 6 0.0000 0.0000 -0.0001 -2.2975 0.0000 18.2188
#
#
#
# Elastic Compliance Matrix: (Units=1/GPa)
#
#
# Indices 1 2 3 4 5 6 
#
# 1 0.019949 -0.005774 -0.001144 0.000000 0.010536 0.000000
# 2 -0.005774 0.014252 -0.003618 0.000000 -0.006016 0.000000
# 3 -0.001144 -0.003618 0.007912 0.000000 0.001846 0.000000
# 4 0.000000 0.000000 0.000000 0.044599 0.000000 0.005624
# 5 0.010536 -0.006016 0.001846 0.000000 0.026914 0.000000
# 6 0.000000 0.000000 0.000000 0.005624 0.000000 0.055598
#
#
# Mechanical properties :
#
#
# Convention : Reuss Voigt Hill
#
# Bulk Modulus (GPa) = 47.52961 57.92974 52.72967
# Shear Modulus (GPa) = 25.34102 32.84262 29.09182
#
# Velocity S-wave (km/s) = 3.43490 3.91040 3.68034
# Velocity P-wave (km/s) = 6.15311 6.88185 6.52766
#
# Compressibility (1/GPa) = 0.02103952
#
# Stress axis : x y z
#
# Youngs Moduli (GPa) = 50.12896 70.16570 126.39732
#
# Poissons Ratio (x) = 0.40515 0.14457
# Poissons Ratio (y) = 0.28946 0.45734
# Poissons Ratio (z) = 0.05734 0.25388
#
# Static dielectric constant tensor:
#      x y z
#    x 4.941130 0.000000 -0.907560 
#    y 0.000000 3.865620 0.000000 
#    z -0.907560 0.000000 4.994720 
# 
# 
# High freq. dielectric constant tensor:
#      x y z
#    x 1.841110 0.000000 -0.015180 
#    y 0.000000 1.823320 0.000000 
#    z -0.015180 0.000000 1.855140 
# 
# From -- ./inp_files/39182.got.cif
#   From: 2010.06.25/outbox.cif.g09.slc.cpg/sg12_20_cif.got.tgz:39182.got - 2010.06.28 00:19:55.
