data_PCOD8110150
_publ_section_title
;
Structure prediction by ZEFSAII (Michael W. Deem and Ramdas Pophale) SiO2 
 PCOD8110150
Probable space group: C 2/M
;
_chemical_formula_sum "Si O2"
_cell_formula_units_Z 56
_cell_length_a 13.675063
_cell_length_b 17.420605
_cell_length_c 21.099897
_cell_angle_alpha 90.000000
_cell_angle_beta 148.388813
_cell_angle_gamma 90.000000
_cell_volume 2634.694798
_symmetry_space_group_name_H-M "C 2/M"
_symmetry_group_IT_number 12
_symmetry_cell_setting 'monoclinic'
loop_
_space_group_symop_operation_xyz
x,y,z
-x,y,-z
-x,-y,-z
x,-y,z
1/2+x,1/2+y,z
1/2-x,1/2+y,-z
1/2-x,1/2-y,-z
1/2+x,1/2-y,z
loop_
_atom_site_type_symbol
_atom_site_label
_atom_site_fract_x
_atom_site_fract_y
_atom_site_fract_z
Si Si1 0.811730 0.588196 0.932796
Si Si2 0.663111 0.294250 0.216345
Si Si3 0.935406 0.302766 0.717252
Si Si4 0.905452 0.184560 0.279610
Si Si5 0.523884 0.086963 0.586367
Si Si6 0.736895 0.334792 0.018136
Si Si7 0.702993 0.411109 0.509333
O O1 0.763057 0.500000 0.896512
O O2 0.642687 0.635650 0.809293
O O3 0.819173 0.606391 0.011607
O O4 0.000000 0.609816 0.000000
O O5 0.640172 0.257415 0.272993
O O6 0.714202 0.220611 0.201532
O O7 0.484605 0.342604 0.091217
O O8 0.827291 0.355459 0.302627
O O9 0.793793 0.371398 0.621637
O O10 0.960695 0.254172 0.667035
O O11 0.132887 0.341715 0.847828
O O12 0.006849 0.131067 0.387306
O O13 0.500000 0.108224 0.500000
O O14 0.330503 0.096870 0.517167
O O15 0.598183 0.000000 0.634707
O O16 0.750000 0.250000 0.000000
O O17 0.665460 0.500000 0.505322
#
# Coordination Sequence:
#
# PCOD8110150 Si02
#       7
#     8   8   8   8   8   8   8
#     4  11  23  40  65  97 133 171 215 266 324 382
#     4  11  23  38  66  97 125 164 223 265 321 381
#     4  11  23  42  65  94 130 167 217 260 324 388
#     4  12  23  40  68  92 130 169 218 268 319 382
#     4  10  22  39  62  92 128 166 212 270 324 377
#     4  10  21  41  61  94 127 167 210 265 312 377
#     4  11  25  45  63  92 133 172 212 265 329 388
#
# _framework density 21.254833000000001
#
# number of rings (size 3 to 8) (size 9 to 14) (size 15 to 20)
#    0.000    1.143    4.286    3.429    2.000    1.143 
#    0.000    2.143    0.000    1.714    0.000    0.000 
#    0.000    0.000    0.000    0.000    0.000    0.000 
#
# Total GULP energy -347144.809102 kJ/mol
# GULP energy per Si atom -12398.028897 kJ/mol
# Density = 2.120646 g / cm^3
# Si number density = 21.254833 Si / 1000 Ang^3
#
#
#
# Elastic Constant Matrix: (Units=GPa)
#
#
# Indices 1 2 3 4 5 6 
#
# 1 51.7500 24.2541 7.7954 -0.0003 8.2935 -0.0002
# 2 24.2541 102.2943 55.2216 0.0009 3.1771 0.0002
# 3 7.7954 55.2216 103.4930 0.0011 -7.0286 0.0000
# 4 -0.0003 0.0009 0.0011 31.1646 -0.0002 -2.3598
# 5 8.2935 3.1771 -7.0286 -0.0002 26.6788 -0.0002
# 6 -0.0002 0.0002 0.0000 -2.3598 -0.0002 31.0587
#
#
#
# Elastic Compliance Matrix: (Units=1/GPa)
#
#
# Indices 1 2 3 4 5 6 
#
# 1 0.022858 -0.005719 0.000909 0.000000 -0.006185 0.000000
# 2 -0.005719 0.015516 -0.007996 0.000000 -0.002177 0.000000
# 3 0.000909 -0.007996 0.014159 0.000000 0.004400 0.000000
# 4 0.000000 0.000000 0.000000 0.032273 0.000000 0.002452
# 5 -0.006185 -0.002177 0.004400 0.000000 0.040824 0.000000
# 6 0.000000 0.000000 0.000000 0.002452 0.000000 0.032383
#
#
# Mechanical properties :
#
#
# Convention : Reuss Voigt Hill
#
# Bulk Modulus (GPa) = 37.14292 48.00884 42.57588
# Shear Modulus (GPa) = 25.96083 29.13150 27.54617
#
# Velocity S-wave (km/s) = 3.49866 3.70615 3.60390
# Velocity P-wave (km/s) = 5.81668 6.39925 6.11491
#
# Compressibility (1/GPa) = 0.02692303
#
# Stress axis : x y z
#
# Youngs Moduli (GPa) = 43.74825 64.45130 70.62548
#
# Poissons Ratio (x) = 0.36857 -0.06423
# Poissons Ratio (y) = 0.25018 0.56471
# Poissons Ratio (z) = -0.03979 0.51534
#
# Static dielectric constant tensor:
#      x y z
#    x 3.609740 0.000000 -0.048770 
#    y 0.000000 3.739260 0.000000 
#    z -0.048770 0.000000 3.983870 
# 
# 
# High freq. dielectric constant tensor:
#      x y z
#    x 1.826220 0.000000 0.004120 
#    y 0.000000 1.833960 0.000000 
#    z 0.004120 0.000000 1.830670 
# 
# From -- ./inp_files/311751.got.cif
#   From: 2010.06.25/outbox.cif.g09.slc.cpg/sg12_156_cif.got.tgz:311751.got - 2010.06.28 00:19:55.
