data_PCOD8110883
_publ_section_title
;
Structure prediction by ZEFSAII (Michael W. Deem and Ramdas Pophale) SiO2 
 PCOD8110883
Probable space group: C 2/M
;
_chemical_formula_sum "Si O2"
_cell_formula_units_Z 28
_cell_length_a 26.175890
_cell_length_b 9.335222
_cell_length_c 6.417890
_cell_angle_alpha 90.000000
_cell_angle_beta 121.085997
_cell_angle_gamma 90.000000
_cell_volume 1343.048317
_symmetry_space_group_name_H-M "C 2/M"
_symmetry_group_IT_number 12
_symmetry_cell_setting 'monoclinic'
loop_
_space_group_symop_operation_xyz
x,y,z
-x,y,-z
-x,-y,-z
x,-y,z
1/2+x,1/2+y,z
1/2-x,1/2+y,-z
1/2-x,1/2-y,-z
1/2+x,1/2-y,z
loop_
_atom_site_type_symbol
_atom_site_label
_atom_site_fract_x
_atom_site_fract_y
_atom_site_fract_z
Si Si1 0.602865 0.160106 0.997892
Si Si2 0.089591 0.157572 0.362706
Si Si3 0.500000 0.755453 0.500000
Si Si4 0.810921 0.166969 0.097706
O O1 0.579897 0.222113 0.168616
O O2 0.628076 0.000000 0.085008
O O3 0.547936 0.147482 0.721758
O O4 0.654993 0.263294 0.025946
O O5 0.034491 0.156788 0.407237
O O6 0.151143 0.187586 0.612784
O O7 0.091198 0.000000 0.262243
O O8 0.799415 0.000000 0.024047
O O9 0.750000 0.250000 0.000000
#
# Coordination Sequence:
#
# PCOD8110883 Si02
#       4
#     8   8   4   8
#     4  11  23  38  59  87 119 155 193 236 287 343
#     4  10  22  39  60  87 117 152 194 239 289 343
#     4  10  22  38  60  86 118 154 196 240 284 338
#     4  10  22  41  63  86 115 151 193 241 289 341
#
# _framework density 20.848096999999999
#
# number of rings (size 3 to 8) (size 9 to 14) (size 15 to 20)
#    0.000    1.714    0.000    3.429    0.000   13.714 
#    0.000    0.000    0.000    0.000    0.000    0.000 
#    0.000    0.000    0.000    0.000    0.000    0.000 
#
# Total GULP energy -173626.616990 kJ/mol
# GULP energy per Si atom -12401.901214 kJ/mol
# Density = 2.080065 g / cm^3
# Si number density = 20.848097 Si / 1000 Ang^3
#
#
#
# Elastic Constant Matrix: (Units=GPa)
#
#
# Indices 1 2 3 4 5 6 
#
# 1 141.0963 65.4835 53.7579 0.0000 4.3153 0.0000
# 2 65.4835 177.2686 56.1523 0.0000 -8.9346 0.0000
# 3 53.7579 56.1523 74.3930 0.0000 -15.1634 0.0000
# 4 0.0000 0.0000 0.0000 24.3136 0.0000 -2.4570
# 5 4.3153 -8.9346 -15.1634 0.0000 32.1510 0.0000
# 6 0.0000 0.0000 0.0000 -2.4570 0.0000 25.0996
#
#
#
# Elastic Compliance Matrix: (Units=1/GPa)
#
#
# Indices 1 2 3 4 5 6 
#
# 1 0.011100 -0.001944 -0.007708 0.000000 -0.005666 0.000000
# 2 -0.001944 0.007766 -0.004386 0.000000 0.000351 0.000000
# 3 -0.007708 -0.004386 0.024655 0.000000 0.011444 0.000000
# 4 0.000000 0.000000 0.000000 0.041540 0.000000 0.004066
# 5 -0.005666 0.000351 0.011444 0.000000 0.037358 0.000000
# 6 0.000000 0.000000 0.000000 0.004066 0.000000 0.040239
#
#
# Mechanical properties :
#
#
# Convention : Reuss Voigt Hill
#
# Bulk Modulus (GPa) = 64.74541 82.61614 73.68077
# Shear Modulus (GPa) = 25.52539 30.80380 28.16460
#
# Velocity S-wave (km/s) = 3.50287 3.84804 3.67951
# Velocity P-wave (km/s) = 6.89081 7.71083 7.31233
#
# Compressibility (1/GPa) = 0.01544511
#
# Stress axis : x y z
#
# Youngs Moduli (GPa) = 90.09190 128.76298 40.55947
#
# Poissons Ratio (x) = 0.25033 0.31264
# Poissons Ratio (y) = 0.17515 0.17788
# Poissons Ratio (z) = 0.69445 0.56470
#
# Static dielectric constant tensor:
#      x y z
#    x 3.745180 0.000000 0.018460 
#    y 0.000000 3.662700 0.000000 
#    z 0.018460 0.000000 3.755810 
# 
# 
# High freq. dielectric constant tensor:
#      x y z
#    x 1.818000 0.000000 -0.000750 
#    y 0.000000 1.821470 0.000000 
#    z -0.000750 0.000000 1.812090 
# 
# From -- ./inp_files/26913.got.cif
#   From: 2010.06.25/outbox.cif.g09.slc.cpg/sg12_14_cif.got.tgz:26913.got - 2010.06.28 00:19:55.
