data_PCOD8110632
_publ_section_title
;
Structure prediction by ZEFSAII (Michael W. Deem and Ramdas Pophale) SiO2 
 PCOD8110632
Probable space group: C 2/M
;
_chemical_formula_sum "Si O2"
_cell_formula_units_Z 44
_cell_length_a 24.185363
_cell_length_b 16.477700
_cell_length_c 5.147835
_cell_angle_alpha 90.000000
_cell_angle_beta 89.719854
_cell_angle_gamma 90.000000
_cell_volume 2051.486336
_symmetry_space_group_name_H-M "C 2/M"
_symmetry_group_IT_number 12
_symmetry_cell_setting 'monoclinic'
loop_
_space_group_symop_operation_xyz
x,y,z
-x,y,-z
-x,-y,-z
x,-y,z
1/2+x,1/2+y,z
1/2-x,1/2+y,-z
1/2-x,1/2-y,-z
1/2+x,1/2-y,z
loop_
_atom_site_type_symbol
_atom_site_label
_atom_site_fract_x
_atom_site_fract_y
_atom_site_fract_z
Si Si1 0.445040 0.912263 0.837188
Si Si2 0.196390 0.696311 0.539122
Si Si3 0.936176 0.907590 0.923079
Si Si4 0.406709 0.314598 0.397789
Si Si5 0.674907 0.905740 0.028275
Si Si6 0.500000 0.211267 0.500000
O O1 0.451561 0.841375 0.631085
O O2 0.438214 0.000000 0.695368
O O3 0.500000 0.912891 0.000000
O O4 0.391273 0.897088 0.015398
O O5 0.250000 0.750000 0.500000
O O6 0.145855 0.757742 0.570418
O O7 0.204698 0.641852 0.795867
O O8 0.189713 0.634406 0.302048
O O9 0.897764 0.878519 0.165360
O O10 0.920570 0.000000 0.860825
O O11 0.920783 0.855930 0.671447
O O12 0.000000 0.900187 0.000000
O O13 0.462231 0.265113 0.308695
O O14 0.693546 0.000000 0.028323
#
# Coordination Sequence:
#
# PCOD8110632 Si02
#       6
#     8   8   8   8   8   4
#     4  10  22  36  58  94 137 177 209 256 318 393
#     4  12  26  47  68  97 132 172 226 280 324 376
#     4  11  23  42  63  94 131 167 207 266 338 401
#     4  12  24  39  67  96 126 168 216 267 326 385
#     4  11  24  45  70  98 134 178 219 266 329 390
#     4  12  21  34  61  92 132 160 216 252 323 380
#
# _framework density 21.447865
#
# number of rings (size 3 to 8) (size 9 to 14) (size 15 to 20)
#    0.000    0.727    3.636    4.091    2.545    1.455 
#    0.000    5.455    0.000    0.000    0.000    0.000 
#    0.000    0.000    0.000    0.000    0.000    0.000 
#
# Total GULP energy -272723.767752 kJ/mol
# GULP energy per Si atom -12396.534898 kJ/mol
# Density = 2.139905 g / cm^3
# Si number density = 21.447865 Si / 1000 Ang^3
#
#
#
# Elastic Constant Matrix: (Units=GPa)
#
#
# Indices 1 2 3 4 5 6 
#
# 1 84.3064 51.6639 19.5795 0.0000 -16.1591 0.0000
# 2 51.6639 144.2550 56.6187 0.0000 -12.6803 0.0000
# 3 19.5795 56.6187 129.0516 0.0000 -7.5860 0.0000
# 4 0.0000 0.0000 0.0000 40.3023 0.0000 -7.6683
# 5 -16.1591 -12.6803 -7.5860 0.0000 24.5656 0.0000
# 6 0.0000 0.0000 0.0000 -7.6683 0.0000 22.9394
#
#
#
# Elastic Compliance Matrix: (Units=1/GPa)
#
#
# Indices 1 2 3 4 5 6 
#
# 1 0.016664 -0.005361 0.000311 0.000000 0.008290 0.000000
# 2 -0.005361 0.010361 -0.003692 0.000000 0.000681 0.000000
# 3 0.000311 -0.003692 0.009392 0.000000 0.001199 0.000000
# 4 0.000000 0.000000 0.000000 0.026498 0.000000 0.008858
# 5 0.008290 0.000681 0.001199 0.000000 0.046882 0.000000
# 6 0.000000 0.000000 0.000000 0.008858 0.000000 0.046554
#
#
# Mechanical properties :
#
#
# Convention : Reuss Voigt Hill
#
# Bulk Modulus (GPa) = 52.82010 68.14856 60.48433
# Shear Modulus (GPa) = 27.75505 32.87820 30.31663
#
# Velocity S-wave (km/s) = 3.60122 3.91952 3.76374
# Velocity P-wave (km/s) = 6.47861 7.23371 6.86655
#
# Compressibility (1/GPa) = 0.01893219
#
# Stress axis : x y z
#
# Youngs Moduli (GPa) = 60.01068 96.51139 106.47304
#
# Poissons Ratio (x) = 0.51744 -0.03315
# Poissons Ratio (y) = 0.32175 0.39314
# Poissons Ratio (z) = -0.01868 0.35636
#
# Static dielectric constant tensor:
#      x y z
#    x 3.770290 0.000000 -0.141760 
#    y 0.000000 4.501580 0.000000 
#    z -0.141760 0.000000 3.346510 
# 
# 
# High freq. dielectric constant tensor:
#      x y z
#    x 1.820850 0.000000 -0.002530 
#    y 0.000000 1.869640 0.000000 
#    z -0.002530 0.000000 1.840190 
# 
# From -- ./inp_files/24271.got.cif
#   From: 2010.06.25/outbox.cif.g09.slc.cpg/sg12_13_cif.got.tgz:24271.got - 2010.06.28 00:19:55.
