data_PCOD8110507
_publ_section_title
;
Structure prediction by ZEFSAII (Michael W. Deem and Ramdas Pophale) SiO2 
 PCOD8110507
Probable space group: C 2/M
;
_chemical_formula_sum "Si O2"
_cell_formula_units_Z 48
_cell_length_a 26.171715
_cell_length_b 13.764425
_cell_length_c 11.685840
_cell_angle_alpha 90.000000
_cell_angle_beta 149.057858
_cell_angle_gamma 90.000000
_cell_volume 2164.506092
_symmetry_space_group_name_H-M "C 2/M"
_symmetry_group_IT_number 12
_symmetry_cell_setting 'monoclinic'
loop_
_space_group_symop_operation_xyz
x,y,z
-x,y,-z
-x,-y,-z
x,-y,z
1/2+x,1/2+y,z
1/2-x,1/2+y,-z
1/2-x,1/2-y,-z
1/2+x,1/2-y,z
loop_
_atom_site_type_symbol
_atom_site_label
_atom_site_fract_x
_atom_site_fract_y
_atom_site_fract_z
Si Si1 0.191315 0.889480 0.959490
Si Si2 0.679898 0.888720 0.149205
Si Si3 0.111675 0.890935 0.055121
Si Si4 0.164277 0.769486 0.697847
Si Si5 0.979635 0.278942 0.775663
Si Si6 0.307298 0.111103 0.563607
O O1 0.123283 0.886151 0.941004
O O2 0.295376 0.833730 0.179061
O O3 0.217231 0.000000 0.976460
O O4 0.131907 0.837749 0.741724
O O5 0.747926 0.822346 0.201811
O O6 0.717793 0.876754 0.351862
O O7 0.688506 0.000000 0.126038
O O8 0.566099 0.856163 0.917606
O O9 0.212803 0.853628 0.308938
O O10 0.085219 0.000000 0.045343
O O11 0.022748 0.818718 0.917845
O O12 0.068941 0.749257 0.438073
O O13 0.901476 0.323402 0.713985
O O14 0.333127 0.000000 0.581641
#
# Coordination Sequence:
#
# PCOD8110507 Si02
#       6
#     8   8   8   8   8   8
#     4  10  21  44  68  87 125 172 211 256 319 383
#     4  11  24  42  64  96 131 166 211 262 314 374
#     4  10  22  42  65  92 126 172 214 256 314 378
#     4  11  24  41  66  95 127 164 213 265 319 369
#     4  12  22  38  63  99 126 162 211 260 311 374
#     4  10  22  42  66  91 129 173 210 254 315 377
#
# _framework density 22.175958999999999
#
# number of rings (size 3 to 8) (size 9 to 14) (size 15 to 20)
#    0.000    1.333    3.333    1.500    0.000    8.000 
#    0.000    1.667    0.000    9.000    0.000    0.000 
#    0.000    0.000    0.000    0.000    0.000    0.000 
#
# Total GULP energy -297716.783390 kJ/mol
# GULP energy per Si atom -12404.865975 kJ/mol
# Density = 2.212549 g / cm^3
# Si number density = 22.175959 Si / 1000 Ang^3
#
#
#
# Elastic Constant Matrix: (Units=GPa)
#
#
# Indices 1 2 3 4 5 6 
#
# 1 47.7824 19.0239 31.8472 0.0000 -6.7286 0.0000
# 2 19.0239 130.0629 30.3476 0.0000 -3.7439 0.0000
# 3 31.8472 30.3476 87.2087 0.0000 -9.0499 0.0000
# 4 0.0000 0.0000 0.0000 37.3386 0.0000 -0.2808
# 5 -6.7286 -3.7439 -9.0499 0.0000 17.1700 0.0000
# 6 0.0000 0.0000 0.0000 -0.2808 0.0000 31.8733
#
#
#
# Elastic Compliance Matrix: (Units=1/GPa)
#
#
# Indices 1 2 3 4 5 6 
#
# 1 0.028638 -0.001873 -0.009186 0.000000 0.005972 0.000000
# 2 -0.001873 0.008492 -0.002280 0.000000 -0.000084 0.000000
# 3 -0.009186 -0.002280 0.016069 0.000000 0.004372 0.000000
# 4 0.000000 0.000000 0.000000 0.026784 0.000000 0.000236
# 5 0.005972 -0.000084 0.004372 0.000000 0.062868 0.000000
# 6 0.000000 0.000000 0.000000 0.000236 0.000000 0.031376
#
#
# Mechanical properties :
#
#
# Convention : Reuss Voigt Hill
#
# Bulk Modulus (GPa) = 37.70826 47.49906 42.60366
# Shear Modulus (GPa) = 23.83845 29.53206 26.68526
#
# Velocity S-wave (km/s) = 3.28223 3.65323 3.47268
# Velocity P-wave (km/s) = 5.60402 6.26581 5.94413
#
# Compressibility (1/GPa) = 0.02651939
#
# Stress axis : x y z
#
# Youngs Moduli (GPa) = 34.91880 117.75623 62.23348
#
# Poissons Ratio (x) = 0.22060 0.57170
# Poissons Ratio (y) = 0.06542 0.14188
# Poissons Ratio (z) = 0.32078 0.26845
#
# Static dielectric constant tensor:
#      x y z
#    x 3.813110 0.000000 -0.278990 
#    y 0.000000 4.381830 0.000000 
#    z -0.278990 0.000000 3.997770 
# 
# 
# High freq. dielectric constant tensor:
#      x y z
#    x 1.862280 0.000000 -0.018250 
#    y 0.000000 1.894670 0.000000 
#    z -0.018250 0.000000 1.870980 
# 
# From -- ./inp_files/183889.got.cif
#   From: 2010.06.25/outbox.cif.g09.slc.cpg/sg12_92_cif.got.tgz:183889.got - 2010.06.28 00:19:55.
