data_PCOD8111314
_publ_section_title
;
Structure prediction by ZEFSAII (Michael W. Deem and Ramdas Pophale) SiO2 
 PCOD8111314
Probable space group: C 2/M
;
_chemical_formula_sum "Si O2"
_cell_formula_units_Z 40
_cell_length_a 16.806729
_cell_length_b 19.072588
_cell_length_c 10.559999
_cell_angle_alpha 90.000000
_cell_angle_beta 31.892341
_cell_angle_gamma 90.000000
_cell_volume 1788.371479
_symmetry_space_group_name_H-M "C 2/M"
_symmetry_group_IT_number 12
_symmetry_cell_setting 'monoclinic'
loop_
_space_group_symop_operation_xyz
x,y,z
-x,y,-z
-x,-y,-z
x,-y,z
1/2+x,1/2+y,z
1/2-x,1/2+y,-z
1/2-x,1/2-y,-z
1/2+x,1/2-y,z
loop_
_atom_site_type_symbol
_atom_site_label
_atom_site_fract_x
_atom_site_fract_y
_atom_site_fract_z
Si Si1 0.628453 0.922658 0.409776
Si Si2 0.435089 0.578334 0.848312
Si Si3 0.183906 0.847116 0.658169
Si Si4 0.145571 0.200443 0.229910
Si Si5 0.163745 0.296658 0.793406
O O1 0.500000 0.883265 0.500000
O O2 0.667069 0.885221 0.489604
O O3 0.568552 0.000000 0.525902
O O4 0.773961 0.926007 0.127551
O O5 0.481661 0.500000 0.736043
O O6 0.546126 0.600852 0.813100
O O7 0.426065 0.634199 0.746396
O O8 0.141718 0.788032 0.819937
O O9 0.223204 0.814124 0.470985
O O10 0.264292 0.175141 0.174762
O O11 0.000000 0.236437 0.500000
O O12 0.250000 0.250000 0.000000
O O13 0.000000 0.332515 0.000000
#
# Coordination Sequence:
#
# PCOD8111314 Si02
#       5
#     8   8   8   8   8
#     4  10  22  39  65  98 129 176 231 285 347 410
#     4  11  24  45  71 100 141 186 235 291 353 429
#     4  11  22  42  65  95 132 175 231 288 346 414
#     4  12  26  46  72 108 143 190 239 292 358 421
#     4  11  25  40  63  98 135 177 232 288 352 414
#
# _framework density 22.366717999999999
#
# number of rings (size 3 to 8) (size 9 to 14) (size 15 to 20)
#    0.000    1.000    2.000    4.800    5.600    3.600 
#    0.000    0.000    0.000    3.000    0.000    0.000 
#    0.000    0.000    0.000    0.000    0.000    0.000 
#
# Total GULP energy -247815.414244 kJ/mol
# GULP energy per Si atom -12390.770712 kJ/mol
# Density = 2.231581 g / cm^3
# Si number density = 22.366718 Si / 1000 Ang^3
#
#
#
# Elastic Constant Matrix: (Units=GPa)
#
#
# Indices 1 2 3 4 5 6 
#
# 1 199.6256 52.7819 24.9262 0.0002 -31.9591 -0.0005
# 2 52.7819 101.7760 19.8093 -0.0007 -4.8842 -0.0001
# 3 24.9262 19.8093 84.9905 -0.0015 -17.3746 0.0004
# 4 0.0002 -0.0007 -0.0015 18.2127 0.0000 -4.6119
# 5 -31.9591 -4.8842 -17.3746 0.0000 47.5746 0.0002
# 6 -0.0005 -0.0001 0.0004 -4.6119 0.0002 32.9156
#
#
#
# Elastic Compliance Matrix: (Units=1/GPa)
#
#
# Indices 1 2 3 4 5 6 
#
# 1 0.006506 -0.003112 -0.000383 0.000000 0.003911 0.000000
# 2 -0.003112 0.011782 -0.002176 0.000000 -0.001676 0.000000
# 3 -0.000383 -0.002176 0.013279 0.000001 0.004369 0.000000
# 4 0.000000 0.000000 0.000001 0.056926 0.000000 0.007976
# 5 0.003911 -0.001676 0.004369 0.000000 0.025070 0.000000
# 6 0.000000 0.000000 0.000000 0.007976 0.000000 0.031498
#
#
# Mechanical properties :
#
#
# Convention : Reuss Voigt Hill
#
# Bulk Modulus (GPa) = 49.44407 64.60300 57.02353
# Shear Modulus (GPa) = 30.64726 38.99889 34.82307
#
# Velocity S-wave (km/s) = 3.70566 4.18019 3.95006
# Velocity P-wave (km/s) = 6.36108 7.22806 6.80838
#
# Compressibility (1/GPa) = 0.02022487
#
# Stress axis : x y z
#
# Youngs Moduli (GPa) = 153.69975 84.87181 75.30861
#
# Poissons Ratio (x) = 0.26411 0.02886
# Poissons Ratio (y) = 0.47829 0.16388
# Poissons Ratio (z) = 0.05891 0.18469
#
# Static dielectric constant tensor:
#      x y z
#    x 4.402720 0.000000 -0.227660 
#    y 0.000000 4.412400 0.000000 
#    z -0.227660 0.000000 4.009560 
# 
# 
# High freq. dielectric constant tensor:
#      x y z
#    x 1.901820 0.000000 -0.016830 
#    y 0.000000 1.858960 0.000000 
#    z -0.016830 0.000000 1.879980 
# 
# From -- ./inp_files/158436.got.cif
#   From: 2010.06.25/outbox.cif.g09.slc.cpg/sg12_80_cif.got.tgz:158436.got - 2010.06.28 00:19:55.
