data_PCOD8111396
_publ_section_title
;
Structure prediction by ZEFSAII (Michael W. Deem and Ramdas Pophale) SiO2 
 PCOD8111396
Probable space group: C 2/M
;
_chemical_formula_sum "Si O2"
_cell_formula_units_Z 48
_cell_length_a 9.923093
_cell_length_b 9.013251
_cell_length_c 26.700882
_cell_angle_alpha 90.000000
_cell_angle_beta 101.164311
_cell_angle_gamma 90.000000
_cell_volume 2342.916252
_symmetry_space_group_name_H-M "C 2/M"
_symmetry_group_IT_number 12
_symmetry_cell_setting 'monoclinic'
loop_
_space_group_symop_operation_xyz
x,y,z
-x,y,-z
-x,-y,-z
x,-y,z
1/2+x,1/2+y,z
1/2-x,1/2+y,-z
1/2-x,1/2-y,-z
1/2+x,1/2-y,z
loop_
_atom_site_type_symbol
_atom_site_label
_atom_site_fract_x
_atom_site_fract_y
_atom_site_fract_z
Si Si1 0.154064 0.328836 0.384098
Si Si2 0.123967 0.828256 0.278993
Si Si3 0.046979 0.171030 0.557582
Si Si4 0.277228 0.171080 0.116358
Si Si5 0.984356 0.329028 0.942196
Si Si6 0.823914 0.171775 0.219882
O O1 0.126389 0.500000 0.370020
O O2 0.174935 0.244838 0.333687
O O3 0.290105 0.306752 0.427033
O O4 0.025150 0.265747 0.404742
O O5 0.198090 0.752150 0.237717
O O6 0.961179 0.805836 0.262085
O O7 0.164664 0.000000 0.282634
O O8 0.000000 0.229520 0.500000
O O9 0.004379 0.000000 0.562121
O O10 0.126309 0.231159 0.094493
O O11 0.369981 0.193587 0.074064
O O12 0.346161 0.259125 0.166901
O O13 0.265709 0.000000 0.130971
O O14 0.936504 0.500000 0.937455
O O15 0.000000 0.272013 0.000000
O O16 0.786257 0.000000 0.211298
#
# Coordination Sequence:
#
# PCOD8111396 Si02
#       6
#     8   8   8   8   8   8
#     4  11  23  38  60  89 118 153 196 240 291 349
#     4  11  24  41  62  88 118 154 195 240 292 348
#     4  10  22  40  60  85 119 156 196 243 292 345
#     4  11  23  38  60  89 118 153 196 240 291 348
#     4  10  22  40  61  87 120 157 197 242 291 344
#     4  11  24  41  61  86 117 153 194 240 290 346
#
# _framework density 20.487287999999999
#
# number of rings (size 3 to 8) (size 9 to 14) (size 15 to 20)
#    0.000    1.333    0.000    5.000    0.000   12.667 
#    0.000    0.000    0.000    0.000    0.000    0.000 
#    0.000    0.000    0.000    0.000    0.000    0.000 
#
# Total GULP energy -297811.929007 kJ/mol
# GULP energy per Si atom -12408.830375 kJ/mol
# Density = 2.044066 g / cm^3
# Si number density = 20.487288 Si / 1000 Ang^3
#
#
#
# Elastic Constant Matrix: (Units=GPa)
#
#
# Indices 1 2 3 4 5 6 
#
# 1 69.8999 40.3094 7.1416 0.0000 -4.5350 0.0000
# 2 40.3094 120.5375 40.6379 0.0000 -1.0966 0.0000
# 3 7.1416 40.6379 102.0685 0.0000 -2.0740 0.0000
# 4 0.0000 0.0000 0.0000 31.6337 0.0000 6.3021
# 5 -4.5350 -1.0966 -2.0740 0.0000 38.4600 0.0000
# 6 0.0000 0.0000 0.0000 6.3021 0.0000 12.8153
#
#
#
# Elastic Compliance Matrix: (Units=1/GPa)
#
#
# Indices 1 2 3 4 5 6 
#
# 1 0.018028 -0.006467 0.001354 0.000000 0.002014 0.000000
# 2 -0.006467 0.011902 -0.004300 0.000000 -0.000655 0.000000
# 3 0.001354 -0.004300 0.011428 0.000000 0.000653 0.000000
# 4 0.000000 0.000000 0.000000 0.035045 0.000000 -0.017234
# 5 0.002014 -0.000655 0.000653 0.000000 0.026255 0.000000
# 6 0.000000 0.000000 0.000000 -0.017234 0.000000 0.086507
#
#
# Mechanical properties :
#
#
# Convention : Reuss Voigt Hill
#
# Bulk Modulus (GPa) = 44.37877 52.07596 48.22736
# Shear Modulus (GPa) = 23.20177 30.20961 26.70569
#
# Velocity S-wave (km/s) = 3.36891 3.84416 3.61435
# Velocity P-wave (km/s) = 6.06971 6.72140 6.40385
#
# Compressibility (1/GPa) = 0.02253330
#
# Stress axis : x y z
#
# Youngs Moduli (GPa) = 55.46969 84.01603 87.50617
#
# Poissons Ratio (x) = 0.54334 -0.11851
# Poissons Ratio (y) = 0.35873 0.37625
# Poissons Ratio (z) = -0.07513 0.36125
#
# Static dielectric constant tensor:
#      x y z
#    x 3.593430 0.000000 0.012760 
#    y 0.000000 3.811440 0.000000 
#    z 0.012760 0.000000 3.820160 
# 
# 
# High freq. dielectric constant tensor:
#      x y z
#    x 1.806940 0.000000 -0.000130 
#    y 0.000000 1.808670 0.000000 
#    z -0.000130 0.000000 1.813470 
# 
# From -- ./inp_files/371855.got.cif
#   From: 2010.06.25/outbox.cif.g09.slc.cpg/sg12_186_cif.got.tgz:371855.got - 2010.06.28 00:19:55.
