data_PCOD8111965
_publ_section_title
;
Structure prediction by ZEFSAII (Michael W. Deem and Ramdas Pophale) SiO2 
 PCOD8111965
Probable space group: C 2/M
;
_chemical_formula_sum "Si O2"
_cell_formula_units_Z 64
_cell_length_a 20.242040
_cell_length_b 8.615316
_cell_length_c 21.955969
_cell_angle_alpha 90.000000
_cell_angle_beta 56.127843
_cell_angle_gamma 90.000000
_cell_volume 3179.101269
_symmetry_space_group_name_H-M "C 2/M"
_symmetry_group_IT_number 12
_symmetry_cell_setting 'monoclinic'
loop_
_space_group_symop_operation_xyz
x,y,z
-x,y,-z
-x,-y,-z
x,-y,z
1/2+x,1/2+y,z
1/2-x,1/2+y,-z
1/2-x,1/2-y,-z
1/2+x,1/2-y,z
loop_
_atom_site_type_symbol
_atom_site_label
_atom_site_fract_x
_atom_site_fract_y
_atom_site_fract_z
Si Si1 0.834462 0.820084 0.575851
Si Si2 0.893223 0.320137 0.669250
Si Si3 0.334638 0.679507 0.346412
Si Si4 0.241928 0.182154 0.187443
Si Si5 0.472333 0.318702 0.948315
Si Si6 0.440029 0.679054 0.407441
Si Si7 0.110989 0.320441 0.803104
Si Si8 0.802920 0.317485 0.025859
O O1 0.869322 0.782927 0.623866
O O2 0.758041 0.717537 0.599871
O O3 0.902193 0.781426 0.492100
O O4 0.809393 0.000000 0.586619
O O5 0.882896 0.500000 0.658458
O O6 0.837619 0.274986 0.754706
O O7 0.983469 0.286001 0.641999
O O8 0.344575 0.500000 0.323517
O O9 0.375646 0.719219 0.389173
O O10 0.376577 0.784047 0.273912
O O11 0.308670 0.223063 0.202796
O O12 0.271396 0.244330 0.107006
O O13 0.223064 0.000000 0.195800
O O14 0.454130 0.500000 0.959955
O O15 0.539501 0.283890 0.864359
O O16 0.500000 0.256160 0.000000
O O17 0.393241 0.231547 0.968708
O O18 0.466412 0.500000 0.390539
O O19 0.089047 0.500000 0.823747
O O20 0.797134 0.500000 0.027013
O O21 0.750000 0.250000 0.000000
#
# Coordination Sequence:
#
# PCOD8111965 Si02
#       8
#     8   8   8   8   8   8   8   8
#     4  11  22  40  65  90 121 165 208 250 307 373
#     4  12  25  39  63  94 124 160 208 260 307 361
#     4  11  23  40  63  93 125 160 205 258 310 362
#     4  10  22  41  65  89 122 165 205 250 305 368
#     4  11  23  39  64  95 126 161 204 255 304 357
#     4  10  24  43  62  87 125 166 204 252 311 371
#     4  11  22  39  65  93 123 164 209 251 303 367
#     4  11  24  43  66  94 128 165 206 252 308 369
#
# _framework density 20.131475999999999
#
# number of rings (size 3 to 8) (size 9 to 14) (size 15 to 20)
#    0.000    1.125    2.500    3.750    0.000    6.500 
#    0.000    1.250    0.000    0.000    0.000    0.000 
#    0.000    0.000    0.000    0.000    0.000    0.000 
#
# Total GULP energy -397067.718930 kJ/mol
# GULP energy per Si atom -12408.366217 kJ/mol
# Density = 2.008566 g / cm^3
# Si number density = 20.131476 Si / 1000 Ang^3
#
#
#
# Elastic Constant Matrix: (Units=GPa)
#
#
# Indices 1 2 3 4 5 6 
#
# 1 97.6718 26.6734 20.6604 -0.0003 -8.5243 -0.0013
# 2 26.6734 54.3560 29.4363 -0.0003 -1.0658 -0.0026
# 3 20.6604 29.4363 93.5714 0.0001 -12.3994 -0.0004
# 4 -0.0003 -0.0003 0.0001 29.7846 0.0000 -2.5388
# 5 -8.5243 -1.0658 -12.3994 0.0000 33.2122 0.0000
# 6 -0.0013 -0.0026 -0.0004 -2.5388 0.0000 34.8022
#
#
#
# Elastic Compliance Matrix: (Units=1/GPa)
#
#
# Indices 1 2 3 4 5 6 
#
# 1 0.012121 -0.005594 -0.000556 0.000000 0.002724 0.000000
# 2 -0.005594 0.024882 -0.007025 0.000000 -0.003260 0.000002
# 3 -0.000556 -0.007025 0.013646 0.000000 0.004726 0.000000
# 4 0.000000 0.000000 0.000000 0.033784 0.000000 0.002465
# 5 0.002724 -0.003260 0.004726 0.000000 0.032469 0.000000
# 6 0.000000 0.000002 0.000000 0.002465 0.000000 0.028914
#
#
# Mechanical properties :
#
#
# Convention : Reuss Voigt Hill
#
# Bulk Modulus (GPa) = 41.14955 44.34882 42.74919
# Shear Modulus (GPa) = 27.73700 30.81507 29.27603
#
# Velocity S-wave (km/s) = 3.71589 3.91665 3.81759
# Velocity P-wave (km/s) = 6.23660 6.52157 6.38068
#
# Compressibility (1/GPa) = 0.02430160
#
# Stress axis : x y z
#
# Youngs Moduli (GPa) = 82.49952 40.18910 73.28240
#
# Poissons Ratio (x) = 0.22481 0.04072
# Poissons Ratio (y) = 0.46149 0.51477
# Poissons Ratio (z) = 0.04584 0.28231
#
# Static dielectric constant tensor:
#      x y z
#    x 3.668510 0.000000 -0.003110 
#    y 0.000000 3.648870 0.000000 
#    z -0.003110 0.000000 3.705370 
# 
# 
# High freq. dielectric constant tensor:
#      x y z
#    x 1.788420 0.000000 -0.004060 
#    y 0.000000 1.788520 0.000000 
#    z -0.004060 0.000000 1.797740 
# 
# From -- ./inp_files/319873.got.cif
#   From: 2010.06.25/outbox.cif.g09.slc.cpg/sg12_160_cif.got.tgz:319873.got - 2010.06.28 00:19:55.
