data_PCOD8111660
_publ_section_title
;
Structure prediction by ZEFSAII (Michael W. Deem and Ramdas Pophale) SiO2 
 PCOD8111660
Probable space group: C 2/M
;
_chemical_formula_sum "Si O2"
_cell_formula_units_Z 64
_cell_length_a 17.038486
_cell_length_b 14.116435
_cell_length_c 17.948946
_cell_angle_alpha 90.000000
_cell_angle_beta 40.976078
_cell_angle_gamma 90.000000
_cell_volume 2830.930602
_symmetry_space_group_name_H-M "C 2/M"
_symmetry_group_IT_number 12
_symmetry_cell_setting 'monoclinic'
loop_
_space_group_symop_operation_xyz
x,y,z
-x,y,-z
-x,-y,-z
x,-y,z
1/2+x,1/2+y,z
1/2-x,1/2+y,-z
1/2-x,1/2-y,-z
1/2+x,1/2-y,z
loop_
_atom_site_type_symbol
_atom_site_label
_atom_site_fract_x
_atom_site_fract_y
_atom_site_fract_z
Si Si1 0.316330 0.728990 0.240607
Si Si2 0.987531 0.106218 0.361364
Si Si3 0.792643 0.612046 0.984993
Si Si4 0.241560 0.677402 0.572534
Si Si5 0.978244 0.111615 0.833554
Si Si6 0.361854 0.896608 0.098027
Si Si7 0.487326 0.891682 0.730433
Si Si8 0.429450 0.211827 0.626243
O O1 0.244413 0.757862 0.365621
O O2 0.434490 0.666152 0.171122
O O3 0.344798 0.823347 0.176066
O O4 0.208280 0.673606 0.276044
O O5 0.851455 0.104750 0.487832
O O6 0.988666 0.140772 0.274387
O O7 0.068213 0.175607 0.354299
O O8 0.040581 0.000000 0.329093
O O9 0.807828 0.500000 0.976130
O O10 0.890916 0.655203 0.856989
O O11 0.659846 0.641545 0.052240
O O12 0.815804 0.648424 0.052580
O O13 0.250000 0.750000 0.500000
O O14 0.119424 0.618638 0.669234
O O15 0.996868 0.000000 0.833304
O O16 0.298707 0.000000 0.157299
O O17 0.500000 0.917742 0.000000
O O18 0.494901 0.841961 0.645583
O O19 0.453057 0.000000 0.742714
O O20 0.500000 0.190015 0.500000
#
# Coordination Sequence:
#
# PCOD8111660 Si02
#       8
#     8   8   8   8   8   8   8   8
#     4  12  24  39  66  95 134 174 214 271 344 392
#     4  11  23  42  68  94 129 180 226 269 332 392
#     4   9  20  43  69  96 132 172 227 278 319 391
#     4  12  21  42  64  94 137 172 221 277 315 391
#     4  10  22  42  69  98 130 176 228 274 320 389
#     4  10  22  40  64  98 135 167 211 273 335 395
#     4  11  24  43  71  98 128 179 222 265 331 393
#     4  12  25  44  61  95 139 167 212 281 328 398
#
# _framework density 22.607406999999998
#
# number of rings (size 3 to 8) (size 9 to 14) (size 15 to 20)
#    0.000    1.125    3.750    1.875    0.000    5.500 
#    0.000    3.750    0.000    2.625    0.000    0.875 
#    0.000    0.000    0.000    0.000    0.000    0.000 
#
# Total GULP energy -396686.636719 kJ/mol
# GULP energy per Si atom -12396.457397 kJ/mol
# Density = 2.255595 g / cm^3
# Si number density = 22.607407 Si / 1000 Ang^3
#
#
#
# Elastic Constant Matrix: (Units=GPa)
#
#
# Indices 1 2 3 4 5 6 
#
# 1 122.4887 29.8261 50.0102 0.0000 -22.2966 0.0000
# 2 29.8261 55.9370 32.9493 0.0000 6.0080 0.0000
# 3 50.0102 32.9493 119.2199 0.0000 -10.7514 0.0000
# 4 0.0000 0.0000 0.0000 31.8621 0.0000 -4.3570
# 5 -22.2966 6.0080 -10.7514 0.0000 50.1789 0.0000
# 6 0.0000 0.0000 0.0000 -4.3570 0.0000 31.3719
#
#
#
# Elastic Compliance Matrix: (Units=1/GPa)
#
#
# Indices 1 2 3 4 5 6 
#
# 1 0.011510 -0.004903 -0.003017 0.000000 0.005055 0.000000
# 2 -0.004903 0.024216 -0.005194 0.000000 -0.006191 0.000000
# 3 -0.003017 -0.005194 0.011242 0.000000 0.001690 0.000000
# 4 0.000000 0.000000 0.000000 0.031993 0.000000 0.004443
# 5 0.005055 -0.006191 0.001690 0.000000 0.023278 0.000000
# 6 0.000000 0.000000 0.000000 0.004443 0.000000 0.032493
#
#
# Mechanical properties :
#
#
# Convention : Reuss Voigt Hill
#
# Bulk Modulus (GPa) = 48.21928 58.13522 53.17725
# Shear Modulus (GPa) = 29.78440 35.00659 32.39549
#
# Velocity S-wave (km/s) = 3.63362 3.93931 3.78955
# Velocity P-wave (km/s) = 6.24336 6.81629 6.53611
#
# Compressibility (1/GPa) = 0.02073859
#
# Stress axis : x y z
#
# Youngs Moduli (GPa) = 86.88172 41.29476 88.95573
#
# Poissons Ratio (x) = 0.20246 0.26841
# Poissons Ratio (y) = 0.42596 0.46207
# Poissons Ratio (z) = 0.26215 0.21450
#
# Static dielectric constant tensor:
#      x y z
#    x 6.210840 0.000000 4.481900 
#    y 0.000000 3.843320 0.000000 
#    z 4.481900 0.000000 15.159120 
# 
# 
# High freq. dielectric constant tensor:
#      x y z
#    x 1.898940 0.000000 -0.010440 
#    y 0.000000 1.876790 0.000000 
#    z -0.010440 0.000000 1.901440 
# 
# From -- ./inp_files/278120.got.cif
#   From: 2010.06.25/outbox.cif.g09.slc.cpg/sg12_140_cif.got.tgz:278120.got - 2010.06.28 00:19:55.
