data_PCOD8111229
_publ_section_title
;
Structure prediction by ZEFSAII (Michael W. Deem and Ramdas Pophale) SiO2 
 PCOD8111229
Probable space group: C 2/M
;
_chemical_formula_sum "Si O2"
_cell_formula_units_Z 48
_cell_length_a 14.894248
_cell_length_b 10.544856
_cell_length_c 20.711332
_cell_angle_alpha 90.000000
_cell_angle_beta 136.756937
_cell_angle_gamma 90.000000
_cell_volume 2228.527179
_symmetry_space_group_name_H-M "C 2/M"
_symmetry_group_IT_number 12
_symmetry_cell_setting 'monoclinic'
loop_
_space_group_symop_operation_xyz
x,y,z
-x,y,-z
-x,-y,-z
x,-y,z
1/2+x,1/2+y,z
1/2-x,1/2+y,-z
1/2-x,1/2-y,-z
1/2+x,1/2-y,z
loop_
_atom_site_type_symbol
_atom_site_label
_atom_site_fract_x
_atom_site_fract_y
_atom_site_fract_z
Si Si1 0.950469 0.258811 0.118903
Si Si2 0.225129 0.000000 0.683285
Si Si3 0.000764 0.500000 0.226857
Si Si4 0.267626 0.853810 0.915464
Si Si5 0.883361 0.500000 0.583966
Si Si6 0.737282 0.749036 0.225481
Si Si7 0.502380 0.223047 0.577288
Si Si8 0.407170 0.500000 0.515843
O O1 0.940902 0.375821 0.163242
O O2 0.861950 0.151872 0.106885
O O3 0.096308 0.204453 0.180582
O O4 0.893138 0.305375 0.020868
O O5 0.229266 0.113062 0.733734
O O6 0.098049 0.000000 0.568130
O O7 0.344507 0.000000 0.698226
O O8 0.993131 0.500000 0.300404
O O9 0.260115 0.757375 0.850869
O O10 0.288587 0.000000 0.905466
O O11 0.892212 0.628939 0.547047
O O12 0.741422 0.500000 0.540390
O O13 0.858961 0.671336 0.319640
O O14 0.500000 0.204634 0.500000
O O15 0.472404 0.370985 0.579132
#
# Coordination Sequence:
#
# PCOD8111229 Si02
#       8
#     8   4   4   8   4   8   8   4
#     4  10  22  39  62  92 124 164 199 258 312 368
#     4   9  17  33  62  88 112 154 202 255 297 353
#     4   9  18  37  61  84 120 161 198 237 317 367
#     4  11  22  38  63  93 123 156 211 254 308 370
#     4  11  25  42  62  92 129 166 207 263 316 374
#     4  11  21  38  63  93 122 159 210 259 306 364
#     4  12  24  42  64  92 126 166 212 257 317 375
#     4  11  22  43  66  89 119 167 216 260 308 371
#
# _framework density 21.538888
#
# number of rings (size 3 to 8) (size 9 to 14) (size 15 to 20)
#    0.000    1.333    3.333    3.000    0.000    0.667 
#    4.500    0.000    0.000    2.000    0.000    0.000 
#    0.000    0.000    0.000    0.000    0.000    0.000 
#
# Total GULP energy -297362.866081 kJ/mol
# GULP energy per Si atom -12390.119420 kJ/mol
# Density = 2.148986 g / cm^3
# Si number density = 21.538888 Si / 1000 Ang^3
#
#
#
# Elastic Constant Matrix: (Units=GPa)
#
#
# Indices 1 2 3 4 5 6 
#
# 1 88.7009 26.1549 42.6420 0.0000 1.4925 0.0000
# 2 26.1549 70.5968 16.1021 0.0000 -2.0231 0.0000
# 3 42.6420 16.1021 135.5863 0.0000 -0.3358 0.0000
# 4 0.0000 0.0000 0.0000 13.4600 0.0000 10.0384
# 5 1.4925 -2.0231 -0.3358 0.0000 42.2853 0.0000
# 6 0.0000 0.0000 0.0000 10.0384 0.0000 14.2152
#
#
#
# Elastic Compliance Matrix: (Units=1/GPa)
#
#
# Indices 1 2 3 4 5 6 
#
# 1 0.014556 -0.004492 -0.004046 0.000000 -0.000761 0.000000
# 2 -0.004492 0.015965 -0.000481 0.000000 0.000919 0.000000
# 3 -0.004046 -0.000481 0.008706 0.000000 0.000189 0.000000
# 4 0.000000 0.000000 0.000000 0.156960 0.000000 -0.110842
# 5 -0.000761 0.000919 0.000189 0.000000 0.023721 0.000000
# 6 0.000000 0.000000 0.000000 -0.110842 0.000000 0.148621
#
#
# Mechanical properties :
#
#
# Convention : Reuss Voigt Hill
#
# Bulk Modulus (GPa) = 47.19527 51.63132 49.41329
# Shear Modulus (GPa) = 12.70223 27.99109 20.34666
#
# Velocity S-wave (km/s) = 2.43108 3.60885 3.07685
# Velocity P-wave (km/s) = 5.46255 6.43338 5.96774
#
# Compressibility (1/GPa) = 0.02118856
#
# Stress axis : x y z
#
# Youngs Moduli (GPa) = 68.69829 62.63651 114.86886
#
# Poissons Ratio (x) = 0.28135 0.46481
# Poissons Ratio (y) = 0.30858 0.05526
# Poissons Ratio (z) = 0.27798 0.03013
#
# Static dielectric constant tensor:
#      x y z
#    x 3.935160 0.000000 0.146230 
#    y 0.000000 2.352690 0.000000 
#    z 0.146230 0.000000 4.338070 
# 
# 
# High freq. dielectric constant tensor:
#      x y z
#    x 1.854490 0.000000 0.004450 
#    y 0.000000 1.817390 0.000000 
#    z 0.004450 0.000000 1.866090 
# 
# From -- ./inp_files/310319.got.cif
#   From: 2010.06.25/outbox.cif.g09.slc.cpg/sg12_156_cif.got.tgz:310319.got - 2010.06.28 00:19:55.
