data_PCOD8111087
_publ_section_title
;
Structure prediction by ZEFSAII (Michael W. Deem and Ramdas Pophale) SiO2 
 PCOD8111087
Probable space group: C 2/M
;
_chemical_formula_sum "Si O2"
_cell_formula_units_Z 56
_cell_length_a 18.894647
_cell_length_b 26.711578
_cell_length_c 6.638484
_cell_angle_alpha 90.000000
_cell_angle_beta 58.563235
_cell_angle_gamma 90.000000
_cell_volume 2858.685552
_symmetry_space_group_name_H-M "C 2/M"
_symmetry_group_IT_number 12
_symmetry_cell_setting 'monoclinic'
loop_
_space_group_symop_operation_xyz
x,y,z
-x,y,-z
-x,-y,-z
x,-y,z
1/2+x,1/2+y,z
1/2-x,1/2+y,-z
1/2-x,1/2-y,-z
1/2+x,1/2-y,z
loop_
_atom_site_type_symbol
_atom_site_label
_atom_site_fract_x
_atom_site_fract_y
_atom_site_fract_z
Si Si1 0.915251 0.723826 0.249903
Si Si2 0.091498 0.942101 0.833765
Si Si3 0.702774 0.392299 0.353262
Si Si4 0.257709 0.557508 0.103355
Si Si5 0.087790 0.192817 0.401574
Si Si6 0.802444 0.643913 0.563602
Si Si7 0.690036 0.271656 0.918712
O O1 0.920778 0.768839 0.400466
O O2 0.889932 0.673367 0.411092
O O3 0.836345 0.733561 0.219510
O O4 0.000000 0.715797 0.000000
O O5 0.127180 0.916470 0.584136
O O6 0.151463 0.932257 0.934773
O O7 0.082886 0.000000 0.797440
O O8 0.000000 0.918550 0.000000
O O9 0.666592 0.342750 0.306026
O O10 0.779050 0.377567 0.380276
O O11 0.736568 0.431797 0.141448
O O12 0.229838 0.500000 0.180910
O O13 0.189976 0.595426 0.301076
O O14 0.000000 0.164663 0.500000
O O15 0.103799 0.218793 0.162394
O O16 0.730222 0.679533 0.757816
O O17 0.750000 0.250000 0.000000
#
# Coordination Sequence:
#
# PCOD8111087 Si02
#       7
#     8   8   8   8   8   8   8
#     4  12  25  41  60  91 126 158 200 251 300 358
#     4   9  20  35  51  77 114 154 199 251 297 346
#     4  11  22  35  58  84 114 160 202 243 295 350
#     4  10  22  39  59  85 114 152 204 255 304 356
#     4  12  24  36  55  88 125 164 196 241 293 350
#     4  11  23  39  63  87 115 158 202 251 297 358
#     4  12  22  38  62  86 122 162 201 241 293 358
#
# _framework density 19.589423
#
# number of rings (size 3 to 8) (size 9 to 14) (size 15 to 20)
#    0.000    1.000    5.714    1.714    2.000    1.143 
#    0.000    2.143    0.000    0.429    0.000    1.000 
#    0.000    0.000    0.000    0.000    0.000    0.000 
#
# Total GULP energy -347074.176412 kJ/mol
# GULP energy per Si atom -12395.506300 kJ/mol
# Density = 1.954484 g / cm^3
# Si number density = 19.589423 Si / 1000 Ang^3
#
#
#
# Elastic Constant Matrix: (Units=GPa)
#
#
# Indices 1 2 3 4 5 6 
#
# 1 41.3528 20.9409 24.2025 0.0000 1.8677 0.0000
# 2 20.9409 93.5865 42.3078 0.0000 -0.8790 0.0000
# 3 24.2025 42.3078 101.9278 0.0000 1.6378 0.0000
# 4 0.0000 0.0000 0.0000 38.2768 0.0000 0.1242
# 5 1.8677 -0.8790 1.6378 0.0000 31.3231 0.0000
# 6 0.0000 0.0000 0.0000 0.1242 0.0000 22.1062
#
#
#
# Elastic Compliance Matrix: (Units=1/GPa)
#
#
# Indices 1 2 3 4 5 6 
#
# 1 0.029453 -0.004254 -0.005202 0.000000 -0.001604 0.000000
# 2 -0.004254 0.013781 -0.004724 0.000000 0.000887 0.000000
# 3 -0.005202 -0.004724 0.013015 0.000000 -0.000503 0.000000
# 4 0.000000 0.000000 0.000000 0.026126 0.000000 -0.000147
# 5 -0.001604 0.000887 -0.000503 0.000000 0.032072 0.000000
# 6 0.000000 0.000000 0.000000 -0.000147 0.000000 0.045237
#
#
# Mechanical properties :
#
#
# Convention : Reuss Voigt Hill
#
# Bulk Modulus (GPa) = 35.85654 45.75215 40.80434
# Shear Modulus (GPa) = 25.33671 28.30228 26.81949
#
# Velocity S-wave (km/s) = 3.60027 3.80514 3.70412
# Velocity P-wave (km/s) = 5.96878 6.53542 6.25852
#
# Compressibility (1/GPa) = 0.02788892
#
# Stress axis : x y z
#
# Youngs Moduli (GPa) = 33.95198 72.56228 76.83313
#
# Poissons Ratio (x) = 0.30866 0.39970
# Poissons Ratio (y) = 0.14442 0.36300
# Poissons Ratio (z) = 0.17663 0.34282
#
# Static dielectric constant tensor:
#      x y z
#    x 3.347630 0.000000 0.064990 
#    y 0.000000 3.618110 0.000000 
#    z 0.064990 0.000000 3.931600 
# 
# 
# High freq. dielectric constant tensor:
#      x y z
#    x 1.733960 0.000000 0.015890 
#    y 0.000000 1.756420 0.000000 
#    z 0.015890 0.000000 1.781070 
# 
# From -- ./inp_files/17643.got.cif
#   From: 2010.06.25/outbox.cif.g09.slc.cpg/sg12_9_cif.got.tgz:17643.got - 2010.06.28 00:19:55.
