data_PCOD8111286
_publ_section_title
;
Structure prediction by ZEFSAII (Michael W. Deem and Ramdas Pophale) SiO2 
 PCOD8111286
Probable space group: C 2/M
;
_chemical_formula_sum "Si O2"
_cell_formula_units_Z 48
_cell_length_a 17.094767
_cell_length_b 21.200651
_cell_length_c 8.604278
_cell_angle_alpha 90.000000
_cell_angle_beta 133.394142
_cell_angle_gamma 90.000000
_cell_volume 2265.943390
_symmetry_space_group_name_H-M "C 2/M"
_symmetry_group_IT_number 12
_symmetry_cell_setting 'monoclinic'
loop_
_space_group_symop_operation_xyz
x,y,z
-x,y,-z
-x,-y,-z
x,-y,z
1/2+x,1/2+y,z
1/2-x,1/2+y,-z
1/2-x,1/2-y,-z
1/2+x,1/2-y,z
loop_
_atom_site_type_symbol
_atom_site_label
_atom_site_fract_x
_atom_site_fract_y
_atom_site_fract_z
Si Si1 0.920948 0.233170 0.523021
Si Si2 0.431415 0.666611 0.048649
Si Si3 0.748955 0.571604 0.212939
Si Si4 0.376466 0.139689 0.641671
Si Si5 0.684058 0.202669 0.132498
Si Si6 0.073177 0.623596 0.741410
O O1 0.890273 0.289726 0.595573
O O2 0.812425 0.205161 0.301838
O O3 0.000000 0.259228 0.500000
O O4 0.984672 0.178198 0.698943
O O5 0.500000 0.639668 0.000000
O O6 0.348843 0.612308 0.989721
O O7 0.368311 0.729481 0.905713
O O8 0.712926 0.500000 0.191785
O O9 0.781800 0.602662 0.423365
O O10 0.846731 0.571163 0.219974
O O11 0.351551 0.149573 0.789174
O O12 0.489263 0.101397 0.762929
O O13 0.644932 0.180624 0.908678
O O14 0.000000 0.649316 0.500000
#
# Coordination Sequence:
#
# PCOD8111286 Si02
#       6
#     8   8   8   8   8   8
#     4  12  23  35  60 101 132 164 206 263 333 382
#     4  12  23  38  64  94 132 169 210 266 325 386
#     4  11  25  43  62  90 133 182 219 251 307 389
#     4  11  21  38  63  98 125 167 208 270 329 375
#     4  12  22  39  65  98 135 158 206 278 339 377
#     4  10  22  39  64  94 123 163 209 270 321 377
#
# _framework density 21.183229000000001
#
# number of rings (size 3 to 8) (size 9 to 14) (size 15 to 20)
#    0.000    0.667    5.000    4.500    0.000    4.667 
#    0.000    0.833    0.000    9.500    0.000    0.000 
#    0.000    0.000    0.000    0.000    0.000    0.000 
#
# Total GULP energy -297436.506062 kJ/mol
# GULP energy per Si atom -12393.187753 kJ/mol
# Density = 2.113502 g / cm^3
# Si number density = 21.183229 Si / 1000 Ang^3
#
#
#
# Elastic Constant Matrix: (Units=GPa)
#
#
# Indices 1 2 3 4 5 6 
#
# 1 85.7906 18.9455 32.2406 0.0000 10.5926 0.0000
# 2 18.9455 96.8585 42.6637 0.0000 4.8162 0.0000
# 3 32.2406 42.6637 123.7898 0.0000 23.8338 0.0000
# 4 0.0000 0.0000 0.0000 13.8963 0.0000 -0.4970
# 5 10.5926 4.8162 23.8338 0.0000 34.9339 0.0000
# 6 0.0000 0.0000 0.0000 -0.4970 0.0000 14.6515
#
#
#
# Elastic Compliance Matrix: (Units=1/GPa)
#
#
# Indices 1 2 3 4 5 6 
#
# 1 0.013173 -0.001341 -0.002573 0.000000 -0.002054 0.000000
# 2 -0.001341 0.012365 -0.004216 0.000000 0.001578 0.000000
# 3 -0.002573 -0.004216 0.011442 0.000000 -0.006445 0.000000
# 4 0.000000 0.000000 0.000000 0.072049 0.000000 0.002444
# 5 -0.002054 0.001578 -0.006445 0.000000 0.033428 0.000000
# 6 0.000000 0.000000 0.000000 0.002444 0.000000 0.068335
#
#
# Mechanical properties :
#
#
# Convention : Reuss Voigt Hill
#
# Bulk Modulus (GPa) = 48.26350 54.90430 51.58390
# Shear Modulus (GPa) = 21.37112 26.86896 24.12004
#
# Velocity S-wave (km/s) = 3.17972 3.56533 3.37803
# Velocity P-wave (km/s) = 6.02612 6.55163 6.29436
#
# Compressibility (1/GPa) = 0.02071959
#
# Stress axis : x y z
#
# Youngs Moduli (GPa) = 75.91246 80.87122 87.39397
#
# Poissons Ratio (x) = 0.10845 0.22489
# Poissons Ratio (y) = 0.10180 0.36848
# Poissons Ratio (z) = 0.19534 0.34098
#
# Static dielectric constant tensor:
#      x y z
#    x 4.324320 0.000000 -0.040980 
#    y 0.000000 3.243320 0.000000 
#    z -0.040980 0.000000 4.182740 
# 
# 
# High freq. dielectric constant tensor:
#      x y z
#    x 1.840350 0.000000 0.010060 
#    y 0.000000 1.772120 0.000000 
#    z 0.010060 0.000000 1.839970 
# 
# From -- ./inp_files/77699.got.cif
#   From: 2010.06.25/outbox.cif.g09.slc.cpg/sg12_39_cif.got.tgz:77699.got - 2010.06.28 00:19:55.
