data_PCOD8111543
_publ_section_title
;
Structure prediction by ZEFSAII (Michael W. Deem and Ramdas Pophale) SiO2 
 PCOD8111543
Probable space group: C 2/M
;
_chemical_formula_sum "Si O2"
_cell_formula_units_Z 56
_cell_length_a 9.717168
_cell_length_b 22.433842
_cell_length_c 16.037616
_cell_angle_alpha 90.000000
_cell_angle_beta 54.946140
_cell_angle_gamma 90.000000
_cell_volume 2861.946765
_symmetry_space_group_name_H-M "C 2/M"
_symmetry_group_IT_number 12
_symmetry_cell_setting 'monoclinic'
loop_
_space_group_symop_operation_xyz
x,y,z
-x,y,-z
-x,-y,-z
x,-y,z
1/2+x,1/2+y,z
1/2-x,1/2+y,-z
1/2-x,1/2-y,-z
1/2+x,1/2-y,z
loop_
_atom_site_type_symbol
_atom_site_label
_atom_site_fract_x
_atom_site_fract_y
_atom_site_fract_z
Si Si1 0.996939 0.136210 0.304338
Si Si2 0.054644 0.748773 0.573878
Si Si3 0.052446 0.190215 0.114483
Si Si4 0.767432 0.307681 0.885354
Si Si5 0.169714 0.432495 0.392299
Si Si6 0.160555 0.930337 0.386727
Si Si7 0.507497 0.871037 0.310312
O O1 0.014190 0.200521 0.340581
O O2 0.809294 0.111110 0.380910
O O3 0.039289 0.140302 0.191205
O O4 0.124665 0.090570 0.304686
O O5 0.250000 0.750000 0.500000
O O6 0.985791 0.686605 0.632361
O O7 0.000000 0.762356 0.500000
O O8 0.132628 0.248377 0.127206
O O9 0.868613 0.205341 0.140582
O O10 0.174117 0.165863 0.999214
O O11 0.906639 0.355608 0.807960
O O12 0.232532 0.500000 0.382852
O O13 0.000000 0.418608 0.500000
O O14 0.127567 0.420747 0.310144
O O15 0.319193 0.894457 0.366181
O O16 0.000000 0.914838 0.500000
O O17 0.202928 0.000000 0.373479
#
# Coordination Sequence:
#
# PCOD8111543 Si02
#       7
#     8   8   8   8   8   8   8
#     4  12  22  39  62  88 126 162 199 256 313 367
#     4  12  24  34  53  88 127 155 188 241 313 369
#     4  10  22  40  62  93 126 161 204 250 312 376
#     4  10  22  40  63  92 126 161 204 252 308 382
#     4  11  23  39  60  84 115 163 215 251 289 361
#     4  11  25  43  62  88 124 171 217 253 297 363
#     4  12  22  39  63  88 124 161 203 256 311 365
#
# _framework density 19.567101999999998
#
# number of rings (size 3 to 8) (size 9 to 14) (size 15 to 20)
#    0.000    0.857    2.857    6.000    2.000    2.286 
#    0.000    0.000    0.000    5.143    0.000    0.000 
#    0.000    0.000    0.000    0.000    0.000    0.000 
#
# Total GULP energy -347248.914136 kJ/mol
# GULP energy per Si atom -12401.746933 kJ/mol
# Density = 1.952257 g / cm^3
# Si number density = 19.567102 Si / 1000 Ang^3
#
#
#
# Elastic Constant Matrix: (Units=GPa)
#
#
# Indices 1 2 3 4 5 6 
#
# 1 119.4697 39.7890 30.8041 0.0000 10.9724 0.0000
# 2 39.7890 86.0837 46.1296 0.0000 0.7597 0.0000
# 3 30.8041 46.1296 102.4951 0.0000 10.5552 0.0000
# 4 0.0000 0.0000 0.0000 19.0268 0.0000 0.6355
# 5 10.9724 0.7597 10.5552 0.0000 32.3223 0.0000
# 6 0.0000 0.0000 0.0000 0.6355 0.0000 25.0535
#
#
#
# Elastic Compliance Matrix: (Units=1/GPa)
#
#
# Indices 1 2 3 4 5 6 
#
# 1 0.010301 -0.004279 -0.000849 0.000000 -0.003119 0.000000
# 2 -0.004279 0.017206 -0.006795 0.000000 0.003267 0.000000
# 3 -0.000849 -0.006795 0.013477 0.000000 -0.003953 0.000000
# 4 0.000000 0.000000 0.000000 0.052602 0.000000 -0.001334
# 5 -0.003119 0.003267 -0.003953 0.000000 0.033211 0.000000
# 6 0.000000 0.000000 0.000000 -0.001334 0.000000 0.039948
#
#
# Mechanical properties :
#
#
# Convention : Reuss Voigt Hill
#
# Bulk Modulus (GPa) = 58.34428 60.16599 59.25513
# Shear Modulus (GPa) = 25.47079 28.03556 26.75318
#
# Velocity S-wave (km/s) = 3.61184 3.78933 3.70165
# Velocity P-wave (km/s) = 6.87577 7.06828 6.97269
#
# Compressibility (1/GPa) = 0.01713964
#
# Stress axis : x y z
#
# Youngs Moduli (GPa) = 97.08118 58.11777 74.20158
#
# Poissons Ratio (x) = 0.24867 0.06299
# Poissons Ratio (y) = 0.41538 0.50417
# Poissons Ratio (z) = 0.08241 0.39488
#
# Static dielectric constant tensor:
#      x y z
#    x 3.724960 0.000000 0.140220 
#    y 0.000000 3.594970 0.000000 
#    z 0.140220 0.000000 3.390960 
# 
# 
# High freq. dielectric constant tensor:
#      x y z
#    x 1.782220 0.000000 0.005870 
#    y 0.000000 1.747480 0.000000 
#    z 0.005870 0.000000 1.757180 
# 
# From -- ./inp_files/198804.got.cif
#   From: 2010.06.25/outbox.cif.g09.slc.cpg/sg12_100_cif.got.tgz:198804.got - 2010.06.28 00:19:55.
