data_PCOD8111649
_publ_section_title
;
Structure prediction by ZEFSAII (Michael W. Deem and Ramdas Pophale) SiO2 
 PCOD8111649
Probable space group: C 2/M
;
_chemical_formula_sum "Si O2"
_cell_formula_units_Z 56
_cell_length_a 17.157655
_cell_length_b 26.962096
_cell_length_c 12.568966
_cell_angle_alpha 90.000000
_cell_angle_beta 28.957879
_cell_angle_gamma 90.000000
_cell_volume 2815.178137
_symmetry_space_group_name_H-M "C 2/M"
_symmetry_group_IT_number 12
_symmetry_cell_setting 'monoclinic'
loop_
_space_group_symop_operation_xyz
x,y,z
-x,y,-z
-x,-y,-z
x,-y,z
1/2+x,1/2+y,z
1/2-x,1/2+y,-z
1/2-x,1/2-y,-z
1/2+x,1/2-y,z
loop_
_atom_site_type_symbol
_atom_site_label
_atom_site_fract_x
_atom_site_fract_y
_atom_site_fract_z
Si Si1 0.237658 0.803631 0.967004
Si Si2 0.945621 0.352588 0.331180
Si Si3 0.465179 0.350836 0.416799
Si Si4 0.390290 0.552012 0.729478
Si Si5 0.649060 0.797017 0.749224
Si Si6 0.034374 0.557870 0.082783
Si Si7 0.684635 0.311246 0.784128
O O1 0.377182 0.842574 0.832745
O O2 0.236537 0.801065 0.841952
O O3 0.250000 0.750000 0.000000
O O4 0.065034 0.816899 0.219375
O O5 0.907248 0.305169 0.303672
O O6 0.935514 0.404850 0.278777
O O7 0.806025 0.352016 0.588696
O O8 0.500000 0.343528 0.500000
O O9 0.517790 0.405811 0.313665
O O10 0.280700 0.338499 0.619485
O O11 0.500000 0.539548 0.500000
O O12 0.371810 0.500000 0.817556
O O13 0.219456 0.569923 0.887618
O O14 0.705833 0.740637 0.696201
O O15 0.500000 0.810534 0.000000
O O16 0.990883 0.500000 0.159246
O O17 0.000000 0.569814 0.000000
O O18 0.500000 0.330454 0.000000
#
# Coordination Sequence:
#
# PCOD8111649 Si02
#       7
#     8   8   8   8   8   8   8
#     4  12  23  38  60  88 120 160 204 253 305 362
#     4  12  23  39  63  90 121 164 206 257 308 369
#     4  11  21  35  56  87 117 155 197 245 303 361
#     4   9  19  35  55  84 124 156 191 240 304 367
#     4  11  23  38  59  86 123 161 206 250 302 367
#     4  10  22  40  64  95 128 161 201 254 316 378
#     4  11  24  43  59  84 123 168 210 254 301 361
#
# _framework density 19.892168000000002
#
# number of rings (size 3 to 8) (size 9 to 14) (size 15 to 20)
#    0.000    1.143    1.429    6.429    6.000    0.000 
#    0.000    0.000    0.000    3.429    0.000    0.000 
#    0.000    0.000    0.000    0.000    0.000    0.000 
#
# Total GULP energy -346945.431130 kJ/mol
# GULP energy per Si atom -12390.908255 kJ/mol
# Density = 1.984689 g / cm^3
# Si number density = 19.892168 Si / 1000 Ang^3
#
#
#
# Elastic Constant Matrix: (Units=GPa)
#
#
# Indices 1 2 3 4 5 6 
#
# 1 66.7136 24.8989 36.0853 0.2931 6.2616 -0.0551
# 2 24.8989 117.0981 52.2583 0.0850 2.3308 -0.0233
# 3 36.0853 52.2583 127.0281 -0.0458 -2.3528 0.0565
# 4 0.2931 0.0850 -0.0458 -7.7140 -0.0236 7.6342
# 5 6.2616 2.3308 -2.3528 -0.0236 38.5387 -0.0231
# 6 -0.0551 -0.0233 0.0565 7.6342 -0.0231 26.5603
#
#
#
# Elastic Compliance Matrix: (Units=1/GPa)
#
#
# Indices 1 2 3 4 5 6 
#
# 1 0.018421 -0.001829 -0.004539 0.000591 -0.003159 -0.000126
# 2 -0.001829 0.010673 -0.003882 0.000067 -0.000585 -0.000006
# 3 -0.004539 -0.003882 0.010789 -0.000248 0.001631 0.000037
# 4 0.000591 0.000067 -0.000248 -0.100905 -0.000160 0.029005
# 5 -0.003159 -0.000585 0.001631 -0.000160 0.026596 0.000058
# 6 -0.000126 -0.000006 0.000037 0.029005 0.000058 0.029313
#
#
# Mechanical properties :
#
#
# Convention : Reuss Voigt Hill
#
# Bulk Modulus (GPa) = 51.59125 59.70275 55.64700
# Shear Modulus (GPa) = 228.86413 24.65016 126.75714
#
# Velocity S-wave (km/s) = 10.73788 3.52403 7.99127
# Velocity P-wave (km/s) = 13.40627 6.82911 10.63872
#
# Compressibility (1/GPa) = 0.01938313
#
# Stress axis : x y z
#
# Youngs Moduli (GPa) = 54.28642 93.69641 92.68961
#
# Poissons Ratio (x) = 0.17136 0.42069
# Poissons Ratio (y) = 0.09929 0.35982
# Poissons Ratio (z) = 0.24639 0.36373
#
# Static dielectric constant tensor:
#      x y z
#    x 3.604670 -0.000240 -0.166570 
#    y -0.000240 3.567950 0.000370 
#    z -0.166570 0.000370 3.756820 
# 
# 
# High freq. dielectric constant tensor:
#      x y z
#    x 1.761850 0.000000 -0.016560 
#    y 0.000000 1.772290 0.000000 
#    z -0.016560 0.000000 1.785240 
# 
# From -- ./inp_files/53191.got.cif
#   From: 2010.06.25/outbox.cif.g09.slc.cpg/sg12_27_cif.got.tgz:53191.got - 2010.06.28 00:19:55.
