data_PCOD8111627
_publ_section_title
;
Structure prediction by ZEFSAII (Michael W. Deem and Ramdas Pophale) SiO2 
 PCOD8111627
Probable space group: C 2/M
;
_chemical_formula_sum "Si O2"
_cell_formula_units_Z 56
_cell_length_a 9.100814
_cell_length_b 22.293022
_cell_length_c 14.018450
_cell_angle_alpha 90.000000
_cell_angle_beta 69.324654
_cell_angle_gamma 90.000000
_cell_volume 2660.955158
_symmetry_space_group_name_H-M "C 2/M"
_symmetry_group_IT_number 12
_symmetry_cell_setting 'monoclinic'
loop_
_space_group_symop_operation_xyz
x,y,z
-x,y,-z
-x,-y,-z
x,-y,z
1/2+x,1/2+y,z
1/2-x,1/2+y,-z
1/2-x,1/2-y,-z
1/2+x,1/2-y,z
loop_
_atom_site_type_symbol
_atom_site_label
_atom_site_fract_x
_atom_site_fract_y
_atom_site_fract_z
Si Si1 0.343436 0.158648 0.591282
Si Si2 0.902485 0.068462 0.427802
Si Si3 0.063965 0.635651 0.229772
Si Si4 0.604775 0.069369 0.888678
Si Si5 0.293935 0.226550 0.274234
Si Si6 0.884053 0.817892 0.115353
Si Si7 0.909094 0.129934 0.767263
O O1 0.500000 0.177358 0.500000
O O2 0.238161 0.116983 0.546433
O O3 0.382148 0.118131 0.675964
O O4 0.252445 0.219803 0.642633
O O5 0.000000 0.082315 0.500000
O O6 0.019038 0.076418 0.311824
O O7 0.838007 0.000000 0.443014
O O8 0.217712 0.650461 0.130128
O O9 0.975410 0.582296 0.195551
O O10 0.948659 0.692220 0.275161
O O11 0.764974 0.105442 0.861679
O O12 0.641302 0.000000 0.888617
O O13 0.500000 0.092217 0.000000
O O14 0.341132 0.250647 0.157813
O O15 0.145527 0.182939 0.291857
O O16 0.959589 0.849091 0.189883
O O17 0.000000 0.818611 0.000000
#
# Coordination Sequence:
#
# PCOD8111627 Si02
#       7
#     8   8   8   8   8   8   8
#     4  11  25  43  66  97 127 165 209 269 324 378
#     4  11  26  47  69  94 124 169 217 262 326 390
#     4  10  22  41  60  93 132 166 212 261 320 378
#     4  10  22  40  64  92 123 170 226 268 313 374
#     4  10  23  40  62  94 133 169 212 252 318 388
#     4  11  21  36  61  95 131 167 207 254 314 375
#     4  11  22  43  64  90 134 170 209 265 316 384
#
# _framework density 21.045074
#
# number of rings (size 3 to 8) (size 9 to 14) (size 15 to 20)
#    0.000    1.429    2.857    3.000    4.000    6.571 
#    0.000    0.000    0.000    3.000    0.000    0.000 
#    0.000    0.000    0.000    0.000    0.000    0.000 
#
# Total GULP energy -347115.213560 kJ/mol
# GULP energy per Si atom -12396.971913 kJ/mol
# Density = 2.099717 g / cm^3
# Si number density = 21.045074 Si / 1000 Ang^3
#
#
#
# Elastic Constant Matrix: (Units=GPa)
#
#
# Indices 1 2 3 4 5 6 
#
# 1 112.1464 40.7037 29.2917 0.0000 -11.5098 0.0000
# 2 40.7037 89.6155 28.3370 0.0000 -9.7498 0.0000
# 3 29.2917 28.3370 102.6347 0.0000 -18.2371 0.0000
# 4 0.0000 0.0000 0.0000 23.3466 0.0000 11.3505
# 5 -11.5098 -9.7498 -18.2371 0.0000 35.1430 0.0000
# 6 0.0000 0.0000 0.0000 11.3505 0.0000 -2.6535
#
#
#
# Elastic Compliance Matrix: (Units=1/GPa)
#
#
# Indices 1 2 3 4 5 6 
#
# 1 0.011091 -0.004333 -0.001693 0.000000 0.001552 0.000000
# 2 -0.004333 0.014024 -0.002419 0.000000 0.001216 0.000000
# 3 -0.001693 -0.002419 0.011761 0.000000 0.004878 0.000000
# 4 0.000000 0.000000 0.000000 0.013908 0.000000 0.059494
# 5 0.001552 0.001216 0.004878 0.000000 0.031832 0.000000
# 6 0.000000 0.000000 0.000000 0.059494 0.000000 -0.122371
#
#
# Mechanical properties :
#
#
# Convention : Reuss Voigt Hill
#
# Bulk Modulus (GPa) = 50.03780 55.67351 52.85566
# Shear Modulus (GPa) = -308.63267 24.90484 -141.86392
#
# Velocity S-wave (km/s) = -12.12318 3.44380 -8.21924
# Velocity P-wave (km/s) = 13.11998 6.50575 8.05634
#
# Compressibility (1/GPa) = 0.01998489
#
# Stress axis : x y z
#
# Youngs Moduli (GPa) = 90.16110 71.30467 85.02544
#
# Poissons Ratio (x) = 0.30900 0.14397
# Poissons Ratio (y) = 0.39071 0.20569
# Poissons Ratio (z) = 0.15267 0.17250
#
# Static dielectric constant tensor:
#      x y z
#    x 3.990820 0.000000 -0.164710 
#    y 0.000000 3.610400 0.000000 
#    z -0.164710 0.000000 4.120990 
# 
# 
# High freq. dielectric constant tensor:
#      x y z
#    x 1.843810 0.000000 -0.010120 
#    y 0.000000 1.808020 0.000000 
#    z -0.010120 0.000000 1.823480 
# 
# From -- ./inp_files/198342.got.cif
#   From: 2010.06.25/outbox.cif.g09.slc.cpg/sg12_100_cif.got.tgz:198342.got - 2010.06.28 00:19:55.
