data_PCOD8111106
_publ_section_title
;
Structure prediction by ZEFSAII (Michael W. Deem and Ramdas Pophale) SiO2 
 PCOD8111106
Probable space group: C 2/M
;
_chemical_formula_sum "Si O2"
_cell_formula_units_Z 64
_cell_length_a 29.494253
_cell_length_b 16.995644
_cell_length_c 22.473298
_cell_angle_alpha 90.000000
_cell_angle_beta 163.149036
_cell_angle_gamma 90.000000
_cell_volume 3265.614356
_symmetry_space_group_name_H-M "C 2/M"
_symmetry_group_IT_number 12
_symmetry_cell_setting 'monoclinic'
loop_
_space_group_symop_operation_xyz
x,y,z
-x,y,-z
-x,-y,-z
x,-y,z
1/2+x,1/2+y,z
1/2-x,1/2+y,-z
1/2-x,1/2-y,-z
1/2+x,1/2-y,z
loop_
_atom_site_type_symbol
_atom_site_label
_atom_site_fract_x
_atom_site_fract_y
_atom_site_fract_z
Si Si1 0.451328 0.587730 0.607606
Si Si2 0.296633 0.799340 0.190365
Si Si3 0.954723 0.088461 0.142514
Si Si4 0.238822 0.677799 0.030814
Si Si5 0.857607 0.316599 0.401830
Si Si6 0.184079 0.801265 0.364254
Si Si7 0.163678 0.694758 0.228715
Si Si8 0.073045 0.407835 0.398577
O O1 0.456410 0.500000 0.588239
O O2 0.449864 0.587848 0.676983
O O3 0.597384 0.632197 0.762308
O O4 0.285825 0.624259 0.382839
O O5 0.208290 0.718010 0.058525
O O6 0.296196 0.828985 0.257985
O O7 0.469099 0.781144 0.382832
O O8 0.215762 0.874514 0.056817
O O9 0.036485 0.145577 0.197458
O O10 0.938292 0.000000 0.096158
O O11 0.250000 0.750000 0.000000
O O12 0.101815 0.619782 0.837737
O O13 0.730841 0.258918 0.268736
O O14 0.875290 0.392646 0.467550
O O15 0.250000 0.750000 0.500000
O O16 0.130366 0.737195 0.249076
O O17 0.315410 0.859913 0.505072
O O18 0.000000 0.660210 0.000000
O O19 0.087909 0.500000 0.404299
#
# Coordination Sequence:
#
# PCOD8111106 Si02
#       8
#     8   8   8   8   8   8   8   8
#     4  11  22  37  59  88 122 155 192 255 313 354
#     4  11  21  36  64  89 120 164 204 250 295 359
#     4  11  22  36  57  91 125 154 196 247 304 359
#     4  12  19  38  63  91 120 159 212 252 299 361
#     4  10  22  39  59  90 122 160 207 246 299 363
#     4  11  21  39  62  88 117 162 206 249 296 360
#     4  11  22  40  62  86 115 158 207 249 298 363
#     4  11  23  38  61  93 130 164 198 253 313 365
#
# _framework density 19.598151000000001
#
# number of rings (size 3 to 8) (size 9 to 14) (size 15 to 20)
#    0.000    1.000    5.000    3.000    0.000    2.250 
#    0.000    1.250    0.000    6.375    0.000    0.000 
#    0.000    0.000    0.000    0.000    0.000    0.000 
#
# Total GULP energy -396534.181052 kJ/mol
# GULP energy per Si atom -12391.693158 kJ/mol
# Density = 1.955354 g / cm^3
# Si number density = 19.598151 Si / 1000 Ang^3
#
#
#
# Elastic Constant Matrix: (Units=GPa)
#
#
# Indices 1 2 3 4 5 6 
#
# 1 79.2219 37.4749 30.8383 -0.0057 -8.0867 -0.0032
# 2 37.4749 135.3313 57.5901 -0.0054 -11.7057 -0.0041
# 3 30.8383 57.5901 130.0546 -0.0088 -7.5115 -0.0076
# 4 -0.0057 -0.0054 -0.0088 27.5399 -0.0063 5.5424
# 5 -8.0867 -11.7057 -7.5115 -0.0063 22.8333 -0.0047
# 6 -0.0032 -0.0041 -0.0076 5.5424 -0.0047 25.2986
#
#
#
# Elastic Compliance Matrix: (Units=1/GPa)
#
#
# Indices 1 2 3 4 5 6 
#
# 1 0.015193 -0.003056 -0.002068 0.000002 0.003134 0.000001
# 2 -0.003056 0.009987 -0.003532 0.000001 0.002876 0.000001
# 3 -0.002068 -0.003532 0.009782 0.000002 0.000675 0.000002
# 4 0.000002 0.000001 0.000002 0.037986 0.000011 -0.008322
# 5 0.003134 0.002876 0.000675 0.000011 0.046602 0.000007
# 6 0.000001 0.000001 0.000002 -0.008322 0.000007 0.041351
#
#
# Mechanical properties :
#
#
# Convention : Reuss Voigt Hill
#
# Bulk Modulus (GPa) = 56.65468 66.26827 61.46147
# Shear Modulus (GPa) = 27.15948 29.71465 28.43706
#
# Velocity S-wave (km/s) = 3.72670 3.89806 3.81334
# Velocity P-wave (km/s) = 6.89120 7.35845 7.12865
#
# Compressibility (1/GPa) = 0.01765079
#
# Stress axis : x y z
#
# Youngs Moduli (GPa) = 65.81797 100.12820 102.22407
#
# Poissons Ratio (x) = 0.30599 0.21144
# Poissons Ratio (y) = 0.20114 0.36103
# Poissons Ratio (z) = 0.13614 0.35363
#
# Static dielectric constant tensor:
#      x y z
#    x 4.057520 -0.000320 -0.215660 
#    y -0.000320 2.505370 0.000200 
#    z -0.215660 0.000200 3.668300 
# 
# 
# High freq. dielectric constant tensor:
#      x y z
#    x 1.761650 0.000000 0.001960 
#    y 0.000000 1.752940 0.000000 
#    z 0.001960 0.000000 1.775180 
# 
# From -- ./inp_files/328643.got.cif
#   From: 2010.06.25/outbox.cif.g09.slc.cpg/sg12_165_cif.got.tgz:328643.got - 2010.06.28 00:19:55.
