data_PCOD8111864
_publ_section_title
;
Structure prediction by ZEFSAII (Michael W. Deem and Ramdas Pophale) SiO2 
 PCOD8111864
Probable space group: C 2/M
;
_chemical_formula_sum "Si O2"
_cell_formula_units_Z 56
_cell_length_a 20.370405
_cell_length_b 22.568773
_cell_length_c 18.310343
_cell_angle_alpha 90.000000
_cell_angle_beta 161.531706
_cell_angle_gamma 90.000000
_cell_volume 2666.622955
_symmetry_space_group_name_H-M "C 2/M"
_symmetry_group_IT_number 12
_symmetry_cell_setting 'monoclinic'
loop_
_space_group_symop_operation_xyz
x,y,z
-x,y,-z
-x,-y,-z
x,-y,z
1/2+x,1/2+y,z
1/2-x,1/2+y,-z
1/2-x,1/2-y,-z
1/2+x,1/2-y,z
loop_
_atom_site_type_symbol
_atom_site_label
_atom_site_fract_x
_atom_site_fract_y
_atom_site_fract_z
Si Si1 0.602637 0.234420 0.032751
Si Si2 0.192647 0.760509 0.521582
Si Si3 0.932377 0.326583 0.344505
Si Si4 0.037111 0.119985 0.338423
Si Si5 0.972308 0.433723 0.803653
Si Si6 0.293681 0.931159 0.101306
Si Si7 0.325661 0.613128 0.259479
O O1 0.718642 0.289751 0.117481
O O2 0.772780 0.181829 0.220699
O O3 0.500000 0.254580 0.000000
O O4 0.407989 0.213714 0.780009
O O5 0.250000 0.750000 0.500000
O O6 0.011216 0.809627 0.326037
O O7 0.108007 0.705141 0.479742
O O8 0.896534 0.392342 0.274173
O O9 0.000000 0.332227 0.500000
O O10 0.279120 0.109033 0.595699
O O11 0.923094 0.091826 0.286418
O O12 0.937117 0.095117 0.157842
O O13 0.888939 0.500000 0.721376
O O14 0.088036 0.422675 0.849629
O O15 0.104452 0.420356 0.017664
O O16 0.284125 0.000000 0.116045
O O17 0.500000 0.590374 0.500000
#
# Coordination Sequence:
#
# PCOD8111864 Si02
#       7
#     8   8   8   8   8   8   8
#     4  12  23  41  63  94 135 175 211 264 339 405
#     4  12  24  37  65 100 131 167 215 272 336 403
#     4  12  25  43  66 100 137 174 220 277 338 403
#     4  11  21  40  64  92 126 168 217 273 331 390
#     4  10  22  41  63  89 125 173 222 271 325 388
#     4  10  24  44  67  93 127 171 225 279 327 390
#     4  11  23  37  60  92 129 171 215 265 332 396
#
# _framework density 21.000343999999998
#
# number of rings (size 3 to 8) (size 9 to 14) (size 15 to 20)
#    0.000    0.857    4.286    3.429    2.000    2.286 
#    0.000    0.714    0.000    0.429    0.000    0.000 
#    0.000    0.000    0.000    0.000    0.000    0.000 
#
# Total GULP energy -346875.162639 kJ/mol
# GULP energy per Si atom -12388.398666 kJ/mol
# Density = 2.095255 g / cm^3
# Si number density = 21.000344 Si / 1000 Ang^3
#
#
#
# Elastic Constant Matrix: (Units=GPa)
#
#
# Indices 1 2 3 4 5 6 
#
# 1 96.1508 35.8067 42.3984 -0.0037 -13.6200 -0.0007
# 2 35.8067 110.1483 43.8343 0.0008 -12.7532 0.0006
# 3 42.3984 43.8343 110.5899 -0.0105 -8.4665 -0.0019
# 4 -0.0037 0.0008 -0.0105 26.3614 -0.0060 -4.9667
# 5 -13.6200 -12.7532 -8.4665 -0.0060 31.0222 -0.0008
# 6 -0.0007 0.0006 -0.0019 -4.9667 -0.0008 26.0810
#
#
#
# Elastic Compliance Matrix: (Units=1/GPa)
#
#
# Indices 1 2 3 4 5 6 
#
# 1 0.013591 -0.002388 -0.003965 0.000001 0.003903 0.000001
# 2 -0.002388 0.011547 -0.003450 -0.000002 0.002757 -0.000001
# 3 -0.003965 -0.003450 0.011938 0.000005 0.000099 0.000002
# 4 0.000001 -0.000002 0.000005 0.039346 0.000009 0.007493
# 5 0.003903 0.002757 0.000099 0.000009 0.035109 0.000003
# 6 0.000001 -0.000001 0.000002 0.007493 0.000003 0.039769
#
#
# Mechanical properties :
#
#
# Convention : Reuss Voigt Hill
#
# Bulk Modulus (GPa) = 57.24536 62.32976 59.78756
# Shear Modulus (GPa) = 28.29171 29.68290 28.98730
#
# Velocity S-wave (km/s) = 3.67441 3.76366 3.71930
# Velocity P-wave (km/s) = 6.73202 6.97364 6.85390
#
# Compressibility (1/GPa) = 0.01746866
#
# Stress axis : x y z
#
# Youngs Moduli (GPa) = 73.57774 86.60018 83.76791
#
# Poissons Ratio (x) = 0.20683 0.33215
# Poissons Ratio (y) = 0.17572 0.28902
# Poissons Ratio (z) = 0.29175 0.29880
#
# Static dielectric constant tensor:
#      x y z
#    x 4.246660 -0.000060 -0.343140 
#    y -0.000060 3.672900 0.000070 
#    z -0.343140 0.000070 4.156490 
# 
# 
# High freq. dielectric constant tensor:
#      x y z
#    x 1.814690 0.000000 0.004890 
#    y 0.000000 1.809790 0.000000 
#    z 0.004890 0.000000 1.836230 
# 
# From -- ./inp_files/286060.got.cif
#   From: 2010.06.25/outbox.cif.g09.slc.cpg/sg12_144_cif.got.tgz:286060.got - 2010.06.28 00:19:55.
