data_PCOD8111652
_publ_section_title
;
Structure prediction by ZEFSAII (Michael W. Deem and Ramdas Pophale) SiO2 
 PCOD8111652
Probable space group: C 2/M
;
_chemical_formula_sum "Si O2"
_cell_formula_units_Z 64
_cell_length_a 20.157141
_cell_length_b 17.996768
_cell_length_c 16.894427
_cell_angle_alpha 90.000000
_cell_angle_beta 28.627127
_cell_angle_gamma 90.000000
_cell_volume 2936.296307
_symmetry_space_group_name_H-M "C 2/M"
_symmetry_group_IT_number 12
_symmetry_cell_setting 'monoclinic'
loop_
_space_group_symop_operation_xyz
x,y,z
-x,y,-z
-x,-y,-z
x,-y,z
1/2+x,1/2+y,z
1/2-x,1/2+y,-z
1/2-x,1/2-y,-z
1/2+x,1/2-y,z
loop_
_atom_site_type_symbol
_atom_site_label
_atom_site_fract_x
_atom_site_fract_y
_atom_site_fract_z
Si Si1 0.114349 0.915678 0.942810
Si Si2 0.851389 0.667090 0.621976
Si Si3 0.861986 0.584361 0.901170
Si Si4 0.648115 0.917507 0.534122
Si Si5 0.414295 0.346895 0.869943
Si Si6 0.058924 0.303029 0.061148
Si Si7 0.780202 0.313167 0.265899
Si Si8 0.835853 0.088469 0.482405
O O1 0.241450 0.858209 0.803539
O O2 0.164591 0.000000 0.877634
O O3 0.051705 0.905411 0.095721
O O4 0.000000 0.891603 0.000000
O O5 0.803472 0.626814 0.592504
O O6 0.843203 0.753365 0.608501
O O7 0.000000 0.645222 0.500000
O O8 0.812505 0.500000 0.970045
O O9 0.938018 0.618283 0.897807
O O10 0.981029 0.584986 0.709888
O O11 0.735604 0.636390 0.009230
O O12 0.718154 0.888438 0.541907
O O13 0.703652 0.000000 0.462526
O O14 0.409287 0.263223 0.909805
O O15 0.528333 0.363057 0.682814
O O16 0.909691 0.284267 0.181533
O O17 0.171624 0.320218 0.875051
O O18 0.716144 0.386357 0.375376
O O19 0.865582 0.000000 0.454310
#
# Coordination Sequence:
#
# PCOD8111652 Si02
#       8
#     8   8   8   8   8   8   8   8
#     4  11  22  40  65  94 134 184 226 267 329 409
#     4  12  25  39  61  97 139 178 219 273 340 403
#     4  11  24  43  67  99 134 175 224 277 341 405
#     4  10  22  40  64  95 130 170 222 271 325 399
#     4  12  24  41  68 100 138 174 220 278 340 407
#     4  11  24  44  71  97 130 180 230 279 334 404
#     4  11  25  44  67  98 133 174 230 281 329 403
#     4  11  24  44  70 100 132 175 226 282 342 397
#
# _framework density 21.796164999999998
#
# number of rings (size 3 to 8) (size 9 to 14) (size 15 to 20)
#    0.000    0.875    2.500    4.875    1.750    6.500 
#    0.000    1.250    0.000    1.875    0.000    0.000 
#    0.000    0.000    0.000    0.000    0.000    0.000 
#
# Total GULP energy -396698.785853 kJ/mol
# GULP energy per Si atom -12396.837058 kJ/mol
# Density = 2.174656 g / cm^3
# Si number density = 21.796165 Si / 1000 Ang^3
#
#
#
# Elastic Constant Matrix: (Units=GPa)
#
#
# Indices 1 2 3 4 5 6 
#
# 1 48.4442 23.9693 12.6446 0.0048 5.1582 -0.0003
# 2 23.9693 81.2432 28.3206 0.0045 14.1133 -0.0013
# 3 12.6446 28.3206 89.4712 0.0096 10.0649 -0.0024
# 4 0.0048 0.0045 0.0096 34.6885 -0.0050 6.0819
# 5 5.1582 14.1133 10.0649 -0.0050 37.0147 0.0022
# 6 -0.0003 -0.0013 -0.0024 6.0819 0.0022 23.8328
#
#
#
# Elastic Compliance Matrix: (Units=1/GPa)
#
#
# Indices 1 2 3 4 5 6 
#
# 1 0.024315 -0.006640 -0.001277 -0.000002 -0.000509 0.000000
# 2 -0.006640 0.016316 -0.003745 -0.000001 -0.004278 0.000001
# 3 -0.001277 -0.003745 0.012752 -0.000003 -0.001862 0.000002
# 4 -0.000002 -0.000001 -0.000003 0.030178 0.000006 -0.007701
# 5 -0.000509 -0.004278 -0.001862 0.000006 0.029224 -0.000005
# 6 0.000000 0.000001 0.000002 -0.007701 -0.000005 0.043924
#
#
# Mechanical properties :
#
#
# Convention : Reuss Voigt Hill
#
# Bulk Modulus (GPa) = 33.26788 38.78085 36.02437
# Shear Modulus (GPa) = 26.30815 29.38880 27.84847
#
# Velocity S-wave (km/s) = 3.47797 3.67597 3.57834
# Velocity P-wave (km/s) = 5.60577 5.98733 5.79969
#
# Compressibility (1/GPa) = 0.03005902
#
# Stress axis : x y z
#
# Youngs Moduli (GPa) = 41.12633 61.28833 78.41821
#
# Poissons Ratio (x) = 0.40696 0.10016
# Poissons Ratio (y) = 0.27308 0.29368
# Poissons Ratio (z) = 0.05253 0.22953
#
# Static dielectric constant tensor:
#      x y z
#    x 3.852090 0.000000 0.093370 
#    y 0.000000 3.844800 0.000000 
#    z 0.093370 0.000000 3.936750 
# 
# 
# High freq. dielectric constant tensor:
#      x y z
#    x 1.852070 0.000000 0.000520 
#    y 0.000000 1.852380 0.000000 
#    z 0.000520 0.000000 1.863230 
# 
# From -- ./inp_files/285176.got.cif
#   From: 2010.06.25/outbox.cif.g09.slc.cpg/sg12_143_cif.got.tgz:285176.got - 2010.06.28 00:19:55.
