data_PCOD8111059
_publ_section_title
;
Structure prediction by ZEFSAII (Michael W. Deem and Ramdas Pophale) SiO2 
 PCOD8111059
Probable space group: C 2/M
;
_chemical_formula_sum "Si O2"
_cell_formula_units_Z 60
_cell_length_a 20.417517
_cell_length_b 27.965686
_cell_length_c 7.394554
_cell_angle_alpha 90.000000
_cell_angle_beta 136.391938
_cell_angle_gamma 90.000000
_cell_volume 2912.152476
_symmetry_space_group_name_H-M "C 2/M"
_symmetry_group_IT_number 12
_symmetry_cell_setting 'monoclinic'
loop_
_space_group_symop_operation_xyz
x,y,z
-x,y,-z
-x,-y,-z
x,-y,z
1/2+x,1/2+y,z
1/2-x,1/2+y,-z
1/2-x,1/2-y,-z
1/2+x,1/2-y,z
loop_
_atom_site_type_symbol
_atom_site_label
_atom_site_fract_x
_atom_site_fract_y
_atom_site_fract_z
Si Si1 0.259695 0.142469 0.341940
Si Si2 0.699356 0.142719 0.982161
Si Si3 0.198682 0.948312 0.772870
Si Si4 0.581072 0.787510 0.306608
Si Si5 0.000000 0.318283 0.500000
Si Si6 0.657569 0.314475 0.454311
Si Si7 0.655193 0.446774 0.099262
Si Si8 0.024787 0.109547 0.338936
O O1 0.248274 0.153469 0.104895
O O2 0.362308 0.162413 0.609619
O O3 0.177743 0.169251 0.289328
O O4 0.245976 0.084960 0.349111
O O5 0.586553 0.149779 0.749008
O O6 0.711525 0.086963 0.058039
O O7 0.751430 0.174903 0.236012
O O8 0.160717 0.954936 0.898118
O O9 0.112758 0.926607 0.483911
O O10 0.228147 0.000000 0.752072
O O11 0.536192 0.784235 0.414874
O O12 0.650029 0.742487 0.430310
O O13 0.500000 0.784632 0.000000
O O14 0.560065 0.339462 0.328776
O O15 0.652057 0.500000 0.185186
O O16 0.561751 0.413845 0.947211
O O17 0.000000 0.117355 0.500000
#
# Coordination Sequence:
#
# PCOD8111059 Si02
#       8
#     8   8   8   8   4   8   8   8
#     4  10  22  39  58  82 115 151 189 240 279 340
#     4   9  20  39  58  84 113 148 189 234 288 333
#     4   8  14  29  54  81 113 152 188 226 280 337
#     4  11  25  40  60  85 111 152 193 238 289 338
#     4  10  22  40  61  82 112 146 187 244 286 338
#     4  11  23  37  58  82 116 153 192 235 281 340
#     4   9  17  32  55  81 114 153 188 230 284 338
#     4   9  18  31  51  83 119 151 187 233 279 338
#
# _framework density 20.603317000000001
#
# number of rings (size 3 to 8) (size 9 to 14) (size 15 to 20)
#    0.000    2.400    0.000    2.400    2.800    4.800 
#    0.000    4.333    0.000    1.200    0.000    0.000 
#    0.000    0.000    0.000    0.000    0.000    0.000 
#
# Total GULP energy -371773.823740 kJ/mol
# GULP energy per Si atom -12392.460791 kJ/mol
# Density = 2.055642 g / cm^3
# Si number density = 20.603317 Si / 1000 Ang^3
#
#
#
# Elastic Constant Matrix: (Units=GPa)
#
#
# Indices 1 2 3 4 5 6 
#
# 1 68.0111 29.4277 17.9274 0.0000 7.2633 0.0000
# 2 29.4277 124.3387 69.6347 0.0000 13.5267 0.0000
# 3 17.9274 69.6347 101.3331 0.0000 17.0998 0.0000
# 4 0.0000 0.0000 0.0000 32.0571 0.0000 16.4623
# 5 7.2633 13.5267 17.0998 0.0000 22.1322 0.0000
# 6 0.0000 0.0000 0.0000 16.4623 0.0000 36.7343
#
#
#
# Elastic Compliance Matrix: (Units=1/GPa)
#
#
# Indices 1 2 3 4 5 6 
#
# 1 0.016599 -0.003636 0.000122 0.000000 -0.003320 0.000000
# 2 -0.003636 0.013899 -0.008826 0.000000 -0.000482 0.000000
# 3 0.000122 -0.008826 0.017259 0.000000 -0.007980 0.000000
# 4 0.000000 0.000000 0.000000 0.040519 0.000000 -0.018158
# 5 -0.003320 -0.000482 -0.007980 0.000000 0.052733 0.000000
# 6 0.000000 0.000000 0.000000 -0.018158 0.000000 0.035360
#
#
# Mechanical properties :
#
#
# Convention : Reuss Voigt Hill
#
# Bulk Modulus (GPa) = 43.33468 58.62917 50.98193
# Shear Modulus (GPa) = 23.95316 29.96426 26.95871
#
# Velocity S-wave (km/s) = 3.41337 3.81772 3.62119
# Velocity P-wave (km/s) = 6.05090 6.92469 6.50249
#
# Compressibility (1/GPa) = 0.02307620
#
# Stress axis : x y z
#
# Youngs Moduli (GPa) = 60.24467 71.94987 57.94132
#
# Poissons Ratio (x) = 0.26159 -0.00707
# Poissons Ratio (y) = 0.21903 0.51141
# Poissons Ratio (z) = -0.00735 0.63506
#
# Static dielectric constant tensor:
#      x y z
#    x 3.780600 0.000000 -0.060970 
#    y 0.000000 3.988470 0.000000 
#    z -0.060970 0.000000 3.822210 
# 
# 
# High freq. dielectric constant tensor:
#      x y z
#    x 1.803690 0.000000 -0.010900 
#    y 0.000000 1.801250 0.000000 
#    z -0.010900 0.000000 1.790110 
# 
# From -- ./inp_files/91250.got.cif
#   From: 2010.06.25/outbox.cif.g09.slc.cpg/sg12_46_cif.got.tgz:91250.got - 2010.06.28 00:19:55.
