data_PCOD8111254
_publ_section_title
;
Structure prediction by ZEFSAII (Michael W. Deem and Ramdas Pophale) SiO2 
 PCOD8111254
Probable space group: C 2/M
;
_chemical_formula_sum "Si O2"
_cell_formula_units_Z 56
_cell_length_a 13.884353
_cell_length_b 19.887561
_cell_length_c 16.323553
_cell_angle_alpha 90.000000
_cell_angle_beta 147.244301
_cell_angle_gamma 90.000000
_cell_volume 2438.741605
_symmetry_space_group_name_H-M "C 2/M"
_symmetry_group_IT_number 12
_symmetry_cell_setting 'monoclinic'
loop_
_space_group_symop_operation_xyz
x,y,z
-x,y,-z
-x,-y,-z
x,-y,z
1/2+x,1/2+y,z
1/2-x,1/2+y,-z
1/2-x,1/2-y,-z
1/2+x,1/2-y,z
loop_
_atom_site_type_symbol
_atom_site_label
_atom_site_fract_x
_atom_site_fract_y
_atom_site_fract_z
Si Si1 0.471440 0.000000 0.575829
Si Si2 0.647607 0.923114 0.288883
Si Si3 0.203346 0.639413 0.158779
Si Si4 0.737815 0.423048 0.969347
Si Si5 0.876962 0.726375 0.332348
Si Si6 0.605765 0.362867 0.225216
Si Si7 0.342522 0.500000 0.822929
Si Si8 0.333782 0.861748 0.536411
O O1 0.500000 0.000000 0.500000
O O2 0.368467 0.936244 0.532178
O O3 0.668968 0.000000 0.757254
O O4 0.722693 0.905025 0.254145
O O5 0.725751 0.869280 0.410949
O O6 0.701173 0.000000 0.346937
O O7 0.435449 0.914233 0.143907
O O8 0.269635 0.592690 0.132594
O O9 0.329883 0.703683 0.256576
O O10 0.000000 0.662683 0.000000
O O11 0.669670 0.500000 0.933127
O O12 0.609826 0.369838 0.926119
O O13 0.688599 0.689661 0.219297
O O14 0.000000 0.735125 0.500000
O O15 0.991763 0.684693 0.348264
O O16 0.673150 0.436267 0.247997
O O17 0.671961 0.337954 0.362619
O O18 0.500000 0.500000 0.000000
#
# Coordination Sequence:
#
# PCOD8111254 Si02
#       8
#     4   8   8   8   8   8   4   8
#     4  12  18  36  58  83 124 165 191 236 297 359
#     4  10  22  39  64  91 116 153 205 249 302 359
#     4  10  23  44  62  83 117 162 205 254 298 350
#     4  10  22  39  63  89 121 153 197 254 308 350
#     4  10  23  41  61  85 122 164 201 238 295 362
#     4  11  22  38  57  91 124 156 193 245 300 355
#     4  12  24  32  56  91 128 159 193 240 301 359
#     4  11  21  36  61  89 120 158 196 242 298 358
#
# _framework density 22.962662000000002
#
# number of rings (size 3 to 8) (size 9 to 14) (size 15 to 20)
#    0.000    1.429    4.286    0.857    2.000    5.714 
#    0.000    5.714    0.000    2.571    0.000    0.000 
#    0.000    0.000    0.000    0.000    0.000    0.000 
#
# Total GULP energy -347028.787653 kJ/mol
# GULP energy per Si atom -12393.885273 kJ/mol
# Density = 2.291040 g / cm^3
# Si number density = 22.962662 Si / 1000 Ang^3
#
#
#
# Elastic Constant Matrix: (Units=GPa)
#
#
# Indices 1 2 3 4 5 6 
#
# 1 40.1023 2.1982 -6.2809 0.0140 -12.0970 0.0057
# 2 2.1982 75.6415 15.1848 0.0131 -2.1607 0.0026
# 3 -6.2809 15.1848 38.0906 0.0361 -4.7379 -0.0020
# 4 0.0140 0.0131 0.0361 14.0645 0.0121 -6.5435
# 5 -12.0970 -2.1607 -4.7379 0.0121 37.9101 -0.0007
# 6 0.0057 0.0026 -0.0020 -6.5435 -0.0007 8.8625
#
#
#
# Elastic Compliance Matrix: (Units=1/GPa)
#
#
# Indices 1 2 3 4 5 6 
#
# 1 0.029140 -0.001930 0.006823 -0.000093 0.010041 -0.000084
# 2 -0.001930 0.014498 -0.006168 0.000004 -0.000560 -0.000002
# 3 0.006823 -0.006168 0.030539 -0.000125 0.005642 -0.000088
# 4 -0.000093 0.000004 -0.000125 0.108306 -0.000078 0.079966
# 5 0.010041 -0.000560 0.005642 -0.000078 0.030256 -0.000061
# 6 -0.000084 -0.000002 -0.000088 0.079966 -0.000061 0.171876
#
#
# Mechanical properties :
#
#
# Convention : Reuss Voigt Hill
#
# Bulk Modulus (GPa) = 13.96086 19.55985 16.76036
# Shear Modulus (GPa) = 12.16429 21.68291 16.92360
#
# Velocity S-wave (km/s) = 2.30411 3.07623 2.71773
# Velocity P-wave (km/s) = 3.62927 4.59937 4.14281
#
# Compressibility (1/GPa) = 0.07162883
#
# Stress axis : x y z
#
# Youngs Moduli (GPa) = 34.31746 68.97273 32.74504
#
# Poissons Ratio (x) = 0.13310 -0.22343
# Poissons Ratio (y) = 0.06622 0.20196
# Poissons Ratio (z) = -0.23416 0.42540
#
# Static dielectric constant tensor:
#      x y z
#    x 4.508480 0.000000 -0.201830 
#    y 0.000000 3.974860 -0.000010 
#    z -0.201830 -0.000010 4.424530 
# 
# 
# High freq. dielectric constant tensor:
#      x y z
#    x 1.910200 0.000000 -0.003930 
#    y 0.000000 1.892290 0.000000 
#    z -0.003930 0.000000 1.901720 
# 
# From -- ./inp_files/64113.got.cif
#   From: 2010.06.25/outbox.cif.g09.slc.cpg/sg12_33_cif.got.tgz:64113.got - 2010.06.28 00:19:55.
