data_PCOD8111944
_publ_section_title
;
Structure prediction by ZEFSAII (Michael W. Deem and Ramdas Pophale) SiO2 
 PCOD8111944
Probable space group: C 2/M
;
_chemical_formula_sum "Si O2"
_cell_formula_units_Z 48
_cell_length_a 29.076471
_cell_length_b 8.792336
_cell_length_c 14.474717
_cell_angle_alpha 90.000000
_cell_angle_beta 38.857081
_cell_angle_gamma 90.000000
_cell_volume 2321.596099
_symmetry_space_group_name_H-M "C 2/M"
_symmetry_group_IT_number 12
_symmetry_cell_setting 'monoclinic'
loop_
_space_group_symop_operation_xyz
x,y,z
-x,y,-z
-x,-y,-z
x,-y,z
1/2+x,1/2+y,z
1/2-x,1/2+y,-z
1/2-x,1/2-y,-z
1/2+x,1/2-y,z
loop_
_atom_site_type_symbol
_atom_site_label
_atom_site_fract_x
_atom_site_fract_y
_atom_site_fract_z
Si Si1 0.783848 0.174700 0.857478
Si Si2 0.429048 0.822978 0.549283
Si Si3 0.790787 0.672045 0.212572
Si Si4 0.541422 0.822731 0.028082
Si Si5 0.700074 0.822667 0.501300
Si Si6 0.444859 0.320724 0.324785
O O1 0.858804 0.254528 0.710151
O O2 0.720741 0.189790 0.878643
O O3 0.802409 0.000000 0.849287
O O4 0.750000 0.250000 0.000000
O O5 0.500000 0.793333 0.500000
O O6 0.444371 0.745300 0.427851
O O7 0.414678 0.000000 0.554464
O O8 0.770752 0.500000 0.274892
O O9 0.734981 0.789416 0.346952
O O10 0.872625 0.711288 0.116535
O O11 0.517072 0.727608 0.155825
O O12 0.526206 0.000000 0.070594
O O13 0.500000 0.767908 0.000000
O O14 0.750000 0.750000 0.500000
O O15 0.621171 0.746191 0.632438
O O16 0.691263 0.000000 0.532506
O O17 0.438732 0.500000 0.341681
#
# Coordination Sequence:
#
# PCOD8111944 Si02
#       6
#     8   8   8   8   8   8
#     4  11  24  42  66  96 132 169 214 267 323 387
#     4  11  25  45  69  96 128 168 217 270 327 389
#     4  10  22  41  64  93 129 168 213 266 320 380
#     4  10  22  41  65  93 129 173 216 261 318 380
#     4  12  24  40  66  95 128 169 214 264 321 382
#     4  12  25  42  65  96 133 169 214 267 321 386
#
# _framework density 20.675429999999999
#
# number of rings (size 3 to 8) (size 9 to 14) (size 15 to 20)
#    0.000    1.000    1.667    5.000    2.333    4.333 
#    0.000    0.000    0.000    0.000    0.000    0.000 
#    0.000    0.000    0.000    0.000    0.000    0.000 
#
# Total GULP energy -297729.242192 kJ/mol
# GULP energy per Si atom -12405.385091 kJ/mol
# Density = 2.062837 g / cm^3
# Si number density = 20.675430 Si / 1000 Ang^3
#
#
#
# Elastic Constant Matrix: (Units=GPa)
#
#
# Indices 1 2 3 4 5 6 
#
# 1 74.1823 46.8390 18.9621 0.0000 -2.9054 0.0000
# 2 46.8390 137.5980 44.0872 0.0007 2.9014 -0.0001
# 3 18.9621 44.0872 91.9244 0.0001 9.3708 0.0000
# 4 0.0000 0.0007 0.0001 40.4076 0.0000 2.6945
# 5 -2.9054 2.9014 9.3708 0.0000 39.0268 0.0000
# 6 0.0000 -0.0001 0.0000 2.6945 0.0000 33.1877
#
#
#
# Elastic Compliance Matrix: (Units=1/GPa)
#
#
# Indices 1 2 3 4 5 6 
#
# 1 0.017377 -0.005605 -0.001097 0.000000 0.001974 0.000000
# 2 -0.005605 0.010400 -0.003803 0.000000 -0.000277 0.000000
# 3 -0.001097 -0.003803 0.013232 0.000000 -0.002976 0.000000
# 4 0.000000 0.000000 0.000000 0.024883 0.000000 -0.002020
# 5 0.001974 -0.000277 -0.002976 0.000000 0.026506 0.000000
# 6 0.000000 0.000000 0.000000 -0.002020 0.000000 0.030296
#
#
# Mechanical properties :
#
#
# Convention : Reuss Voigt Hill
#
# Bulk Modulus (GPa) = 50.00632 58.16460 54.08546
# Shear Modulus (GPa) = 33.25089 35.44551 34.34820
#
# Velocity S-wave (km/s) = 4.01463 4.14500 4.08033
# Velocity P-wave (km/s) = 6.76229 7.14852 6.95808
#
# Compressibility (1/GPa) = 0.01999747
#
# Stress axis : x y z
#
# Youngs Moduli (GPa) = 57.54615 96.15297 75.57196
#
# Poissons Ratio (x) = 0.53897 0.08294
# Poissons Ratio (y) = 0.32256 0.28743
# Poissons Ratio (z) = 0.06316 0.36571
#
# Static dielectric constant tensor:
#      x y z
#    x 4.856120 0.000000 1.966990 
#    y 0.000000 3.951220 0.000010 
#    z 1.966990 0.000010 8.673660 
# 
# 
# High freq. dielectric constant tensor:
#      x y z
#    x 1.823960 0.000000 -0.000310 
#    y 0.000000 1.813950 0.000000 
#    z -0.000310 0.000000 1.817220 
# 
# From -- ./inp_files/244622.got.cif
#   From: 2010.06.25/outbox.cif.g09.slc.cpg/sg12_123_cif.got.tgz:244622.got - 2010.06.28 00:19:55.
