data_PCOD8111947
_publ_section_title
;
Structure prediction by ZEFSAII (Michael W. Deem and Ramdas Pophale) SiO2 
 PCOD8111947
Probable space group: C 2/M
;
_chemical_formula_sum "Si O2"
_cell_formula_units_Z 44
_cell_length_a 8.634017
_cell_length_b 19.486154
_cell_length_c 13.116853
_cell_angle_alpha 90.000000
_cell_angle_beta 107.885490
_cell_angle_gamma 90.000000
_cell_volume 2100.177828
_symmetry_space_group_name_H-M "C 2/M"
_symmetry_group_IT_number 12
_symmetry_cell_setting 'monoclinic'
loop_
_space_group_symop_operation_xyz
x,y,z
-x,y,-z
-x,-y,-z
x,-y,z
1/2+x,1/2+y,z
1/2-x,1/2+y,-z
1/2-x,1/2-y,-z
1/2+x,1/2-y,z
loop_
_atom_site_type_symbol
_atom_site_label
_atom_site_fract_x
_atom_site_fract_y
_atom_site_fract_z
Si Si1 0.188024 0.424253 0.334767
Si Si2 0.500000 0.368551 0.500000
Si Si3 0.908461 0.181007 0.693878
Si Si4 0.828249 0.675223 0.021660
Si Si5 0.581865 0.819432 0.738290
Si Si6 0.859218 0.921087 0.161717
O O1 0.119187 0.500000 0.343958
O O2 0.352837 0.415826 0.432275
O O3 0.223701 0.415639 0.222276
O O4 0.052850 0.369028 0.338648
O O5 0.567431 0.321144 0.422830
O O6 0.719240 0.189931 0.680646
O O7 0.005708 0.246607 0.754331
O O8 0.974501 0.113125 0.763695
O O9 0.846056 0.650734 0.142173
O O10 0.750000 0.750000 0.000000
O O11 0.707598 0.619091 0.949334
O O12 0.000000 0.675718 0.000000
O O13 0.896044 0.000000 0.140296
#
# Coordination Sequence:
#
# PCOD8111947 Si02
#       6
#     8   4   8   8   8   8
#     4  10  22  42  66  96 128 167 216 267 320 383
#     4  10  23  44  70  90 125 172 214 264 333 382
#     4  11  24  42  65  95 127 168 216 269 320 377
#     4  12  23  39  66  94 127 175 213 254 316 382
#     4  12  24  40  66  96 130 166 215 269 318 375
#     4  10  22  41  64  93 131 172 213 259 317 383
#
# _framework density 20.950606000000001
#
# number of rings (size 3 to 8) (size 9 to 14) (size 15 to 20)
#    0.000    1.091    3.636    3.545    0.000    6.182 
#    0.000    1.818    0.000    0.000    0.000    0.000 
#    0.000    0.000    0.000    0.000    0.000    0.000 
#
# Total GULP energy -272909.623197 kJ/mol
# GULP energy per Si atom -12404.982873 kJ/mol
# Density = 2.090292 g / cm^3
# Si number density = 20.950606 Si / 1000 Ang^3
#
#
#
# Elastic Constant Matrix: (Units=GPa)
#
#
# Indices 1 2 3 4 5 6 
#
# 1 127.5810 52.5860 34.5289 0.0000 0.6709 0.0000
# 2 52.5860 151.4193 42.8923 0.0000 16.1608 0.0000
# 3 34.5289 42.8923 121.1591 0.0000 4.0299 0.0000
# 4 0.0000 0.0000 0.0000 23.8198 0.0000 3.9068
# 5 0.6709 16.1608 4.0299 0.0000 27.6016 0.0000
# 6 0.0000 0.0000 0.0000 3.9068 0.0000 30.1827
#
#
#
# Elastic Compliance Matrix: (Units=1/GPa)
#
#
# Indices 1 2 3 4 5 6 
#
# 1 0.009535 -0.003018 -0.001708 0.000000 0.001785 0.000000
# 2 -0.003018 0.008748 -0.002079 0.000000 -0.004745 0.000000
# 3 -0.001708 -0.002079 0.009481 0.000000 -0.000125 0.000000
# 4 0.000000 0.000000 0.000000 0.042893 0.000000 -0.005552
# 5 0.001785 -0.004745 -0.000125 0.000000 0.038983 0.000000
# 6 0.000000 0.000000 0.000000 -0.005552 0.000000 0.033850
#
#
# Mechanical properties :
#
#
# Convention : Reuss Voigt Hill
#
# Bulk Modulus (GPa) = 70.65703 73.35265 72.00484
# Shear Modulus (GPa) = 30.89914 34.33096 32.61505
#
# Velocity S-wave (km/s) = 3.84455 4.05243 3.94986
# Velocity P-wave (km/s) = 7.31479 7.54880 7.43272
#
# Compressibility (1/GPa) = 0.01415287
#
# Stress axis : x y z
#
# Youngs Moduli (GPa) = 104.87608 114.31745 105.47857
#
# Poissons Ratio (x) = 0.34501 0.18019
# Poissons Ratio (y) = 0.31651 0.21928
# Poissons Ratio (z) = 0.17916 0.23765
#
# Static dielectric constant tensor:
#      x y z
#    x 3.681180 0.000000 0.019040 
#    y 0.000000 3.748660 0.000000 
#    z 0.019040 0.000000 3.834770 
# 
# 
# High freq. dielectric constant tensor:
#      x y z
#    x 1.815510 0.000000 0.007030 
#    y 0.000000 1.819680 0.000000 
#    z 0.007030 0.000000 1.824580 
# 
# From -- ./inp_files/120610.got.cif
#   From: 2010.06.25/outbox.cif.g09.slc.cpg/sg12_61_cif.got.tgz:120610.got - 2010.06.28 00:19:55.
