data_PCOD8111387
_publ_section_title
;
Structure prediction by ZEFSAII (Michael W. Deem and Ramdas Pophale) SiO2 
 PCOD8111387
Probable space group: C 2/M
;
_chemical_formula_sum "Si O2"
_cell_formula_units_Z 56
_cell_length_a 12.476612
_cell_length_b 14.803507
_cell_length_c 16.288633
_cell_angle_alpha 90.000000
_cell_angle_beta 117.851629
_cell_angle_gamma 90.000000
_cell_volume 2659.971355
_symmetry_space_group_name_H-M "C 2/M"
_symmetry_group_IT_number 12
_symmetry_cell_setting 'monoclinic'
loop_
_space_group_symop_operation_xyz
x,y,z
-x,y,-z
-x,-y,-z
x,-y,z
1/2+x,1/2+y,z
1/2-x,1/2+y,-z
1/2-x,1/2-y,-z
1/2+x,1/2-y,z
loop_
_atom_site_type_symbol
_atom_site_label
_atom_site_fract_x
_atom_site_fract_y
_atom_site_fract_z
Si Si1 0.029999 0.101704 0.257538
Si Si2 0.636707 0.768755 0.561099
Si Si3 0.664372 0.104320 0.891104
Si Si4 0.770099 0.816127 0.766814
Si Si5 0.708988 0.397883 0.904150
Si Si6 0.822932 0.109320 0.537618
Si Si7 0.567586 0.166398 0.106001
O O1 0.152725 0.102945 0.246542
O O2 0.064532 0.135228 0.361521
O O3 0.911293 0.152744 0.175828
O O4 0.986369 0.000000 0.250865
O O5 0.500000 0.797836 0.500000
O O6 0.675993 0.771595 0.670006
O O7 0.703344 0.847121 0.533767
O O8 0.656039 0.664418 0.538979
O O9 0.693433 0.157581 0.818764
O O10 0.523677 0.113567 0.866358
O O11 0.692030 0.000000 0.885163
O O12 0.749891 0.145876 0.994051
O O13 0.879973 0.749802 0.826055
O O14 0.676193 0.500000 0.913638
O O15 0.819479 0.396918 0.879069
O O16 0.810286 0.000000 0.519408
O O17 0.500000 0.200601 0.000000
#
# Coordination Sequence:
#
# PCOD8111387 Si02
#       7
#     8   8   8   8   8   8   8
#     4   9  19  36  61  89 120 155 199 250 302 364
#     4  10  23  41  62  90 124 160 203 264 310 360
#     4  10  22  40  60  84 123 166 202 244 297 366
#     4  11  24  36  59  89 124 157 199 250 308 361
#     4   9  19  36  60  87 118 159 204 246 294 358
#     4   9  20  41  65  89 121 162 206 255 311 368
#     4  10  23  37  58  85 122 159 202 248 295 352
#
# _framework density 21.052856999999999
#
# number of rings (size 3 to 8) (size 9 to 14) (size 15 to 20)
#    0.000    2.286    0.000    0.857    6.000    6.286 
#    0.000    5.000    0.000    0.000    0.000    0.000 
#    0.000    0.000    0.000    0.000    0.000    0.000 
#
# Total GULP energy -346924.032279 kJ/mol
# GULP energy per Si atom -12390.144010 kJ/mol
# Density = 2.100494 g / cm^3
# Si number density = 21.052857 Si / 1000 Ang^3
#
#
#
# Elastic Constant Matrix: (Units=GPa)
#
#
# Indices 1 2 3 4 5 6 
#
# 1 119.9599 29.9020 88.0019 0.0000 8.8569 0.0000
# 2 29.9020 78.6891 52.3297 0.0000 1.7735 0.0000
# 3 88.0019 52.3297 159.1790 0.0000 10.2716 0.0000
# 4 0.0000 0.0000 0.0000 25.6901 0.0000 -1.3570
# 5 8.8569 1.7735 10.2716 0.0000 33.7163 0.0000
# 6 0.0000 0.0000 0.0000 -1.3570 0.0000 36.1148
#
#
#
# Elastic Compliance Matrix: (Units=1/GPa)
#
#
# Indices 1 2 3 4 5 6 
#
# 1 0.014088 -0.000258 -0.007615 0.000000 -0.001367 0.000000
# 2 -0.000258 0.016289 -0.005265 0.000000 0.000815 0.000000
# 3 -0.007615 -0.005265 0.012318 0.000000 -0.001475 0.000000
# 4 0.000000 0.000000 0.000000 0.039003 0.000000 0.001466
# 5 -0.001367 0.000815 -0.001475 0.000000 0.030425 0.000000
# 6 0.000000 0.000000 0.000000 0.001466 0.000000 0.027745
#
#
# Mechanical properties :
#
#
# Convention : Reuss Voigt Hill
#
# Bulk Modulus (GPa) = 60.90641 77.58833 69.24737
# Shear Modulus (GPa) = 29.13442 31.61053 30.37247
#
# Velocity S-wave (km/s) = 3.72408 3.87910 3.80238
# Velocity P-wave (km/s) = 6.89091 7.54966 7.22779
#
# Compressibility (1/GPa) = 0.01641863
#
# Stress axis : x y z
#
# Youngs Moduli (GPa) = 70.98187 61.39021 81.17908
#
# Poissons Ratio (x) = 0.01585 0.61822
# Poissons Ratio (y) = 0.01833 0.42740
# Poissons Ratio (z) = 0.54056 0.32321
#
# Static dielectric constant tensor:
#      x y z
#    x 3.775450 0.000000 0.191530 
#    y 0.000000 3.766400 0.000000 
#    z 0.191530 0.000000 4.142250 
# 
# 
# High freq. dielectric constant tensor:
#      x y z
#    x 1.827190 0.000000 0.007990 
#    y 0.000000 1.810210 0.000000 
#    z 0.007990 0.000000 1.831440 
# 
# From -- ./inp_files/263399.got.cif
#   From: 2010.06.25/outbox.cif.g09.slc.cpg/sg12_132_cif.got.tgz:263399.got - 2010.06.28 00:19:55.
