data_PCOD8111519
_publ_section_title
;
Structure prediction by ZEFSAII (Michael W. Deem and Ramdas Pophale) SiO2 
 PCOD8111519
Probable space group: C 2/M
;
_chemical_formula_sum "Si O2"
_cell_formula_units_Z 40
_cell_length_a 12.851229
_cell_length_b 13.138074
_cell_length_c 14.542655
_cell_angle_alpha 90.000000
_cell_angle_beta 51.926001
_cell_angle_gamma 90.000000
_cell_volume 1932.917877
_symmetry_space_group_name_H-M "C 2/M"
_symmetry_group_IT_number 12
_symmetry_cell_setting 'monoclinic'
loop_
_space_group_symop_operation_xyz
x,y,z
-x,y,-z
-x,-y,-z
x,-y,z
1/2+x,1/2+y,z
1/2-x,1/2+y,-z
1/2-x,1/2-y,-z
1/2+x,1/2-y,z
loop_
_atom_site_type_symbol
_atom_site_label
_atom_site_fract_x
_atom_site_fract_y
_atom_site_fract_z
Si Si1 0.920272 0.188105 0.346849
Si Si2 0.228541 0.385228 0.599471
Si Si3 0.291190 0.382653 0.776051
Si Si4 0.401482 0.383040 0.162316
Si Si5 0.840163 0.768093 0.037559
O O1 0.886037 0.308069 0.370251
O O2 0.859324 0.129432 0.466840
O O3 0.852921 0.138824 0.292021
O O4 0.077201 0.175186 0.261381
O O5 0.174385 0.500000 0.618169
O O6 0.270161 0.362821 0.680607
O O7 0.307244 0.500000 0.792001
O O8 0.166866 0.338231 0.901360
O O9 0.446807 0.500000 0.127955
O O10 0.295401 0.354556 0.139023
O O11 0.518303 0.301549 0.078504
O O12 0.750000 0.750000 0.000000
#
# Coordination Sequence:
#
# PCOD8111519 Si02
#       5
#     8   8   8   8   8
#     4  11  21  38  67  90 120 155 202 244 294 359
#     4  10  22  40  62  90 123 157 196 246 299 350
#     4  11  22  39  62  90 120 158 201 244 295 354
#     4  11  23  41  63  88 118 159 203 245 297 358
#     4  11  22  37  58  87 121 151 198 249 292 346
#
# _framework density 20.694102000000001
#
# number of rings (size 3 to 8) (size 9 to 14) (size 15 to 20)
#    0.000    1.200    4.000    3.600    0.000    2.400 
#    0.000    5.000    0.000    2.400    0.000    0.000 
#    0.000    0.000    0.000    0.000    0.000    0.000 
#
# Total GULP energy -247775.943415 kJ/mol
# GULP energy per Si atom -12388.797171 kJ/mol
# Density = 2.064700 g / cm^3
# Si number density = 20.694102 Si / 1000 Ang^3
#
#
#
# Elastic Constant Matrix: (Units=GPa)
#
#
# Indices 1 2 3 4 5 6 
#
# 1 81.5527 62.3795 37.6154 0.0000 18.0665 0.0000
# 2 62.3795 135.4971 58.7268 0.0000 1.7716 0.0000
# 3 37.6154 58.7268 114.0520 0.0000 28.6593 0.0000
# 4 0.0000 0.0000 0.0000 29.6274 0.0000 2.3491
# 5 18.0665 1.7716 28.6593 0.0000 39.9944 0.0000
# 6 0.0000 0.0000 0.0000 2.3491 0.0000 27.6616
#
#
#
# Elastic Compliance Matrix: (Units=1/GPa)
#
#
# Indices 1 2 3 4 5 6 
#
# 1 0.022046 -0.010223 0.000465 0.000000 -0.009839 0.000000
# 2 -0.010223 0.014728 -0.006353 0.000000 0.008518 0.000000
# 3 0.000465 -0.006353 0.014474 0.000000 -0.010300 0.000000
# 4 0.000000 0.000000 0.000000 0.033981 0.000000 -0.002886
# 5 -0.009839 0.008518 -0.010300 0.000000 0.036452 0.000000
# 6 0.000000 0.000000 0.000000 -0.002886 0.000000 0.036396
#
#
# Mechanical properties :
#
#
# Convention : Reuss Voigt Hill
#
# Bulk Modulus (GPa) = 52.55276 72.06059 62.30668
# Shear Modulus (GPa) = 25.42694 30.94868 28.18781
#
# Velocity S-wave (km/s) = 3.50909 3.87141 3.69469
# Velocity P-wave (km/s) = 6.47058 7.40818 6.95520
#
# Compressibility (1/GPa) = 0.01902849
#
# Stress axis : x y z
#
# Youngs Moduli (GPa) = 45.35872 67.89573 69.08961
#
# Poissons Ratio (x) = 0.69407 -0.03213
# Poissons Ratio (y) = 0.46368 0.43891
# Poissons Ratio (z) = -0.02110 0.43132
#
# Static dielectric constant tensor:
#      x y z
#    x 4.303310 0.000000 0.492840 
#    y 0.000000 3.952890 0.000000 
#    z 0.492840 0.000000 4.033470 
# 
# 
# High freq. dielectric constant tensor:
#      x y z
#    x 1.790440 0.000000 0.039230 
#    y 0.000000 1.814450 0.000000 
#    z 0.039230 0.000000 1.823270 
# 
# From -- ./inp_files/212361.got.cif
#   From: 2010.06.25/outbox.cif.g09.slc.cpg/sg12_107_cif.got.tgz:212361.got - 2010.06.28 00:19:55.
