data_PCOD8111085
_publ_section_title
;
Structure prediction by ZEFSAII (Michael W. Deem and Ramdas Pophale) SiO2 
 PCOD8111085
Probable space group: C 2/M
;
_chemical_formula_sum "Si O2"
_cell_formula_units_Z 48
_cell_length_a 27.182487
_cell_length_b 9.043064
_cell_length_c 20.272311
_cell_angle_alpha 90.000000
_cell_angle_beta 151.228387
_cell_angle_gamma 90.000000
_cell_volume 2398.509633
_symmetry_space_group_name_H-M "C 2/M"
_symmetry_group_IT_number 12
_symmetry_cell_setting 'monoclinic'
loop_
_space_group_symop_operation_xyz
x,y,z
-x,y,-z
-x,-y,-z
x,-y,z
1/2+x,1/2+y,z
1/2-x,1/2+y,-z
1/2-x,1/2-y,-z
1/2+x,1/2-y,z
loop_
_atom_site_type_symbol
_atom_site_label
_atom_site_fract_x
_atom_site_fract_y
_atom_site_fract_z
Si Si1 0.224349 0.325857 0.145842
Si Si2 0.748099 0.326517 0.568496
Si Si3 0.473816 0.333743 0.639688
Si Si4 0.575907 0.160647 0.647207
Si Si5 0.669038 0.668602 0.952494
Si Si6 0.385858 0.824506 0.851313
O O1 0.211508 0.500000 0.121264
O O2 0.342062 0.282882 0.276543
O O3 0.184862 0.273200 0.170843
O O4 0.162137 0.244105 0.015615
O O5 0.762067 0.500000 0.573425
O O6 0.750000 0.250000 0.500000
O O7 0.638628 0.288247 0.470280
O O8 0.835831 0.267747 0.723185
O O9 0.473061 0.500000 0.609071
O O10 0.508928 0.215427 0.628595
O O11 0.552808 0.323317 0.792458
O O12 0.500000 0.134972 0.500000
O O13 0.626121 0.000000 0.723688
O O14 0.706374 0.500000 0.001543
O O15 0.750000 0.750000 0.000000
O O16 0.389949 0.000000 0.852943
O O17 0.500000 0.761299 0.000000
#
# Coordination Sequence:
#
# PCOD8111085 Si02
#       6
#     8   8   8   8   8   8
#     4  11  22  37  61  88 118 158 200 246 303 362
#     4  10  22  41  64  90 120 157 203 253 304 363
#     4  10  22  39  59  84 118 159 200 243 299 364
#     4  11  23  37  57  86 118 153 195 247 304 362
#     4  11  22  37  58  88 124 159 200 247 299 360
#     4   9  20  39  62  89 119 156 203 250 298 358
#
# _framework density 20.012428
#
# number of rings (size 3 to 8) (size 9 to 14) (size 15 to 20)
#    0.000    1.667    1.667    2.500    2.333    4.000 
#    0.000    1.667    0.000    2.500    0.000    0.000 
#    0.000    0.000    0.000    0.000    0.000    0.000 
#
# Total GULP energy -297500.598546 kJ/mol
# GULP energy per Si atom -12395.858273 kJ/mol
# Density = 1.996688 g / cm^3
# Si number density = 20.012428 Si / 1000 Ang^3
#
#
#
# Elastic Constant Matrix: (Units=GPa)
#
#
# Indices 1 2 3 4 5 6 
#
# 1 136.7153 52.0997 66.0188 0.0000 -17.6074 0.0000
# 2 52.0997 84.6374 36.4210 0.0000 -9.2345 0.0000
# 3 66.0188 36.4210 152.2130 0.0000 -6.2545 0.0000
# 4 0.0000 0.0000 0.0000 24.9317 0.0000 -5.5447
# 5 -17.6074 -9.2345 -6.2545 0.0000 37.5386 0.0000
# 6 0.0000 0.0000 0.0000 -5.5447 0.0000 29.4224
#
#
#
# Elastic Compliance Matrix: (Units=1/GPa)
#
#
# Indices 1 2 3 4 5 6 
#
# 1 0.011456 -0.005120 -0.003599 0.000000 0.003514 0.000000
# 2 -0.005120 0.015744 -0.001496 0.000000 0.001222 0.000000
# 3 -0.003599 -0.001496 0.008462 0.000000 -0.000646 0.000000
# 4 0.000000 0.000000 0.000000 0.041864 0.000000 0.007889
# 5 0.003514 0.001222 -0.000646 0.000000 0.028481 0.000000
# 6 0.000000 0.000000 0.000000 0.007889 0.000000 0.035474
#
#
# Mechanical properties :
#
#
# Convention : Reuss Voigt Hill
#
# Bulk Modulus (GPa) = 65.65343 75.84942 70.75142
# Shear Modulus (GPa) = 29.94192 32.98029 31.46111
#
# Velocity S-wave (km/s) = 3.87223 4.06395 3.96925
# Velocity P-wave (km/s) = 7.27116 7.74625 7.51246
#
# Compressibility (1/GPa) = 0.01523150
#
# Stress axis : x y z
#
# Youngs Moduli (GPa) = 87.28847 63.51669 118.16974
#
# Poissons Ratio (x) = 0.32519 0.42535
# Poissons Ratio (y) = 0.44689 0.17682
# Poissons Ratio (z) = 0.31419 0.09504
#
# Static dielectric constant tensor:
#      x y z
#    x 3.661030 0.000000 -0.090410 
#    y 0.000000 3.938410 0.000000 
#    z -0.090410 0.000000 3.990790 
# 
# 
# High freq. dielectric constant tensor:
#      x y z
#    x 1.779560 0.000000 -0.007380 
#    y 0.000000 1.768630 0.000000 
#    z -0.007380 0.000000 1.800720 
# 
# From -- ./inp_files/327357.got.cif
#   From: 2010.06.25/outbox.cif.g09.slc.cpg/sg12_164_cif.got.tgz:327357.got - 2010.06.28 00:19:55.
