data_PCOD8111975
_publ_section_title
;
Structure prediction by ZEFSAII (Michael W. Deem and Ramdas Pophale) SiO2 
 PCOD8111975
Probable space group: C 2/M
;
_chemical_formula_sum "Si O2"
_cell_formula_units_Z 64
_cell_length_a 14.692431
_cell_length_b 17.265562
_cell_length_c 25.062508
_cell_angle_alpha 90.000000
_cell_angle_beta 150.543959
_cell_angle_gamma 90.000000
_cell_volume 3126.426828
_symmetry_space_group_name_H-M "C 2/M"
_symmetry_group_IT_number 12
_symmetry_cell_setting 'monoclinic'
loop_
_space_group_symop_operation_xyz
x,y,z
-x,y,-z
-x,-y,-z
x,-y,z
1/2+x,1/2+y,z
1/2-x,1/2+y,-z
1/2-x,1/2-y,-z
1/2+x,1/2-y,z
loop_
_atom_site_type_symbol
_atom_site_label
_atom_site_fract_x
_atom_site_fract_y
_atom_site_fract_z
Si Si1 0.598929 0.659879 0.995166
Si Si2 0.678406 0.085751 0.218768
Si Si3 0.027265 0.586486 0.782387
Si Si4 0.988350 0.792096 0.376626
Si Si5 0.820222 0.294739 0.616167
Si Si6 0.890211 0.657403 0.997597
Si Si7 0.509512 0.408259 0.837341
Si Si8 0.329206 0.818800 0.376612
O O1 0.805657 0.628738 0.102988
O O2 0.500000 0.636446 0.000000
O O3 0.600870 0.751409 0.987509
O O4 0.499744 0.621877 0.893400
O O5 0.645456 0.083749 0.265290
O O6 0.840580 0.143540 0.285920
O O7 0.487353 0.112536 0.095042
O O8 0.731870 0.000000 0.225567
O O9 0.084630 0.500000 0.793628
O O10 0.961481 0.634588 0.697328
O O11 0.902621 0.713845 0.357734
O O12 0.083542 0.771092 0.369786
O O13 0.138219 0.827959 0.493979
O O14 0.767423 0.254826 0.644870
O O15 0.676925 0.630015 0.888866
O O16 0.000000 0.635052 0.000000
O O17 0.532825 0.500000 0.849100
O O18 0.317861 0.386423 0.709879
O O19 0.500000 0.850888 0.500000
#
# Coordination Sequence:
#
# PCOD8111975 Si02
#       8
#     8   8   8   8   8   8   8   8
#     4  11  25  42  65  91 121 166 212 256 306 373
#     4  11  23  39  62  93 128 158 201 263 318 366
#     4  11  23  39  62  93 128 158 201 263 318 366
#     4  10  22  41  65  91 122 165 214 256 304 370
#     4  10  22  41  65  91 122 165 214 256 304 370
#     4  11  25  42  65  91 121 166 212 256 306 373
#     4  12  25  42  64  92 130 167 206 257 318 381
#     4  10  22  42  65  91 124 165 217 264 301 367
#
# _framework density 20.470654
#
# number of rings (size 3 to 8) (size 9 to 14) (size 15 to 20)
#    0.000    1.250    2.500    2.625    7.000    2.750 
#    0.000    1.250    0.000    4.500    0.000    0.000 
#    0.000    0.000    0.000    0.000    0.000    0.000 
#
# Total GULP energy -396893.754193 kJ/mol
# GULP energy per Si atom -12402.929819 kJ/mol
# Density = 2.042406 g / cm^3
# Si number density = 20.470654 Si / 1000 Ang^3
#
#
#
# Elastic Constant Matrix: (Units=GPa)
#
#
# Indices 1 2 3 4 5 6 
#
# 1 81.5508 18.1190 23.1333 0.0006 4.0230 0.0001
# 2 18.1190 83.0653 39.1822 0.0022 -0.5041 0.0008
# 3 23.1333 39.1822 120.4842 -0.0012 7.9234 0.0009
# 4 0.0006 0.0022 -0.0012 10.5441 0.0004 0.5417
# 5 4.0230 -0.5041 7.9234 0.0004 28.4217 0.0002
# 6 0.0001 0.0008 0.0009 0.5417 0.0002 17.4668
#
#
#
# Elastic Compliance Matrix: (Units=1/GPa)
#
#
# Indices 1 2 3 4 5 6 
#
# 1 0.013299 -0.002066 -0.001788 0.000000 -0.001421 0.000000
# 2 -0.002066 0.014610 -0.004473 -0.000003 0.001799 0.000000
# 3 -0.001788 -0.004473 0.010275 0.000002 -0.002691 0.000000
# 4 0.000000 -0.000003 0.000002 0.094991 -0.000002 -0.002946
# 5 -0.001421 0.001799 -0.002691 -0.000002 0.036167 0.000000
# 6 0.000000 0.000000 0.000000 -0.002946 0.000000 0.057343
#
#
# Mechanical properties :
#
#
# Convention : Reuss Voigt Hill
#
# Bulk Modulus (GPa) = 46.44785 49.55215 48.00000
# Shear Modulus (GPa) = 19.95888 24.93091 22.44490
#
# Velocity S-wave (km/s) = 3.12589 3.49361 3.31485
# Velocity P-wave (km/s) = 5.98059 6.36653 6.17657
#
# Compressibility (1/GPa) = 0.02152952
#
# Stress axis : x y z
#
# Youngs Moduli (GPa) = 75.19577 68.44539 97.32622
#
# Poissons Ratio (x) = 0.14141 0.17403
# Poissons Ratio (y) = 0.15536 0.43533
# Poissons Ratio (z) = 0.13446 0.30615
#
# Static dielectric constant tensor:
#      x y z
#    x 3.754810 0.000000 0.038310 
#    y 0.000000 3.574940 0.000000 
#    z 0.038310 0.000000 3.775640 
# 
# 
# High freq. dielectric constant tensor:
#      x y z
#    x 1.806210 0.000000 0.002870 
#    y 0.000000 1.788910 0.000000 
#    z 0.002870 0.000000 1.805990 
# 
# From -- ./inp_files/340832.got.cif
#   From: 2010.06.25/outbox.cif.g09.slc.cpg/sg12_171_cif.got.tgz:340832.got - 2010.06.28 00:19:55.
