data_PCOD8111268
_publ_section_title
;
Structure prediction by ZEFSAII (Michael W. Deem and Ramdas Pophale) SiO2 
 PCOD8111268
Probable space group: C 2/M
;
_chemical_formula_sum "Si O2"
_cell_formula_units_Z 56
_cell_length_a 22.389164
_cell_length_b 8.611162
_cell_length_c 15.226261
_cell_angle_alpha 90.000000
_cell_angle_beta 114.265453
_cell_angle_gamma 90.000000
_cell_volume 2676.218896
_symmetry_space_group_name_H-M "C 2/M"
_symmetry_group_IT_number 12
_symmetry_cell_setting 'monoclinic'
loop_
_space_group_symop_operation_xyz
x,y,z
-x,y,-z
-x,-y,-z
x,-y,z
1/2+x,1/2+y,z
1/2-x,1/2+y,-z
1/2-x,1/2-y,-z
1/2+x,1/2-y,z
loop_
_atom_site_type_symbol
_atom_site_label
_atom_site_fract_x
_atom_site_fract_y
_atom_site_fract_z
Si Si1 0.339018 0.180194 0.245570
Si Si2 0.493276 0.320621 0.094910
Si Si3 0.114428 0.320041 0.233540
Si Si4 0.639840 0.182155 0.938461
Si Si5 0.424125 0.814520 0.454047
Si Si6 0.197584 0.180016 0.135612
Si Si7 0.823733 0.316412 0.546365
O O1 0.341782 0.238450 0.147566
O O2 0.391024 0.254919 0.344842
O O3 0.264504 0.216811 0.229588
O O4 0.354619 0.000000 0.257953
O O5 0.512833 0.500000 0.116415
O O6 0.537165 0.216727 0.187720
O O7 0.419270 0.294047 0.074950
O O8 0.500000 0.260500 0.000000
O O9 0.128729 0.500000 0.226344
O O10 0.139569 0.221896 0.166060
O O11 0.146046 0.263076 0.342959
O O12 0.622643 0.000000 0.932130
O O13 0.695666 0.221242 0.044047
O O14 0.500000 0.752675 0.500000
O O15 0.375944 0.755493 0.504014
O O16 0.425703 0.000000 0.458125
O O17 0.194272 0.000000 0.106895
O O18 0.817830 0.500000 0.534029
O O19 0.750000 0.250000 0.500000
#
# Coordination Sequence:
#
# PCOD8111268 Si02
#       7
#     8   8   8   8   8   8   8
#     4   9  20  35  56  85 115 153 193 237 290 344
#     4  11  23  39  58  83 116 156 197 238 294 355
#     4  11  23  37  59  90 119 152 198 245 294 345
#     4  11  22  36  58  86 117 150 193 243 289 342
#     4   9  18  35  60  87 117 152 199 249 294 350
#     4  11  21  37  58  84 120 157 194 233 289 357
#     4  10  22  39  63  94 121 157 201 250 304 357
#
# _framework density 20.925045000000001
#
# number of rings (size 3 to 8) (size 9 to 14) (size 15 to 20)
#    0.000    1.714    1.429    3.000    2.000    2.857 
#    0.000    2.143    0.000    2.143    0.000    0.000 
#    0.000    0.000    0.000    0.000    0.000    0.000 
#
# Total GULP energy -347016.799352 kJ/mol
# GULP energy per Si atom -12393.457120 kJ/mol
# Density = 2.087742 g / cm^3
# Si number density = 20.925045 Si / 1000 Ang^3
#
#
#
# Elastic Constant Matrix: (Units=GPa)
#
#
# Indices 1 2 3 4 5 6 
#
# 1 110.9799 18.6047 52.8119 0.0000 6.5727 0.0000
# 2 18.6047 32.0351 33.5463 0.0000 3.9234 0.0000
# 3 52.8119 33.5463 165.3900 0.0000 10.4944 0.0000
# 4 0.0000 0.0000 0.0000 34.7503 0.0000 25.4819
# 5 6.5727 3.9234 10.4944 0.0000 36.4384 0.0000
# 6 0.0000 0.0000 0.0000 25.4819 0.0000 38.5584
#
#
#
# Elastic Compliance Matrix: (Units=1/GPa)
#
#
# Indices 1 2 3 4 5 6 
#
# 1 0.010935 -0.003363 -0.002758 0.000000 -0.000816 0.000000
# 2 -0.003363 0.040810 -0.007093 0.000000 -0.001745 0.000000
# 3 -0.002758 -0.007093 0.008440 0.000000 -0.001170 0.000000
# 4 0.000000 0.000000 0.000000 0.055834 0.000000 -0.036899
# 5 -0.000816 -0.001745 -0.001170 0.000000 0.028115 0.000000
# 6 0.000000 0.000000 0.000000 -0.036899 0.000000 0.050320
#
#
# Mechanical properties :
#
#
# Convention : Reuss Voigt Hill
#
# Bulk Modulus (GPa) = 29.62295 57.59232 43.60763
# Shear Modulus (GPa) = 21.53922 35.51222 28.52572
#
# Velocity S-wave (km/s) = 3.21183 4.12408 3.69620
# Velocity P-wave (km/s) = 5.28601 7.08945 6.25308
#
# Compressibility (1/GPa) = 0.03375762
#
# Stress axis : x y z
#
# Youngs Moduli (GPa) = 91.44853 24.50376 118.48511
#
# Poissons Ratio (x) = 0.08240 0.32677
# Poissons Ratio (y) = 0.30751 0.84043
# Poissons Ratio (z) = 0.25221 0.17381
#
# Static dielectric constant tensor:
#      x y z
#    x 4.509750 0.000000 -0.484090 
#    y 0.000000 3.353280 0.000000 
#    z -0.484090 0.000000 4.576770 
# 
# 
# High freq. dielectric constant tensor:
#      x y z
#    x 1.828460 0.000000 0.009580 
#    y 0.000000 1.783970 0.000000 
#    z 0.009580 0.000000 1.834190 
# 
# From -- ./inp_files/238874.got.cif
#   From: 2010.06.25/outbox.cif.g09.slc.cpg/sg12_120_cif.got.tgz:238874.got - 2010.06.28 00:19:55.
