data_PCOD8111777
_publ_section_title
;
Structure prediction by ZEFSAII (Michael W. Deem and Ramdas Pophale) SiO2 
 PCOD8111777
Probable space group: C 2/M
;
_chemical_formula_sum "Si O2"
_cell_formula_units_Z 36
_cell_length_a 12.741055
_cell_length_b 26.059836
_cell_length_c 5.003148
_cell_angle_alpha 90.000000
_cell_angle_beta 100.478711
_cell_angle_gamma 90.000000
_cell_volume 1633.489767
_symmetry_space_group_name_H-M "C 2/M"
_symmetry_group_IT_number 12
_symmetry_cell_setting 'monoclinic'
loop_
_space_group_symop_operation_xyz
x,y,z
-x,y,-z
-x,-y,-z
x,-y,z
1/2+x,1/2+y,z
1/2-x,1/2+y,-z
1/2-x,1/2-y,-z
1/2+x,1/2-y,z
loop_
_atom_site_type_symbol
_atom_site_label
_atom_site_fract_x
_atom_site_fract_y
_atom_site_fract_z
Si Si1 0.572691 0.874813 0.291291
Si Si2 0.199549 0.100483 0.706809
Si Si3 0.878279 0.843740 0.842439
Si Si4 0.070846 0.738669 0.287887
Si Si5 0.575952 0.500000 0.781866
O O1 0.500000 0.894666 0.500000
O O2 0.677206 0.910185 0.312440
O O3 0.620218 0.817275 0.378197
O O4 0.500000 0.878335 0.000000
O O5 0.134820 0.117952 0.413801
O O6 0.150733 0.049556 0.811868
O O7 0.197692 0.142599 0.943920
O O8 0.847294 0.785259 0.738769
O O9 0.000000 0.846779 0.000000
O O10 0.000000 0.759101 0.500000
O O11 0.000000 0.727600 0.000000
O O12 0.500000 0.500000 0.500000
O O13 0.500000 0.500000 0.000000
#
# Coordination Sequence:
#
# PCOD8111777 Si02
#       5
#     8   8   8   8   4
#     4  10  22  41  60  85 122 158 197 245 285 338
#     4  12  24  39  63  88 115 160 202 236 300 353
#     4  11  21  36  59  90 123 154 195 244 291 357
#     4   9  18  33  55  83 120 158 191 237 292 338
#     4  12  26  44  64  90 122 148 186 248 303 352
#
# _framework density 22.038703000000002
#
# number of rings (size 3 to 8) (size 9 to 14) (size 15 to 20)
#    0.000    1.333    0.000    8.000    0.000    1.778 
#    0.000    1.111    0.000    0.000    0.000    0.000 
#    0.000    0.000    0.000    0.000    0.000    0.000 
#
# Total GULP energy -223156.433516 kJ/mol
# GULP energy per Si atom -12397.579640 kJ/mol
# Density = 2.198854 g / cm^3
# Si number density = 22.038703 Si / 1000 Ang^3
#
#
#
# Elastic Constant Matrix: (Units=GPa)
#
#
# Indices 1 2 3 4 5 6 
#
# 1 143.8165 58.4296 46.9977 0.0000 -25.8716 0.0000
# 2 58.4296 75.1791 26.2601 0.0000 -7.3186 0.0000
# 3 46.9977 26.2601 136.4338 0.0000 -29.4094 0.0000
# 4 0.0000 0.0000 0.0000 26.5071 0.0000 -5.1211
# 5 -25.8716 -7.3186 -29.4094 0.0000 39.3779 0.0000
# 6 0.0000 0.0000 0.0000 -5.1211 0.0000 31.4097
#
#
#
# Elastic Compliance Matrix: (Units=1/GPa)
#
#
# Indices 1 2 3 4 5 6 
#
# 1 0.011572 -0.008029 -0.001339 0.000000 0.005111 0.000000
# 2 -0.008029 0.019847 -0.001664 0.000000 -0.002829 0.000000
# 3 -0.001339 -0.001664 0.009362 0.000000 0.005803 0.000000
# 4 0.000000 0.000000 0.000000 0.038953 0.000000 0.006351
# 5 0.005111 -0.002829 0.005803 0.000000 0.032561 0.000000
# 6 0.000000 0.000000 0.000000 0.006351 0.000000 0.032873
#
#
# Mechanical properties :
#
#
# Convention : Reuss Voigt Hill
#
# Bulk Modulus (GPa) = 53.42719 68.75603 61.09161
# Shear Modulus (GPa) = 28.82315 34.37506 31.59911
#
# Velocity S-wave (km/s) = 3.62033 3.95366 3.79066
# Velocity P-wave (km/s) = 6.46303 7.21855 6.85122
#
# Compressibility (1/GPa) = 0.01871706
#
# Stress axis : x y z
#
# Youngs Moduli (GPa) = 86.41379 50.38443 106.81346
#
# Poissons Ratio (x) = 0.40452 0.14306
# Poissons Ratio (y) = 0.69379 0.17777
# Poissons Ratio (z) = 0.11574 0.08386
#
# Static dielectric constant tensor:
#      x y z
#    x 3.676700 0.000000 -0.192470 
#    y 0.000000 4.246580 0.000000 
#    z -0.192470 0.000000 4.066200 
# 
# 
# High freq. dielectric constant tensor:
#      x y z
#    x 1.849580 0.000000 -0.015910 
#    y 0.000000 1.848010 0.000000 
#    z -0.015910 0.000000 1.890620 
# 
# From -- ./inp_files/7976.got.cif
#   From: 2010.06.25/outbox.cif.g09.slc.cpg/sg12_4_cif.got.tgz:7976.got - 2010.06.28 00:19:55.
