data_PCOD8111895
_publ_section_title
;
Structure prediction by ZEFSAII (Michael W. Deem and Ramdas Pophale) SiO2 
 PCOD8111895
Probable space group: C 2/M
;
_chemical_formula_sum "Si O2"
_cell_formula_units_Z 56
_cell_length_a 17.781647
_cell_length_b 8.760095
_cell_length_c 22.599561
_cell_angle_alpha 90.000000
_cell_angle_beta 126.268518
_cell_angle_gamma 90.000000
_cell_volume 2838.261393
_symmetry_space_group_name_H-M "C 2/M"
_symmetry_group_IT_number 12
_symmetry_cell_setting 'monoclinic'
loop_
_space_group_symop_operation_xyz
x,y,z
-x,y,-z
-x,-y,-z
x,-y,z
1/2+x,1/2+y,z
1/2-x,1/2+y,-z
1/2-x,1/2-y,-z
1/2+x,1/2-y,z
loop_
_atom_site_type_symbol
_atom_site_label
_atom_site_fract_x
_atom_site_fract_y
_atom_site_fract_z
Si Si1 0.470499 0.824670 0.341312
Si Si2 0.897674 0.676328 0.929439
Si Si3 0.418226 0.819946 0.500111
Si Si4 0.944966 0.177501 0.206017
Si Si5 0.261084 0.178468 0.069050
Si Si6 0.891168 0.676859 0.789214
Si Si7 0.791191 0.675278 0.341248
O O1 0.563583 0.775564 0.422638
O O2 0.467974 0.714331 0.284459
O O3 0.378535 0.803122 0.338221
O O4 0.478418 0.000000 0.323514
O O5 0.872301 0.500000 0.929122
O O6 0.826336 0.781189 0.931173
O O7 0.890714 0.718960 0.857733
O O8 0.000000 0.715527 0.000000
O O9 0.500000 0.741034 0.500000
O O10 0.320206 0.777069 0.422640
O O11 0.430596 0.000000 0.500877
O O12 0.854648 0.268832 0.144201
O O13 0.031737 0.220187 0.205730
O O14 0.923573 0.000000 0.189464
O O15 0.266384 0.000000 0.062724
O O16 0.250000 0.250000 0.000000
O O17 0.915307 0.500000 0.790197
O O18 0.790348 0.712006 0.715508
O O19 0.756305 0.500000 0.322874
#
# Coordination Sequence:
#
# PCOD8111895 Si02
#       7
#     8   8   8   8   8   8   8
#     4   9  17  33  58  85 113 146 187 234 285 341
#     4  10  22  41  64  89 118 151 188 232 280 331
#     4   7  12  26  51  81 110 143 184 230 280 337
#     4  12  25  40  58  82 115 152 193 237 282 335
#     4  12  25  42  65  91 120 152 188 229 276 331
#     4  11  23  38  57  82 114 151 192 238 287 337
#     4   9  17  32  56  84 113 147 188 233 284 343
#
# _framework density 19.730388999999999
#
# number of rings (size 3 to 8) (size 9 to 14) (size 15 to 20)
#    0.000    2.000    0.000    6.429    0.000    5.429 
#    0.000    1.429    0.000    2.571    0.000    0.000 
#    0.000    0.000    0.000    0.000    0.000    0.000 
#
# Total GULP energy -347105.710867 kJ/mol
# GULP energy per Si atom -12396.632531 kJ/mol
# Density = 1.968548 g / cm^3
# Si number density = 19.730389 Si / 1000 Ang^3
#
#
#
# Elastic Constant Matrix: (Units=GPa)
#
#
# Indices 1 2 3 4 5 6 
#
# 1 84.7579 42.7972 57.6195 0.0000 -3.7362 0.0000
# 2 42.7972 92.9465 50.2483 0.0000 -5.0597 0.0000
# 3 57.6195 50.2483 176.1848 0.0000 -5.4653 0.0000
# 4 0.0000 0.0000 0.0000 13.1767 0.0000 9.5813
# 5 -3.7362 -5.0597 -5.4653 0.0000 21.3791 0.0000
# 6 0.0000 0.0000 0.0000 9.5813 0.0000 45.6287
#
#
#
# Elastic Compliance Matrix: (Units=1/GPa)
#
#
# Indices 1 2 3 4 5 6 
#
# 1 0.017530 -0.005850 -0.004045 0.000000 0.000645 0.000000
# 2 -0.005850 0.014767 -0.002239 0.000000 0.001900 0.000000
# 3 -0.004045 -0.002239 0.007660 0.000000 0.000721 0.000000
# 4 0.000000 0.000000 0.000000 0.089567 0.000000 -0.018808
# 5 0.000645 0.001900 0.000721 0.000000 0.047522 0.000000
# 6 0.000000 0.000000 0.000000 -0.018808 0.000000 0.025865
#
#
# Mechanical properties :
#
#
# Convention : Reuss Voigt Hill
#
# Bulk Modulus (GPa) = 63.74127 72.80213 68.27170
# Shear Modulus (GPa) = 21.51390 29.58518 25.54954
#
# Velocity S-wave (km/s) = 3.30569 3.87650 3.60242
# Velocity P-wave (km/s) = 6.85175 7.55082 7.20976
#
# Compressibility (1/GPa) = 0.01568842
#
# Stress axis : x y z
#
# Youngs Moduli (GPa) = 57.04426 67.72043 130.55435
#
# Poissons Ratio (x) = 0.39617 0.52804
# Poissons Ratio (y) = 0.33371 0.29235
# Poissons Ratio (z) = 0.23072 0.15165
#
# Static dielectric constant tensor:
#      x y z
#    x 3.404570 0.000000 -0.069870 
#    y 0.000000 3.416670 0.000000 
#    z -0.069870 0.000000 4.069880 
# 
# 
# High freq. dielectric constant tensor:
#      x y z
#    x 1.752060 0.000000 -0.003340 
#    y 0.000000 1.753420 0.000000 
#    z -0.003340 0.000000 1.797620 
# 
# From -- ./inp_files/342610.got.cif
#   From: 2010.06.25/outbox.cif.g09.slc.cpg/sg12_172_cif.got.tgz:342610.got - 2010.06.28 00:19:55.
