data_PCOD8111258
_publ_section_title
;
Structure prediction by ZEFSAII (Michael W. Deem and Ramdas Pophale) SiO2 
 PCOD8111258
Probable space group: C 2/M
;
_chemical_formula_sum "Si O2"
_cell_formula_units_Z 40
_cell_length_a 22.416675
_cell_length_b 13.265232
_cell_length_c 9.226338
_cell_angle_alpha 90.000000
_cell_angle_beta 50.224701
_cell_angle_gamma 90.000000
_cell_volume 2108.593442
_symmetry_space_group_name_H-M "C 2/M"
_symmetry_group_IT_number 12
_symmetry_cell_setting 'monoclinic'
loop_
_space_group_symop_operation_xyz
x,y,z
-x,y,-z
-x,-y,-z
x,-y,z
1/2+x,1/2+y,z
1/2-x,1/2+y,-z
1/2-x,1/2-y,-z
1/2+x,1/2-y,z
loop_
_atom_site_type_symbol
_atom_site_label
_atom_site_fract_x
_atom_site_fract_y
_atom_site_fract_z
Si Si1 0.835539 0.113297 0.713275
Si Si2 0.244910 0.614409 0.147312
Si Si3 0.077381 0.307128 0.463371
Si Si4 0.280746 0.787468 0.302536
Si Si5 0.575621 0.885565 0.786841
O O1 0.908746 0.188749 0.592056
O O2 0.780226 0.131067 0.662020
O O3 0.868565 0.000000 0.661396
O O4 0.780642 0.135478 0.935239
O O5 0.261076 0.500000 0.172426
O O6 0.152060 0.632185 0.288235
O O7 0.288297 0.690003 0.188067
O O8 0.067600 0.322794 0.650807
O O9 0.000000 0.343856 0.500000
O O10 0.250000 0.750000 0.500000
O O11 0.362369 0.840223 0.198878
O O12 0.597162 0.000000 0.710494
O O13 0.500000 0.880323 0.000000
#
# Coordination Sequence:
#
# PCOD8111258 Si02
#       5
#     8   8   8   8   8
#     4  10  22  40  63  88 115 158 202 240 290 348
#     4  10  22  39  63  91 117 154 202 242 289 350
#     4  11  23  39  60  85 122 157 191 242 292 349
#     4  11  20  38  62  87 119 155 194 250 292 344
#     4  11  25  40  58  88 121 155 193 240 298 352
#
# _framework density 18.969992000000001
#
# number of rings (size 3 to 8) (size 9 to 14) (size 15 to 20)
#    0.000    1.400    4.000    3.600    5.600    2.800 
#    0.000    0.000    0.000    1.200    0.000    0.000 
#    0.000    0.000    0.000    0.000    0.000    0.000 
#
# Total GULP energy -247974.813847 kJ/mol
# GULP energy per Si atom -12398.740692 kJ/mol
# Density = 1.892682 g / cm^3
# Si number density = 18.969992 Si / 1000 Ang^3
#
#
#
# Elastic Constant Matrix: (Units=GPa)
#
#
# Indices 1 2 3 4 5 6 
#
# 1 90.6785 14.2851 36.2277 0.0000 -6.4417 0.0000
# 2 14.2851 111.9221 50.6023 0.0000 -0.6995 0.0000
# 3 36.2277 50.6023 96.2700 0.0000 11.1840 0.0000
# 4 0.0000 0.0000 0.0000 32.6449 0.0000 4.1622
# 5 -6.4417 -0.6995 11.1840 0.0000 29.4656 0.0000
# 6 0.0000 0.0000 0.0000 4.1622 0.0000 20.2657
#
#
#
# Elastic Compliance Matrix: (Units=1/GPa)
#
#
# Indices 1 2 3 4 5 6 
#
# 1 0.013814 0.001194 -0.006465 0.000000 0.005502 0.000000
# 2 0.001194 0.012038 -0.007156 0.000000 0.003263 0.000000
# 3 -0.006465 -0.007156 0.017539 0.000000 -0.008241 0.000000
# 4 0.000000 0.000000 0.000000 0.031456 0.000000 -0.006461
# 5 0.005502 0.003263 -0.008241 0.000000 0.038346 0.000000
# 6 0.000000 0.000000 0.000000 -0.006461 0.000000 0.050671
#
#
# Mechanical properties :
#
#
# Convention : Reuss Voigt Hill
#
# Bulk Modulus (GPa) = 53.94624 55.67785 54.81205
# Shear Modulus (GPa) = 25.65444 29.65894 27.65669
#
# Velocity S-wave (km/s) = 3.68145 3.95836 3.82241
# Velocity P-wave (km/s) = 6.82423 7.09265 6.95974
#
# Compressibility (1/GPa) = 0.01853697
#
# Stress axis : x y z
#
# Youngs Moduli (GPa) = 72.39202 83.06899 57.01499
#
# Poissons Ratio (x) = -0.09922 0.36862
# Poissons Ratio (y) = -0.08646 0.40801
# Poissons Ratio (z) = 0.46803 0.59446
#
# Static dielectric constant tensor:
#      x y z
#    x 3.200460 0.000000 0.037390 
#    y 0.000000 3.696100 0.000000 
#    z 0.037390 0.000000 3.488590 
# 
# 
# High freq. dielectric constant tensor:
#      x y z
#    x 1.730700 0.000000 0.010890 
#    y 0.000000 1.748130 0.000000 
#    z 0.010890 0.000000 1.744770 
# 
# From -- ./inp_files/72469.got.cif
#   From: 2010.06.25/outbox.cif.g09.slc.cpg/sg12_37_cif.got.tgz:72469.got - 2010.06.28 00:19:55.
