data_PCOD8111307
_publ_section_title
;
Structure prediction by ZEFSAII (Michael W. Deem and Ramdas Pophale) SiO2 
 PCOD8111307
Probable space group: C 2/M
;
_chemical_formula_sum "Si O2"
_cell_formula_units_Z 56
_cell_length_a 13.747714
_cell_length_b 28.333535
_cell_length_c 14.241725
_cell_angle_alpha 90.000000
_cell_angle_beta 30.839529
_cell_angle_gamma 90.000000
_cell_volume 2843.821912
_symmetry_space_group_name_H-M "C 2/M"
_symmetry_group_IT_number 12
_symmetry_cell_setting 'monoclinic'
loop_
_space_group_symop_operation_xyz
x,y,z
-x,y,-z
-x,-y,-z
x,-y,z
1/2+x,1/2+y,z
1/2-x,1/2+y,-z
1/2-x,1/2-y,-z
1/2+x,1/2-y,z
loop_
_atom_site_type_symbol
_atom_site_label
_atom_site_fract_x
_atom_site_fract_y
_atom_site_fract_z
Si Si1 0.984849 0.552320 0.412347
Si Si2 0.572852 0.447015 0.673285
Si Si3 0.390686 0.640304 0.496044
Si Si4 0.256296 0.600584 0.044730
Si Si5 0.130636 0.783665 0.188673
Si Si6 0.472445 0.850543 0.915806
Si Si7 0.361741 0.701221 0.026406
O O1 0.068472 0.500000 0.355417
O O2 0.770351 0.551716 0.560415
O O3 0.000000 0.579175 0.500000
O O4 0.104987 0.576226 0.233819
O O5 0.524979 0.500000 0.673336
O O6 0.581076 0.407504 0.585941
O O7 0.429042 0.433394 0.875774
O O8 0.500000 0.629767 0.500000
O O9 0.482957 0.685728 0.369877
O O10 0.172780 0.654111 0.696007
O O11 0.322989 0.645974 0.048141
O O12 0.155906 0.610587 0.028637
O O13 0.162823 0.730810 0.204696
O O14 0.348885 0.802861 0.013508
O O15 0.053843 0.782014 0.145038
O O16 0.500000 0.866981 0.000000
O O17 0.500000 0.710638 0.000000
#
# Coordination Sequence:
#
# PCOD8111307 Si02
#       7
#     8   8   8   8   8   8   8
#     4  10  23  40  61  88 122 167 214 256 310 375
#     4  11  23  41  64  93 129 164 212 267 314 377
#     4  12  22  39  68  93 123 170 211 253 323 381
#     4  11  22  40  63  91 127 167 205 262 320 369
#     4  10  22  42  62  92 127 165 210 255 313 375
#     4  11  20  38  65  88 122 163 205 255 309 380
#     4  10  22  39  65  92 130 164 207 262 306 368
#
# _framework density 19.69181
#
# number of rings (size 3 to 8) (size 9 to 14) (size 15 to 20)
#    0.000    1.286    5.714    0.857    2.000    0.286 
#    0.000   10.714    0.000    2.143    0.000    0.000 
#    0.000    0.000    0.000    0.000    0.000    0.000 
#
# Total GULP energy -346959.369420 kJ/mol
# GULP energy per Si atom -12391.406051 kJ/mol
# Density = 1.964699 g / cm^3
# Si number density = 19.691810 Si / 1000 Ang^3
#
#
#
# Elastic Constant Matrix: (Units=GPa)
#
#
# Indices 1 2 3 4 5 6 
#
# 1 124.1962 33.3860 30.6583 0.0014 21.7031 0.0001
# 2 33.3860 85.5394 59.7774 0.0003 11.5431 0.0006
# 3 30.6583 59.7774 214.8874 0.0043 50.2904 0.0014
# 4 0.0014 0.0003 0.0043 80.7207 0.0002 11.3991
# 5 21.7031 11.5431 50.2904 0.0002 57.2391 0.0018
# 6 0.0001 0.0006 0.0014 11.3991 0.0018 19.1393
#
#
#
# Elastic Compliance Matrix: (Units=1/GPa)
#
#
# Indices 1 2 3 4 5 6 
#
# 1 0.009468 -0.003529 0.000383 0.000000 -0.003215 0.000000
# 2 -0.003529 0.015855 -0.004371 0.000000 0.001981 -0.000001
# 3 0.000383 -0.004371 0.007103 0.000000 -0.005505 0.000000
# 4 0.000000 0.000000 0.000000 0.013526 0.000001 -0.008056
# 5 -0.003215 0.001981 -0.005505 0.000001 0.023127 -0.000002
# 6 0.000000 -0.000001 0.000000 -0.008056 -0.000002 0.057046
#
#
# Mechanical properties :
#
#
# Convention : Reuss Voigt Hill
#
# Bulk Modulus (GPa) = 57.49552 74.69626 66.09589
# Shear Modulus (GPa) = 34.02398 51.47325 42.74862
#
# Velocity S-wave (km/s) = 4.16122 5.11822 4.66433
# Velocity P-wave (km/s) = 7.23524 8.54068 7.91492
#
# Compressibility (1/GPa) = 0.01739266
#
# Stress axis : x y z
#
# Youngs Moduli (GPa) = 105.62250 63.07153 140.78596
#
# Poissons Ratio (x) = 0.22260 -0.05398
# Poissons Ratio (y) = 0.37278 0.61532
# Poissons Ratio (z) = -0.04050 0.27566
#
# Static dielectric constant tensor:
#      x y z
#    x 3.681500 0.000000 0.069610 
#    y 0.000000 3.906650 0.000000 
#    z 0.069610 0.000000 3.723180 
# 
# 
# High freq. dielectric constant tensor:
#      x y z
#    x 1.777350 0.000000 0.003340 
#    y 0.000000 1.769510 0.000000 
#    z 0.003340 0.000000 1.765230 
# 
# From -- ./inp_files/219060.got.cif
#   From: 2010.06.25/outbox.cif.g09.slc.cpg/sg12_110_cif.got.tgz:219060.got - 2010.06.28 00:19:55.
