data_PCOD8111843
_publ_section_title
;
Structure prediction by ZEFSAII (Michael W. Deem and Ramdas Pophale) SiO2 
 PCOD8111843
Probable space group: C 2/M
;
_chemical_formula_sum "Si O2"
_cell_formula_units_Z 28
_cell_length_a 9.070229
_cell_length_b 9.686600
_cell_length_c 23.191517
_cell_angle_alpha 90.000000
_cell_angle_beta 38.471019
_cell_angle_gamma 90.000000
_cell_volume 1267.628614
_symmetry_space_group_name_H-M "C 2/M"
_symmetry_group_IT_number 12
_symmetry_cell_setting 'monoclinic'
loop_
_space_group_symop_operation_xyz
x,y,z
-x,y,-z
-x,-y,-z
x,-y,z
1/2+x,1/2+y,z
1/2-x,1/2+y,-z
1/2-x,1/2-y,-z
1/2+x,1/2-y,z
loop_
_atom_site_type_symbol
_atom_site_label
_atom_site_fract_x
_atom_site_fract_y
_atom_site_fract_z
Si Si1 0.500000 0.252192 0.000000
Si Si2 0.995645 0.349974 0.125810
Si Si3 0.812233 0.342693 0.702147
Si Si4 0.764281 0.155975 0.404275
O O1 0.456584 0.157776 0.069207
O O2 0.272223 0.346525 0.057310
O O3 0.897682 0.500000 0.175778
O O4 0.855574 0.227647 0.199602
O O5 0.861217 0.500000 0.706855
O O6 0.684022 0.339184 0.679820
O O7 0.059419 0.262253 0.619268
O O8 0.500000 0.204670 0.500000
O O9 0.804837 0.000000 0.415218
#
# Coordination Sequence:
#
# PCOD8111843 Si02
#       4
#     4   8   8   8
#     4  10  24  40  62  90 116 152 202 248 292 350
#     4  11  23  41  63  87 119 157 197 244 297 351
#     4  11  24  39  60  91 122 155 198 244 293 352
#     4  10  22  41  63  88 120 158 199 243 293 349
#
# _framework density 22.088488999999999
#
# number of rings (size 3 to 8) (size 9 to 14) (size 15 to 20)
#    0.000    1.429    0.000    4.286    0.000   14.286 
#    0.000    0.000    0.000    0.000    0.000    0.000 
#    0.000    0.000    0.000    0.000    0.000    0.000 
#
# Total GULP energy -173645.238903 kJ/mol
# GULP energy per Si atom -12403.231350 kJ/mol
# Density = 2.203821 g / cm^3
# Si number density = 22.088489 Si / 1000 Ang^3
#
#
#
# Elastic Constant Matrix: (Units=GPa)
#
#
# Indices 1 2 3 4 5 6 
#
# 1 77.7672 21.5201 0.7455 0.0003 7.0635 0.0001
# 2 21.5201 143.7678 24.1120 0.0003 -1.5784 0.0001
# 3 0.7455 24.1120 77.8852 0.0014 8.5315 0.0001
# 4 0.0003 0.0003 0.0014 35.9156 0.0001 -2.2107
# 5 7.0635 -1.5784 8.5315 0.0001 25.9991 0.0000
# 6 0.0001 0.0001 0.0001 -2.2107 0.0000 18.8155
#
#
#
# Elastic Compliance Matrix: (Units=1/GPa)
#
#
# Indices 1 2 3 4 5 6 
#
# 1 0.013871 -0.002298 0.001044 0.000000 -0.004251 0.000000
# 2 -0.002298 0.007756 -0.002592 0.000000 0.001946 0.000000
# 3 0.001044 -0.002592 0.014190 -0.000001 -0.005098 0.000000
# 4 0.000000 0.000000 -0.000001 0.028046 0.000000 0.003295
# 5 -0.004251 0.001946 -0.005098 0.000000 0.041409 0.000000
# 6 0.000000 0.000000 0.000000 0.003295 0.000000 0.053535
#
#
# Mechanical properties :
#
#
# Convention : Reuss Voigt Hill
#
# Bulk Modulus (GPa) = 35.55559 43.57504 39.56532
# Shear Modulus (GPa) = 28.42957 33.01555 30.72256
#
# Velocity S-wave (km/s) = 3.59148 3.87032 3.73350
# Velocity P-wave (km/s) = 5.77322 6.30419 6.04454
#
# Compressibility (1/GPa) = 0.02812497
#
# Stress axis : x y z
#
# Youngs Moduli (GPa) = 72.09338 128.93629 70.47060
#
# Poissons Ratio (x) = 0.29631 -0.07359
# Poissons Ratio (y) = 0.16568 0.18267
# Poissons Ratio (z) = -0.07529 0.33423
#
# Static dielectric constant tensor:
#      x y z
#    x 4.007670 0.000000 -0.012710 
#    y 0.000000 3.883180 0.000000 
#    z -0.012710 0.000000 3.896750 
# 
# 
# High freq. dielectric constant tensor:
#      x y z
#    x 1.870880 0.000000 -0.000910 
#    y 0.000000 1.870040 0.000000 
#    z -0.000910 0.000000 1.875200 
# 
# From -- ./inp_files/192996.got.cif
#   From: 2010.06.25/outbox.cif.g09.slc.cpg/sg12_97_cif.got.tgz:192996.got - 2010.06.28 00:19:55.
