data_PCOD8111580
_publ_section_title
;
Structure prediction by ZEFSAII (Michael W. Deem and Ramdas Pophale) SiO2 
 PCOD8111580
Probable space group: C 2/M
;
_chemical_formula_sum "Si O2"
_cell_formula_units_Z 48
_cell_length_a 23.990583
_cell_length_b 8.926496
_cell_length_c 19.126520
_cell_angle_alpha 90.000000
_cell_angle_beta 145.853578
_cell_angle_gamma 90.000000
_cell_volume 2299.113108
_symmetry_space_group_name_H-M "C 2/M"
_symmetry_group_IT_number 12
_symmetry_cell_setting 'monoclinic'
loop_
_space_group_symop_operation_xyz
x,y,z
-x,y,-z
-x,-y,-z
x,-y,z
1/2+x,1/2+y,z
1/2-x,1/2+y,-z
1/2-x,1/2-y,-z
1/2+x,1/2-y,z
loop_
_atom_site_type_symbol
_atom_site_label
_atom_site_fract_x
_atom_site_fract_y
_atom_site_fract_z
Si Si1 0.216871 0.173195 0.036225
Si Si2 0.873813 0.171456 0.286976
Si Si3 0.795881 0.828839 0.354284
Si Si4 0.986997 0.170380 0.789400
Si Si5 0.054960 0.676582 0.396645
Si Si6 0.092305 0.825026 0.142205
O O1 0.100894 0.195678 0.927830
O O2 0.247702 0.000000 0.065992
O O3 0.250000 0.250000 0.000000
O O4 0.271610 0.253649 0.156579
O O5 0.873888 0.181481 0.371011
O O6 0.966185 0.256176 0.349811
O O7 0.878269 0.000000 0.265690
O O8 0.840558 0.736478 0.465447
O O9 0.690437 0.762800 0.221214
O O10 0.781800 0.000000 0.363012
O O11 0.953366 0.280101 0.693041
O O12 0.924496 0.207513 0.793429
O O13 0.969720 0.000000 0.746439
O O14 0.051940 0.500000 0.400548
O O15 0.108726 0.000000 0.144202
O O16 0.000000 0.766252 0.000000
#
# Coordination Sequence:
#
# PCOD8111580 Si02
#       6
#     8   8   8   8   8   8
#     4  11  21  35  60  92 125 162 203 251 307 363
#     4  11  23  40  62  90 127 166 206 256 314 372
#     4  11  25  43  64  90 124 166 207 256 313 370
#     4  10  22  40  63  91 128 166 202 253 311 366
#     4  12  25  40  63  92 123 163 210 259 310 371
#     4  10  22  43  69  95 123 160 206 255 305 365
#
# _framework density 20.877616
#
# number of rings (size 3 to 8) (size 9 to 14) (size 15 to 20)
#    0.000    1.167    1.667    4.500    0.000    8.333 
#    0.000    0.000    0.000    0.000    0.000    0.000 
#    0.000    0.000    0.000    0.000    0.000    0.000 
#
# Total GULP energy -297739.235063 kJ/mol
# GULP energy per Si atom -12405.801461 kJ/mol
# Density = 2.083010 g / cm^3
# Si number density = 20.877616 Si / 1000 Ang^3
#
#
#
# Elastic Constant Matrix: (Units=GPa)
#
#
# Indices 1 2 3 4 5 6 
#
# 1 76.2453 39.9956 24.6492 0.0000 3.6575 0.0000
# 2 39.9956 152.1358 66.2142 0.0000 -4.3339 0.0000
# 3 24.6492 66.2142 124.3312 0.0000 -4.7287 0.0000
# 4 0.0000 0.0000 0.0000 34.5526 0.0000 1.5323
# 5 3.6575 -4.3339 -4.7287 0.0000 26.7291 0.0000
# 6 0.0000 0.0000 0.0000 1.5323 0.0000 25.9591
#
#
#
# Elastic Compliance Matrix: (Units=1/GPa)
#
#
# Indices 1 2 3 4 5 6 
#
# 1 0.015568 -0.003625 -0.001268 0.000000 -0.002942 0.000000
# 2 -0.003625 0.009409 -0.004244 0.000000 0.001271 0.000000
# 3 -0.001268 -0.004244 0.010606 0.000000 0.001362 0.000000
# 4 0.000000 0.000000 0.000000 0.029017 0.000000 -0.001713
# 5 -0.002942 0.001271 0.001362 0.000000 0.038262 0.000000
# 6 0.000000 0.000000 0.000000 -0.001713 0.000000 0.038623
#
#
# Mechanical properties :
#
#
# Convention : Reuss Voigt Hill
#
# Bulk Modulus (GPa) = 57.76918 68.27005 63.01962
# Shear Modulus (GPa) = 30.20598 32.23837 31.22218
#
# Velocity S-wave (km/s) = 3.80782 3.93384 3.87135
# Velocity P-wave (km/s) = 6.86026 7.30784 7.08759
#
# Compressibility (1/GPa) = 0.01731027
#
# Stress axis : x y z
#
# Youngs Moduli (GPa) = 64.23429 106.27706 94.28204
#
# Poissons Ratio (x) = 0.38522 0.11955
# Poissons Ratio (y) = 0.23283 0.40015
# Poissons Ratio (z) = 0.08145 0.45105
#
# Static dielectric constant tensor:
#      x y z
#    x 8.985860 0.000000 10.339240 
#    y 0.000000 3.725980 0.000000 
#    z 10.339240 0.000000 23.950360 
# 
# 
# High freq. dielectric constant tensor:
#      x y z
#    x 1.819470 0.000000 -0.003780 
#    y 0.000000 1.820830 0.000000 
#    z -0.003780 0.000000 1.827500 
# 
# From -- ./inp_files/327342.got.cif
#   From: 2010.06.25/outbox.cif.g09.slc.cpg/sg12_164_cif.got.tgz:327342.got - 2010.06.28 00:19:55.
