data_PCOD8111047
_publ_section_title
;
Structure prediction by ZEFSAII (Michael W. Deem and Ramdas Pophale) SiO2 
 PCOD8111047
Probable space group: C 2/M
;
_chemical_formula_sum "Si O2"
_cell_formula_units_Z 56
_cell_length_a 11.714628
_cell_length_b 16.838854
_cell_length_c 18.805102
_cell_angle_alpha 90.000000
_cell_angle_beta 51.350458
_cell_angle_gamma 90.000000
_cell_volume 2897.057032
_symmetry_space_group_name_H-M "C 2/M"
_symmetry_group_IT_number 12
_symmetry_cell_setting 'monoclinic'
loop_
_space_group_symop_operation_xyz
x,y,z
-x,y,-z
-x,-y,-z
x,-y,z
1/2+x,1/2+y,z
1/2-x,1/2+y,-z
1/2-x,1/2-y,-z
1/2+x,1/2-y,z
loop_
_atom_site_type_symbol
_atom_site_label
_atom_site_fract_x
_atom_site_fract_y
_atom_site_fract_z
Si Si1 0.628917 0.696108 0.503559
Si Si2 0.069992 0.093319 0.753318
Si Si3 0.095843 0.654417 0.258382
Si Si4 0.885376 0.590869 0.600098
Si Si5 0.901667 0.833983 0.702283
Si Si6 0.804324 0.405085 0.325294
Si Si7 0.392595 0.406651 0.101521
O O1 0.500000 0.735321 0.500000
O O2 0.750000 0.750000 0.500000
O O3 0.542145 0.650090 0.598423
O O4 0.712192 0.628816 0.427066
O O5 0.222552 0.130285 0.662340
O O6 0.047060 0.115809 0.844342
O O7 0.931494 0.129761 0.767907
O O8 0.075739 0.000000 0.740966
O O9 0.061737 0.597435 0.339105
O O10 0.125057 0.740797 0.279343
O O11 0.231912 0.629933 0.156563
O O12 0.956458 0.642779 0.262778
O O13 0.871061 0.500000 0.583447
O O14 0.000000 0.631744 0.500000
O O15 0.765496 0.880904 0.722748
O O16 0.821070 0.500000 0.325309
O O17 0.377939 0.500000 0.096471
O O18 0.500000 0.370136 0.000000
#
# Coordination Sequence:
#
# PCOD8111047 Si02
#       7
#     8   8   8   8   8   8   8
#     4  10  22  39  57  84 120 173 218 261 308 363
#     4   9  19  35  57  82 113 150 195 238 294 361
#     4  11  22  36  61  86 120 152 199 248 304 364
#     4   9  19  33  53  80 111 145 188 244 294 347
#     4  11  24  36  57  82 122 160 202 252 303 356
#     4  11  24  40  59  85 123 171 216 254 300 367
#     4   9  19  39  67  93 116 146 190 248 310 373
#
# _framework density 19.329961000000001
#
# number of rings (size 3 to 8) (size 9 to 14) (size 15 to 20)
#    0.000    2.000    1.429    2.571    6.000    4.857 
#    0.000    0.714    0.000    0.429    0.000    4.000 
#    0.000    0.000    0.000    0.000    0.000    0.000 
#
# Total GULP energy -346886.408831 kJ/mol
# GULP energy per Si atom -12388.800315 kJ/mol
# Density = 1.928597 g / cm^3
# Si number density = 19.329961 Si / 1000 Ang^3
#
#
#
# Elastic Constant Matrix: (Units=GPa)
#
#
# Indices 1 2 3 4 5 6 
#
# 1 121.5588 36.8846 41.2406 0.0000 -2.1718 0.0000
# 2 36.8846 38.8615 31.4715 0.0000 5.9046 0.0000
# 3 41.2406 31.4715 142.1853 -0.0001 -11.3665 0.0000
# 4 0.0000 0.0000 -0.0001 13.9319 0.0000 2.3453
# 5 -2.1718 5.9046 -11.3665 0.0000 18.7612 0.0000
# 6 0.0000 0.0000 0.0000 2.3453 0.0000 28.5372
#
#
#
# Elastic Compliance Matrix: (Units=1/GPa)
#
#
# Indices 1 2 3 4 5 6 
#
# 1 0.012051 -0.011750 -0.000512 0.000000 0.004782 0.000000
# 2 -0.011750 0.047267 -0.008777 0.000000 -0.021554 0.000000
# 3 -0.000512 -0.008777 0.009816 0.000000 0.008650 0.000000
# 4 0.000000 0.000000 0.000000 0.072785 0.000000 -0.005982
# 5 0.004782 -0.021554 0.008650 0.000000 0.065879 0.000000
# 6 0.000000 0.000000 0.000000 -0.005982 0.000000 0.035534
#
#
# Mechanical properties :
#
#
# Convention : Reuss Voigt Hill
#
# Bulk Modulus (GPa) = 36.96081 57.97768 47.46924
# Shear Modulus (GPa) = 16.98204 25.11333 21.04768
#
# Velocity S-wave (km/s) = 2.96722 3.60834 3.30337
# Velocity P-wave (km/s) = 5.55893 6.88614 6.25782
#
# Compressibility (1/GPa) = 0.02705568
#
# Stress axis : x y z
#
# Youngs Moduli (GPa) = 82.98117 21.15625 101.87475
#
# Poissons Ratio (x) = 0.24858 0.05220
# Poissons Ratio (y) = 0.97499 0.89419
# Poissons Ratio (z) = 0.04252 0.18570
#
# Static dielectric constant tensor:
#      x y z
#    x 4.213910 0.000000 0.019050 
#    y 0.000000 3.304350 0.000000 
#    z 0.019050 0.000000 3.540650 
# 
# 
# High freq. dielectric constant tensor:
#      x y z
#    x 1.764250 0.000000 0.000620 
#    y 0.000000 1.742120 0.000000 
#    z 0.000620 0.000000 1.721320 
# 
# From -- ./inp_files/264201.got.cif
#   From: 2010.06.25/outbox.cif.g09.slc.cpg/sg12_133_cif.got.tgz:264201.got - 2010.06.28 00:19:55.
