data_PCOD8111859
_publ_section_title
;
Structure prediction by ZEFSAII (Michael W. Deem and Ramdas Pophale) SiO2 
 PCOD8111859
Probable space group: C 2/M
;
_chemical_formula_sum "Si O2"
_cell_formula_units_Z 40
_cell_length_a 17.810861
_cell_length_b 8.428968
_cell_length_c 13.629378
_cell_angle_alpha 90.000000
_cell_angle_beta 70.255783
_cell_angle_gamma 90.000000
_cell_volume 1925.847715
_symmetry_space_group_name_H-M "C 2/M"
_symmetry_group_IT_number 12
_symmetry_cell_setting 'monoclinic'
loop_
_space_group_symop_operation_xyz
x,y,z
-x,y,-z
-x,-y,-z
x,-y,z
1/2+x,1/2+y,z
1/2-x,1/2+y,-z
1/2-x,1/2-y,-z
1/2+x,1/2-y,z
loop_
_atom_site_type_symbol
_atom_site_label
_atom_site_fract_x
_atom_site_fract_y
_atom_site_fract_z
Si Si1 0.165251 0.314022 0.005537
Si Si2 0.027016 0.814279 0.197545
Si Si3 0.933833 0.813009 0.602693
Si Si4 0.638913 0.817645 0.790937
Si Si5 0.230168 0.683305 0.402901
O O1 0.156677 0.500000 0.032233
O O2 0.100058 0.215487 0.093221
O O3 0.250000 0.250000 0.000000
O O4 0.154152 0.276037 0.896676
O O5 0.049950 0.749431 0.295157
O O6 0.952605 0.714372 0.192739
O O7 0.005813 0.000000 0.208222
O O8 0.845723 0.769757 0.608459
O O9 0.000000 0.739034 0.500000
O O10 0.941410 0.000000 0.599187
O O11 0.694329 0.706917 0.700484
O O12 0.659708 0.000000 0.759313
O O13 0.209987 0.500000 0.421295
O O14 0.250000 0.750000 0.500000
#
# Coordination Sequence:
#
# PCOD8111859 Si02
#       5
#     8   8   8   8   8
#     4  11  24  41  62  89 123 163 205 254 308 361
#     4  11  23  39  63  93 124 161 204 252 306 364
#     4  10  22  41  63  89 123 160 201 250 302 358
#     4  11  24  42  63  89 123 161 204 253 304 359
#     4  12  25  41  64  92 123 160 202 249 302 361
#
# _framework density 20.770074999999999
#
# number of rings (size 3 to 8) (size 9 to 14) (size 15 to 20)
#    0.000    1.000    0.000    6.600    0.000   14.000 
#    0.000    0.000    0.000    0.000    0.000    0.000 
#    0.000    0.000    0.000    0.000    0.000    0.000 
#
# Total GULP energy -248146.503487 kJ/mol
# GULP energy per Si atom -12407.325174 kJ/mol
# Density = 2.072280 g / cm^3
# Si number density = 20.770075 Si / 1000 Ang^3
#
#
#
# Elastic Constant Matrix: (Units=GPa)
#
#
# Indices 1 2 3 4 5 6 
#
# 1 151.7393 -1.3582 61.0386 0.0000 12.5347 0.0000
# 2 -1.3582 27.3834 31.3172 0.0000 10.5869 0.0000
# 3 61.0386 31.3172 147.6748 0.0000 12.0208 0.0000
# 4 0.0000 0.0000 0.0000 33.5090 0.0000 -2.7265
# 5 12.5347 10.5869 12.0208 0.0000 49.8422 0.0000
# 6 0.0000 0.0000 0.0000 -2.7265 0.0000 28.9807
#
#
#
# Elastic Compliance Matrix: (Units=1/GPa)
#
#
# Indices 1 2 3 4 5 6 
#
# 1 0.008858 0.007092 -0.004959 0.000000 -0.002538 0.000000
# 2 0.007092 0.057171 -0.014200 0.000000 -0.010502 0.000000
# 3 -0.004959 -0.014200 0.011716 0.000000 0.001438 0.000000
# 4 0.000000 0.000000 0.000000 0.030073 0.000000 0.002829
# 5 -0.002538 -0.010502 0.001438 0.000000 0.022586 0.000000
# 6 0.000000 0.000000 0.000000 0.002829 0.000000 0.034772
#
#
# Mechanical properties :
#
#
# Convention : Reuss Voigt Hill
#
# Bulk Modulus (GPa) = 18.65332 56.53253 37.59292
# Shear Modulus (GPa) = 24.13357 38.18636 31.15997
#
# Velocity S-wave (km/s) = 3.41242 4.29246 3.87749
# Velocity P-wave (km/s) = 4.95243 7.20030 6.17943
#
# Compressibility (1/GPa) = 0.05360977
#
# Stress axis : x y z
#
# Youngs Moduli (GPa) = 112.89187 17.49134 85.35614
#
# Poissons Ratio (x) = -0.12404 0.42325
# Poissons Ratio (y) = -0.80058 1.21210
# Poissons Ratio (z) = 0.55979 0.24839
#
# Static dielectric constant tensor:
#      x y z
#    x 3.759510 0.000000 0.096430 
#    y 0.000000 3.760210 0.000000 
#    z 0.096430 0.000000 4.055510 
# 
# 
# High freq. dielectric constant tensor:
#      x y z
#    x 1.831580 0.000000 0.002330 
#    y 0.000000 1.814930 0.000000 
#    z 0.002330 0.000000 1.833830 
# 
# From -- ./inp_files/151747.got.cif
#   From: 2010.06.25/outbox.cif.g09.slc.cpg/sg12_76_cif.got.tgz:151747.got - 2010.06.28 00:19:55.
