data_PCOD8111761
_publ_section_title
;
Structure prediction by ZEFSAII (Michael W. Deem and Ramdas Pophale) SiO2 
 PCOD8111761
Probable space group: C 2/M
;
_chemical_formula_sum "Si O2"
_cell_formula_units_Z 44
_cell_length_a 31.704576
_cell_length_b 9.627156
_cell_length_c 23.789918
_cell_angle_alpha 90.000000
_cell_angle_beta 161.350939
_cell_angle_gamma 90.000000
_cell_volume 2321.943409
_symmetry_space_group_name_H-M "C 2/M"
_symmetry_group_IT_number 12
_symmetry_cell_setting 'monoclinic'
loop_
_space_group_symop_operation_xyz
x,y,z
-x,y,-z
-x,-y,-z
x,-y,z
1/2+x,1/2+y,z
1/2-x,1/2+y,-z
1/2-x,1/2-y,-z
1/2+x,1/2-y,z
loop_
_atom_site_type_symbol
_atom_site_label
_atom_site_fract_x
_atom_site_fract_y
_atom_site_fract_z
Si Si1 0.357220 0.836814 0.511588
Si Si2 0.858492 0.338863 0.971754
Si Si3 0.848031 0.660981 0.086981
Si Si4 0.500000 0.249194 0.000000
Si Si5 0.256042 0.345819 0.748969
Si Si6 0.365492 0.154512 0.726064
O O1 0.503649 0.791577 0.712633
O O2 0.336327 0.795097 0.419515
O O3 0.258477 0.759767 0.430712
O O4 0.331846 0.000000 0.488008
O O5 0.846756 0.500000 0.940543
O O6 0.815259 0.309923 0.980665
O O7 0.012744 0.293823 0.159512
O O8 0.754695 0.257256 0.800755
O O9 0.828912 0.500000 0.078054
O O10 0.750000 0.750000 0.000000
O O11 0.594900 0.351481 0.085523
O O12 0.580699 0.147619 0.142467
O O13 0.214167 0.500000 0.716110
O O14 0.318595 0.000000 0.648900
#
# Coordination Sequence:
#
# PCOD8111761 Si02
#       6
#     8   8   8   4   8   8
#     4   9  19  34  52  76 107 137 165 206 254 297
#     4   9  19  34  52  76 107 137 165 206 254 297
#     4  10  22  41  58  72  96 133 175 216 259 302
#     4   8  14  24  42  70 108 142 166 196 240 288
#     4   9  16  28  49  76 103 133 169 204 244 298
#     4   9  16  27  47  76 107 137 167 198 242 302
#
# _framework density 18.949642000000001
#
# number of rings (size 3 to 8) (size 9 to 14) (size 15 to 20)
#    0.000    2.909    0.000    0.545    0.000   10.909 
#    0.000    0.909    0.000    5.455    0.000    0.000 
#    0.000    0.000    0.000    0.000    0.000    0.000 
#
# Total GULP energy -272643.270134 kJ/mol
# GULP energy per Si atom -12392.875915 kJ/mol
# Density = 1.890651 g / cm^3
# Si number density = 18.949642 Si / 1000 Ang^3
#
#
#
# Elastic Constant Matrix: (Units=GPa)
#
#
# Indices 1 2 3 4 5 6 
#
# 1 79.6856 32.1093 4.0065 0.0000 4.4961 0.0000
# 2 32.1093 61.3431 12.4664 0.0000 3.2010 0.0000
# 3 4.0065 12.4664 20.8178 0.0001 -0.5036 0.0001
# 4 0.0000 0.0000 0.0001 27.6182 0.0001 2.4216
# 5 4.4961 3.2010 -0.5036 0.0001 24.2675 0.0000
# 6 0.0000 0.0000 0.0001 2.4216 0.0000 28.4634
#
#
#
# Elastic Compliance Matrix: (Units=1/GPa)
#
#
# Indices 1 2 3 4 5 6 
#
# 1 0.016068 -0.008745 0.002101 0.000000 -0.001780 0.000000
# 2 -0.008745 0.023496 -0.012429 0.000000 -0.001737 0.000000
# 3 0.002101 -0.012429 0.055132 0.000000 0.002394 0.000000
# 4 0.000000 0.000000 0.000000 0.036480 0.000000 -0.003104
# 5 -0.001780 -0.001737 0.002394 0.000000 0.041816 0.000000
# 6 0.000000 0.000000 0.000000 -0.003104 0.000000 0.035397
#
#
# Mechanical properties :
#
#
# Convention : Reuss Voigt Hill
#
# Bulk Modulus (GPa) = 17.68321 28.77898 23.23109
# Shear Modulus (GPa) = 18.84064 23.62077 21.23071
#
# Velocity S-wave (km/s) = 3.15659 3.53441 3.35083
# Velocity P-wave (km/s) = 4.75787 5.64590 5.22080
#
# Compressibility (1/GPa) = 0.05655083
#
# Stress axis : x y z
#
# Youngs Moduli (GPa) = 62.23650 42.56128 18.13815
#
# Poissons Ratio (x) = 0.37218 -0.03811
# Poissons Ratio (y) = 0.54423 0.22544
# Poissons Ratio (z) = -0.13077 0.52900
#
# Static dielectric constant tensor:
#      x y z
#    x 3.416760 0.000000 -0.156770 
#    y 0.000000 3.347120 0.000000 
#    z -0.156770 0.000000 3.363430 
# 
# 
# High freq. dielectric constant tensor:
#      x y z
#    x 1.726440 0.000000 -0.015370 
#    y 0.000000 1.726210 0.000000 
#    z -0.015370 0.000000 1.715600 
# 
# From -- ./inp_files/353607.got.cif
#   From: 2010.06.25/outbox.cif.g09.slc.cpg/sg12_177_cif.got.tgz:353607.got - 2010.06.28 00:19:55.
