data_PCOD8111505
_publ_section_title
;
Structure prediction by ZEFSAII (Michael W. Deem and Ramdas Pophale) SiO2 
 PCOD8111505
Probable space group: C 2/M
;
_chemical_formula_sum "Si O2"
_cell_formula_units_Z 64
_cell_length_a 17.928571
_cell_length_b 8.972486
_cell_length_c 30.136814
_cell_angle_alpha 90.000000
_cell_angle_beta 41.825873
_cell_angle_gamma 90.000000
_cell_volume 3232.930403
_symmetry_space_group_name_H-M "C 2/M"
_symmetry_group_IT_number 12
_symmetry_cell_setting 'monoclinic'
loop_
_space_group_symop_operation_xyz
x,y,z
-x,y,-z
-x,-y,-z
x,-y,z
1/2+x,1/2+y,z
1/2-x,1/2+y,-z
1/2-x,1/2-y,-z
1/2+x,1/2-y,z
loop_
_atom_site_type_symbol
_atom_site_label
_atom_site_fract_x
_atom_site_fract_y
_atom_site_fract_z
Si Si1 0.683304 0.328378 0.321955
Si Si2 0.435840 0.827622 0.189430
Si Si3 0.819410 0.827544 0.076293
Si Si4 0.590031 0.327301 0.189070
Si Si5 0.218407 0.676045 0.560060
Si Si6 0.488439 0.327515 0.076752
Si Si7 0.369618 0.171944 0.564612
Si Si8 0.011272 0.171745 0.321114
O O1 0.672452 0.500000 0.342255
O O2 0.803820 0.297090 0.247364
O O3 0.664862 0.219369 0.371030
O O4 0.592076 0.287610 0.325659
O O5 0.487994 0.749463 0.209068
O O6 0.489876 0.767675 0.120514
O O7 0.464710 0.000000 0.180110
O O8 0.708228 0.732627 0.119834
O O9 0.887388 0.775350 0.089688
O O10 0.787097 0.000000 0.095037
O O11 0.894137 0.800193 0.999726
O O12 0.584743 0.500000 0.180214
O O13 0.577793 0.294888 0.246595
O O14 0.223925 0.500000 0.552075
O O15 0.250000 0.750000 0.500000
O O16 0.306744 0.725505 0.557522
O O17 0.095414 0.722562 0.629690
O O18 0.473691 0.500000 0.095547
O O19 0.500000 0.197920 0.500000
O O20 0.335917 0.000000 0.572347
O O21 0.972113 0.000000 0.340632
#
# Coordination Sequence:
#
# PCOD8111505 Si02
#       8
#     8   8   8   8   8   8   8   8
#     4  10  22  40  62  88 117 151 191 237 291 345
#     4  11  23  38  57  84 117 152 193 239 287 343
#     4   9  19  37  60  85 114 148 189 238 289 345
#     4  11  23  38  58  85 117 154 194 237 288 343
#     4  12  25  41  63  90 121 157 196 238 287 341
#     4   9  19  37  60  85 113 148 190 236 290 347
#     4  11  24  41  62  90 121 154 196 240 284 340
#     4  10  22  41  63  88 119 152 191 240 290 343
#
# _framework density 19.796282000000001
#
# number of rings (size 3 to 8) (size 9 to 14) (size 15 to 20)
#    0.000    1.625    0.000    5.250    0.000   10.000 
#    0.000    1.250    0.000    0.000    0.000    0.000 
#    0.000    0.000    0.000    0.000    0.000    0.000 
#
# Total GULP energy -396995.817268 kJ/mol
# GULP energy per Si atom -12406.119290 kJ/mol
# Density = 1.975122 g / cm^3
# Si number density = 19.796282 Si / 1000 Ang^3
#
#
#
# Elastic Constant Matrix: (Units=GPa)
#
#
# Indices 1 2 3 4 5 6 
#
# 1 112.6436 58.2339 40.2667 0.0005 3.1421 0.0015
# 2 58.2339 118.6068 57.3941 0.0023 -1.5201 0.0020
# 3 40.2667 57.3941 94.4914 0.0003 2.5283 -0.0004
# 4 0.0005 0.0023 0.0003 24.0586 0.0000 13.0572
# 5 3.1421 -1.5201 2.5283 0.0000 39.2063 0.0001
# 6 0.0015 0.0020 -0.0004 13.0572 0.0001 20.6026
#
#
#
# Elastic Compliance Matrix: (Units=1/GPa)
#
#
# Indices 1 2 3 4 5 6 
#
# 1 0.012257 -0.004981 -0.002170 0.000001 -0.001036 -0.000001
# 2 -0.004981 0.013999 -0.006417 -0.000001 0.001356 -0.000001
# 3 -0.002170 -0.006417 0.015434 0.000000 -0.001070 0.000001
# 4 0.000001 -0.000001 0.000000 0.063357 0.000000 -0.040154
# 5 -0.001036 0.001356 -0.001070 0.000000 0.025711 0.000000
# 6 -0.000001 -0.000001 0.000001 -0.040154 0.000000 0.073985
#
#
# Mechanical properties :
#
#
# Convention : Reuss Voigt Hill
#
# Bulk Modulus (GPa) = 68.70753 70.83681 69.77217
# Shear Modulus (GPa) = 21.12093 28.09665 24.60879
#
# Velocity S-wave (km/s) = 3.26991 3.77143 3.52959
# Velocity P-wave (km/s) = 7.00279 7.40442 7.20641
#
# Compressibility (1/GPa) = 0.01455444
#
# Stress axis : x y z
#
# Youngs Moduli (GPa) = 81.58339 71.43132 64.79252
#
# Poissons Ratio (x) = 0.35583 0.14060
# Poissons Ratio (y) = 0.40640 0.41576
# Poissons Ratio (z) = 0.17703 0.45836
#
# Static dielectric constant tensor:
#      x y z
#    x 3.579650 0.000010 -0.014890 
#    y 0.000010 3.646430 0.000000 
#    z -0.014890 0.000000 3.640270 
# 
# 
# High freq. dielectric constant tensor:
#      x y z
#    x 1.782970 0.000000 -0.000100 
#    y 0.000000 1.774320 0.000000 
#    z -0.000100 0.000000 1.782960 
# 
# From -- ./inp_files/378001.got.cif
#   From: 2010.06.25/outbox.cif.g09.slc.cpg/sg12_190_cif.got.tgz:378001.got - 2010.06.28 00:19:55.
