data_PCOD8111118
_publ_section_title
;
Structure prediction by ZEFSAII (Michael W. Deem and Ramdas Pophale) SiO2 
 PCOD8111118
Probable space group: C 2/M
;
_chemical_formula_sum "Si O2"
_cell_formula_units_Z 56
_cell_length_a 23.587470
_cell_length_b 8.595294
_cell_length_c 14.513622
_cell_angle_alpha 90.000000
_cell_angle_beta 110.484852
_cell_angle_gamma 90.000000
_cell_volume 2756.439361
_symmetry_space_group_name_H-M "C 2/M"
_symmetry_group_IT_number 12
_symmetry_cell_setting 'monoclinic'
loop_
_space_group_symop_operation_xyz
x,y,z
-x,y,-z
-x,-y,-z
x,-y,z
1/2+x,1/2+y,z
1/2-x,1/2+y,-z
1/2-x,1/2-y,-z
1/2+x,1/2-y,z
loop_
_atom_site_type_symbol
_atom_site_label
_atom_site_fract_x
_atom_site_fract_y
_atom_site_fract_z
Si Si1 0.094550 0.184075 0.799756
Si Si2 0.726846 0.815779 0.890886
Si Si3 0.702372 0.179242 0.362042
Si Si4 0.165025 0.321474 0.145913
Si Si5 0.672319 0.817338 0.543954
Si Si6 0.943906 0.182286 0.023626
Si Si7 0.941533 0.315698 0.408004
O O1 0.158152 0.271968 0.831159
O O2 0.059671 0.240695 0.872677
O O3 0.054483 0.233318 0.689296
O O4 0.105876 0.000000 0.808311
O O5 0.767541 0.737779 0.835599
O O6 0.734311 0.000000 0.893451
O O7 0.750000 0.750000 0.000000
O O8 0.655892 0.199423 0.250718
O O9 0.670317 0.243248 0.436595
O O10 0.763944 0.271417 0.375001
O O11 0.720918 0.000000 0.385901
O O12 0.157464 0.500000 0.110993
O O13 0.117787 0.218872 0.063875
O O14 0.616813 0.747253 0.570882
O O15 0.664191 0.000000 0.541619
O O16 0.953296 0.000000 0.029611
O O17 0.000000 0.261243 0.000000
O O18 0.938211 0.500000 0.390690
O O19 0.000000 0.268234 0.500000
#
# Coordination Sequence:
#
# PCOD8111118 Si02
#       7
#     8   8   8   8   8   8   8
#     4  11  23  40  62  88 119 155 196 249 304 355
#     4  12  23  37  60  89 122 156 194 242 294 354
#     4   9  19  34  54  82 114 145 184 234 287 345
#     4  11  22  36  58  89 120 153 193 240 294 353
#     4   9  18  35  56  80 111 148 188 234 289 342
#     4  10  23  42  60  80 113 156 198 241 293 355
#     4  10  22  39  60  85 115 154 199 245 295 352
#
# _framework density 20.316065999999999
#
# number of rings (size 3 to 8) (size 9 to 14) (size 15 to 20)
#    0.000    1.714    1.429    3.000    0.000    6.286 
#    0.000    1.429    0.000    0.000    0.000    0.000 
#    0.000    0.000    0.000    0.000    0.000    0.000 
#
# Total GULP energy -347205.491956 kJ/mol
# GULP energy per Si atom -12400.196141 kJ/mol
# Density = 2.026983 g / cm^3
# Si number density = 20.316066 Si / 1000 Ang^3
#
#
#
# Elastic Constant Matrix: (Units=GPa)
#
#
# Indices 1 2 3 4 5 6 
#
# 1 124.2067 4.4845 52.8027 0.0000 -15.7600 0.0000
# 2 4.4845 -3.8444 4.8236 0.0000 -4.8549 0.0000
# 3 52.8027 4.8236 142.2422 0.0000 -13.5617 0.0000
# 4 0.0000 0.0000 0.0000 29.4943 0.0000 1.6588
# 5 -15.7600 -4.8549 -13.5617 0.0000 26.5214 0.0000
# 6 0.0000 0.0000 0.0000 1.6588 0.0000 22.4032
#
#
#
# Elastic Compliance Matrix: (Units=1/GPa)
#
#
# Indices 1 2 3 4 5 6 
#
# 1 0.009981 0.001726 -0.003330 0.000000 0.004544 0.000000
# 2 0.001726 -0.209186 0.003049 0.000000 -0.035708 0.000000
# 3 -0.003330 0.003049 0.008439 0.000000 0.002894 0.000000
# 4 0.000000 0.000000 0.000000 0.034047 0.000000 -0.002521
# 5 0.004544 -0.035708 0.002894 0.000000 0.035349 0.000000
# 6 0.000000 0.000000 0.000000 -0.002521 0.000000 0.044823
#
#
# Mechanical properties :
#
#
# Convention : Reuss Voigt Hill
#
# Bulk Modulus (GPa) = -5.32263 42.98069 18.82903
# Shear Modulus (GPa) = -35.19637 29.05001 -3.07318
#
# Velocity S-wave (km/s) = -4.16677 3.78551 -1.23125
# Velocity P-wave (km/s) = 5.07690 6.34891 2.69571
#
# Compressibility (1/GPa) = -0.18787706
#
# Stress axis : x y z
#
# Youngs Moduli (GPa) = 100.18824 -4.78044 118.49520
#
# Poissons Ratio (x) = 0.00825 0.39465
# Poissons Ratio (y) = -0.17292 -0.36125
# Poissons Ratio (z) = 0.33367 0.01457
#
# Static dielectric constant tensor:
#      x y z
#    x 3.995390 0.000000 -0.285170 
#    y 0.000000 3.546710 0.000000 
#    z -0.285170 0.000000 3.901980 
# 
# 
# High freq. dielectric constant tensor:
#      x y z
#    x 1.789030 0.000000 -0.016910 
#    y 0.000000 1.783230 0.000000 
#    z -0.016910 0.000000 1.805580 
# 
# From -- ./inp_files/237425.got.cif
#   From: 2010.06.25/outbox.cif.g09.slc.cpg/sg12_119_cif.got.tgz:237425.got - 2010.06.28 00:19:55.
