data_PCOD8111475
_publ_section_title
;
Structure prediction by ZEFSAII (Michael W. Deem and Ramdas Pophale) SiO2 
 PCOD8111475
Probable space group: C 2/M
;
_chemical_formula_sum "Si O2"
_cell_formula_units_Z 64
_cell_length_a 33.865629
_cell_length_b 14.193765
_cell_length_c 9.484737
_cell_angle_alpha 90.000000
_cell_angle_beta 42.213269
_cell_angle_gamma 90.000000
_cell_volume 3063.244099
_symmetry_space_group_name_H-M "C 2/M"
_symmetry_group_IT_number 12
_symmetry_cell_setting 'monoclinic'
loop_
_space_group_symop_operation_xyz
x,y,z
-x,y,-z
-x,-y,-z
x,-y,z
1/2+x,1/2+y,z
1/2-x,1/2+y,-z
1/2-x,1/2-y,-z
1/2+x,1/2-y,z
loop_
_atom_site_type_symbol
_atom_site_label
_atom_site_fract_x
_atom_site_fract_y
_atom_site_fract_z
Si Si1 0.596433 0.848774 0.003029
Si Si2 0.790385 0.610960 0.806280
Si Si3 0.707076 0.894704 0.888246
Si Si4 0.168351 0.896140 0.481227
Si Si5 0.034707 0.606387 0.634189
Si Si6 0.114434 0.295924 0.639506
Si Si7 0.436539 0.261054 0.662521
Si Si8 0.661063 0.398255 0.173145
O O1 0.535537 0.906154 0.173177
O O2 0.585611 0.751909 0.118019
O O3 0.650770 0.898016 0.936750
O O4 0.614283 0.837394 0.795386
O O5 0.804201 0.500000 0.756271
O O6 0.829228 0.668091 0.593714
O O7 0.805490 0.652275 0.924205
O O8 0.722932 0.633865 0.940626
O O9 0.765866 0.857007 0.650455
O O10 0.725259 0.000000 0.880758
O O11 0.118537 0.817934 0.647675
O O12 0.173596 0.910193 0.302304
O O13 0.152859 0.000000 0.590242
O O14 0.061743 0.500000 0.563201
O O15 0.056209 0.668534 0.711452
O O16 0.055999 0.659825 0.436427
O O17 0.500000 0.312024 0.500000
O O18 0.390761 0.324777 0.704125
O O19 0.642132 0.500000 0.159249
#
# Coordination Sequence:
#
# PCOD8111475 Si02
#       8
#     8   8   8   8   8   8   8   8
#     4  11  25  37  57  89 127 160 195 244 299 355
#     4   9  20  36  60  92 121 156 201 245 297 358
#     4   9  19  37  58  85 118 156 200 242 292 349
#     4   9  20  38  63  89 114 156 206 248 293 350
#     4  11  24  43  64  87 118 161 206 248 294 351
#     4  12  23  38  62  87 124 163 199 241 297 361
#     4  10  22  40  61  89 118 156 204 249 298 357
#     4   9  18  38  65  90 116 152 204 259 296 339
#
# _framework density 20.892883000000001
#
# number of rings (size 3 to 8) (size 9 to 14) (size 15 to 20)
#    0.000    2.000    1.250    3.375    1.750    8.000 
#    0.000    0.625    0.000    2.250    0.000    0.000 
#    0.000    0.000    0.000    0.000    0.000    0.000 
#
# Total GULP energy -396432.833326 kJ/mol
# GULP energy per Si atom -12388.526041 kJ/mol
# Density = 2.084533 g / cm^3
# Si number density = 20.892883 Si / 1000 Ang^3
#
#
#
# Elastic Constant Matrix: (Units=GPa)
#
#
# Indices 1 2 3 4 5 6 
#
# 1 127.8349 45.9428 49.9660 0.0000 -18.5242 0.0000
# 2 45.9428 95.0263 30.7853 0.0000 -17.1109 0.0000
# 3 49.9660 30.7853 55.9158 0.0000 7.4848 0.0000
# 4 0.0000 0.0000 0.0000 10.7709 0.0000 -0.1983
# 5 -18.5242 -17.1109 7.4848 0.0000 37.9791 0.0000
# 6 0.0000 0.0000 0.0000 -0.1983 0.0000 15.3773
#
#
#
# Elastic Compliance Matrix: (Units=1/GPa)
#
#
# Indices 1 2 3 4 5 6 
#
# 1 0.015208 -0.000913 -0.014404 0.000000 0.009845 0.000000
# 2 -0.000913 0.015233 -0.008658 0.000000 0.008124 0.000000
# 3 -0.014404 -0.008658 0.037987 0.000000 -0.018413 0.000000
# 4 0.000000 0.000000 0.000000 0.092865 0.000000 0.001197
# 5 0.009845 0.008124 -0.018413 0.000000 0.038421 0.000000
# 6 0.000000 0.000000 0.000000 0.001197 0.000000 0.065046
#
#
# Mechanical properties :
#
#
# Convention : Reuss Voigt Hill
#
# Bulk Modulus (GPa) = 48.83707 59.12947 53.98327
# Shear Modulus (GPa) = 15.64771 22.96431 19.30601
#
# Velocity S-wave (km/s) = 2.73966 3.31893 3.04311
# Velocity P-wave (km/s) = 5.78216 6.56123 6.18398
#
# Compressibility (1/GPa) = 0.02047625
#
# Stress axis : x y z
#
# Youngs Moduli (GPa) = 65.75694 65.64875 26.32471
#
# Poissons Ratio (x) = 0.05995 0.37919
# Poissons Ratio (y) = 0.06005 0.22792
# Poissons Ratio (z) = 0.94719 0.56838
#
# Static dielectric constant tensor:
#      x y z
#    x 3.891730 0.000000 -0.279490 
#    y 0.000000 3.820880 0.000000 
#    z -0.279490 0.000000 3.662710 
# 
# 
# High freq. dielectric constant tensor:
#      x y z
#    x 1.818970 0.000000 -0.021250 
#    y 0.000000 1.806660 0.000000 
#    z -0.021250 0.000000 1.800310 
# 
# From -- ./inp_files/111935.got.cif
#   From: 2010.06.25/outbox.cif.g09.slc.cpg/sg12_56_cif.got.tgz:111935.got - 2010.06.28 00:19:55.
