data_PCOD8111035
_publ_section_title
;
Structure prediction by ZEFSAII (Michael W. Deem and Ramdas Pophale) SiO2 
 PCOD8111035
Probable space group: C 2/M
;
_chemical_formula_sum "Si O2"
_cell_formula_units_Z 48
_cell_length_a 30.496821
_cell_length_b 9.111221
_cell_length_c 17.208083
_cell_angle_alpha 90.000000
_cell_angle_beta 149.171957
_cell_angle_gamma 90.000000
_cell_volume 2450.339950
_symmetry_space_group_name_H-M "C 2/M"
_symmetry_group_IT_number 12
_symmetry_cell_setting 'monoclinic'
loop_
_space_group_symop_operation_xyz
x,y,z
-x,y,-z
-x,-y,-z
x,-y,z
1/2+x,1/2+y,z
1/2-x,1/2+y,-z
1/2-x,1/2-y,-z
1/2+x,1/2-y,z
loop_
_atom_site_type_symbol
_atom_site_label
_atom_site_fract_x
_atom_site_fract_y
_atom_site_fract_z
Si Si1 0.176511 0.829302 0.698304
Si Si2 0.417631 0.165766 0.320264
Si Si3 0.845822 0.332863 0.866838
Si Si4 0.673800 0.168847 0.341225
Si Si5 0.513936 0.673010 0.167351
Si Si6 0.018472 0.828612 0.352705
O O1 0.161092 0.742886 0.755196
O O2 0.270126 0.788847 0.810130
O O3 0.107693 0.782659 0.528225
O O4 0.167095 0.000000 0.702573
O O5 0.500000 0.176007 0.500000
O O6 0.438693 0.245926 0.271341
O O7 0.391040 0.000000 0.261037
O O8 0.876958 0.500000 0.929179
O O9 0.809396 0.318339 0.724737
O O10 0.921848 0.219588 0.995748
O O11 0.750000 0.250000 0.500000
O O12 0.583955 0.243307 0.223606
O O13 0.671904 0.000000 0.365190
O O14 0.526113 0.500000 0.174528
O O15 0.523840 0.720149 0.271778
O O16 0.000294 0.000000 0.333460
#
# Coordination Sequence:
#
# PCOD8111035 Si02
#       6
#     8   8   8   8   8   8
#     4   9  17  33  56  77 103 142 184 224 270 325
#     4   9  17  29  49  80 111 136 173 227 278 321
#     4  10  22  39  57  80 112 149 185 223 273 331
#     4  11  23  40  62  86 112 143 183 228 273 325
#     4  11  23  38  57  83 114 147 185 227 273 327
#     4   9  18  34  55  78 106 143 185 225 269 325
#
# _framework density 19.589119
#
# number of rings (size 3 to 8) (size 9 to 14) (size 15 to 20)
#    0.000    2.167    0.000    3.000    0.000   10.000 
#    0.000    4.167    0.000    0.000    0.000    0.000 
#    0.000    0.000    0.000    0.000    0.000    0.000 
#
# Total GULP energy -297690.102337 kJ/mol
# GULP energy per Si atom -12403.754264 kJ/mol
# Density = 1.954453 g / cm^3
# Si number density = 19.589119 Si / 1000 Ang^3
#
#
#
# Elastic Constant Matrix: (Units=GPa)
#
#
# Indices 1 2 3 4 5 6 
#
# 1 94.5007 43.6682 12.2773 0.0000 27.2694 0.0000
# 2 43.6682 88.2234 28.7829 0.0000 13.2190 0.0000
# 3 12.2773 28.7829 63.3112 0.0000 18.1101 0.0000
# 4 0.0000 0.0000 0.0000 30.2644 0.0000 1.6405
# 5 27.2694 13.2190 18.1101 0.0000 26.9956 0.0000
# 6 0.0000 0.0000 0.0000 1.6405 0.0000 30.6203
#
#
#
# Elastic Compliance Matrix: (Units=1/GPa)
#
#
# Indices 1 2 3 4 5 6 
#
# 1 0.019292 -0.008514 0.005583 0.000000 -0.019064 0.000000
# 2 -0.008514 0.017271 -0.007724 0.000000 0.005325 0.000000
# 3 0.005583 -0.007724 0.023209 0.000000 -0.017427 0.000000
# 4 0.000000 0.000000 0.000000 0.033138 0.000000 -0.001775
# 5 -0.019064 0.005325 -0.017427 0.000000 0.065384 0.000000
# 6 0.000000 0.000000 0.000000 -0.001775 0.000000 0.032753
#
#
# Mechanical properties :
#
#
# Convention : Reuss Voigt Hill
#
# Bulk Modulus (GPa) = 26.00005 46.16580 36.08292
# Shear Modulus (GPa) = 22.20465 28.32985 25.26725
#
# Velocity S-wave (km/s) = 3.37043 3.80702 3.59536
# Velocity P-wave (km/s) = 5.33366 6.55308 5.97456
#
# Compressibility (1/GPa) = 0.03846146
#
# Stress axis : x y z
#
# Youngs Moduli (GPa) = 51.83513 57.90009 43.08706
#
# Poissons Ratio (x) = 0.49296 -0.24054
# Poissons Ratio (y) = 0.44132 0.33280
# Poissons Ratio (z) = -0.28938 0.44722
#
# Static dielectric constant tensor:
#      x y z
#    x 3.831180 0.000000 0.088800 
#    y 0.000000 3.620250 0.000000 
#    z 0.088800 0.000000 3.338690 
# 
# 
# High freq. dielectric constant tensor:
#      x y z
#    x 1.778720 0.000000 0.005660 
#    y 0.000000 1.764980 0.000000 
#    z 0.005660 0.000000 1.742230 
# 
# From -- ./inp_files/274033.got.cif
#   From: 2010.06.25/outbox.cif.g09.slc.cpg/sg12_138_cif.got.tgz:274033.got - 2010.06.28 00:19:55.
