data_PCOD8111063
_publ_section_title
;
Structure prediction by ZEFSAII (Michael W. Deem and Ramdas Pophale) SiO2 
 PCOD8111063
Probable space group: C 2/M
;
_chemical_formula_sum "Si O2"
_cell_formula_units_Z 48
_cell_length_a 28.139629
_cell_length_b 9.069331
_cell_length_c 9.824792
_cell_angle_alpha 90.000000
_cell_angle_beta 100.043472
_cell_angle_gamma 90.000000
_cell_volume 2468.938163
_symmetry_space_group_name_H-M "C 2/M"
_symmetry_group_IT_number 12
_symmetry_cell_setting 'monoclinic'
loop_
_space_group_symop_operation_xyz
x,y,z
-x,y,-z
-x,-y,-z
x,-y,z
1/2+x,1/2+y,z
1/2-x,1/2+y,-z
1/2-x,1/2-y,-z
1/2+x,1/2-y,z
loop_
_atom_site_type_symbol
_atom_site_label
_atom_site_fract_x
_atom_site_fract_y
_atom_site_fract_z
Si Si1 0.434669 0.826445 0.580270
Si Si2 0.959234 0.673800 0.294296
Si Si3 0.285935 0.674933 0.123195
Si Si4 0.367460 0.330813 0.749014
Si Si5 0.256185 0.328218 0.645902
Si Si6 0.389769 0.672765 0.059301
O O1 0.484681 0.778631 0.676854
O O2 0.434559 0.773527 0.423197
O O3 0.389420 0.757095 0.634074
O O4 0.429007 0.000000 0.582865
O O5 0.954284 0.500000 0.276307
O O6 0.934346 0.749239 0.153911
O O7 0.276563 0.500000 0.120211
O O8 0.279023 0.744840 0.268008
O O9 0.340153 0.714339 0.108236
O O10 0.250000 0.750000 0.000000
O O11 0.381087 0.500000 0.733715
O O12 0.310334 0.308978 0.725941
O O13 0.388367 0.271921 0.902514
O O14 0.241751 0.500000 0.628424
O O15 0.250000 0.250000 0.500000
O O16 0.398682 0.500000 0.069155
#
# Coordination Sequence:
#
# PCOD8111063 Si02
#       6
#     8   8   8   8   8   8
#     4   9  20  39  60  84 116 149 188 238 288 341
#     4   9  20  39  60  85 115 148 189 238 288 341
#     4  11  22  40  62  86 119 159 198 241 290 346
#     4  10  22  40  58  82 118 153 188 236 289 342
#     4  11  24  42  60  86 121 157 198 244 293 348
#     4  10  22  39  58  84 117 152 191 235 286 343
#
# _framework density 19.441555999999999
#
# number of rings (size 3 to 8) (size 9 to 14) (size 15 to 20)
#    0.000    2.000    1.667    2.000    2.333    5.333 
#    0.000    5.000    0.000    0.000    0.000    0.000 
#    0.000    0.000    0.000    0.000    0.000    0.000 
#
# Total GULP energy -297661.706339 kJ/mol
# GULP energy per Si atom -12402.571097 kJ/mol
# Density = 1.939731 g / cm^3
# Si number density = 19.441556 Si / 1000 Ang^3
#
#
#
# Elastic Constant Matrix: (Units=GPa)
#
#
# Indices 1 2 3 4 5 6 
#
# 1 29.7818 13.5492 -2.9760 0.0000 -4.0847 0.0000
# 2 13.5492 53.5391 19.7269 0.0000 -2.2009 0.0000
# 3 -2.9760 19.7269 85.4572 0.0000 3.0353 0.0000
# 4 0.0000 0.0000 0.0000 36.3463 0.0000 0.7824
# 5 -4.0847 -2.2009 3.0353 0.0000 41.6913 0.0000
# 6 0.0000 0.0000 0.0000 0.7824 0.0000 32.8233
#
#
#
# Elastic Compliance Matrix: (Units=1/GPa)
#
#
# Indices 1 2 3 4 5 6 
#
# 1 0.039520 -0.011308 0.003880 0.000000 0.002993 0.000000
# 2 -0.011308 0.023735 -0.005893 0.000000 0.000574 0.000000
# 3 0.003880 -0.005893 0.013229 0.000000 -0.000894 0.000000
# 4 0.000000 0.000000 0.000000 0.027527 0.000000 -0.000656
# 5 0.002993 0.000574 -0.000894 0.000000 0.024374 0.000000
# 6 0.000000 0.000000 0.000000 -0.000656 0.000000 0.030482
#
#
# Mechanical properties :
#
#
# Convention : Reuss Voigt Hill
#
# Bulk Modulus (GPa) = 20.06331 25.48649 22.77490
# Shear Modulus (GPa) = 24.73736 31.40407 28.07071
#
# Velocity S-wave (km/s) = 3.57094 4.02345 3.80393
# Velocity P-wave (km/s) = 5.22918 5.89253 5.57074
#
# Compressibility (1/GPa) = 0.04984222
#
# Stress axis : x y z
#
# Youngs Moduli (GPa) = 25.30335 42.13247 75.59153
#
# Poissons Ratio (x) = 0.47644 -0.29332
# Poissons Ratio (y) = 0.28614 0.44547
# Poissons Ratio (z) = -0.09819 0.24829
#
# Static dielectric constant tensor:
#      x y z
#    x 3.674630 0.000000 0.001180 
#    y 0.000000 3.609500 0.000000 
#    z 0.001180 0.000000 3.509650 
# 
# 
# High freq. dielectric constant tensor:
#      x y z
#    x 1.757610 0.000000 -0.000580 
#    y 0.000000 1.752630 0.000000 
#    z -0.000580 0.000000 1.769980 
# 
# From -- ./inp_files/94314.got.cif
#   From: 2010.06.25/outbox.cif.g09.slc.cpg/sg12_48_cif.got.tgz:94314.got - 2010.06.28 00:19:55.
