data_PCOD8111631
_publ_section_title
;
Structure prediction by ZEFSAII (Michael W. Deem and Ramdas Pophale) SiO2 
 PCOD8111631
Probable space group: C 2/M
;
_chemical_formula_sum "Si O2"
_cell_formula_units_Z 48
_cell_length_a 14.798528
_cell_length_b 8.503353
_cell_length_c 28.986898
_cell_angle_alpha 90.000000
_cell_angle_beta 40.196704
_cell_angle_gamma 90.000000
_cell_volume 2354.228872
_symmetry_space_group_name_H-M "C 2/M"
_symmetry_group_IT_number 12
_symmetry_cell_setting 'monoclinic'
loop_
_space_group_symop_operation_xyz
x,y,z
-x,y,-z
-x,-y,-z
x,-y,z
1/2+x,1/2+y,z
1/2-x,1/2+y,-z
1/2-x,1/2-y,-z
1/2+x,1/2-y,z
loop_
_atom_site_type_symbol
_atom_site_label
_atom_site_fract_x
_atom_site_fract_y
_atom_site_fract_z
Si Si1 0.166106 0.681628 0.808495
Si Si2 0.160673 0.681055 0.341102
Si Si3 0.149752 0.182071 0.176520
Si Si4 0.618899 0.316781 0.578097
Si Si5 0.655584 0.184749 0.077241
Si Si6 0.624945 0.817948 0.676176
O O1 0.187836 0.500000 0.786135
O O2 0.246016 0.786157 0.740147
O O3 0.226972 0.717244 0.835341
O O4 0.004191 0.728807 0.872020
O O5 0.116037 0.500000 0.358721
O O6 0.245876 0.719476 0.354128
O O7 0.020992 0.786158 0.396623
O O8 0.205313 0.230367 0.104663
O O9 0.014050 0.285812 0.240304
O O10 0.105659 0.000000 0.195101
O O11 0.639275 0.500000 0.579232
O O12 0.750000 0.250000 0.500000
O O13 0.599225 0.228421 0.633809
O O14 0.677250 0.000000 0.074067
O O15 0.750000 0.250000 0.000000
O O16 0.662496 0.000000 0.665576
#
# Coordination Sequence:
#
# PCOD8111631 Si02
#       6
#     8   8   8   8   8   8
#     4  10  22  40  64  92 128 169 213 264 322 384
#     4  12  24  40  67  99 130 171 219 266 320 385
#     4  11  22  39  65  95 126 166 215 266 322 384
#     4  12  26  46  68  97 135 172 215 269 328 385
#     4  11  24  42  63  91 130 171 214 269 330 385
#     4  12  24  41  66  98 132 171 218 267 321 383
#
# _framework density 20.388842
#
# number of rings (size 3 to 8) (size 9 to 14) (size 15 to 20)
#    0.000    0.667    3.333    5.500    0.000    2.667 
#    0.000    6.667    0.000    0.000    0.000    0.000 
#    0.000    0.000    0.000    0.000    0.000    0.000 
#
# Total GULP energy -297806.213430 kJ/mol
# GULP energy per Si atom -12408.592226 kJ/mol
# Density = 2.034244 g / cm^3
# Si number density = 20.388842 Si / 1000 Ang^3
#
#
#
# Elastic Constant Matrix: (Units=GPa)
#
#
# Indices 1 2 3 4 5 6 
#
# 1 93.3116 24.8670 0.8927 -0.0009 -7.7125 -0.0032
# 2 24.8670 93.7631 29.1539 -0.0012 -0.0758 -0.0026
# 3 0.8927 29.1539 70.7619 0.0000 -11.4302 -0.0003
# 4 -0.0009 -0.0012 0.0000 37.8104 0.0001 0.7444
# 5 -7.7125 -0.0758 -11.4302 0.0001 31.5971 -0.0003
# 6 -0.0032 -0.0026 -0.0003 0.7444 -0.0003 34.3034
#
#
#
# Elastic Compliance Matrix: (Units=1/GPa)
#
#
# Indices 1 2 3 4 5 6 
#
# 1 0.012014 -0.003807 0.002006 0.000000 0.003649 0.000001
# 2 -0.003807 0.013548 -0.006031 0.000000 -0.003078 0.000001
# 3 0.002006 -0.006031 0.017702 0.000000 0.006879 0.000000
# 4 0.000000 0.000000 0.000000 0.026459 0.000000 -0.000574
# 5 0.003649 -0.003078 0.006879 0.000000 0.035020 0.000001
# 6 0.000001 0.000001 0.000000 -0.000574 0.000001 0.029164
#
#
# Mechanical properties :
#
#
# Convention : Reuss Voigt Hill
#
# Bulk Modulus (GPa) = 36.23086 40.85152 38.54119
# Shear Modulus (GPa) = 31.49200 34.27038 32.88119
#
# Velocity S-wave (km/s) = 3.93437 4.10425 4.02021
# Velocity P-wave (km/s) = 6.20060 6.52224 6.36345
#
# Compressibility (1/GPa) = 0.02760078
#
# Stress axis : x y z
#
# Youngs Moduli (GPa) = 83.23786 73.81413 56.48925
#
# Poissons Ratio (x) = 0.28102 -0.11334
# Poissons Ratio (y) = 0.31689 0.34068
# Poissons Ratio (z) = -0.16701 0.44516
#
# Static dielectric constant tensor:
#      x y z
#    x 4.132670 0.000000 -0.050660 
#    y 0.000000 3.745560 0.000000 
#    z -0.050660 0.000000 3.588230 
# 
# 
# High freq. dielectric constant tensor:
#      x y z
#    x 1.814270 0.000000 0.001560 
#    y 0.000000 1.808360 0.000000 
#    z 0.001560 0.000000 1.790080 
# 
# From -- ./inp_files/360233.got.cif
#   From: 2010.06.25/outbox.cif.g09.slc.cpg/sg12_181_cif.got.tgz:360233.got - 2010.06.28 00:19:55.
