data_PCOD8111501
_publ_section_title
;
Structure prediction by ZEFSAII (Michael W. Deem and Ramdas Pophale) SiO2 
 PCOD8111501
Probable space group: C 2/M
;
_chemical_formula_sum "Si O2"
_cell_formula_units_Z 48
_cell_length_a 19.713213
_cell_length_b 8.954938
_cell_length_c 16.699388
_cell_angle_alpha 90.000000
_cell_angle_beta 58.555999
_cell_angle_gamma 90.000000
_cell_volume 2515.047358
_symmetry_space_group_name_H-M "C 2/M"
_symmetry_group_IT_number 12
_symmetry_cell_setting 'monoclinic'
loop_
_space_group_symop_operation_xyz
x,y,z
-x,y,-z
-x,-y,-z
x,-y,z
1/2+x,1/2+y,z
1/2-x,1/2+y,-z
1/2-x,1/2-y,-z
1/2+x,1/2-y,z
loop_
_atom_site_type_symbol
_atom_site_label
_atom_site_fract_x
_atom_site_fract_y
_atom_site_fract_z
Si Si1 0.665044 0.676574 0.038042
Si Si2 0.614628 0.830474 0.740200
Si Si3 0.562233 0.172375 0.394868
Si Si4 0.839086 0.669902 0.118083
Si Si5 0.033954 0.175344 0.246122
Si Si6 0.758704 0.673015 0.702887
O O1 0.674104 0.500000 0.026705
O O2 0.606429 0.725689 0.145069
O O3 0.750000 0.750000 0.000000
O O4 0.627969 0.739991 0.978287
O O5 0.597186 0.824969 0.847530
O O6 0.546815 0.749447 0.733458
O O7 0.700222 0.749023 0.672707
O O8 0.621106 0.000000 0.705607
O O9 0.500000 0.224330 0.500000
O O10 0.551687 0.274673 0.324637
O O11 0.649931 0.196906 0.377816
O O12 0.548998 0.000000 0.378622
O O13 0.819338 0.500000 0.105093
O O14 0.757605 0.747957 0.200584
O O15 0.021529 0.000000 0.250902
O O16 0.736646 0.500000 0.724086
#
# Coordination Sequence:
#
# PCOD8111501 Si02
#       6
#     8   8   8   8   8   8
#     4  11  23  36  54  83 118 155 193 236 280 334
#     4   9  20  37  59  85 117 155 192 235 283 338
#     4  10  22  40  62  87 114 148 189 235 291 350
#     4   9  19  34  55  82 114 152 192 228 274 334
#     4  11  24  39  58  86 118 149 192 243 285 336
#     4   9  17  34  60  85 114 151 188 231 282 337
#
# _framework density 19.085128000000001
#
# number of rings (size 3 to 8) (size 9 to 14) (size 15 to 20)
#    1.000    1.167    0.000    3.000    0.000    7.667 
#    0.000    4.167    0.000    0.000    0.000    0.000 
#    0.000    0.000    0.000    0.000    0.000    0.000 
#
# Total GULP energy -297471.690913 kJ/mol
# GULP energy per Si atom -12394.653788 kJ/mol
# Density = 1.904169 g / cm^3
# Si number density = 19.085128 Si / 1000 Ang^3
#
#
#
# Elastic Constant Matrix: (Units=GPa)
#
#
# Indices 1 2 3 4 5 6 
#
# 1 106.5336 45.1817 32.7821 0.0000 -22.7198 0.0000
# 2 45.1817 98.0747 41.3983 0.0000 -18.2049 0.0002
# 3 32.7821 41.3983 89.0245 0.0000 -22.8679 0.0000
# 4 0.0000 0.0000 0.0000 24.0549 0.0000 3.4741
# 5 -22.7198 -18.2049 -22.8679 0.0000 17.6581 0.0000
# 6 0.0000 0.0002 0.0000 3.4741 0.0000 32.1266
#
#
#
# Elastic Compliance Matrix: (Units=1/GPa)
#
#
# Indices 1 2 3 4 5 6 
#
# 1 0.014027 -0.003936 0.000388 0.000000 0.014493 0.000000
# 2 -0.003936 0.014625 -0.004165 0.000000 0.004621 0.000000
# 3 0.000388 -0.004165 0.018060 0.000000 0.019593 0.000000
# 4 0.000000 0.000000 0.000000 0.042231 0.000000 -0.004567
# 5 0.014493 0.004621 0.019593 0.000000 0.105416 0.000000
# 6 0.000000 0.000000 0.000000 -0.004567 0.000000 0.031621
#
#
# Mechanical properties :
#
#
# Convention : Reuss Voigt Hill
#
# Bulk Modulus (GPa) = 31.96278 59.15079 45.55678
# Shear Modulus (GPa) = 19.85431 26.38596 23.12014
#
# Velocity S-wave (km/s) = 3.22887 3.72229 3.48432
# Velocity P-wave (km/s) = 5.53937 7.03806 6.33320
#
# Compressibility (1/GPa) = 0.03128639
#
# Stress axis : x y z
#
# Youngs Moduli (GPa) = 71.28924 68.37557 55.37174
#
# Poissons Ratio (x) = 0.26910 -0.02146
# Poissons Ratio (y) = 0.28057 0.23061
# Poissons Ratio (z) = -0.02763 0.28477
#
# Static dielectric constant tensor:
#      x y z
#    x 3.378940 0.000000 -0.012080 
#    y 0.000000 3.590360 0.000000 
#    z -0.012080 0.000000 3.347540 
# 
# 
# High freq. dielectric constant tensor:
#      x y z
#    x 1.739140 0.000000 -0.001860 
#    y 0.000000 1.756800 0.000000 
#    z -0.001860 0.000000 1.716560 
# 
# From -- ./inp_files/287277.got.cif
#   From: 2010.06.25/outbox.cif.g09.slc.cpg/sg12_144_cif.got.tgz:287277.got - 2010.06.28 00:19:55.
