data_PCOD8111168
_publ_section_title
;
Structure prediction by ZEFSAII (Michael W. Deem and Ramdas Pophale) SiO2 
 PCOD8111168
Probable space group: C 2/M
;
_chemical_formula_sum "Si O2"
_cell_formula_units_Z 64
_cell_length_a 11.945536
_cell_length_b 13.928732
_cell_length_c 28.467990
_cell_angle_alpha 90.000000
_cell_angle_beta 141.247361
_cell_angle_gamma 90.000000
_cell_volume 2964.969216
_symmetry_space_group_name_H-M "C 2/M"
_symmetry_group_IT_number 12
_symmetry_cell_setting 'monoclinic'
loop_
_space_group_symop_operation_xyz
x,y,z
-x,y,-z
-x,-y,-z
x,-y,z
1/2+x,1/2+y,z
1/2-x,1/2+y,-z
1/2-x,1/2-y,-z
1/2+x,1/2-y,z
loop_
_atom_site_type_symbol
_atom_site_label
_atom_site_fract_x
_atom_site_fract_y
_atom_site_fract_z
Si Si1 0.322331 0.391119 0.224762
Si Si2 0.888151 0.269623 0.679454
Si Si3 0.768793 0.615566 0.550100
Si Si4 0.675786 0.892931 0.078095
Si Si5 0.119631 0.895281 0.079720
Si Si6 0.100836 0.802422 0.919505
Si Si7 0.999784 0.717157 0.448133
Si Si8 0.008282 0.349656 0.189074
O O1 0.398936 0.500000 0.242406
O O2 0.477945 0.317207 0.291578
O O3 0.243407 0.347692 0.149712
O O4 0.171359 0.401883 0.215873
O O5 0.859015 0.342843 0.626798
O O6 0.701999 0.224623 0.635871
O O7 0.954486 0.331777 0.744409
O O8 0.732743 0.500000 0.541845
O O9 0.903016 0.638824 0.551896
O O10 0.588012 0.675290 0.479074
O O11 0.814757 0.893025 0.080301
O O12 0.621801 0.000000 0.074388
O O13 0.500000 0.838341 0.000000
O O14 0.323513 0.908317 0.130016
O O15 0.079530 0.830610 0.112074
O O16 0.041123 0.000000 0.065187
O O17 0.000000 0.847392 0.000000
O O18 0.031878 0.744868 0.852582
O O19 0.250000 0.750000 0.000000
O O20 0.000000 0.672108 0.500000
#
# Coordination Sequence:
#
# PCOD8111168 Si02
#       8
#     8   8   8   8   8   8   8   8
#     4  11  24  43  64  91 129 177 225 281 346 402
#     4  11  23  43  64  96 139 174 222 274 329 403
#     4  10  22  43  72 104 140 182 223 267 327 396
#     4  10  22  39  61  88 119 163 224 283 341 410
#     4  11  25  42  58  84 120 161 211 276 344 408
#     4  12  23  37  63  87 119 161 219 274 347 405
#     4   9  21  42  69 104 139 175 220 274 322 388
#     4  12  24  41  64  91 127 168 222 281 336 406
#
# _framework density 21.585384999999999
#
# number of rings (size 3 to 8) (size 9 to 14) (size 15 to 20)
#    0.000    1.250    2.500    3.000    1.750    4.000 
#    0.000    8.750    0.000    0.000    0.000    0.000 
#    0.000    0.000    0.000    0.000    0.000    0.000 
#
# Total GULP energy -396435.285401 kJ/mol
# GULP energy per Si atom -12388.602669 kJ/mol
# Density = 2.153626 g / cm^3
# Si number density = 21.585385 Si / 1000 Ang^3
#
#
#
# Elastic Constant Matrix: (Units=GPa)
#
#
# Indices 1 2 3 4 5 6 
#
# 1 146.6930 38.8663 38.1215 0.0000 2.1711 0.0000
# 2 38.8663 93.2077 37.1415 0.0000 -1.6479 0.0000
# 3 38.1215 37.1415 102.3181 0.0000 6.8158 0.0000
# 4 0.0000 0.0000 0.0000 22.5506 0.0000 -3.1923
# 5 2.1711 -1.6479 6.8158 0.0000 38.9280 0.0000
# 6 0.0000 0.0000 0.0000 -3.1923 0.0000 30.8507
#
#
#
# Elastic Compliance Matrix: (Units=1/GPa)
#
#
# Indices 1 2 3 4 5 6 
#
# 1 0.008025 -0.002529 -0.002059 0.000000 -0.000194 0.000000
# 2 -0.002529 0.013410 -0.004020 0.000000 0.001413 0.000000
# 3 -0.002059 -0.004020 0.012145 0.000000 -0.002182 0.000000
# 4 0.000000 0.000000 0.000000 0.045004 0.000000 0.004657
# 5 -0.000194 0.001413 -0.002182 0.000000 0.026141 0.000000
# 6 0.000000 0.000000 0.000000 0.004657 0.000000 0.032896
#
#
# Mechanical properties :
#
#
# Convention : Reuss Voigt Hill
#
# Bulk Modulus (GPa) = 61.10775 63.38636 62.24706
# Shear Modulus (GPa) = 31.19316 33.67183 32.43249
#
# Velocity S-wave (km/s) = 3.80558 3.95389 3.88044
# Velocity P-wave (km/s) = 6.90515 7.09038 6.99838
#
# Compressibility (1/GPa) = 0.01636454
#
# Stress axis : x y z
#
# Youngs Moduli (GPa) = 124.61027 74.57045 82.33854
#
# Poissons Ratio (x) = 0.18861 0.16952
# Poissons Ratio (y) = 0.31518 0.33097
# Poissons Ratio (z) = 0.25656 0.29974
#
# Static dielectric constant tensor:
#      x y z
#    x 4.249910 0.000000 0.083760 
#    y 0.000000 3.638550 0.000000 
#    z 0.083760 0.000000 3.950250 
# 
# 
# High freq. dielectric constant tensor:
#      x y z
#    x 1.865030 0.000000 -0.004750 
#    y 0.000000 1.839090 0.000000 
#    z -0.004750 0.000000 1.840920 
# 
# From -- ./inp_files/358458.got.cif
#   From: 2010.06.25/outbox.cif.g09.slc.cpg/sg12_180_cif.got.tgz:358458.got - 2010.06.28 00:19:55.
