data_PCOD8111803
_publ_section_title
;
Structure prediction by ZEFSAII (Michael W. Deem and Ramdas Pophale) SiO2 
 PCOD8111803
Probable space group: C 2/M
;
_chemical_formula_sum "Si O2"
_cell_formula_units_Z 56
_cell_length_a 9.981227
_cell_length_b 14.131572
_cell_length_c 21.198650
_cell_angle_alpha 90.000000
_cell_angle_beta 95.344181
_cell_angle_gamma 90.000000
_cell_volume 2977.081306
_symmetry_space_group_name_H-M "C 2/M"
_symmetry_group_IT_number 12
_symmetry_cell_setting 'monoclinic'
loop_
_space_group_symop_operation_xyz
x,y,z
-x,y,-z
-x,-y,-z
x,-y,z
1/2+x,1/2+y,z
1/2-x,1/2+y,-z
1/2-x,1/2-y,-z
1/2+x,1/2-y,z
loop_
_atom_site_type_symbol
_atom_site_label
_atom_site_fract_x
_atom_site_fract_y
_atom_site_fract_z
Si Si1 0.192325 0.109406 0.350977
Si Si2 0.816490 0.390209 0.938882
Si Si3 0.385355 0.257104 0.544082
Si Si4 0.617392 0.890368 0.920112
Si Si5 0.302631 0.265552 0.165162
Si Si6 0.508957 0.110612 0.356438
Si Si7 0.568970 0.252466 0.249162
O O1 0.120706 0.156089 0.407762
O O2 0.351524 0.124738 0.361863
O O3 0.136401 0.158276 0.285943
O O4 0.152706 0.000000 0.347347
O O5 0.798529 0.500000 0.924458
O O6 0.701181 0.336751 0.894461
O O7 0.964308 0.356604 0.923490
O O8 0.798139 0.368884 0.012489
O O9 0.500000 0.282217 0.500000
O O10 0.250000 0.250000 0.500000
O O11 0.412688 0.158303 0.581648
O O12 0.682936 0.839289 0.862910
O O13 0.621966 0.000000 0.903717
O O14 0.426530 0.288314 0.216486
O O15 0.164633 0.278930 0.196703
O O16 0.550863 0.161837 0.293635
O O17 0.548346 0.000000 0.354152
#
# Coordination Sequence:
#
# PCOD8111803 Si02
#       7
#     8   8   8   8   8   8   8
#     4  10  22  41  62  86 121 160 193 236 290 337
#     4   9  19  36  57  84 115 148 192 243 293 352
#     4  11  22  39  63  96 125 148 190 242 282 335
#     4   9  19  36  58  83 113 151 193 238 294 359
#     4  12  21  37  59  86 115 150 196 239 299 346
#     4  10  22  41  64  86 117 162 199 231 283 346
#     4  11  24  38  58  87 118 152 195 249 284 337
#
# _framework density 18.810369999999999
#
# number of rings (size 3 to 8) (size 9 to 14) (size 15 to 20)
#    0.000    1.714    4.286    1.286    0.000    3.429 
#    0.000    1.429    0.000    1.714    0.000    0.000 
#    0.000    0.000    0.000    0.000    0.000    0.000 
#
# Total GULP energy -347261.508195 kJ/mol
# GULP energy per Si atom -12402.196721 kJ/mol
# Density = 1.876756 g / cm^3
# Si number density = 18.810370 Si / 1000 Ang^3
#
#
#
# Elastic Constant Matrix: (Units=GPa)
#
#
# Indices 1 2 3 4 5 6 
#
# 1 78.9369 37.4089 38.9738 0.0000 5.6931 0.0000
# 2 37.4089 116.1303 50.4479 0.0000 11.2075 0.0000
# 3 38.9738 50.4479 100.5440 0.0000 11.5816 0.0000
# 4 0.0000 0.0000 0.0000 23.4590 0.0000 -0.9205
# 5 5.6931 11.2075 11.5816 0.0000 44.2110 0.0000
# 6 0.0000 0.0000 0.0000 -0.9205 0.0000 25.6699
#
#
#
# Elastic Compliance Matrix: (Units=1/GPa)
#
#
# Indices 1 2 3 4 5 6 
#
# 1 0.016578 -0.003256 -0.004786 0.000000 -0.000056 0.000000
# 2 -0.003256 0.011733 -0.004466 0.000000 -0.001385 0.000000
# 3 -0.004786 -0.004466 0.014271 0.000000 -0.001990 0.000000
# 4 0.000000 0.000000 0.000000 0.042688 0.000000 0.001531
# 5 -0.000056 -0.001385 -0.001990 0.000000 0.023499 0.000000
# 6 0.000000 0.000000 0.000000 0.001531 0.000000 0.039011
#
#
# Mechanical properties :
#
#
# Convention : Reuss Voigt Hill
#
# Bulk Modulus (GPa) = 56.92328 61.03027 58.97677
# Shear Modulus (GPa) = 27.98746 29.92000 28.95373
#
# Velocity S-wave (km/s) = 3.86148 3.99257 3.92758
# Velocity P-wave (km/s) = 7.08581 7.33278 7.21035
#
# Compressibility (1/GPa) = 0.01756750
#
# Stress axis : x y z
#
# Youngs Moduli (GPa) = 60.31913 85.22680 70.07191
#
# Poissons Ratio (x) = 0.27748 0.33538
# Poissons Ratio (y) = 0.19639 0.31291
# Poissons Ratio (z) = 0.28870 0.38059
#
# Static dielectric constant tensor:
#      x y z
#    x 3.382740 0.000000 0.060240 
#    y 0.000000 3.349110 0.000000 
#    z 0.060240 0.000000 3.643970 
# 
# 
# High freq. dielectric constant tensor:
#      x y z
#    x 1.723350 0.000000 0.005710 
#    y 0.000000 1.725300 0.000000 
#    z 0.005710 0.000000 1.748590 
# 
# From -- ./inp_files/300143.got.cif
#   From: 2010.06.25/outbox.cif.g09.slc.cpg/sg12_151_cif.got.tgz:300143.got - 2010.06.28 00:19:55.
