data_PCOD8111244
_publ_section_title
;
Structure prediction by ZEFSAII (Michael W. Deem and Ramdas Pophale) SiO2 
 PCOD8111244
Probable space group: C 2/M
;
_chemical_formula_sum "Si O2"
_cell_formula_units_Z 48
_cell_length_a 17.645436
_cell_length_b 16.439957
_cell_length_c 15.007426
_cell_angle_alpha 90.000000
_cell_angle_beta 29.413144
_cell_angle_gamma 90.000000
_cell_volume 2138.023141
_symmetry_space_group_name_H-M "C 2/M"
_symmetry_group_IT_number 12
_symmetry_cell_setting 'monoclinic'
loop_
_space_group_symop_operation_xyz
x,y,z
-x,y,-z
-x,-y,-z
x,-y,z
1/2+x,1/2+y,z
1/2-x,1/2+y,-z
1/2-x,1/2-y,-z
1/2+x,1/2-y,z
loop_
_atom_site_type_symbol
_atom_site_label
_atom_site_fract_x
_atom_site_fract_y
_atom_site_fract_z
Si Si1 0.645444 0.591979 0.698321
Si Si2 0.694900 0.170163 0.611278
Si Si3 0.815169 0.849214 0.010464
Si Si4 0.824390 0.094742 0.652309
Si Si5 0.833771 0.333148 0.016454
Si Si6 0.167745 0.592115 0.330933
O O1 0.591531 0.500000 0.771036
O O2 0.770815 0.595351 0.490744
O O3 0.499430 0.645221 0.818782
O O4 0.719052 0.633113 0.711968
O O5 0.750000 0.250000 0.500000
O O6 0.790267 0.154118 0.604179
O O7 0.516548 0.170153 0.818461
O O8 0.766021 0.758176 0.088828
O O9 0.744397 0.876693 0.988601
O O10 0.746742 0.909012 0.154272
O O11 0.000000 0.110100 0.500000
O O12 0.795975 0.000000 0.656833
O O13 0.710960 0.117972 0.849515
O O14 0.142860 0.500000 0.390112
O O15 0.000000 0.636002 0.500000
#
# Coordination Sequence:
#
# PCOD8111244 Si02
#       6
#     8   8   8   8   8   8
#     4  11  23  41  67  96 134 181 225 279 349 416
#     4  12  25  44  69 102 138 181 228 293 350 417
#     4  11  23  41  64  97 136 177 227 284 342 421
#     4  11  27  49  74 104 142 189 240 292 352 426
#     4  11  26  43  68 100 135 180 230 287 353 409
#     4  10  22  39  62  94 130 173 221 275 338 406
#
# _framework density 22.450644
#
# number of rings (size 3 to 8) (size 9 to 14) (size 15 to 20)
#    0.000    1.000    1.667    4.000    4.667    8.000 
#    0.000    0.000    0.000    0.000    0.000    0.000 
#    0.000    0.000    0.000    0.000    0.000    0.000 
#
# Total GULP energy -297624.356447 kJ/mol
# GULP energy per Si atom -12401.014852 kJ/mol
# Density = 2.239955 g / cm^3
# Si number density = 22.450644 Si / 1000 Ang^3
#
#
#
# Elastic Constant Matrix: (Units=GPa)
#
#
# Indices 1 2 3 4 5 6 
#
# 1 200.1277 49.7442 67.8113 -0.0008 6.5836 0.0005
# 2 49.7442 66.5752 34.6406 -0.0039 -0.3160 0.0031
# 3 67.8113 34.6406 146.7087 0.0002 3.6507 0.0014
# 4 -0.0008 -0.0039 0.0002 37.4999 0.0001 6.7000
# 5 6.5836 -0.3160 3.6507 0.0001 45.3294 -0.0004
# 6 0.0005 0.0031 0.0014 6.7000 -0.0004 26.7577
#
#
#
# Elastic Compliance Matrix: (Units=1/GPa)
#
#
# Indices 1 2 3 4 5 6 
#
# 1 0.006729 -0.003904 -0.002168 0.000000 -0.000830 0.000001
# 2 -0.003904 0.019398 -0.002799 0.000002 0.000928 -0.000003
# 3 -0.002168 -0.002799 0.008489 0.000000 -0.000388 0.000000
# 4 0.000000 0.000002 0.000000 0.027916 0.000000 -0.006990
# 5 -0.000830 0.000928 -0.000388 0.000000 0.022219 0.000000
# 6 0.000001 -0.000003 0.000000 -0.006990 0.000000 0.039123
#
#
# Mechanical properties :
#
#
# Convention : Reuss Voigt Hill
#
# Bulk Modulus (GPa) = 59.25987 79.75598 69.50793
# Shear Modulus (GPa) = 33.95830 39.33179 36.64504
#
# Velocity S-wave (km/s) = 3.89340 4.19014 4.04449
# Velocity P-wave (km/s) = 6.83113 7.68192 7.26898
#
# Compressibility (1/GPa) = 0.01687482
#
# Stress axis : x y z
#
# Youngs Moduli (GPa) = 148.61047 51.55108 117.80233
#
# Poissons Ratio (x) = 0.20124 0.25538
# Poissons Ratio (y) = 0.58014 0.32972
# Poissons Ratio (z) = 0.32217 0.14429
#
# Static dielectric constant tensor:
#      x y z
#    x 4.267870 0.000000 -0.018100 
#    y 0.000000 3.898440 0.000000 
#    z -0.018100 0.000000 4.012750 
# 
# 
# High freq. dielectric constant tensor:
#      x y z
#    x 1.901080 0.000000 -0.001050 
#    y 0.000000 1.872270 0.000000 
#    z -0.001050 0.000000 1.893500 
# 
# From -- ./inp_files/112931.got.cif
#   From: 2010.06.25/outbox.cif.g09.slc.cpg/sg12_57_cif.got.tgz:112931.got - 2010.06.28 00:19:55.
