data_PCOD8111308
_publ_section_title
;
Structure prediction by ZEFSAII (Michael W. Deem and Ramdas Pophale) SiO2 
 PCOD8111308
Probable space group: C 2/M
;
_chemical_formula_sum "Si O2"
_cell_formula_units_Z 36
_cell_length_a 15.259847
_cell_length_b 10.626848
_cell_length_c 21.024909
_cell_angle_alpha 90.000000
_cell_angle_beta 29.422907
_cell_angle_gamma 90.000000
_cell_volume 1674.916377
_symmetry_space_group_name_H-M "C 2/M"
_symmetry_group_IT_number 12
_symmetry_cell_setting 'monoclinic'
loop_
_space_group_symop_operation_xyz
x,y,z
-x,y,-z
-x,-y,-z
x,-y,z
1/2+x,1/2+y,z
1/2-x,1/2+y,-z
1/2-x,1/2-y,-z
1/2+x,1/2-y,z
loop_
_atom_site_type_symbol
_atom_site_label
_atom_site_fract_x
_atom_site_fract_y
_atom_site_fract_z
Si Si1 0.547348 0.639909 0.098519
Si Si2 0.047563 0.500000 0.396512
Si Si3 0.733905 0.747305 0.234587
Si Si4 0.953979 0.000000 0.601594
Si Si5 0.402955 0.791516 0.814211
Si Si6 0.152885 0.500000 0.600852
O O1 0.466364 0.500000 0.143427
O O2 0.444710 0.736901 0.116294
O O3 0.521548 0.681777 0.188289
O O4 0.755336 0.632817 0.947997
O O5 0.152848 0.372905 0.315904
O O6 0.000000 0.500000 0.500000
O O7 0.879357 0.500000 0.454614
O O8 0.662557 0.622905 0.312789
O O9 0.695459 0.733289 0.184507
O O10 0.134706 0.000000 0.528125
O O11 0.000000 0.000000 0.500000
O O12 0.567337 0.878248 0.688709
#
# Coordination Sequence:
#
# PCOD8111308 Si02
#       6
#     8   4   8   4   8   4
#     4  11  22  41  70  97 132 170 216 272 326 395
#     4  10  22  39  65  93 122 168 231 270 313 384
#     4  11  24  42  65  98 131 174 218 268 330 385
#     4  12  26  42  63  90 137 180 215 264 327 388
#     4  10  23  40  67 101 127 169 218 273 328 386
#     4  10  22  43  65  89 136 174 213 264 330 386
#
# _framework density 21.493608999999999
#
# number of rings (size 3 to 8) (size 9 to 14) (size 15 to 20)
#    0.000    1.333    2.222    2.667    1.556    6.222 
#    2.000    1.111    0.000    0.000    0.000    0.000 
#    0.000    0.000    0.000    0.000    0.000    0.000 
#
# Total GULP energy -223175.942680 kJ/mol
# GULP energy per Si atom -12398.663482 kJ/mol
# Density = 2.144469 g / cm^3
# Si number density = 21.493609 Si / 1000 Ang^3
#
#
#
# Elastic Constant Matrix: (Units=GPa)
#
#
# Indices 1 2 3 4 5 6 
#
# 1 102.3662 27.5239 13.8855 0.0050 4.5728 0.0014
# 2 27.5239 138.3353 33.6447 0.0124 -3.1131 0.0008
# 3 13.8855 33.6447 56.0413 0.0252 -6.7328 0.0019
# 4 0.0050 0.0124 0.0252 48.3354 -0.0008 -2.5812
# 5 4.5728 -3.1131 -6.7328 -0.0008 47.0427 0.0007
# 6 0.0014 0.0008 0.0019 -2.5812 0.0007 33.6515
#
#
#
# Elastic Compliance Matrix: (Units=1/GPa)
#
#
# Indices 1 2 3 4 5 6 
#
# 1 0.010526 -0.001699 -0.001755 0.000000 -0.001387 0.000000
# 2 -0.001699 0.008740 -0.004820 0.000000 0.000054 0.000000
# 3 -0.001755 -0.004820 0.021525 -0.000010 0.002932 -0.000002
# 4 0.000000 0.000000 -0.000010 0.020774 -0.000001 0.001593
# 5 -0.001387 0.000054 0.002932 -0.000001 0.021815 -0.000001
# 6 0.000000 0.000000 -0.000002 0.001593 -0.000001 0.029839
#
#
# Mechanical properties :
#
#
# Convention : Reuss Voigt Hill
#
# Bulk Modulus (GPa) = 41.24755 49.65011 45.44883
# Shear Modulus (GPa) = 36.27232 40.58517 38.42875
#
# Velocity S-wave (km/s) = 4.11248 4.35011 4.23296
# Velocity P-wave (km/s) = 6.46392 6.95567 6.71430
#
# Compressibility (1/GPa) = 0.02424386
#
# Stress axis : x y z
#
# Youngs Moduli (GPa) = 95.00699 114.41312 46.45825
#
# Poissons Ratio (x) = 0.19435 0.08152
# Poissons Ratio (y) = 0.16138 0.22393
# Poissons Ratio (z) = 0.16671 0.55146
#
# Static dielectric constant tensor:
#      x y z
#    x 4.330650 -0.000200 -0.211460 
#    y -0.000200 3.706800 0.000170 
#    z -0.211460 0.000170 3.925290 
# 
# 
# High freq. dielectric constant tensor:
#      x y z
#    x 1.863440 0.000000 -0.001860 
#    y 0.000000 1.840990 0.000000 
#    z -0.001860 0.000000 1.835680 
# 
# From -- ./inp_files/232745.got.cif
#   From: 2010.06.25/outbox.cif.g09.slc.cpg/sg12_117_cif.got.tgz:232745.got - 2010.06.28 00:19:55.
