data_PCOD8111430
_publ_section_title
;
Structure prediction by ZEFSAII (Michael W. Deem and Ramdas Pophale) SiO2 
 PCOD8111430
Probable space group: C 2/M
;
_chemical_formula_sum "Si O2"
_cell_formula_units_Z 48
_cell_length_a 17.890849
_cell_length_b 8.903653
_cell_length_c 20.490765
_cell_angle_alpha 90.000000
_cell_angle_beta 48.690261
_cell_angle_gamma 90.000000
_cell_volume 2451.800563
_symmetry_space_group_name_H-M "C 2/M"
_symmetry_group_IT_number 12
_symmetry_cell_setting 'monoclinic'
loop_
_space_group_symop_operation_xyz
x,y,z
-x,y,-z
-x,-y,-z
x,-y,z
1/2+x,1/2+y,z
1/2-x,1/2+y,-z
1/2-x,1/2-y,-z
1/2+x,1/2-y,z
loop_
_atom_site_type_symbol
_atom_site_label
_atom_site_fract_x
_atom_site_fract_y
_atom_site_fract_z
Si Si1 0.273653 0.322972 0.241247
Si Si2 0.972020 0.671749 0.088728
Si Si3 0.114422 0.822079 0.240574
Si Si4 0.598816 0.323278 0.586927
Si Si5 0.151823 0.673164 0.083021
Si Si6 0.233050 0.323050 0.410775
O O1 0.259361 0.500000 0.241243
O O2 0.387999 0.281526 0.164434
O O3 0.207902 0.237282 0.226538
O O4 0.242246 0.267765 0.331296
O O5 0.933327 0.500000 0.112063
O O6 0.069020 0.692106 0.076071
O O7 0.000000 0.722430 0.000000
O O8 0.113437 0.753842 0.169577
O O9 0.013178 0.770368 0.334434
O O10 0.121357 0.000000 0.230381
O O11 0.605176 0.500000 0.574475
O O12 0.669335 0.269005 0.605748
O O13 0.634242 0.248709 0.498998
O O14 0.174335 0.500000 0.085603
O O15 0.250000 0.750000 0.000000
O O16 0.222146 0.500000 0.420590
#
# Coordination Sequence:
#
# PCOD8111430 Si02
#       6
#     8   8   8   8   8   8
#     4  11  23  38  58  85 116 151 193 238 288 343
#     4  10  22  40  61  86 116 149 186 231 283 338
#     4  11  23  39  58  82 117 155 194 240 285 336
#     4   9  19  36  58  82 109 148 193 234 284 343
#     4  11  23  39  62  90 119 152 190 232 282 340
#     4   9  19  36  57  82 112 145 186 238 289 340
#
# _framework density 19.577449000000001
#
# number of rings (size 3 to 8) (size 9 to 14) (size 15 to 20)
#    0.000    1.833    0.000    3.500    0.000    7.667 
#    0.000    6.667    0.000    0.000    0.000    0.000 
#    0.000    0.000    0.000    0.000    0.000    0.000 
#
# Total GULP energy -297727.118725 kJ/mol
# GULP energy per Si atom -12405.296614 kJ/mol
# Density = 1.953289 g / cm^3
# Si number density = 19.577449 Si / 1000 Ang^3
#
#
#
# Elastic Constant Matrix: (Units=GPa)
#
#
# Indices 1 2 3 4 5 6 
#
# 1 79.8461 35.5574 51.0664 0.0000 4.7492 0.0000
# 2 35.5574 72.2183 56.0714 0.0000 -0.2626 0.0001
# 3 51.0664 56.0714 152.1230 0.0000 6.0649 0.0000
# 4 0.0000 0.0000 0.0000 37.3034 0.0000 -0.4784
# 5 4.7492 -0.2626 6.0649 0.0000 40.8340 0.0000
# 6 0.0000 0.0001 0.0000 -0.4784 0.0000 28.2006
#
#
#
# Elastic Compliance Matrix: (Units=1/GPa)
#
#
# Indices 1 2 3 4 5 6 
#
# 1 0.017555 -0.005773 -0.003704 0.000000 -0.001529 0.000000
# 2 -0.005773 0.021355 -0.006001 0.000000 0.001700 0.000000
# 3 -0.003704 -0.006001 0.010073 0.000000 -0.001104 0.000000
# 4 0.000000 0.000000 0.000000 0.026813 0.000000 0.000455
# 5 -0.001529 0.001700 -0.001104 0.000000 0.024842 0.000000
# 6 0.000000 0.000000 0.000000 0.000455 0.000000 0.035468
#
#
# Mechanical properties :
#
#
# Convention : Reuss Voigt Hill
#
# Bulk Modulus (GPa) = 55.47433 65.50864 60.49149
# Shear Modulus (GPa) = 28.88988 32.03374 30.46181
#
# Velocity S-wave (km/s) = 3.84561 4.04946 3.94885
# Velocity P-wave (km/s) = 6.93655 7.44299 7.19422
#
# Compressibility (1/GPa) = 0.01802636
#
# Stress axis : x y z
#
# Youngs Moduli (GPa) = 56.96413 46.82802 99.27451
#
# Poissons Ratio (x) = 0.27033 0.36774
# Poissons Ratio (y) = 0.32884 0.59575
# Poissons Ratio (z) = 0.21101 0.28102
#
# Static dielectric constant tensor:
#      x y z
#    x 3.638840 0.000000 0.090240 
#    y 0.000000 3.558140 0.000000 
#    z 0.090240 0.000000 3.749980 
# 
# 
# High freq. dielectric constant tensor:
#      x y z
#    x 1.768030 0.000000 0.001900 
#    y 0.000000 1.763420 0.000000 
#    z 0.001900 0.000000 1.778220 
# 
# From -- ./inp_files/313599.got.cif
#   From: 2010.06.25/outbox.cif.g09.slc.cpg/sg12_157_cif.got.tgz:313599.got - 2010.06.28 00:19:55.
