data_PCOD8111023
_publ_section_title
;
Structure prediction by ZEFSAII (Michael W. Deem and Ramdas Pophale) SiO2 
 PCOD8111023
Probable space group: C 2/M
;
_chemical_formula_sum "Si O2"
_cell_formula_units_Z 56
_cell_length_a 17.516745
_cell_length_b 9.323265
_cell_length_c 20.300388
_cell_angle_alpha 90.000000
_cell_angle_beta 61.434630
_cell_angle_gamma 90.000000
_cell_volume 2911.755346
_symmetry_space_group_name_H-M "C 2/M"
_symmetry_group_IT_number 12
_symmetry_cell_setting 'monoclinic'
loop_
_space_group_symop_operation_xyz
x,y,z
-x,y,-z
-x,-y,-z
x,-y,z
1/2+x,1/2+y,z
1/2-x,1/2+y,-z
1/2-x,1/2-y,-z
1/2+x,1/2-y,z
loop_
_atom_site_type_symbol
_atom_site_label
_atom_site_fract_x
_atom_site_fract_y
_atom_site_fract_z
Si Si1 0.935669 0.838233 0.931978
Si Si2 0.001342 0.668251 0.641509
Si Si3 0.370238 0.662180 0.094250
Si Si4 0.337722 0.666736 0.477967
Si Si5 0.858315 0.836033 0.623294
Si Si6 0.817255 0.332865 0.233175
Si Si7 0.496753 0.164935 0.793381
O O1 0.033282 0.829022 0.917456
O O2 0.927474 0.745037 0.869032
O O3 0.910683 0.000000 0.923823
O O4 0.872125 0.783218 0.017210
O O5 0.018142 0.500000 0.620628
O O6 0.088986 0.756918 0.595320
O O7 0.970638 0.693874 0.728995
O O8 0.927309 0.726642 0.624370
O O9 0.335339 0.500000 0.111022
O O10 0.307601 0.757635 0.165742
O O11 0.328621 0.500000 0.461235
O O12 0.250000 0.750000 0.500000
O O13 0.362906 0.680362 0.543550
O O14 0.763227 0.790238 0.687550
O O15 0.880403 0.000000 0.634898
O O16 0.819295 0.500000 0.218133
O O17 0.904224 0.281931 0.235233
O O18 0.489530 0.000000 0.815181
#
# Coordination Sequence:
#
# PCOD8111023 Si02
#       7
#     8   8   8   8   8   8   8
#     4   8  14  25  43  69 101 134 167 209 260 311
#     4  11  23  38  56  80 110 142 178 219 262 312
#     4   8  14  25  42  69 103 132 164 211 262 308
#     4  11  23  40  62  85 110 139 173 216 263 311
#     4  10  22  39  56  77 108 143 177 216 263 313
#     4   9  17  31  51  73 100 135 173 213 260 313
#     4   9  18  32  50  74 104 136 172 217 263 308
#
# _framework density 19.232384
#
# number of rings (size 3 to 8) (size 9 to 14) (size 15 to 20)
#    0.000    2.571    0.000    3.000    0.000    7.429 
#    0.000    5.714    0.000    0.857    0.000    0.000 
#    0.000    0.000    0.000    0.000    0.000    0.000 
#
# Total GULP energy -347129.776788 kJ/mol
# GULP energy per Si atom -12397.492028 kJ/mol
# Density = 1.918861 g / cm^3
# Si number density = 19.232384 Si / 1000 Ang^3
#
#
#
# Elastic Constant Matrix: (Units=GPa)
#
#
# Indices 1 2 3 4 5 6 
#
# 1 48.6332 29.7910 4.1353 0.0000 13.1000 0.0001
# 2 29.7910 85.4346 39.3600 -0.0001 12.9320 0.0004
# 3 4.1353 39.3600 81.2730 0.0000 18.0342 0.0000
# 4 0.0000 -0.0001 0.0000 39.3412 0.0000 1.5378
# 5 13.1000 12.9320 18.0342 0.0000 15.9468 0.0000
# 6 0.0001 0.0004 0.0000 1.5378 0.0000 26.8441
#
#
#
# Elastic Compliance Matrix: (Units=1/GPa)
#
#
# Indices 1 2 3 4 5 6 
#
# 1 0.036385 -0.013179 0.011738 0.000000 -0.032476 0.000000
# 2 -0.013179 0.020183 -0.010512 0.000000 0.006348 0.000000
# 3 0.011738 -0.010512 0.022757 0.000000 -0.026853 0.000000
# 4 0.000000 0.000000 0.000000 0.025476 0.000000 -0.001459
# 5 -0.032476 0.006348 -0.026853 0.000000 0.114608 0.000000
# 6 0.000000 0.000000 0.000000 -0.001459 0.000000 0.037336
#
#
# Mechanical properties :
#
#
# Convention : Reuss Voigt Hill
#
# Bulk Modulus (GPa) = 18.04508 40.21261 29.12884
# Shear Modulus (GPa) = 16.71550 25.89672 21.30611
#
# Velocity S-wave (km/s) = 2.95130 3.67347 3.33201
# Velocity P-wave (km/s) = 4.58439 6.24073 5.47555
#
# Compressibility (1/GPa) = 0.05541676
#
# Stress axis : x y z
#
# Youngs Moduli (GPa) = 27.48371 49.54745 43.94332
#
# Poissons Ratio (x) = 0.65300 -0.51579
# Poissons Ratio (y) = 0.36221 0.46195
# Poissons Ratio (z) = -0.32260 0.52086
#
# Static dielectric constant tensor:
#      x y z
#    x 3.235660 0.000000 0.033100 
#    y 0.000000 3.611240 0.000000 
#    z 0.033100 0.000000 3.953290 
# 
# 
# High freq. dielectric constant tensor:
#      x y z
#    x 1.712670 0.000000 0.006680 
#    y 0.000000 1.746190 0.000000 
#    z 0.006680 0.000000 1.764890 
# 
# From -- ./inp_files/313758.got.cif
#   From: 2010.06.25/outbox.cif.g09.slc.cpg/sg12_157_cif.got.tgz:313758.got - 2010.06.28 00:19:55.
