data_PCOD8111096
_publ_section_title
;
Structure prediction by ZEFSAII (Michael W. Deem and Ramdas Pophale) SiO2 
 PCOD8111096
Probable space group: C 2/M
;
_chemical_formula_sum "Si O2"
_cell_formula_units_Z 64
_cell_length_a 28.781202
_cell_length_b 8.560662
_cell_length_c 14.312569
_cell_angle_alpha 90.000000
_cell_angle_beta 55.778624
_cell_angle_gamma 90.000000
_cell_volume 2915.892669
_symmetry_space_group_name_H-M "C 2/M"
_symmetry_group_IT_number 12
_symmetry_cell_setting 'monoclinic'
loop_
_space_group_symop_operation_xyz
x,y,z
-x,y,-z
-x,-y,-z
x,-y,z
1/2+x,1/2+y,z
1/2-x,1/2+y,-z
1/2-x,1/2-y,-z
1/2+x,1/2-y,z
loop_
_atom_site_type_symbol
_atom_site_label
_atom_site_fract_x
_atom_site_fract_y
_atom_site_fract_z
Si Si1 0.218829 0.316009 0.186241
Si Si2 0.478986 0.316441 0.624019
Si Si3 0.663912 0.680669 0.411382
Si Si4 0.071370 0.679806 0.646965
Si Si5 0.842988 0.679847 0.057775
Si Si6 0.737283 0.677863 0.611277
Si Si7 0.365197 0.683935 0.844093
Si Si8 0.373420 0.177300 0.227279
O O1 0.224227 0.500000 0.193931
O O2 0.163971 0.247145 0.306309
O O3 0.279660 0.245670 0.143126
O O4 0.194659 0.268787 0.111866
O O5 0.500000 0.244664 0.500000
O O6 0.475160 0.500000 0.616217
O O7 0.521610 0.280475 0.659841
O O8 0.418113 0.252135 0.723569
O O9 0.646165 0.500000 0.434426
O O10 0.628412 0.775141 0.527776
O O11 0.729931 0.711109 0.354534
O O12 0.058189 0.500000 0.642300
O O13 0.076489 0.710449 0.754073
O O14 0.837558 0.500000 0.035212
O O15 0.883507 0.695553 0.104481
O O16 0.875774 0.774700 0.940710
O O17 0.757548 0.500000 0.597735
O O18 0.750000 0.750000 0.500000
O O19 0.671501 0.689377 0.700977
O O20 0.357520 0.500000 0.841078
O O21 0.351708 0.000000 0.271730
#
# Coordination Sequence:
#
# PCOD8111096 Si02
#       8
#     8   8   8   8   8   8   8   8
#     4  12  24  39  62  94 128 164 212 261 314 379
#     4  10  23  45  70  94 122 160 205 256 318 380
#     4  12  23  36  56  87 128 169 207 253 311 375
#     4  11  23  39  63  94 126 162 211 265 316 372
#     4  11  23  41  64  90 126 170 211 254 310 374
#     4  12  22  33  53  82 121 168 211 255 307 369
#     4  11  24  43  66  92 124 162 208 263 320 376
#     4  10  22  39  59  86 125 168 210 257 309 370
#
# _framework density 21.948681000000001
#
# number of rings (size 3 to 8) (size 9 to 14) (size 15 to 20)
#    0.000    0.875    2.500    5.625    0.000    3.250 
#    0.000    0.625    0.000    3.750    0.000    0.000 
#    0.000    0.000    0.000    0.000    0.000    0.000 
#
# Total GULP energy -396422.851331 kJ/mol
# GULP energy per Si atom -12388.214104 kJ/mol
# Density = 2.189872 g / cm^3
# Si number density = 21.948681 Si / 1000 Ang^3
#
#
#
# Elastic Constant Matrix: (Units=GPa)
#
#
# Indices 1 2 3 4 5 6 
#
# 1 125.1335 11.0955 39.0524 0.0000 13.9372 0.0000
# 2 11.0955 61.2156 20.7490 0.0000 2.0269 0.0000
# 3 39.0524 20.7490 108.2170 0.0000 8.2941 0.0000
# 4 0.0000 0.0000 0.0000 29.5636 0.0000 2.9675
# 5 13.9372 2.0269 8.2941 0.0000 27.7898 0.0000
# 6 0.0000 0.0000 0.0000 2.9675 0.0000 31.2058
#
#
#
# Elastic Compliance Matrix: (Units=1/GPa)
#
#
# Indices 1 2 3 4 5 6 
#
# 1 0.009396 -0.000563 -0.002993 0.000000 -0.003778 0.000000
# 2 -0.000563 0.017507 -0.003149 0.000000 -0.000054 0.000000
# 3 -0.002993 -0.003149 0.011045 0.000000 -0.001565 0.000000
# 4 0.000000 0.000000 0.000000 0.034151 0.000000 -0.003248
# 5 -0.003778 -0.000054 -0.001565 0.000000 0.038350 0.000000
# 6 0.000000 0.000000 0.000000 -0.003248 0.000000 0.032354
#
#
# Mechanical properties :
#
#
# Convention : Reuss Voigt Hill
#
# Bulk Modulus (GPa) = 40.75610 48.48443 44.62027
# Shear Modulus (GPa) = 30.41461 32.62312 31.51886
#
# Velocity S-wave (km/s) = 3.72656 3.85949 3.79360
# Velocity P-wave (km/s) = 6.09306 6.48064 6.28984
#
# Compressibility (1/GPa) = 0.02453620
#
# Stress axis : x y z
#
# Youngs Moduli (GPa) = 106.42393 57.11986 90.54134
#
# Poissons Ratio (x) = 0.03218 0.27102
# Poissons Ratio (y) = 0.05997 0.28513
# Poissons Ratio (z) = 0.31856 0.17988
#
# Static dielectric constant tensor:
#      x y z
#    x 4.026160 0.000000 0.376000 
#    y 0.000000 3.718320 0.000000 
#    z 0.376000 0.000000 4.041110 
# 
# 
# High freq. dielectric constant tensor:
#      x y z
#    x 1.866470 0.000000 0.031700 
#    y 0.000000 1.859480 0.000000 
#    z 0.031700 0.000000 1.854740 
# 
# From -- ./inp_files/249788.got.cif
#   From: 2010.06.25/outbox.cif.g09.slc.cpg/sg12_125_cif.got.tgz:249788.got - 2010.06.28 00:19:55.
