data_PCOD8111957
_publ_section_title
;
Structure prediction by ZEFSAII (Michael W. Deem and Ramdas Pophale) SiO2 
 PCOD8111957
Probable space group: C 2/M
;
_chemical_formula_sum "Si O2"
_cell_formula_units_Z 44
_cell_length_a 8.671978
_cell_length_b 19.474316
_cell_length_c 13.483086
_cell_angle_alpha 90.000000
_cell_angle_beta 67.517571
_cell_angle_gamma 90.000000
_cell_volume 2103.973058
_symmetry_space_group_name_H-M "C 2/M"
_symmetry_group_IT_number 12
_symmetry_cell_setting 'monoclinic'
loop_
_space_group_symop_operation_xyz
x,y,z
-x,y,-z
-x,-y,-z
x,-y,z
1/2+x,1/2+y,z
1/2-x,1/2+y,-z
1/2-x,1/2-y,-z
1/2+x,1/2-y,z
loop_
_atom_site_type_symbol
_atom_site_label
_atom_site_fract_x
_atom_site_fract_y
_atom_site_fract_z
Si Si1 0.000000 0.368234 0.500000
Si Si2 0.583748 0.181763 0.686147
Si Si3 0.605268 0.682180 0.262851
Si Si4 0.159244 0.420682 0.163962
Si Si5 0.193089 0.676018 0.977931
Si Si6 0.825461 0.923781 0.325644
O O1 0.927144 0.320782 0.430212
O O2 0.850439 0.415495 0.575518
O O3 0.473667 0.245566 0.750635
O O4 0.774505 0.192487 0.672094
O O5 0.512982 0.113141 0.755318
O O6 0.707240 0.653132 0.144448
O O7 0.461180 0.629818 0.331347
O O8 0.122221 0.500000 0.147441
O O9 0.299080 0.413221 0.214601
O O10 0.230567 0.381939 0.050501
O O11 0.250000 0.750000 0.000000
O O12 0.000000 0.678734 0.000000
O O13 0.892119 0.000000 0.331901
#
# Coordination Sequence:
#
# PCOD8111957 Si02
#       6
#     4   8   8   8   8   8
#     4  10  23  44  74  90 127 168 218 266 337 386
#     4  11  23  42  65  98 127 172 212 276 318 386
#     4  12  24  41  66  96 135 166 220 266 326 376
#     4  10  22  41  64  94 131 172 216 263 320 379
#     4  12  24  40  66  94 129 179 215 259 317 386
#     4  10  24  44  67  96 130 170 216 270 323 385
#
# _framework density 20.912815999999999
#
# number of rings (size 3 to 8) (size 9 to 14) (size 15 to 20)
#    0.000    1.091    3.636    2.455    2.545    6.182 
#    0.000    2.727    0.000    0.000    0.000    0.000 
#    0.000    0.000    0.000    0.000    0.000    0.000 
#
# Total GULP energy -272911.561831 kJ/mol
# GULP energy per Si atom -12405.070992 kJ/mol
# Density = 2.086522 g / cm^3
# Si number density = 20.912816 Si / 1000 Ang^3
#
#
#
# Elastic Constant Matrix: (Units=GPa)
#
#
# Indices 1 2 3 4 5 6 
#
# 1 136.3502 62.6384 46.7803 0.0000 2.1880 0.0000
# 2 62.6384 149.3918 47.4480 0.0000 -1.4253 0.0000
# 3 46.7803 47.4480 122.0687 0.0000 9.3872 0.0000
# 4 0.0000 0.0000 0.0000 24.7050 0.0000 -0.5877
# 5 2.1880 -1.4253 9.3872 0.0000 26.0653 0.0000
# 6 0.0000 0.0000 0.0000 -0.5877 0.0000 27.8930
#
#
#
# Elastic Compliance Matrix: (Units=1/GPa)
#
#
# Indices 1 2 3 4 5 6 
#
# 1 0.009678 -0.003290 -0.002421 0.000000 -0.000120 0.000000
# 2 -0.003290 0.008815 -0.002287 0.000000 0.001582 0.000000
# 3 -0.002421 -0.002287 0.010288 0.000000 -0.003627 0.000000
# 4 0.000000 0.000000 0.000000 0.040498 0.000000 0.000853
# 5 -0.000120 0.001582 -0.003627 0.000000 0.039768 0.000000
# 6 0.000000 0.000000 0.000000 0.000853 0.000000 0.035869
#
#
# Mechanical properties :
#
#
# Convention : Reuss Voigt Hill
#
# Bulk Modulus (GPa) = 78.21940 80.17156 79.19548
# Shear Modulus (GPa) = 30.27127 32.46228 31.36678
#
# Velocity S-wave (km/s) = 3.80873 3.94416 3.87703
# Velocity P-wave (km/s) = 7.53828 7.69163 7.61534
#
# Compressibility (1/GPa) = 0.01278455
#
# Stress axis : x y z
#
# Youngs Moduli (GPa) = 103.32704 113.44521 97.20354
#
# Poissons Ratio (x) = 0.37326 0.23530
# Poissons Ratio (y) = 0.33997 0.22231
# Poissons Ratio (z) = 0.25013 0.25946
#
# Static dielectric constant tensor:
#      x y z
#    x 3.770600 0.000000 0.153330 
#    y 0.000000 3.689260 0.000000 
#    z 0.153330 0.000000 3.898740 
# 
# 
# High freq. dielectric constant tensor:
#      x y z
#    x 1.818750 0.000000 0.005400 
#    y 0.000000 1.816860 0.000000 
#    z 0.005400 0.000000 1.822630 
# 
# From -- ./inp_files/195385.got.cif
#   From: 2010.06.25/outbox.cif.g09.slc.cpg/sg12_98_cif.got.tgz:195385.got - 2010.06.28 00:19:55.
