data_PCOD8111104
_publ_section_title
;
Structure prediction by ZEFSAII (Michael W. Deem and Ramdas Pophale) SiO2 
 PCOD8111104
Probable space group: C 2/M
;
_chemical_formula_sum "Si O2"
_cell_formula_units_Z 56
_cell_length_a 30.172925
_cell_length_b 8.734751
_cell_length_c 11.846149
_cell_angle_alpha 90.000000
_cell_angle_beta 60.886933
_cell_angle_gamma 90.000000
_cell_volume 2727.647373
_symmetry_space_group_name_H-M "C 2/M"
_symmetry_group_IT_number 12
_symmetry_cell_setting 'monoclinic'
loop_
_space_group_symop_operation_xyz
x,y,z
-x,y,-z
-x,-y,-z
x,-y,z
1/2+x,1/2+y,z
1/2-x,1/2+y,-z
1/2-x,1/2-y,-z
1/2+x,1/2-y,z
loop_
_atom_site_type_symbol
_atom_site_label
_atom_site_fract_x
_atom_site_fract_y
_atom_site_fract_z
Si Si1 0.745975 0.319891 0.379551
Si Si2 0.355047 0.181763 0.528351
Si Si3 0.004775 0.670805 0.126544
Si Si4 0.408052 0.676590 0.858942
Si Si5 0.662537 0.325111 0.858119
Si Si6 0.942361 0.680386 0.587708
Si Si7 0.903211 0.824702 0.269077
O O1 0.739058 0.500000 0.401641
O O2 0.750000 0.250000 0.500000
O O3 0.699223 0.248153 0.365070
O O4 0.794386 0.287317 0.240278
O O5 0.402759 0.242382 0.543205
O O6 0.358501 0.253025 0.399081
O O7 0.352871 0.000000 0.528715
O O8 0.016986 0.500000 0.157669
O O9 0.046464 0.791701 0.111594
O O10 0.951620 0.724247 0.243067
O O11 0.000000 0.671448 0.000000
O O12 0.408372 0.500000 0.823036
O O13 0.416636 0.777973 0.738198
O O14 0.355830 0.717139 0.991405
O O15 0.682408 0.500000 0.828233
O O16 0.612736 0.307986 0.841244
O O17 0.946196 0.500000 0.574143
O O18 0.000000 0.748551 0.500000
O O19 0.913559 0.000000 0.288492
#
# Coordination Sequence:
#
# PCOD8111104 Si02
#       7
#     8   8   8   8   8   8   8
#     4  12  24  39  63  93 127 166 211 260 312 374
#     4  11  23  40  64  92 126 164 207 258 314 371
#     4  11  22  34  53  83 121 161 202 246 301 373
#     4  11  23  40  63  89 123 163 206 260 315 372
#     4  10  22  39  59  89 126 160 199 254 316 370
#     4  10  23  44  67  92 125 165 210 259 308 369
#     4  11  21  35  58  87 124 160 200 253 308 370
#
# _framework density 20.530512999999999
#
# number of rings (size 3 to 8) (size 9 to 14) (size 15 to 20)
#    0.000    1.143    2.857    3.857    0.000    4.857 
#    0.000    0.714    0.000    0.000    0.000    0.000 
#    0.000    0.000    0.000    0.000    0.000    0.000 
#
# Total GULP energy -347118.551963 kJ/mol
# GULP energy per Si atom -12397.091142 kJ/mol
# Density = 2.048378 g / cm^3
# Si number density = 20.530513 Si / 1000 Ang^3
#
#
#
# Elastic Constant Matrix: (Units=GPa)
#
#
# Indices 1 2 3 4 5 6 
#
# 1 101.3921 35.6505 36.0617 0.0000 -11.5975 0.0000
# 2 35.6505 48.6346 23.9899 0.0000 5.8889 0.0000
# 3 36.0617 23.9899 109.8907 0.0000 -7.6827 0.0000
# 4 0.0000 0.0000 0.0000 32.7272 0.0000 -3.8562
# 5 -11.5975 5.8889 -7.6827 0.0000 22.1729 0.0000
# 6 0.0000 0.0000 0.0000 -3.8562 0.0000 28.7884
#
#
#
# Elastic Compliance Matrix: (Units=1/GPa)
#
#
# Indices 1 2 3 4 5 6 
#
# 1 0.016066 -0.012203 -0.001839 0.000000 0.011007 0.000000
# 2 -0.012203 0.033807 -0.004560 0.000000 -0.016942 0.000000
# 3 -0.001839 -0.004560 0.010982 0.000000 0.004055 0.000000
# 4 0.000000 0.000000 0.000000 0.031046 0.000000 0.004159
# 5 0.011007 -0.016942 0.004055 0.000000 0.056762 0.000000
# 6 0.000000 0.000000 0.000000 0.004159 0.000000 0.035293
#
#
# Mechanical properties :
#
#
# Convention : Reuss Voigt Hill
#
# Bulk Modulus (GPa) = 42.27955 50.14686 46.21321
# Shear Modulus (GPa) = 21.82977 27.68541 24.75759
#
# Velocity S-wave (km/s) = 3.26434 3.67618 3.47636
# Velocity P-wave (km/s) = 5.90306 6.51902 6.21867
#
# Compressibility (1/GPa) = 0.02365210
#
# Stress axis : x y z
#
# Youngs Moduli (GPa) = 62.24156 29.57935 91.05484
#
# Poissons Ratio (x) = 0.36095 0.16743
# Poissons Ratio (y) = 0.75953 0.41524
# Poissons Ratio (z) = 0.11445 0.13489
#
# Static dielectric constant tensor:
#      x y z
#    x 3.829160 0.000000 -0.151680 
#    y 0.000000 3.688270 0.000000 
#    z -0.151680 0.000000 3.784530 
# 
# 
# High freq. dielectric constant tensor:
#      x y z
#    x 1.791020 0.000000 -0.014720 
#    y 0.000000 1.802400 0.000000 
#    z -0.014720 0.000000 1.806380 
# 
# From -- ./inp_files/187240.got.cif
#   From: 2010.06.25/outbox.cif.g09.slc.cpg/sg12_94_cif.got.tgz:187240.got - 2010.06.28 00:19:55.
