data_PCOD8111586
_publ_section_title
;
Structure prediction by ZEFSAII (Michael W. Deem and Ramdas Pophale) SiO2 
 PCOD8111586
Probable space group: C 2/M
;
_chemical_formula_sum "Si O2"
_cell_formula_units_Z 40
_cell_length_a 27.301189
_cell_length_b 13.986181
_cell_length_c 5.156009
_cell_angle_alpha 90.000000
_cell_angle_beta 123.453558
_cell_angle_gamma 90.000000
_cell_volume 1642.607332
_symmetry_space_group_name_H-M "C 2/M"
_symmetry_group_IT_number 12
_symmetry_cell_setting 'monoclinic'
loop_
_space_group_symop_operation_xyz
x,y,z
-x,y,-z
-x,-y,-z
x,-y,z
1/2+x,1/2+y,z
1/2-x,1/2+y,-z
1/2-x,1/2-y,-z
1/2+x,1/2-y,z
loop_
_atom_site_type_symbol
_atom_site_label
_atom_site_fract_x
_atom_site_fract_y
_atom_site_fract_z
Si Si1 0.037403 0.607451 0.852006
Si Si2 0.341186 0.807975 0.711731
Si Si3 0.032573 0.112300 0.344807
Si Si4 0.275214 0.851919 0.031430
Si Si5 0.842728 0.104430 0.490514
O O1 0.060337 0.500000 0.858360
O O2 0.000000 0.646002 0.500000
O O3 0.090146 0.679860 0.052264
O O4 0.000000 0.607756 0.000000
O O5 0.318609 0.871439 0.399912
O O6 0.329898 0.692523 0.652009
O O7 0.310236 0.855424 0.866581
O O8 0.102585 0.135589 0.535769
O O9 0.000000 0.157999 0.500000
O O10 0.022113 0.000000 0.319655
O O11 0.000000 0.157466 0.000000
O O12 0.250000 0.750000 0.000000
O O13 0.216740 0.917372 0.847572
O O14 0.858343 0.000000 0.669247
#
# Coordination Sequence:
#
# PCOD8111586 Si02
#       5
#     8   8   8   8   8
#     4  10  22  42  69  98 126 161 208 261 318 375
#     4  11  23  42  65  93 129 164 207 262 317 372
#     4   9  19  35  54  79 115 157 202 250 295 350
#     4  10  22  41  61  87 125 168 212 260 309 364
#     4  10  22  40  63  92 128 170 212 254 308 376
#
# _framework density 24.351526
#
# number of rings (size 3 to 8) (size 9 to 14) (size 15 to 20)
#    0.000    2.000    0.000    3.600    0.000    7.200 
#    0.000   16.000    0.000    1.800    0.000    0.000 
#    0.000    0.000    0.000    0.000    0.000    0.000 
#
# Total GULP energy -247786.148735 kJ/mol
# GULP energy per Si atom -12389.307437 kJ/mol
# Density = 2.429610 g / cm^3
# Si number density = 24.351526 Si / 1000 Ang^3
#
#
#
# Elastic Constant Matrix: (Units=GPa)
#
#
# Indices 1 2 3 4 5 6 
#
# 1 155.1538 9.9173 87.0766 0.0000 -0.8334 0.0000
# 2 9.9173 66.0008 25.8605 0.0000 13.1242 0.0000
# 3 87.0766 25.8605 201.1821 0.0000 -0.5180 0.0000
# 4 0.0000 0.0000 0.0000 13.2299 0.0000 23.2924
# 5 -0.8334 13.1242 -0.5180 0.0000 54.1723 0.0000
# 6 0.0000 0.0000 0.0000 23.2924 0.0000 -18.1457
#
#
#
# Elastic Compliance Matrix: (Units=1/GPa)
#
#
# Indices 1 2 3 4 5 6 
#
# 1 0.008515 0.000161 -0.003706 0.000000 0.000056 0.000000
# 2 0.000161 0.016820 -0.002242 0.000000 -0.004094 0.000000
# 3 -0.003706 -0.002242 0.006864 0.000000 0.000552 0.000000
# 4 0.000000 0.000000 0.000000 0.023186 0.000000 0.029763
# 5 0.000056 -0.004094 0.000552 0.000000 0.019458 0.000000
# 6 0.000000 0.000000 0.000000 0.029763 0.000000 -0.016905
#
#
# Mechanical properties :
#
#
# Convention : Reuss Voigt Hill
#
# Bulk Modulus (GPa) = 48.48494 74.22727 61.35611
# Shear Modulus (GPa) = 65.45546 29.81678 47.63612
#
# Velocity S-wave (km/s) = 5.19016 3.50298 4.42768
# Velocity P-wave (km/s) = 7.47467 6.84901 7.16867
#
# Compressibility (1/GPa) = 0.02062496
#
# Stress axis : x y z
#
# Youngs Moduli (GPa) = 117.43665 59.45380 145.67834
#
# Poissons Ratio (x) = -0.00960 0.53991
# Poissons Ratio (y) = -0.01896 0.32668
# Poissons Ratio (z) = 0.43524 0.13332
#
# Static dielectric constant tensor:
#      x y z
#    x 4.185270 0.000000 0.220900 
#    y 0.000000 3.882970 0.000000 
#    z 0.220900 0.000000 3.309060 
# 
# 
# High freq. dielectric constant tensor:
#      x y z
#    x 1.971460 0.000000 0.016180 
#    y 0.000000 1.956100 0.000000 
#    z 0.016180 0.000000 1.965070 
# 
# From -- ./inp_files/28052.got.cif
#   From: 2010.06.25/outbox.cif.g09.slc.cpg/sg12_15_cif.got.tgz:28052.got - 2010.06.28 00:19:55.
