data_PCOD8111234
_publ_section_title
;
Structure prediction by ZEFSAII (Michael W. Deem and Ramdas Pophale) SiO2 
 PCOD8111234
Probable space group: C 2/M
;
_chemical_formula_sum "Si O2"
_cell_formula_units_Z 36
_cell_length_a 22.136383
_cell_length_b 13.911830
_cell_length_c 5.405013
_cell_angle_alpha 90.000000
_cell_angle_beta 85.690030
_cell_angle_gamma 90.000000
_cell_volume 1659.807687
_symmetry_space_group_name_H-M "C 2/M"
_symmetry_group_IT_number 12
_symmetry_cell_setting 'monoclinic'
loop_
_space_group_symop_operation_xyz
x,y,z
-x,y,-z
-x,-y,-z
x,-y,z
1/2+x,1/2+y,z
1/2-x,1/2+y,-z
1/2-x,1/2-y,-z
1/2+x,1/2-y,z
loop_
_atom_site_type_symbol
_atom_site_label
_atom_site_fract_x
_atom_site_fract_y
_atom_site_fract_z
Si Si1 0.000000 0.776932 0.000000
Si Si2 0.217025 0.611821 0.614463
Si Si3 0.383588 0.740479 0.273415
Si Si4 0.788461 0.112619 0.095234
Si Si5 0.064743 0.894851 0.355892
O O1 0.047482 0.718951 0.812099
O O2 0.948765 0.843772 0.896203
O O3 0.201611 0.500000 0.606714
O O4 0.152970 0.665789 0.635668
O O5 0.252674 0.643864 0.356164
O O6 0.252132 0.637659 0.856640
O O7 0.348687 0.678737 0.070492
O O8 0.388385 0.667538 0.501573
O O9 0.805179 0.000000 0.099546
O O10 0.000000 0.906573 0.500000
O O11 0.094764 0.000000 0.304663
#
# Coordination Sequence:
#
# PCOD8111234 Si02
#       5
#     4   8   8   8   8
#     4  10  23  36  57  88 122 160 201 242 303 368
#     4  10  23  41  63  90 123 159 206 255 301 350
#     4  11  22  37  61  87 122 161 202 247 302 361
#     4  10  22  39  62  93 121 158 202 250 306 363
#     4   9  19  35  53  81 118 155 194 239 293 358
#
# _framework density 21.689257999999999
#
# number of rings (size 3 to 8) (size 9 to 14) (size 15 to 20)
#    0.000    2.000    0.000    2.333    6.222    2.667 
#    0.000    0.556    0.000    6.000    0.000    0.000 
#    0.000    0.000    0.000    0.000    0.000    0.000 
#
# Total GULP energy -223027.548809 kJ/mol
# GULP energy per Si atom -12390.419378 kJ/mol
# Density = 2.163989 g / cm^3
# Si number density = 21.689258 Si / 1000 Ang^3
#
#
#
# Elastic Constant Matrix: (Units=GPa)
#
#
# Indices 1 2 3 4 5 6 
#
# 1 142.8975 56.9013 53.4663 0.0000 -14.3927 0.0000
# 2 56.9013 47.9971 20.4842 0.0000 6.8992 0.0000
# 3 53.4663 20.4842 113.1699 0.0000 5.7636 0.0000
# 4 0.0000 0.0000 0.0000 16.1523 0.0000 8.2388
# 5 -14.3927 6.8992 5.7636 0.0000 40.4386 0.0000
# 6 0.0000 0.0000 0.0000 8.2388 0.0000 32.9415
#
#
#
# Elastic Compliance Matrix: (Units=1/GPa)
#
#
# Indices 1 2 3 4 5 6 
#
# 1 0.018718 -0.021426 -0.005530 0.000000 0.011106 0.000000
# 2 -0.021426 0.047549 0.002334 0.000000 -0.016071 0.000000
# 3 -0.005530 0.002334 0.011229 0.000000 -0.003967 0.000000
# 4 0.000000 0.000000 0.000000 0.070964 0.000000 -0.017748
# 5 0.011106 -0.016071 -0.003967 0.000000 0.031989 0.000000
# 6 0.000000 0.000000 0.000000 -0.017748 0.000000 0.034796
#
#
# Mechanical properties :
#
#
# Convention : Reuss Voigt Hill
#
# Bulk Modulus (GPa) = 35.39644 62.86315 49.12980
# Shear Modulus (GPa) = 18.25451 29.45400 23.85425
#
# Velocity S-wave (km/s) = 2.90425 3.68910 3.31995
# Velocity P-wave (km/s) = 5.25371 6.86967 6.11530
#
# Compressibility (1/GPa) = 0.02825143
#
# Stress axis : x y z
#
# Youngs Moduli (GPa) = 53.42546 21.03077 89.05866
#
# Poissons Ratio (x) = 0.45061 0.49253
# Poissons Ratio (y) = 1.14470 -0.20790
# Poissons Ratio (z) = 0.29546 -0.04910
#
# Static dielectric constant tensor:
#      x y z
#    x 5.208610 0.000000 -0.609690 
#    y 0.000000 3.780030 0.000000 
#    z -0.609690 0.000000 4.404720 
# 
# 
# High freq. dielectric constant tensor:
#      x y z
#    x 1.862640 0.000000 -0.006880 
#    y 0.000000 1.823850 0.000000 
#    z -0.006880 0.000000 1.865210 
# 
# From -- ./inp_files/19675.got.cif
#   From: 2010.06.25/outbox.cif.g09.slc.cpg/sg12_10_cif.got.tgz:19675.got - 2010.06.28 00:19:55.
