data_PCOD8111287
_publ_section_title
;
Structure prediction by ZEFSAII (Michael W. Deem and Ramdas Pophale) SiO2 
 PCOD8111287
Probable space group: C 2/M
;
_chemical_formula_sum "Si O2"
_cell_formula_units_Z 48
_cell_length_a 18.913740
_cell_length_b 13.603552
_cell_length_c 18.345536
_cell_angle_alpha 90.000000
_cell_angle_beta 29.509278
_cell_angle_gamma 90.000000
_cell_volume 2325.001523
_symmetry_space_group_name_H-M "C 2/M"
_symmetry_group_IT_number 12
_symmetry_cell_setting 'monoclinic'
loop_
_space_group_symop_operation_xyz
x,y,z
-x,y,-z
-x,-y,-z
x,-y,z
1/2+x,1/2+y,z
1/2-x,1/2+y,-z
1/2-x,1/2-y,-z
1/2+x,1/2-y,z
loop_
_atom_site_type_symbol
_atom_site_label
_atom_site_fract_x
_atom_site_fract_y
_atom_site_fract_z
Si Si1 0.709867 0.385573 0.720623
Si Si2 0.526133 0.110018 0.230515
Si Si3 0.457835 0.288212 0.691785
Si Si4 0.500000 0.745353 0.000000
Si Si5 0.703222 0.390101 0.558021
Si Si6 0.332946 0.113156 0.047798
Si Si7 0.500000 0.208465 0.500000
O O1 0.676274 0.500000 0.762859
O O2 0.580443 0.322864 0.869927
O O3 0.722735 0.358187 0.624167
O O4 0.860328 0.360512 0.624088
O O5 0.593192 0.182233 0.231229
O O6 0.354721 0.115540 0.381637
O O7 0.581354 0.140537 0.101749
O O8 0.577982 0.000000 0.204603
O O9 0.597703 0.316539 0.612169
O O10 0.496155 0.280572 0.572650
O O11 0.335552 0.369079 0.813979
O O12 0.616247 0.815051 0.933923
O O13 0.639913 0.500000 0.610157
O O14 0.358095 0.000000 0.047788
#
# Coordination Sequence:
#
# PCOD8111287 Si02
#       7
#     8   8   8   4   8   8   4
#     4  11  24  44  68  99 134 170 214 265 325 388
#     4  10  22  39  64  94 123 168 216 263 321 381
#     4  12  23  42  65  97 130 169 217 268 326 384
#     4  12  24  44  64  96 128 176 214 260 332 382
#     4  10  22  41  68  96 128 169 219 272 318 379
#     4  11  25  43  63  91 130 172 219 268 320 381
#     4  12  25  40  67 100 132 172 209 264 331 386
#
# _framework density 20.645147999999999
#
# number of rings (size 3 to 8) (size 9 to 14) (size 15 to 20)
#    0.000    1.000    3.333    3.250    2.333    0.667 
#    0.000    3.333    0.000    0.000    0.000    0.000 
#    0.000    0.000    0.000    0.000    0.000    0.000 
#
# Total GULP energy -297747.217497 kJ/mol
# GULP energy per Si atom -12406.134062 kJ/mol
# Density = 2.059816 g / cm^3
# Si number density = 20.645148 Si / 1000 Ang^3
#
#
#
# Elastic Constant Matrix: (Units=GPa)
#
#
# Indices 1 2 3 4 5 6 
#
# 1 95.2361 36.8240 24.0197 -0.0006 5.2308 0.0004
# 2 36.8240 96.1899 30.0061 -0.0006 9.5220 0.0003
# 3 24.0197 30.0061 87.6989 -0.0001 8.2937 0.0000
# 4 -0.0006 -0.0006 -0.0001 37.3383 0.0000 -0.7440
# 5 5.2308 9.5220 8.2937 0.0000 32.1541 0.0001
# 6 0.0004 0.0003 0.0000 -0.7440 0.0001 32.6683
#
#
#
# Elastic Compliance Matrix: (Units=1/GPa)
#
#
# Indices 1 2 3 4 5 6 
#
# 1 0.012640 -0.004185 -0.002002 0.000000 -0.000301 0.000000
# 2 -0.004185 0.013220 -0.003148 0.000000 -0.002422 0.000000
# 3 -0.002002 -0.003148 0.013232 0.000000 -0.002155 0.000000
# 4 0.000000 0.000000 0.000000 0.026794 0.000000 0.000610
# 5 -0.000301 -0.002422 -0.002155 0.000000 0.032422 0.000000
# 6 0.000000 0.000000 0.000000 0.000610 0.000000 0.030625
#
#
# Mechanical properties :
#
#
# Convention : Reuss Voigt Hill
#
# Bulk Modulus (GPa) = 48.96499 51.20273 50.08386
# Shear Modulus (GPa) = 32.38165 32.98383 32.68274
#
# Velocity S-wave (km/s) = 3.96471 4.00140 3.98310
# Velocity P-wave (km/s) = 6.68786 6.79731 6.74281
#
# Compressibility (1/GPa) = 0.02042276
#
# Stress axis : x y z
#
# Youngs Moduli (GPa) = 79.11645 75.64382 75.57565
#
# Poissons Ratio (x) = 0.31654 0.15128
# Poissons Ratio (y) = 0.33107 0.23791
# Poissons Ratio (z) = 0.15836 0.23813
#
# Static dielectric constant tensor:
#      x y z
#    x 3.627660 0.000000 0.078410 
#    y 0.000000 3.908340 0.000000 
#    z 0.078410 0.000000 3.745100 
# 
# 
# High freq. dielectric constant tensor:
#      x y z
#    x 1.802620 0.000000 0.005820 
#    y 0.000000 1.821240 0.000000 
#    z 0.005820 0.000000 1.814930 
# 
# From -- ./inp_files/278060.got.cif
#   From: 2010.06.25/outbox.cif.g09.slc.cpg/sg12_140_cif.got.tgz:278060.got - 2010.06.28 00:19:55.
