data_PCOD8111226
_publ_section_title
;
Structure prediction by ZEFSAII (Michael W. Deem and Ramdas Pophale) SiO2 
 PCOD8111226
Probable space group: C 2/M
;
_chemical_formula_sum "Si O2"
_cell_formula_units_Z 48
_cell_length_a 20.259504
_cell_length_b 8.716941
_cell_length_c 13.980077
_cell_angle_alpha 90.000000
_cell_angle_beta 90.000151
_cell_angle_gamma 90.000000
_cell_volume 2468.894195
_symmetry_space_group_name_H-M "C 2/M"
_symmetry_group_IT_number 12
_symmetry_cell_setting 'monoclinic'
loop_
_space_group_symop_operation_xyz
x,y,z
-x,y,-z
-x,-y,-z
x,-y,z
1/2+x,1/2+y,z
1/2-x,1/2+y,-z
1/2-x,1/2-y,-z
1/2+x,1/2-y,z
loop_
_atom_site_type_symbol
_atom_site_label
_atom_site_fract_x
_atom_site_fract_y
_atom_site_fract_z
Si Si1 0.389867 0.180470 0.750000
Si Si2 0.688122 0.822290 0.550517
Si Si3 0.811878 0.677710 0.050519
Si Si4 0.566709 0.319342 0.447876
Si Si5 0.251981 0.826596 0.250000
Si Si6 0.066710 0.819342 0.052123
O O1 0.426256 0.243743 0.656131
O O2 0.312061 0.219046 0.749998
O O3 0.426255 0.243746 0.843869
O O4 0.397397 0.000000 0.750002
O O5 0.750000 0.750000 0.500000
O O6 0.624156 0.730725 0.519018
O O7 0.699223 0.797192 0.662392
O O8 0.680656 0.000000 0.522013
O O9 0.819343 0.500000 0.022018
O O10 0.800776 0.702814 0.162393
O O11 0.750000 0.750000 0.000000
O O12 0.875844 0.769272 0.019020
O O13 0.500000 0.265623 0.500000
O O14 0.569126 0.500000 0.432645
O O15 0.223947 0.000000 0.249998
O O16 0.069128 0.000000 0.067352
O O17 0.000000 0.765623 0.000000
#
# Coordination Sequence:
#
# PCOD8111226 Si02
#       6
#     8   8   8   8   8   8
#     4  12  24  39  66  95 123 165 211 261 318 381
#     4  11  22  38  63  94 126 165 211 263 313 369
#     4  11  22  38  63  94 126 165 211 263 313 369
#     4  11  25  44  65  91 129 172 211 260 318 379
#     4  10  22  39  62  91 129 167 207 261 318 375
#     4  11  25  44  65  91 129 172 211 260 318 379
#
# _framework density 19.441904000000001
#
# number of rings (size 3 to 8) (size 9 to 14) (size 15 to 20)
#    0.000    1.000    3.333    3.500    0.000    5.333 
#    0.000    3.333    0.000    0.000    0.000    0.000 
#    0.000    0.000    0.000    0.000    0.000    0.000 
#
# Total GULP energy -297673.832685 kJ/mol
# GULP energy per Si atom -12403.076362 kJ/mol
# Density = 1.939765 g / cm^3
# Si number density = 19.441904 Si / 1000 Ang^3
#
#
#
# Elastic Constant Matrix: (Units=GPa)
#
#
# Indices 1 2 3 4 5 6 
#
# 1 157.5954 51.3509 75.5877 0.0000 -0.0032 0.0000
# 2 51.3509 92.1077 57.4373 0.0000 -0.0033 0.0000
# 3 75.5877 57.4373 168.7666 0.0000 -0.0052 0.0000
# 4 0.0000 0.0000 0.0000 30.1997 0.0000 -0.0001
# 5 -0.0032 -0.0033 -0.0052 0.0000 17.3001 0.0000
# 6 0.0000 0.0000 0.0000 -0.0001 0.0000 34.1749
#
#
#
# Elastic Compliance Matrix: (Units=1/GPa)
#
#
# Indices 1 2 3 4 5 6 
#
# 1 0.008719 -0.003079 -0.002857 0.000000 0.000000 0.000000
# 2 -0.003079 0.014869 -0.003681 0.000000 0.000001 0.000000
# 3 -0.002857 -0.003681 0.008458 0.000000 0.000001 0.000000
# 4 0.000000 0.000000 0.000000 0.033113 0.000000 0.000000
# 5 0.000000 0.000001 0.000001 0.000000 0.057803 0.000000
# 6 0.000000 0.000000 0.000000 0.000000 0.000000 0.029261
#
#
# Mechanical properties :
#
#
# Convention : Reuss Voigt Hill
#
# Bulk Modulus (GPa) = 78.06012 87.46906 82.76459
# Shear Modulus (GPa) = 28.45285 31.94119 30.19702
#
# Velocity S-wave (km/s) = 3.82970 4.05767 3.94533
# Velocity P-wave (km/s) = 7.73260 8.18783 7.96347
#
# Compressibility (1/GPa) = 0.01281064
#
# Stress axis : x y z
#
# Youngs Moduli (GPa) = 114.69074 67.25285 118.23248
#
# Poissons Ratio (x) = 0.20709 0.33781
# Poissons Ratio (y) = 0.35317 0.43526
# Poissons Ratio (z) = 0.32769 0.24758
#
# Static dielectric constant tensor:
#      x y z
#    x 3.429570 0.000000 -0.000020 
#    y 0.000000 3.783270 0.000000 
#    z -0.000020 0.000000 3.727830 
# 
# 
# High freq. dielectric constant tensor:
#      x y z
#    x 1.755230 0.000000 0.000000 
#    y 0.000000 1.771350 0.000000 
#    z 0.000000 0.000000 1.778370 
# 
# From -- ./inp_files/221539.got.cif
#   From: 2010.06.25/outbox.cif.g09.slc.cpg/sg12_111_cif.got.tgz:221539.got - 2010.06.28 00:19:55.
