data_PCOD8111726
_publ_section_title
;
Structure prediction by ZEFSAII (Michael W. Deem and Ramdas Pophale) SiO2 
 PCOD8111726
Probable space group: C 2/M
;
_chemical_formula_sum "Si O2"
_cell_formula_units_Z 56
_cell_length_a 29.171884
_cell_length_b 8.483699
_cell_length_c 12.720994
_cell_angle_alpha 90.000000
_cell_angle_beta 120.652298
_cell_angle_gamma 90.000000
_cell_volume 2708.376919
_symmetry_space_group_name_H-M "C 2/M"
_symmetry_group_IT_number 12
_symmetry_cell_setting 'monoclinic'
loop_
_space_group_symop_operation_xyz
x,y,z
-x,y,-z
-x,-y,-z
x,-y,z
1/2+x,1/2+y,z
1/2-x,1/2+y,-z
1/2-x,1/2-y,-z
1/2+x,1/2-y,z
loop_
_atom_site_type_symbol
_atom_site_label
_atom_site_fract_x
_atom_site_fract_y
_atom_site_fract_z
Si Si1 0.285628 0.821203 0.952109
Si Si2 0.057554 0.311804 0.031846
Si Si3 0.239517 0.182359 0.297023
Si Si4 0.645504 0.683370 0.528389
Si Si5 0.907100 0.321785 0.146971
Si Si6 0.561280 0.185700 0.591717
Si Si7 0.643364 0.815131 0.301421
O O1 0.280965 0.716396 0.843528
O O2 0.268584 0.000000 0.904925
O O3 0.250000 0.750000 0.000000
O O4 0.344183 0.815262 0.066365
O O5 0.060683 0.500000 0.031265
O O6 0.102862 0.251537 0.164891
O O7 0.068007 0.239776 0.927825
O O8 0.000000 0.250539 0.000000
O O9 0.301363 0.223646 0.378415
O O10 0.204157 0.280229 0.338739
O O11 0.231617 0.000000 0.313806
O O12 0.657687 0.500000 0.552598
O O13 0.597261 0.728424 0.548058
O O14 0.628247 0.726003 0.390268
O O15 0.928492 0.500000 0.175130
O O16 0.925096 0.241894 0.277188
O O17 0.500000 0.224659 0.500000
O O18 0.573574 0.000000 0.599974
O O19 0.636525 0.000000 0.312632
#
# Coordination Sequence:
#
# PCOD8111726 Si02
#       7
#     8   8   8   8   8   8   8
#     4  11  21  36  59  89 125 167 210 258 311 368
#     4   9  18  33  61  95 124 157 200 252 307 365
#     4  12  24  41  63  91 126 163 208 259 319 385
#     4  12  26  43  63  89 127 168 211 259 315 379
#     4   9  18  35  58  89 125 157 200 254 303 358
#     4  10  22  40  66  96 126 164 214 263 308 366
#     4  11  22  40  66  95 126 161 208 260 317 379
#
# _framework density 20.676590999999998
#
# number of rings (size 3 to 8) (size 9 to 14) (size 15 to 20)
#    0.000    1.429    1.429    4.714    2.000    1.429 
#    0.000    0.714    0.000    1.714    0.000    0.000 
#    0.000    0.000    0.000    0.000    0.000    0.000 
#
# Total GULP energy -347275.430637 kJ/mol
# GULP energy per Si atom -12402.693951 kJ/mol
# Density = 2.062953 g / cm^3
# Si number density = 20.676591 Si / 1000 Ang^3
#
#
#
# Elastic Constant Matrix: (Units=GPa)
#
#
# Indices 1 2 3 4 5 6 
#
# 1 138.1708 21.3439 60.6313 0.0000 -16.2650 0.0000
# 2 21.3439 53.9056 19.9951 0.0000 -0.5754 0.0000
# 3 60.6313 19.9951 145.5822 0.0000 -22.1237 0.0000
# 4 0.0000 0.0000 0.0000 21.4418 0.0000 -1.5412
# 5 -16.2650 -0.5754 -22.1237 0.0000 37.9604 0.0000
# 6 0.0000 0.0000 0.0000 -1.5412 0.0000 26.7322
#
#
#
# Elastic Compliance Matrix: (Units=1/GPa)
#
#
# Indices 1 2 3 4 5 6 
#
# 1 0.009268 -0.002457 -0.003209 0.000000 0.002064 0.000000
# 2 -0.002457 0.020266 -0.002055 0.000000 -0.001944 0.000000
# 3 -0.003209 -0.002055 0.009078 0.000000 0.003885 0.000000
# 4 0.000000 0.000000 0.000000 0.046832 0.000000 0.002700
# 5 0.002064 -0.001944 0.003885 0.000000 0.029462 0.000000
# 6 0.000000 0.000000 0.000000 0.002700 0.000000 0.037564
#
#
# Mechanical properties :
#
#
# Convention : Reuss Voigt Hill
#
# Bulk Modulus (GPa) = 43.16185 60.17770 51.66978
# Shear Modulus (GPa) = 28.46811 32.93944 30.70377
#
# Velocity S-wave (km/s) = 3.71459 3.99567 3.85769
# Velocity P-wave (km/s) = 6.27038 7.10314 6.69971
#
# Compressibility (1/GPa) = 0.02316861
#
# Stress axis : x y z
#
# Youngs Moduli (GPa) = 107.89806 49.34476 110.15676
#
# Poissons Ratio (x) = 0.12126 0.35347
# Poissons Ratio (y) = 0.26515 0.22641
# Poissons Ratio (z) = 0.34622 0.10142
#
# Static dielectric constant tensor:
#      x y z
#    x 3.791360 0.000000 -0.121020 
#    y 0.000000 3.522730 0.000000 
#    z -0.121020 0.000000 3.973580 
# 
# 
# High freq. dielectric constant tensor:
#      x y z
#    x 1.821150 0.000000 -0.007530 
#    y 0.000000 1.779200 0.000000 
#    z -0.007530 0.000000 1.826060 
# 
# From -- ./inp_files/187716.got.cif
#   From: 2010.06.25/outbox.cif.g09.slc.cpg/sg12_94_cif.got.tgz:187716.got - 2010.06.28 00:19:55.
