data_PCOD8111738
_publ_section_title
;
Structure prediction by ZEFSAII (Michael W. Deem and Ramdas Pophale) SiO2 
 PCOD8111738
Probable space group: C 2/M
;
_chemical_formula_sum "Si O2"
_cell_formula_units_Z 48
_cell_length_a 19.778851
_cell_length_b 14.626530
_cell_length_c 19.293986
_cell_angle_alpha 90.000000
_cell_angle_beta 25.552336
_cell_angle_gamma 90.000000
_cell_volume 2407.572627
_symmetry_space_group_name_H-M "C 2/M"
_symmetry_group_IT_number 12
_symmetry_cell_setting 'monoclinic'
loop_
_space_group_symop_operation_xyz
x,y,z
-x,y,-z
-x,-y,-z
x,-y,z
1/2+x,1/2+y,z
1/2-x,1/2+y,-z
1/2-x,1/2-y,-z
1/2+x,1/2-y,z
loop_
_atom_site_type_symbol
_atom_site_label
_atom_site_fract_x
_atom_site_fract_y
_atom_site_fract_z
Si Si1 0.858641 0.297723 0.457360
Si Si2 0.374164 0.500000 0.672554
Si Si3 0.320424 0.814309 0.647637
Si Si4 0.656685 0.500000 0.804112
Si Si5 0.822414 0.805661 0.871254
Si Si6 0.452192 0.500000 0.755363
Si Si7 0.664882 0.832415 0.877180
Si Si8 0.251053 0.000000 0.562710
O O1 0.750000 0.250000 0.500000
O O2 0.789261 0.279500 0.598065
O O3 0.860631 0.409468 0.451612
O O4 0.030994 0.252913 0.293801
O O5 0.500000 0.500000 0.500000
O O6 0.458478 0.500000 0.667561
O O7 0.278551 0.410123 0.747083
O O8 0.500000 0.799693 0.500000
O O9 0.269039 0.915678 0.714992
O O10 0.205441 0.760857 0.803209
O O11 0.637725 0.500000 0.736868
O O12 0.500000 0.500000 0.000000
O O13 0.868827 0.906199 0.857560
O O14 0.684544 0.818140 0.941732
O O15 0.750000 0.750000 0.000000
O O16 0.631933 0.500000 0.609813
O O17 0.500000 0.864763 0.000000
#
# Coordination Sequence:
#
# PCOD8111738 Si02
#       8
#     8   4   8   4   8   4   8   4
#     4  11  23  41  67  94 127 167 221 267 320 392
#     4  10  23  41  65  94 128 165 210 273 323 380
#     4  11  22  41  64  91 125 169 217 267 318 381
#     4  10  23  39  61  94 129 165 214 269 324 379
#     4  11  25  43  64  95 134 171 213 274 331 385
#     4  10  22  42  63  92 129 164 215 263 320 392
#     4  11  24  41  65  94 130 169 217 265 328 387
#     4  10  22  40  67  96 127 170 221 262 325 395
#
# _framework density 19.937093999999998
#
# number of rings (size 3 to 8) (size 9 to 14) (size 15 to 20)
#    0.000    1.333    3.333    1.500    4.667    2.000 
#    0.000    0.000    0.000    0.000    0.000    0.000 
#    0.000    0.000    0.000    0.000    0.000    0.000 
#
# Total GULP energy -297340.056189 kJ/mol
# GULP energy per Si atom -12389.169008 kJ/mol
# Density = 1.989172 g / cm^3
# Si number density = 19.937094 Si / 1000 Ang^3
#
#
#
# Elastic Constant Matrix: (Units=GPa)
#
#
# Indices 1 2 3 4 5 6 
#
# 1 97.4909 43.4280 41.0295 0.0297 -20.6402 -0.0118
# 2 43.4280 139.4138 33.8270 -0.0176 17.2959 0.0082
# 3 41.0295 33.8270 83.1143 0.0037 10.8201 0.0008
# 4 0.0297 -0.0176 0.0037 -10.9549 0.0111 9.8282
# 5 -20.6402 17.2959 10.8201 0.0111 25.7836 -0.0056
# 6 -0.0118 0.0082 0.0008 9.8282 -0.0056 33.1297
#
#
#
# Elastic Compliance Matrix: (Units=1/GPa)
#
#
# Indices 1 2 3 4 5 6 
#
# 1 0.027965 -0.009525 -0.014465 0.000109 0.034846 -0.000014
# 2 -0.009525 0.011659 0.002081 -0.000054 -0.016319 0.000007
# 3 -0.014465 0.002081 0.021171 -0.000053 -0.021860 0.000006
# 4 0.000109 -0.000054 -0.000053 -0.072095 0.000182 0.021388
# 5 0.034846 -0.016319 -0.021860 0.000182 0.086800 -0.000022
# 6 -0.000014 0.000007 0.000006 0.021388 -0.000022 0.023840
#
#
# Mechanical properties :
#
#
# Convention : Reuss Voigt Hill
#
# Bulk Modulus (GPa) = 58.89758 61.84311 60.37035
# Shear Modulus (GPa) = 33.59832 23.04063 28.31948
#
# Velocity S-wave (km/s) = 4.10959 3.40320 3.77296
# Velocity P-wave (km/s) = 7.21971 6.82120 7.02328
#
# Compressibility (1/GPa) = 0.01697863
#
# Stress axis : x y z
#
# Youngs Moduli (GPa) = 35.75884 85.76705 47.23420
#
# Poissons Ratio (x) = 0.81689 0.68324
# Poissons Ratio (y) = 0.34059 -0.09829
# Poissons Ratio (z) = 0.51725 -0.17848
#
# Static dielectric constant tensor:
#      x y z
#    x 4.000730 -0.000100 -0.116440 
#    y -0.000100 4.142350 0.000020 
#    z -0.116440 0.000020 3.699320 
# 
# 
# High freq. dielectric constant tensor:
#      x y z
#    x 1.792570 0.000000 -0.000220 
#    y 0.000000 1.803690 0.000000 
#    z -0.000220 0.000000 1.758390 
# 
# From -- ./inp_files/278081.got.cif
#   From: 2010.06.25/outbox.cif.g09.slc.cpg/sg12_140_cif.got.tgz:278081.got - 2010.06.28 00:19:55.
