data_PCOD8111951
_publ_section_title
;
Structure prediction by ZEFSAII (Michael W. Deem and Ramdas Pophale) SiO2 
 PCOD8111951
Probable space group: C 2/M
;
_chemical_formula_sum "Si O2"
_cell_formula_units_Z 48
_cell_length_a 19.551949
_cell_length_b 8.540030
_cell_length_c 26.070894
_cell_angle_alpha 90.000000
_cell_angle_beta 147.544554
_cell_angle_gamma 90.000000
_cell_volume 2336.099523
_symmetry_space_group_name_H-M "C 2/M"
_symmetry_group_IT_number 12
_symmetry_cell_setting 'monoclinic'
loop_
_space_group_symop_operation_xyz
x,y,z
-x,y,-z
-x,-y,-z
x,-y,z
1/2+x,1/2+y,z
1/2-x,1/2+y,-z
1/2-x,1/2-y,-z
1/2+x,1/2-y,z
loop_
_atom_site_type_symbol
_atom_site_label
_atom_site_fract_x
_atom_site_fract_y
_atom_site_fract_z
Si Si1 0.322170 0.182645 0.617164
Si Si2 0.888074 0.183268 0.764337
Si Si3 0.302181 0.316266 0.278119
Si Si4 0.857312 0.316603 0.031690
Si Si5 0.433500 0.181285 0.579620
Si Si6 0.860159 0.316436 0.918726
O O1 0.397532 0.228581 0.715993
O O2 0.410454 0.226905 0.624484
O O3 0.191397 0.279829 0.532492
O O4 0.288452 0.000000 0.594937
O O5 0.758770 0.229366 0.711767
O O6 0.008301 0.233293 0.874383
O O7 0.891441 0.000000 0.755968
O O8 0.278953 0.500000 0.270369
O O9 0.451658 0.282520 0.370384
O O10 0.237626 0.248249 0.185156
O O11 0.875940 0.500000 0.052739
O O12 0.750000 0.250000 0.000000
O O13 0.810540 0.279630 0.944392
O O14 0.467353 0.000000 0.594793
O O15 0.870843 0.500000 0.915743
O O16 0.000000 0.240268 0.000000
#
# Coordination Sequence:
#
# PCOD8111951 Si02
#       6
#     8   8   8   8   8   8
#     4  10  22  42  66  91 122 161 202 250 305 366
#     4  12  25  41  61  90 125 163 205 256 307 357
#     4  11  22  39  64  91 122 163 206 250 304 366
#     4  11  23  41  62  90 124 162 205 253 306 362
#     4  10  22  41  64  94 125 155 198 252 307 367
#     4   9  18  37  62  86 117 159 202 246 295 353
#
# _framework density 20.547070999999999
#
# number of rings (size 3 to 8) (size 9 to 14) (size 15 to 20)
#    0.000    1.500    1.667    3.500    2.333    2.667 
#    0.000    6.667    0.000    0.000    0.000    0.000 
#    0.000    0.000    0.000    0.000    0.000    0.000 
#
# Total GULP energy -297717.735154 kJ/mol
# GULP energy per Si atom -12404.905631 kJ/mol
# Density = 2.050031 g / cm^3
# Si number density = 20.547071 Si / 1000 Ang^3
#
#
#
# Elastic Constant Matrix: (Units=GPa)
#
#
# Indices 1 2 3 4 5 6 
#
# 1 94.8907 32.1212 11.3907 -0.0001 7.2169 0.0000
# 2 32.1212 57.9894 11.7408 0.0000 -3.0728 -0.0001
# 3 11.3907 11.7408 47.7958 -0.0004 -0.0913 -0.0001
# 4 -0.0001 0.0000 -0.0004 30.4740 -0.0001 2.6415
# 5 7.2169 -3.0728 -0.0913 -0.0001 38.6964 0.0000
# 6 0.0000 -0.0001 -0.0001 2.6415 0.0000 32.3461
#
#
#
# Elastic Compliance Matrix: (Units=1/GPa)
#
#
# Indices 1 2 3 4 5 6 
#
# 1 0.013417 -0.007310 -0.001408 0.000000 -0.003086 0.000000
# 2 -0.007310 0.022210 -0.003708 0.000000 0.003118 0.000000
# 3 -0.001408 -0.003708 0.022169 0.000000 0.000020 0.000000
# 4 0.000000 0.000000 0.000000 0.033049 0.000000 -0.002699
# 5 -0.003086 0.003118 0.000020 0.000000 0.026665 0.000000
# 6 0.000000 0.000000 0.000000 -0.002699 0.000000 0.031136
#
#
# Mechanical properties :
#
#
# Convention : Reuss Voigt Hill
#
# Bulk Modulus (GPa) = 30.35450 34.57573 32.46511
# Shear Modulus (GPa) = 27.10359 29.99818 28.55088
#
# Velocity S-wave (km/s) = 3.63588 3.82511 3.73169
# Velocity P-wave (km/s) = 5.69485 6.03098 5.86532
#
# Compressibility (1/GPa) = 0.03294405
#
# Stress axis : x y z
#
# Youngs Moduli (GPa) = 74.53403 45.02548 45.10886
#
# Poissons Ratio (x) = 0.32915 0.06350
# Poissons Ratio (y) = 0.54486 0.16724
# Poissons Ratio (z) = 0.10492 0.16694
#
# Static dielectric constant tensor:
#      x y z
#    x 3.745310 0.000000 -0.097190 
#    y 0.000000 3.605390 0.000000 
#    z -0.097190 0.000000 3.732960 
# 
# 
# High freq. dielectric constant tensor:
#      x y z
#    x 1.812430 0.000000 -0.004070 
#    y 0.000000 1.796140 0.000000 
#    z -0.004070 0.000000 1.803460 
# 
# From -- ./inp_files/365565.got.cif
#   From: 2010.06.25/outbox.cif.g09.slc.cpg/sg12_183_cif.got.tgz:365565.got - 2010.06.28 00:19:55.
