data_PCOD8111929
_publ_section_title
;
Structure prediction by ZEFSAII (Michael W. Deem and Ramdas Pophale) SiO2 
 PCOD8111929
Probable space group: C 2/M
;
_chemical_formula_sum "Si O2"
_cell_formula_units_Z 48
_cell_length_a 9.938076
_cell_length_b 17.010222
_cell_length_c 14.149665
_cell_angle_alpha 90.000000
_cell_angle_beta 102.435315
_cell_angle_gamma 90.000000
_cell_volume 2335.868411
_symmetry_space_group_name_H-M "C 2/M"
_symmetry_group_IT_number 12
_symmetry_cell_setting 'monoclinic'
loop_
_space_group_symop_operation_xyz
x,y,z
-x,y,-z
-x,-y,-z
x,-y,z
1/2+x,1/2+y,z
1/2-x,1/2+y,-z
1/2-x,1/2-y,-z
1/2+x,1/2-y,z
loop_
_atom_site_type_symbol
_atom_site_label
_atom_site_fract_x
_atom_site_fract_y
_atom_site_fract_z
Si Si1 0.947744 0.415968 0.388418
Si Si2 0.986510 0.091352 0.302388
Si Si3 0.818789 0.640801 0.710274
Si Si4 0.428836 0.407250 0.082419
Si Si5 0.126700 0.592772 0.080446
Si Si6 0.216906 0.204343 0.396296
O O1 0.880116 0.500000 0.345785
O O2 0.842989 0.343940 0.370916
O O3 0.000000 0.426569 0.500000
O O4 0.082846 0.402052 0.347770
O O5 0.086125 0.145232 0.383071
O O6 0.831122 0.100548 0.316639
O O7 0.994280 0.119357 0.193201
O O8 0.029372 0.000000 0.319893
O O9 0.887988 0.635394 0.822448
O O10 0.812549 0.732396 0.687574
O O11 0.444602 0.500000 0.080350
O O12 0.268935 0.382807 0.051818
O O13 0.500000 0.368956 0.000000
O O14 0.120600 0.500000 0.097005
O O15 0.000000 0.623597 0.000000
O O16 0.250000 0.250000 0.500000
#
# Coordination Sequence:
#
# PCOD8111929 Si02
#       6
#     8   8   8   8   8   8
#     4  11  23  41  63  90 120 158 209 258 305 366
#     4  10  22  41  64  92 122 161 211 252 300 368
#     4  11  22  40  66  91 127 163 201 257 314 369
#     4   8  15  31  57  87 118 150 191 246 297 348
#     4   9  18  34  58  91 124 159 204 250 303 366
#     4  12  25  43  61  88 124 165 205 257 317 370
#
# _framework density 20.549104
#
# number of rings (size 3 to 8) (size 9 to 14) (size 15 to 20)
#    0.000    1.833    1.667    4.000    0.000    1.333 
#    0.000    5.000    0.000    5.000    0.000    0.000 
#    0.000    0.000    0.000    0.000    0.000    0.000 
#
# Total GULP energy -297461.371705 kJ/mol
# GULP energy per Si atom -12394.223821 kJ/mol
# Density = 2.050233 g / cm^3
# Si number density = 20.549104 Si / 1000 Ang^3
#
#
#
# Elastic Constant Matrix: (Units=GPa)
#
#
# Indices 1 2 3 4 5 6 
#
# 1 127.5590 45.8975 89.7182 0.0000 -6.7903 0.0000
# 2 45.8975 111.5804 60.2044 0.0000 2.4621 0.0000
# 3 89.7182 60.2044 139.0836 0.0000 -6.0556 0.0000
# 4 0.0000 0.0000 0.0000 28.0947 0.0000 5.7952
# 5 -6.7903 2.4621 -6.0556 0.0000 39.7051 0.0000
# 6 0.0000 0.0000 0.0000 5.7952 0.0000 32.9540
#
#
#
# Elastic Compliance Matrix: (Units=1/GPa)
#
#
# Indices 1 2 3 4 5 6 
#
# 1 0.014530 -0.001273 -0.008769 0.000000 0.001226 0.000000
# 2 -0.001273 0.011895 -0.004399 0.000000 -0.001626 0.000000
# 3 -0.008769 -0.004399 0.014795 0.000000 0.001030 0.000000
# 4 0.000000 0.000000 0.000000 0.036934 0.000000 -0.006495
# 5 0.001226 -0.001626 0.001030 0.000000 0.025653 0.000000
# 6 0.000000 0.000000 0.000000 -0.006495 0.000000 0.031487
#
#
# Mechanical properties :
#
#
# Convention : Reuss Voigt Hill
#
# Bulk Modulus (GPa) = 81.03631 85.54035 83.28833
# Shear Modulus (GPa) = 29.71099 32.31096 31.01098
#
# Velocity S-wave (km/s) = 3.80656 3.96962 3.88895
# Velocity P-wave (km/s) = 7.67079 7.92011 7.79645
#
# Compressibility (1/GPa) = 0.01234015
#
# Stress axis : x y z
#
# Youngs Moduli (GPa) = 68.82282 84.06953 67.58990
#
# Poissons Ratio (x) = 0.10699 0.59267
# Poissons Ratio (y) = 0.08759 0.29731
# Poissons Ratio (z) = 0.60348 0.36980
#
# Static dielectric constant tensor:
#      x y z
#    x 3.849050 0.000000 -0.045120 
#    y 0.000000 4.035790 0.000000 
#    z -0.045120 0.000000 3.815210 
# 
# 
# High freq. dielectric constant tensor:
#      x y z
#    x 1.807980 0.000000 -0.006220 
#    y 0.000000 1.796470 0.000000 
#    z -0.006220 0.000000 1.800850 
# 
# From -- ./inp_files/195952.got.cif
#   From: 2010.06.25/outbox.cif.g09.slc.cpg/sg12_98_cif.got.tgz:195952.got - 2010.06.28 00:19:55.
