data_PCOD8111394
_publ_section_title
;
Structure prediction by ZEFSAII (Michael W. Deem and Ramdas Pophale) SiO2 
 PCOD8111394
Probable space group: C 2/M
;
_chemical_formula_sum "Si O2"
_cell_formula_units_Z 40
_cell_length_a 9.941319
_cell_length_b 8.951317
_cell_length_c 23.268815
_cell_angle_alpha 90.000000
_cell_angle_beta 70.348873
_cell_angle_gamma 90.000000
_cell_volume 1950.044012
_symmetry_space_group_name_H-M "C 2/M"
_symmetry_group_IT_number 12
_symmetry_cell_setting 'monoclinic'
loop_
_space_group_symop_operation_xyz
x,y,z
-x,y,-z
-x,-y,-z
x,-y,z
1/2+x,1/2+y,z
1/2-x,1/2+y,-z
1/2-x,1/2-y,-z
1/2+x,1/2-y,z
loop_
_atom_site_type_symbol
_atom_site_label
_atom_site_fract_x
_atom_site_fract_y
_atom_site_fract_z
Si Si1 0.705869 0.327581 0.336389
Si Si2 0.470845 0.827719 0.734316
Si Si3 0.990562 0.327694 0.067049
Si Si4 0.835563 0.328347 0.537577
Si Si5 0.836716 0.172524 0.862295
O O1 0.670655 0.500000 0.352183
O O2 0.585634 0.261572 0.312341
O O3 0.704311 0.245236 0.396841
O O4 0.859557 0.306188 0.284812
O O5 0.402605 0.770141 0.802455
O O6 0.429640 0.000000 0.731782
O O7 0.037547 0.500000 0.066253
O O8 0.832304 0.303299 0.113915
O O9 0.099966 0.225412 0.086257
O O10 0.000000 0.275201 0.000000
O O11 0.789908 0.500000 0.546949
O O12 0.750000 0.250000 0.500000
O O13 0.000000 0.308151 0.500000
O O14 0.875965 0.000000 0.846681
#
# Coordination Sequence:
#
# PCOD8111394 Si02
#       5
#     8   8   8   8   8
#     4  11  24  41  62  89 119 154 198 243 290 347
#     4  11  24  41  61  87 120 156 195 242 294 347
#     4  10  22  40  60  85 119 155 193 241 293 346
#     4  11  24  41  62  90 122 156 196 241 291 347
#     4  11  23  38  60  89 117 152 198 241 289 350
#
# _framework density 20.512357000000002
#
# number of rings (size 3 to 8) (size 9 to 14) (size 15 to 20)
#    0.000    1.200    0.000    5.400    0.000   16.400 
#    0.000    0.000    0.000    0.000    0.000    0.000 
#    0.000    0.000    0.000    0.000    0.000    0.000 
#
# Total GULP energy -248157.229213 kJ/mol
# GULP energy per Si atom -12407.861461 kJ/mol
# Density = 2.046567 g / cm^3
# Si number density = 20.512357 Si / 1000 Ang^3
#
#
#
# Elastic Constant Matrix: (Units=GPa)
#
#
# Indices 1 2 3 4 5 6 
#
# 1 54.8042 46.7031 -1.3175 0.0000 17.1728 0.0000
# 2 46.7031 119.8621 34.4789 0.0000 -1.5453 0.0000
# 3 -1.3175 34.4789 98.1116 0.0000 5.1333 0.0000
# 4 0.0000 0.0000 0.0000 41.3635 0.0000 7.7909
# 5 17.1728 -1.5453 5.1333 0.0000 37.6966 0.0000
# 6 0.0000 0.0000 0.0000 7.7909 0.0000 35.2648
#
#
#
# Elastic Compliance Matrix: (Units=1/GPa)
#
#
# Indices 1 2 3 4 5 6 
#
# 1 0.040384 -0.018308 0.008035 0.000000 -0.020242 0.000000
# 2 -0.018308 0.017606 -0.006957 0.000000 0.010009 0.000000
# 3 0.008035 -0.006957 0.013045 0.000000 -0.005722 0.000000
# 4 0.000000 0.000000 0.000000 0.025226 0.000000 -0.005573
# 5 -0.020242 0.010009 -0.005722 0.000000 0.036938 0.000000
# 6 0.000000 0.000000 0.000000 -0.005573 0.000000 0.029588
#
#
# Mechanical properties :
#
#
# Convention : Reuss Voigt Hill
#
# Bulk Modulus (GPa) = 27.33999 48.05632 37.69816
# Shear Modulus (GPa) = 23.87341 35.72587 29.79964
#
# Velocity S-wave (km/s) = 3.41523 4.17787 3.81565
# Velocity P-wave (km/s) = 5.37673 6.83751 6.15064
#
# Compressibility (1/GPa) = 0.03657646
#
# Stress axis : x y z
#
# Youngs Moduli (GPa) = 24.76225 56.79721 76.66016
#
# Poissons Ratio (x) = 1.03982 -0.61597
# Poissons Ratio (y) = 0.45334 0.53332
# Poissons Ratio (z) = -0.19897 0.39513
#
# Static dielectric constant tensor:
#      x y z
#    x 3.804220 0.000000 -0.080890 
#    y 0.000000 3.891580 0.000000 
#    z -0.080890 0.000000 3.644700 
# 
# 
# High freq. dielectric constant tensor:
#      x y z
#    x 1.813920 0.000000 0.000660 
#    y 0.000000 1.814820 0.000000 
#    z 0.000660 0.000000 1.819120 
# 
# From -- ./inp_files/261072.got.cif
#   From: 2010.06.25/outbox.cif.g09.slc.cpg/sg12_131_cif.got.tgz:261072.got - 2010.06.28 00:19:55.
