data_PCOD8111415
_publ_section_title
;
Structure prediction by ZEFSAII (Michael W. Deem and Ramdas Pophale) SiO2 
 PCOD8111415
Probable space group: C 2/M
;
_chemical_formula_sum "Si O2"
_cell_formula_units_Z 32
_cell_length_a 24.938613
_cell_length_b 7.888214
_cell_length_c 9.609182
_cell_angle_alpha 90.000000
_cell_angle_beta 67.431266
_cell_angle_gamma 90.000000
_cell_volume 1745.567212
_symmetry_space_group_name_H-M "C 2/M"
_symmetry_group_IT_number 12
_symmetry_cell_setting 'monoclinic'
loop_
_space_group_symop_operation_xyz
x,y,z
-x,y,-z
-x,-y,-z
x,-y,z
1/2+x,1/2+y,z
1/2-x,1/2+y,-z
1/2-x,1/2-y,-z
1/2+x,1/2-y,z
loop_
_atom_site_type_symbol
_atom_site_label
_atom_site_fract_x
_atom_site_fract_y
_atom_site_fract_z
Si Si1 0.741590 0.693117 0.851458
Si Si2 0.141321 0.311178 0.765934
Si Si3 0.056245 0.000000 0.537095
Si Si4 0.334898 0.311241 0.555100
Si Si5 0.556720 0.500000 0.852545
O O1 0.721257 0.500000 0.867472
O O2 0.691983 0.804625 0.829721
O O3 0.802329 0.711716 0.709063
O O4 0.750000 0.750000 0.000000
O O5 0.113573 0.500000 0.800615
O O6 0.170568 0.285448 0.585676
O O7 0.093526 0.169137 0.847120
O O8 0.096679 0.166948 0.470409
O O9 0.000000 0.000000 0.500000
O O10 0.034959 0.000000 0.716528
O O11 0.307709 0.500000 0.561741
O O12 0.500000 0.500000 0.000000
#
# Coordination Sequence:
#
# PCOD8111415 Si02
#       5
#     8   8   4   8   4
#     4  12  23  36  54  86 123 154 194 246 302 355
#     4  11  21  39  61  85 118 157 201 242 292 356
#     4   8  18  36  60  84 112 156 197 234 297 346
#     4   9  19  36  58  85 113 153 199 236 292 348
#     4  10  22  40  60  88 116 158 201 246 297 344
#
# _framework density 18.332151
#
# number of rings (size 3 to 8) (size 9 to 14) (size 15 to 20)
#    0.750    1.000    2.500    3.750    0.000    2.500 
#    0.000    0.000    0.000   18.750    0.000    0.000 
#    0.000    0.000    0.000    0.000    0.000    0.000 
#
# Total GULP energy -198330.233762 kJ/mol
# GULP energy per Si atom -12395.639610 kJ/mol
# Density = 1.829043 g / cm^3
# Si number density = 18.332151 Si / 1000 Ang^3
#
#
#
# Elastic Constant Matrix: (Units=GPa)
#
#
# Indices 1 2 3 4 5 6 
#
# 1 112.9956 32.7863 73.6790 0.0000 15.6090 0.0000
# 2 32.7863 134.1512 36.8829 0.0000 -1.6513 0.0000
# 3 73.6790 36.8829 139.3595 0.0000 -6.8194 0.0000
# 4 0.0000 0.0000 0.0000 24.9207 0.0000 -0.6490
# 5 15.6090 -1.6513 -6.8194 0.0000 35.3033 0.0000
# 6 0.0000 0.0000 0.0000 -0.6490 0.0000 17.5789
#
#
#
# Elastic Compliance Matrix: (Units=1/GPa)
#
#
# Indices 1 2 3 4 5 6 
#
# 1 0.016107 -0.001710 -0.008496 0.000000 -0.008843 0.000000
# 2 -0.001710 0.008221 -0.001228 0.000000 0.000903 0.000000
# 3 -0.008496 -0.001228 0.012290 0.000000 0.006073 0.000000
# 4 0.000000 0.000000 0.000000 0.040166 0.000000 0.001483
# 5 -0.008843 0.000903 0.006073 0.000000 0.033451 0.000000
# 6 0.000000 0.000000 0.000000 0.001483 0.000000 0.056941
#
#
# Mechanical properties :
#
#
# Convention : Reuss Voigt Hill
#
# Bulk Modulus (GPa) = 72.72203 74.80030 73.76116
# Shear Modulus (GPa) = 25.69022 31.77113 28.73067
#
# Velocity S-wave (km/s) = 3.74756 4.16755 3.96312
# Velocity P-wave (km/s) = 7.64727 8.00308 7.82720
#
# Compressibility (1/GPa) = 0.01375099
#
# Stress axis : x y z
#
# Youngs Moduli (GPa) = 62.08303 121.64367 81.36881
#
# Poissons Ratio (x) = 0.20796 0.69133
# Poissons Ratio (y) = 0.10613 0.09989
# Poissons Ratio (z) = 0.52747 0.14934
#
# Static dielectric constant tensor:
#      x y z
#    x 3.114370 0.000000 0.012630 
#    y 0.000000 3.550630 0.000000 
#    z 0.012630 0.000000 3.334800 
# 
# 
# High freq. dielectric constant tensor:
#      x y z
#    x 1.692180 0.000000 0.004290 
#    y 0.000000 1.713260 0.000000 
#    z 0.004290 0.000000 1.712150 
# 
# From -- ./inp_files/100600.got.cif
#   From: 2010.06.25/outbox.cif.g09.slc.cpg/sg12_51_cif.got.tgz:100600.got - 2010.06.28 00:19:55.
