data_PCOD8111699
_publ_section_title
;
Structure prediction by ZEFSAII (Michael W. Deem and Ramdas Pophale) SiO2 
 PCOD8111699
Probable space group: C 2/M
;
_chemical_formula_sum "Si O2"
_cell_formula_units_Z 48
_cell_length_a 17.647902
_cell_length_b 13.878946
_cell_length_c 12.121591
_cell_angle_alpha 90.000000
_cell_angle_beta 128.327996
_cell_angle_gamma 90.000000
_cell_volume 2329.096267
_symmetry_space_group_name_H-M "C 2/M"
_symmetry_group_IT_number 12
_symmetry_cell_setting 'monoclinic'
loop_
_space_group_symop_operation_xyz
x,y,z
-x,y,-z
-x,-y,-z
x,-y,z
1/2+x,1/2+y,z
1/2-x,1/2+y,-z
1/2-x,1/2-y,-z
1/2+x,1/2-y,z
loop_
_atom_site_type_symbol
_atom_site_label
_atom_site_fract_x
_atom_site_fract_y
_atom_site_fract_z
Si Si1 0.595605 0.391311 0.656793
Si Si2 0.066649 0.708296 0.767412
Si Si3 0.098937 0.752696 0.043199
Si Si4 0.364906 0.887998 0.543084
Si Si5 0.724968 0.888223 0.768591
Si Si6 0.289351 0.889497 0.709788
O O1 0.500000 0.384125 0.500000
O O2 0.609802 0.500000 0.715797
O O3 0.588699 0.318327 0.752271
O O4 0.683753 0.359601 0.657689
O O5 0.139360 0.634727 0.775351
O O6 0.959263 0.678014 0.636434
O O7 0.082505 0.701544 0.911540
O O8 0.178560 0.835022 0.106580
O O9 0.128621 0.669685 0.154551
O O10 0.000000 0.799202 0.000000
O O11 0.305244 0.855600 0.381720
O O12 0.294769 0.869894 0.583751
O O13 0.396460 0.000000 0.562981
O O14 0.748571 0.000000 0.793942
O O15 0.311191 0.000000 0.755710
#
# Coordination Sequence:
#
# PCOD8111699 Si02
#       6
#     8   8   8   8   8   8
#     4  10  22  40  65  97 127 162 210 263 319 376
#     4  12  23  41  67  96 129 165 211 263 319 381
#     4  12  26  44  62  94 128 172 217 254 319 383
#     4  10  22  42  70  99 124 163 215 269 319 368
#     4  11  25  43  65  95 132 169 210 261 321 382
#     4  10  22  42  67  93 125 163 214 268 314 368
#
# _framework density 20.608853
#
# number of rings (size 3 to 8) (size 9 to 14) (size 15 to 20)
#    0.000    1.167    3.333    2.500    0.000    6.000 
#    0.000    1.667    0.000    0.000    0.000    0.000 
#    0.000    0.000    0.000    0.000    0.000    0.000 
#
# Total GULP energy -297731.246225 kJ/mol
# GULP energy per Si atom -12405.468593 kJ/mol
# Density = 2.056195 g / cm^3
# Si number density = 20.608853 Si / 1000 Ang^3
#
#
#
# Elastic Constant Matrix: (Units=GPa)
#
#
# Indices 1 2 3 4 5 6 
#
# 1 99.7942 18.2659 27.9885 0.0000 1.3646 0.0000
# 2 18.2659 60.4367 12.4713 0.0000 1.2304 0.0000
# 3 27.9885 12.4713 73.3568 0.0000 -4.9070 0.0000
# 4 0.0000 0.0000 0.0000 24.3146 0.0000 -5.7182
# 5 1.3646 1.2304 -4.9070 0.0000 40.9104 0.0000
# 6 0.0000 0.0000 0.0000 -5.7182 0.0000 29.0201
#
#
#
# Elastic Compliance Matrix: (Units=1/GPa)
#
#
# Indices 1 2 3 4 5 6 
#
# 1 0.011655 -0.002672 -0.004046 0.000000 -0.000794 0.000000
# 2 -0.002672 0.017791 -0.002052 0.000000 -0.000692 0.000000
# 3 -0.004046 -0.002052 0.015663 0.000000 0.002075 0.000000
# 4 0.000000 0.000000 0.000000 0.043126 0.000000 0.008498
# 5 -0.000794 -0.000692 0.002075 0.000000 0.024740 0.000000
# 6 0.000000 0.000000 0.000000 0.008498 0.000000 0.036133
#
#
# Mechanical properties :
#
#
# Convention : Reuss Voigt Hill
#
# Bulk Modulus (GPa) = 36.26925 39.00433 37.63679
# Shear Modulus (GPa) = 28.43543 30.50651 29.47097
#
# Velocity S-wave (km/s) = 3.71855 3.85159 3.78566
# Velocity P-wave (km/s) = 6.00616 6.22469 6.11640
#
# Compressibility (1/GPa) = 0.02757157
#
# Stress axis : x y z
#
# Youngs Moduli (GPa) = 85.79897 56.20787 63.84373
#
# Poissons Ratio (x) = 0.15016 0.25830
# Poissons Ratio (y) = 0.22921 0.13098
# Poissons Ratio (z) = 0.34713 0.11532
#
# Static dielectric constant tensor:
#      x y z
#    x 3.947480 0.000000 -0.063090 
#    y 0.000000 3.817110 0.000000 
#    z -0.063090 0.000000 3.663470 
# 
# 
# High freq. dielectric constant tensor:
#      x y z
#    x 1.819270 0.000000 0.000070 
#    y 0.000000 1.813600 0.000000 
#    z 0.000070 0.000000 1.804630 
# 
# From -- ./inp_files/143874.got.cif
#   From: 2010.06.25/outbox.cif.g09.slc.cpg/sg12_72_cif.got.tgz:143874.got - 2010.06.28 00:19:55.
