data_PCOD8111147
_publ_section_title
;
Structure prediction by ZEFSAII (Michael W. Deem and Ramdas Pophale) SiO2 
 PCOD8111147
Probable space group: C 2/M
;
_chemical_formula_sum "Si O2"
_cell_formula_units_Z 48
_cell_length_a 19.875258
_cell_length_b 7.601166
_cell_length_c 30.430535
_cell_angle_alpha 90.000000
_cell_angle_beta 149.571175
_cell_angle_gamma 90.000000
_cell_volume 2328.382182
_symmetry_space_group_name_H-M "C 2/M"
_symmetry_group_IT_number 12
_symmetry_cell_setting 'monoclinic'
loop_
_space_group_symop_operation_xyz
x,y,z
-x,y,-z
-x,-y,-z
x,-y,z
1/2+x,1/2+y,z
1/2-x,1/2+y,-z
1/2-x,1/2-y,-z
1/2+x,1/2-y,z
loop_
_atom_site_type_symbol
_atom_site_label
_atom_site_fract_x
_atom_site_fract_y
_atom_site_fract_z
Si Si1 0.183315 0.000000 0.063111
Si Si2 0.310129 0.701042 0.601221
Si Si3 0.123803 0.000000 0.128913
Si Si4 0.057417 0.791610 0.411506
Si Si5 0.740637 0.698948 0.741907
Si Si6 0.684803 0.296612 0.917183
Si Si7 0.621337 0.705953 0.265402
O O1 0.253467 0.823076 0.086021
O O2 0.194006 0.000000 0.121446
O O3 0.033626 0.000000 0.962218
O O4 0.353348 0.500000 0.629090
O O5 0.152966 0.719134 0.503672
O O6 0.393641 0.787110 0.607984
O O7 0.348637 0.788531 0.669518
O O8 0.162299 0.176229 0.176231
O O9 0.908873 0.727323 0.337593
O O10 0.068380 0.000000 0.417724
O O11 0.750622 0.500000 0.766116
O O12 0.781849 0.697893 0.714198
O O13 0.710637 0.500000 0.919406
O O14 0.529416 0.255110 0.833101
O O15 0.750000 0.250000 0.000000
O O16 0.653764 0.500000 0.282030
#
# Coordination Sequence:
#
# PCOD8111147 Si02
#       7
#     4   8   4   8   8   8   8
#     4  11  26  44  66  98 124 168 216 260 318 387
#     4   9  19  37  61  87 122 161 211 258 312 373
#     4  11  26  46  64  93 134 160 214 267 312 384
#     4   9  20  38  57  89 125 163 205 260 315 374
#     4  11  24  41  66  90 128 171 207 258 323 376
#     4  11  23  41  66  95 131 166 209 264 316 370
#     4  10  22  39  60  92 126 163 214 267 308 378
#
# _framework density 20.615174
#
# number of rings (size 3 to 8) (size 9 to 14) (size 15 to 20)
#    0.000    1.833    1.667    1.000    4.667    4.000 
#    0.000    5.000    0.000    0.000    0.000    0.000 
#    0.000    0.000    0.000    0.000    0.000    0.000 
#
# Total GULP energy -297650.112599 kJ/mol
# GULP energy per Si atom -12402.088025 kJ/mol
# Density = 2.056825 g / cm^3
# Si number density = 20.615174 Si / 1000 Ang^3
#
#
#
# Elastic Constant Matrix: (Units=GPa)
#
#
# Indices 1 2 3 4 5 6 
#
# 1 135.9422 34.3662 66.6172 0.0001 -1.9527 -0.0004
# 2 34.3662 81.7812 23.2376 0.0003 2.8813 -0.0017
# 3 66.6172 23.2376 107.9363 -0.0005 -9.9123 0.0003
# 4 0.0001 0.0003 -0.0005 25.8559 -0.0002 7.2161
# 5 -1.9527 2.8813 -9.9123 -0.0002 39.1735 0.0003
# 6 -0.0004 -0.0017 0.0003 7.2161 0.0003 22.5477
#
#
#
# Elastic Compliance Matrix: (Units=1/GPa)
#
#
# Indices 1 2 3 4 5 6 
#
# 1 0.011187 -0.002863 -0.006366 0.000000 -0.000843 0.000000
# 2 -0.002863 0.013869 -0.001358 -0.000001 -0.001506 0.000001
# 3 -0.006366 -0.001358 0.013786 0.000000 0.003271 -0.000001
# 4 0.000000 -0.000001 0.000000 0.042469 0.000000 -0.013592
# 5 -0.000843 -0.001506 0.003271 0.000000 0.026424 -0.000001
# 6 0.000000 0.000001 -0.000001 -0.013592 -0.000001 0.048700
#
#
# Mechanical properties :
#
#
# Convention : Reuss Voigt Hill
#
# Bulk Modulus (GPa) = 56.58923 63.78908 60.18915
# Shear Modulus (GPa) = 27.24822 30.94464 29.09643
#
# Velocity S-wave (km/s) = 3.63954 3.87856 3.76095
# Velocity P-wave (km/s) = 6.72098 7.14616 6.93683
#
# Compressibility (1/GPa) = 0.01767121
#
# Stress axis : x y z
#
# Youngs Moduli (GPa) = 89.38911 72.10072 72.53651
#
# Poissons Ratio (x) = 0.20640 0.46174
# Poissons Ratio (y) = 0.25589 0.09847
# Poissons Ratio (z) = 0.56902 0.09788
#
# Static dielectric constant tensor:
#      x y z
#    x 3.986300 0.000000 -0.011390 
#    y 0.000000 3.714030 0.000000 
#    z -0.011390 0.000000 3.790290 
# 
# 
# High freq. dielectric constant tensor:
#      x y z
#    x 1.809980 0.000000 0.001040 
#    y 0.000000 1.805520 0.000000 
#    z 0.001040 0.000000 1.810830 
# 
# From -- ./inp_files/378576.got.cif
#   From: 2010.06.25/outbox.cif.g09.slc.cpg/sg12_190_cif.got.tgz:378576.got - 2010.06.28 00:19:55.
