data_PCOD8111987
_publ_section_title
;
Structure prediction by ZEFSAII (Michael W. Deem and Ramdas Pophale) SiO2 
 PCOD8111987
Probable space group: C 2/M
;
_chemical_formula_sum "Si O2"
_cell_formula_units_Z 56
_cell_length_a 17.512935
_cell_length_b 14.400718
_cell_length_c 21.068952
_cell_angle_alpha 90.000000
_cell_angle_beta 148.312562
_cell_angle_gamma 90.000000
_cell_volume 2791.136635
_symmetry_space_group_name_H-M "C 2/M"
_symmetry_group_IT_number 12
_symmetry_cell_setting 'monoclinic'
loop_
_space_group_symop_operation_xyz
x,y,z
-x,y,-z
-x,-y,-z
x,-y,z
1/2+x,1/2+y,z
1/2-x,1/2+y,-z
1/2-x,1/2-y,-z
1/2+x,1/2-y,z
loop_
_atom_site_type_symbol
_atom_site_label
_atom_site_fract_x
_atom_site_fract_y
_atom_site_fract_z
Si Si1 0.687588 0.815856 0.401662
Si Si2 0.651195 0.107807 0.024863
Si Si3 0.477144 0.605912 0.556470
Si Si4 0.888806 0.395813 0.224760
Si Si5 0.774170 0.772113 0.219642
Si Si6 0.338617 0.604102 0.041639
Si Si7 0.933231 0.260437 0.813191
O O1 0.750000 0.750000 0.500000
O O2 0.811291 0.882515 0.460831
O O3 0.560560 0.878534 0.340955
O O4 0.622821 0.755147 0.298378
O O5 0.664277 0.169659 0.097393
O O6 0.797796 0.121091 0.086554
O O7 0.625753 0.000000 0.024240
O O8 0.513369 0.143113 0.886779
O O9 0.500000 0.635632 0.500000
O O10 0.525443 0.500000 0.600771
O O11 0.578080 0.669661 0.671233
O O12 0.865471 0.500000 0.233689
O O13 0.811648 0.328258 0.219381
O O14 0.812349 0.381515 0.102684
O O15 0.703736 0.751579 0.237558
O O16 0.399551 0.500000 0.074962
O O17 0.457874 0.674533 0.099862
#
# Coordination Sequence:
#
# PCOD8111987 Si02
#       7
#     8   8   8   8   8   8   8
#     4  12  24  42  69  91 124 167 218 269 313 376
#     4  11  23  39  63  96 131 168 209 263 325 385
#     4  11  24  43  65  91 128 171 212 259 318 380
#     4  11  23  42  68  93 123 169 217 259 313 376
#     4  12  24  41  63  94 134 168 209 267 315 384
#     4  10  22  41  65  92 126 166 212 261 313 378
#     4  12  24  40  64  93 130 167 209 263 327 375
#
# _framework density 20.063511999999999
#
# number of rings (size 3 to 8) (size 9 to 14) (size 15 to 20)
#    0.000    0.714    5.714    2.571    0.000    2.857 
#    0.000    2.143    0.000    1.286    0.000    0.000 
#    0.000    0.000    0.000    0.000    0.000    0.000 
#
# Total GULP energy -347326.801382 kJ/mol
# GULP energy per Si atom -12404.528621 kJ/mol
# Density = 2.001785 g / cm^3
# Si number density = 20.063512 Si / 1000 Ang^3
#
#
#
# Elastic Constant Matrix: (Units=GPa)
#
#
# Indices 1 2 3 4 5 6 
#
# 1 86.7716 47.9960 26.9446 -0.0004 2.8177 -0.0002
# 2 47.9960 126.0327 50.0188 -0.0003 -5.8587 -0.0007
# 3 26.9446 50.0188 101.5762 0.0003 -5.5892 -0.0005
# 4 -0.0004 -0.0003 0.0003 24.9387 0.0000 -1.1466
# 5 2.8177 -5.8587 -5.5892 0.0000 34.7809 -0.0004
# 6 -0.0002 -0.0007 -0.0005 -1.1466 -0.0004 15.9480
#
#
#
# Elastic Compliance Matrix: (Units=1/GPa)
#
#
# Indices 1 2 3 4 5 6 
#
# 1 0.014949 -0.005191 -0.001538 0.000000 -0.002333 0.000000
# 2 -0.005191 0.011692 -0.004287 0.000000 0.001701 0.000000
# 3 -0.001538 -0.004287 0.012441 0.000000 0.001402 0.000000
# 4 0.000000 0.000000 0.000000 0.040231 0.000000 0.002892
# 5 -0.002333 0.001701 0.001402 0.000000 0.029452 0.000001
# 6 0.000000 0.000000 0.000000 0.002892 0.000001 0.062912
#
#
# Mechanical properties :
#
#
# Convention : Reuss Voigt Hill
#
# Bulk Modulus (GPa) = 58.64862 62.69993 60.67427
# Shear Modulus (GPa) = 25.07639 27.76160 26.41900
#
# Velocity S-wave (km/s) = 3.53916 3.72383 3.63267
# Velocity P-wave (km/s) = 6.78202 7.05746 6.92111
#
# Compressibility (1/GPa) = 0.01705070
#
# Stress axis : x y z
#
# Youngs Moduli (GPa) = 66.89372 85.53084 80.38153
#
# Poissons Ratio (x) = 0.44400 0.12359
# Poissons Ratio (y) = 0.34726 0.34457
# Poissons Ratio (z) = 0.10285 0.36664
#
# Static dielectric constant tensor:
#      x y z
#    x 3.603050 0.000000 -0.023560 
#    y 0.000000 3.626600 0.000000 
#    z -0.023560 0.000000 3.643080 
# 
# 
# High freq. dielectric constant tensor:
#      x y z
#    x 1.787990 0.000000 0.002010 
#    y 0.000000 1.783510 0.000000 
#    z 0.002010 0.000000 1.781230 
# 
# From -- ./inp_files/316696.got.cif
#   From: 2010.06.25/outbox.cif.g09.slc.cpg/sg12_159_cif.got.tgz:316696.got - 2010.06.28 00:19:55.
