data_PCOD8111737
_publ_section_title
;
Structure prediction by ZEFSAII (Michael W. Deem and Ramdas Pophale) SiO2 
 PCOD8111737
Probable space group: C 2/M
;
_chemical_formula_sum "Si O2"
_cell_formula_units_Z 48
_cell_length_a 18.519319
_cell_length_b 16.265456
_cell_length_c 15.385591
_cell_angle_alpha 90.000000
_cell_angle_beta 149.703474
_cell_angle_gamma 90.000000
_cell_volume 2338.004393
_symmetry_space_group_name_H-M "C 2/M"
_symmetry_group_IT_number 12
_symmetry_cell_setting 'monoclinic'
loop_
_space_group_symop_operation_xyz
x,y,z
-x,y,-z
-x,-y,-z
x,-y,z
1/2+x,1/2+y,z
1/2-x,1/2+y,-z
1/2-x,1/2-y,-z
1/2+x,1/2-y,z
loop_
_atom_site_type_symbol
_atom_site_label
_atom_site_fract_x
_atom_site_fract_y
_atom_site_fract_z
Si Si1 0.402480 0.162528 0.981873
Si Si2 0.914167 0.500000 0.540308
Si Si3 0.610961 0.857029 0.350917
Si Si4 0.093208 0.095613 0.676882
Si Si5 0.277010 0.000000 0.220517
Si Si6 0.424094 0.350947 0.011640
Si Si7 0.576453 0.670374 0.346146
O O1 0.257796 0.111423 0.825717
O O2 0.500000 0.146690 0.000000
O O3 0.489542 0.126837 0.153742
O O4 0.360653 0.258673 0.946693
O O5 0.901224 0.419213 0.583487
O O6 0.788563 0.500000 0.337394
O O7 0.067057 0.500000 0.655814
O O8 0.589592 0.767732 0.369789
O O9 0.767746 0.867261 0.469627
O O10 0.000000 0.129522 0.500000
O O11 0.045533 0.141018 0.714913
O O12 0.066053 0.000000 0.663233
O O13 0.199553 0.918070 0.104824
O O14 0.536645 0.357907 0.207282
O O15 0.500000 0.370717 0.000000
#
# Coordination Sequence:
#
# PCOD8111737 Si02
#       7
#     8   4   8   8   4   8   8
#     4  10  23  43  67  93 125 169 210 262 322 376
#     4  11  26  40  61  96 133 171 205 263 322 378
#     4  10  23  42  65  94 129 165 215 253 320 379
#     4  11  26  42  63  94 125 164 217 265 316 371
#     4  11  25  40  60  96 133 168 213 257 318 379
#     4  10  22  40  67  94 128 166 217 255 315 380
#     4  10  23  42  68  93 126 171 213 262 314 375
#
# _framework density 20.530328999999998
#
# number of rings (size 3 to 8) (size 9 to 14) (size 15 to 20)
#    0.000    1.667    0.000    2.250    8.167    5.667 
#    0.000    0.000    0.000    0.000    0.000    0.000 
#    0.000    0.000    0.000    0.000    0.000    0.000 
#
# Total GULP energy -297690.919012 kJ/mol
# GULP energy per Si atom -12403.788292 kJ/mol
# Density = 2.048360 g / cm^3
# Si number density = 20.530329 Si / 1000 Ang^3
#
#
#
# Elastic Constant Matrix: (Units=GPa)
#
#
# Indices 1 2 3 4 5 6 
#
# 1 112.1278 43.4653 46.7088 0.0014 -1.5780 0.0005
# 2 43.4653 82.5538 47.4035 -0.0002 -7.7139 -0.0001
# 3 46.7088 47.4035 137.8470 0.0021 -1.4294 0.0008
# 4 0.0014 -0.0002 0.0021 27.7769 0.0011 1.5102
# 5 -1.5780 -7.7139 -1.4294 0.0011 32.3255 0.0004
# 6 0.0005 -0.0001 0.0008 1.5102 0.0004 32.1040
#
#
#
# Elastic Compliance Matrix: (Units=1/GPa)
#
#
# Indices 1 2 3 4 5 6 
#
# 1 0.011785 -0.004952 -0.002298 0.000000 -0.000708 0.000000
# 2 -0.004952 0.017551 -0.004319 0.000001 0.003756 0.000000
# 3 -0.002298 -0.004319 0.009511 -0.000001 -0.000722 0.000000
# 4 0.000000 0.000001 -0.000001 0.036093 -0.000001 -0.001698
# 5 -0.000708 0.003756 -0.000722 -0.000001 0.031765 0.000000
# 6 0.000000 0.000000 0.000000 -0.001698 0.000000 0.031229
#
#
# Mechanical properties :
#
#
# Convention : Reuss Voigt Hill
#
# Bulk Modulus (GPa) = 63.65207 67.52043 65.58625
# Shear Modulus (GPa) = 30.06475 31.43801 30.75138
#
# Velocity S-wave (km/s) = 3.83091 3.91742 3.87441
# Velocity P-wave (km/s) = 7.11611 7.30898 7.21319
#
# Compressibility (1/GPa) = 0.01571041
#
# Stress axis : x y z
#
# Youngs Moduli (GPa) = 84.85285 56.97596 105.14429
#
# Poissons Ratio (x) = 0.28212 0.24161
# Poissons Ratio (y) = 0.42016 0.45410
# Poissons Ratio (z) = 0.19498 0.24607
#
# Static dielectric constant tensor:
#      x y z
#    x 3.627870 0.000000 -0.106230 
#    y 0.000000 3.736050 0.000000 
#    z -0.106230 0.000000 3.923750 
# 
# 
# High freq. dielectric constant tensor:
#      x y z
#    x 1.804260 0.000000 -0.003440 
#    y 0.000000 1.806250 0.000000 
#    z -0.003440 0.000000 1.816890 
# 
# From -- ./inp_files/226769.got.cif
#   From: 2010.06.25/outbox.cif.g09.slc.cpg/sg12_114_cif.got.tgz:226769.got - 2010.06.28 00:19:55.
