data_PCOD8111328
_publ_section_title
;
Structure prediction by ZEFSAII (Michael W. Deem and Ramdas Pophale) SiO2 
 PCOD8111328
Probable space group: C 2/M
;
_chemical_formula_sum "Si O2"
_cell_formula_units_Z 48
_cell_length_a 16.160858
_cell_length_b 14.892314
_cell_length_c 16.443255
_cell_angle_alpha 90.000000
_cell_angle_beta 145.520588
_cell_angle_gamma 90.000000
_cell_volume 2240.346895
_symmetry_space_group_name_H-M "C 2/M"
_symmetry_group_IT_number 12
_symmetry_cell_setting 'monoclinic'
loop_
_space_group_symop_operation_xyz
x,y,z
-x,y,-z
-x,-y,-z
x,-y,z
1/2+x,1/2+y,z
1/2-x,1/2+y,-z
1/2-x,1/2-y,-z
1/2+x,1/2-y,z
loop_
_atom_site_type_symbol
_atom_site_label
_atom_site_fract_x
_atom_site_fract_y
_atom_site_fract_z
Si Si1 0.428410 0.500000 0.560859
Si Si2 0.065654 0.600861 0.669755
Si Si3 0.231380 0.000000 0.736770
Si Si4 0.400171 0.206857 0.147216
Si Si5 0.903255 0.677122 0.847896
Si Si6 0.636587 0.330367 0.388729
Si Si7 0.289865 0.835045 0.359642
O O1 0.606916 0.500000 0.707529
O O2 0.364879 0.500000 0.420727
O O3 0.360104 0.410871 0.545249
O O4 0.002600 0.500000 0.623308
O O5 0.122075 0.627971 0.804640
O O6 0.197694 0.603270 0.710772
O O7 0.942562 0.668622 0.534384
O O8 0.339528 0.084030 0.829230
O O9 0.493626 0.167068 0.147984
O O10 0.477044 0.288482 0.256209
O O11 0.250000 0.250000 0.000000
O O12 0.761941 0.736859 0.711713
O O13 0.000000 0.718832 0.000000
O O14 0.750000 0.250000 0.500000
O O15 0.671225 0.372597 0.327499
#
# Coordination Sequence:
#
# PCOD8111328 Si02
#       7
#     4   8   4   8   8   8   8
#     4  11  26  40  70 100 141 169 234 297 346 406
#     4  11  24  40  70 104 134 173 229 284 344 417
#     4  11  27  42  66 103 132 186 233 287 346 406
#     4  11  25  44  70 100 138 180 228 277 349 408
#     4  11  25  44  69  93 137 187 229 280 345 418
#     4  11  23  43  68  97 135 180 223 284 347 413
#     4  10  22  39  70  96 132 172 226 283 344 409
#
# _framework density 21.425253999999999
#
# number of rings (size 3 to 8) (size 9 to 14) (size 15 to 20)
#    0.000    1.167    1.667    4.250    8.167    1.333 
#    1.500    0.000    0.000    4.000    0.000    0.000 
#    0.000    0.000    0.000    0.000    0.000    0.000 
#
# Total GULP energy -297435.575167 kJ/mol
# GULP energy per Si atom -12393.148965 kJ/mol
# Density = 2.137649 g / cm^3
# Si number density = 21.425254 Si / 1000 Ang^3
#
#
#
# Elastic Constant Matrix: (Units=GPa)
#
#
# Indices 1 2 3 4 5 6 
#
# 1 122.5302 50.5604 35.2539 0.0002 -10.9734 0.0001
# 2 50.5604 117.9750 59.7636 0.0000 6.7824 0.0000
# 3 35.2539 59.7636 121.8158 -0.0001 0.7752 0.0000
# 4 0.0002 0.0000 -0.0001 24.9073 0.0000 -2.9545
# 5 -10.9734 6.7824 0.7752 0.0000 37.2997 0.0001
# 6 0.0001 0.0000 0.0000 -2.9545 0.0001 29.2606
#
#
#
# Elastic Compliance Matrix: (Units=1/GPa)
#
#
# Indices 1 2 3 4 5 6 
#
# 1 0.010546 -0.004238 -0.000998 0.000000 0.003894 0.000000
# 2 -0.004238 0.013125 -0.005190 0.000000 -0.003526 0.000000
# 3 -0.000998 -0.005190 0.011041 0.000000 0.000421 0.000000
# 4 0.000000 0.000000 0.000000 0.040636 0.000000 0.004103
# 5 0.003894 -0.003526 0.000421 0.000000 0.028588 0.000000
# 6 0.000000 0.000000 0.000000 0.004103 0.000000 0.034590
#
#
# Mechanical properties :
#
#
# Convention : Reuss Voigt Hill
#
# Bulk Modulus (GPa) = 72.14813 72.60855 72.37834
# Shear Modulus (GPa) = 30.48847 32.74305 31.61576
#
# Velocity S-wave (km/s) = 3.77638 3.91352 3.84556
# Velocity P-wave (km/s) = 7.26376 7.37453 7.31935
#
# Compressibility (1/GPa) = 0.01386037
#
# Stress axis : x y z
#
# Youngs Moduli (GPa) = 94.82450 76.19313 90.56843
#
# Poissons Ratio (x) = 0.32292 0.09034
# Poissons Ratio (y) = 0.40188 0.47005
# Poissons Ratio (z) = 0.09459 0.39544
#
# Static dielectric constant tensor:
#      x y z
#    x 4.571960 0.000010 -0.188630 
#    y 0.000010 3.755880 -0.000010 
#    z -0.188630 -0.000010 4.211600 
# 
# 
# High freq. dielectric constant tensor:
#      x y z
#    x 1.866000 0.000000 -0.006740 
#    y 0.000000 1.823460 0.000000 
#    z -0.006740 0.000000 1.829230 
# 
# From -- ./inp_files/278253.got.cif
#   From: 2010.06.25/outbox.cif.g09.slc.cpg/sg12_140_cif.got.tgz:278253.got - 2010.06.28 00:19:55.
