data_PCOD8111217
_publ_section_title
;
Structure prediction by ZEFSAII (Michael W. Deem and Ramdas Pophale) SiO2 
 PCOD8111217
Probable space group: C 2/M
;
_chemical_formula_sum "Si O2"
_cell_formula_units_Z 48
_cell_length_a 14.848114
_cell_length_b 8.848141
_cell_length_c 29.017049
_cell_angle_alpha 90.000000
_cell_angle_beta 40.497953
_cell_angle_gamma 90.000000
_cell_volume 2475.727379
_symmetry_space_group_name_H-M "C 2/M"
_symmetry_group_IT_number 12
_symmetry_cell_setting 'monoclinic'
loop_
_space_group_symop_operation_xyz
x,y,z
-x,y,-z
-x,-y,-z
x,-y,z
1/2+x,1/2+y,z
1/2-x,1/2+y,-z
1/2-x,1/2-y,-z
1/2+x,1/2-y,z
loop_
_atom_site_type_symbol
_atom_site_label
_atom_site_fract_x
_atom_site_fract_y
_atom_site_fract_z
Si Si1 0.164681 0.675618 0.832468
Si Si2 0.646766 0.175369 0.575587
Si Si3 0.828463 0.324436 0.329141
Si Si4 0.336172 0.821355 0.684292
Si Si5 0.599481 0.325650 0.188090
Si Si6 0.117250 0.822257 0.074658
O O1 0.139085 0.500000 0.833218
O O2 0.237351 0.743998 0.759584
O O3 0.255513 0.703347 0.842698
O O4 0.018345 0.756478 0.897566
O O5 0.750000 0.250000 0.500000
O O6 0.699521 0.208290 0.606414
O O7 0.491829 0.240990 0.629672
O O8 0.643181 0.000000 0.565678
O O9 0.807851 0.500000 0.325264
O O10 0.716950 0.224109 0.345498
O O11 0.984984 0.279321 0.256027
O O12 0.327143 0.000000 0.694927
O O13 0.552427 0.500000 0.210922
O O14 0.616991 0.278300 0.128470
O O15 0.121393 0.000000 0.065639
O O16 0.250000 0.750000 0.000000
#
# Coordination Sequence:
#
# PCOD8111217 Si02
#       6
#     8   8   8   8   8   8
#     4  11  22  38  63  93 120 158 205 251 302 361
#     4  10  24  42  61  88 125 162 201 252 306 361
#     4  11  22  38  62  92 121 157 206 253 298 359
#     4  11  22  39  61  90 123 159 202 250 304 363
#     4  10  22  39  62  90 122 160 202 248 303 362
#     4  11  24  42  62  89 126 164 202 253 308 360
#
# _framework density 19.388241000000001
#
# number of rings (size 3 to 8) (size 9 to 14) (size 15 to 20)
#    0.000    1.333    3.333    2.000    0.000    5.333 
#    0.000    6.667    0.000    0.000    0.000    0.000 
#    0.000    0.000    0.000    0.000    0.000    0.000 
#
# Total GULP energy -297739.807130 kJ/mol
# GULP energy per Si atom -12405.825297 kJ/mol
# Density = 1.934411 g / cm^3
# Si number density = 19.388241 Si / 1000 Ang^3
#
#
#
# Elastic Constant Matrix: (Units=GPa)
#
#
# Indices 1 2 3 4 5 6 
#
# 1 87.4416 21.9678 8.1065 0.0000 -7.5252 0.0000
# 2 21.9678 67.9692 28.2063 0.0000 0.4297 -0.0002
# 3 8.1065 28.2063 81.5541 0.0001 -7.7070 -0.0001
# 4 0.0000 0.0000 0.0001 38.0440 0.0000 -2.8455
# 5 -7.5252 0.4297 -7.7070 0.0000 32.4176 -0.0001
# 6 0.0000 -0.0002 -0.0001 -2.8455 -0.0001 34.0846
#
#
#
# Elastic Compliance Matrix: (Units=1/GPa)
#
#
# Indices 1 2 3 4 5 6 
#
# 1 0.012754 -0.004366 0.000540 0.000000 0.003147 0.000000
# 2 -0.004366 0.018762 -0.006316 0.000000 -0.002764 0.000000
# 3 0.000540 -0.006316 0.014744 0.000000 0.003714 0.000000
# 4 0.000000 0.000000 0.000000 0.026450 0.000000 0.002208
# 5 0.003147 -0.002764 0.003714 0.000000 0.032498 0.000000
# 6 0.000000 0.000000 0.000000 0.002208 0.000000 0.029523
#
#
# Mechanical properties :
#
#
# Convention : Reuss Voigt Hill
#
# Bulk Modulus (GPa) = 38.49910 39.28065 38.88988
# Shear Modulus (GPa) = 30.54847 32.82155 31.68501
#
# Velocity S-wave (km/s) = 3.97371 4.11890 4.04696
# Velocity P-wave (km/s) = 6.39952 6.55168 6.47605
#
# Compressibility (1/GPa) = 0.02597463
#
# Stress axis : x y z
#
# Youngs Moduli (GPa) = 78.40786 53.29845 67.82555
#
# Poissons Ratio (x) = 0.23270 -0.03660
# Poissons Ratio (y) = 0.34232 0.42841
# Poissons Ratio (z) = -0.04231 0.33665
#
# Static dielectric constant tensor:
#      x y z
#    x 3.998230 0.000000 -0.049670 
#    y 0.000000 3.610770 0.000000 
#    z -0.049670 0.000000 3.476880 
# 
# 
# High freq. dielectric constant tensor:
#      x y z
#    x 1.772800 0.000000 -0.001180 
#    y 0.000000 1.761960 0.000000 
#    z -0.001180 0.000000 1.749700 
# 
# From -- ./inp_files/308275.got.cif
#   From: 2010.06.25/outbox.cif.g09.slc.cpg/sg12_155_cif.got.tgz:308275.got - 2010.06.28 00:19:55.
