data_PCOD8111537
_publ_section_title
;
Structure prediction by ZEFSAII (Michael W. Deem and Ramdas Pophale) SiO2 
 PCOD8111537
Probable space group: C 2/M
;
_chemical_formula_sum "Si O2"
_cell_formula_units_Z 48
_cell_length_a 29.410609
_cell_length_b 17.639688
_cell_length_c 12.959997
_cell_angle_alpha 90.000000
_cell_angle_beta 19.197571
_cell_angle_gamma 90.000000
_cell_volume 2210.888159
_symmetry_space_group_name_H-M "C 2/M"
_symmetry_group_IT_number 12
_symmetry_cell_setting 'monoclinic'
loop_
_space_group_symop_operation_xyz
x,y,z
-x,y,-z
-x,-y,-z
x,-y,z
1/2+x,1/2+y,z
1/2-x,1/2+y,-z
1/2-x,1/2-y,-z
1/2+x,1/2-y,z
loop_
_atom_site_type_symbol
_atom_site_label
_atom_site_fract_x
_atom_site_fract_y
_atom_site_fract_z
Si Si1 0.909239 0.339051 0.418980
Si Si2 0.632892 0.911656 0.277426
Si Si3 0.422933 0.587657 0.568440
Si Si4 0.449195 0.332051 0.308698
Si Si5 0.226149 0.830195 0.608823
Si Si6 0.694665 0.912216 0.752698
O O1 0.841315 0.367391 0.670986
O O2 0.956756 0.253471 0.332088
O O3 0.800709 0.338314 0.558412
O O4 0.039157 0.392816 0.117540
O O5 0.500000 0.881358 0.500000
O O6 0.617673 0.000000 0.337422
O O7 0.759701 0.896545 0.928253
O O8 0.500000 0.626314 0.500000
O O9 0.458629 0.500000 0.490510
O O10 0.487110 0.619070 0.326510
O O11 0.300098 0.357133 0.586315
O O12 0.562815 0.342924 0.975609
O O13 0.250000 0.750000 0.500000
O O14 0.285950 0.897654 0.410470
O O15 0.725139 0.000000 0.713981
#
# Coordination Sequence:
#
# PCOD8111537 Si02
#       6
#     8   8   8   8   8   8
#     4  12  24  42  71 100 137 185 231 285 344 422
#     4  10  22  41  65  96 139 182 224 285 350 408
#     4  10  22  40  62  92 131 174 226 285 339 403
#     4  12  24  42  70  98 136 183 228 291 347 418
#     4  12  25  45  67  99 139 181 230 287 358 402
#     4  12  27  44  69 103 138 181 236 291 344 414
#
# _framework density 21.710733000000001
#
# number of rings (size 3 to 8) (size 9 to 14) (size 15 to 20)
#    0.000    0.667    3.333    4.000    0.000    6.667 
#    0.000    0.000    0.000    0.000    0.000    0.000 
#    0.000    0.000    0.000    0.000    0.000    0.000 
#
# Total GULP energy -297669.487699 kJ/mol
# GULP energy per Si atom -12402.895321 kJ/mol
# Density = 2.166132 g / cm^3
# Si number density = 21.710733 Si / 1000 Ang^3
#
#
#
# Elastic Constant Matrix: (Units=GPa)
#
#
# Indices 1 2 3 4 5 6 
#
# 1 124.4712 24.4363 14.9375 0.0000 3.6370 0.0000
# 2 24.4363 86.2307 37.0860 0.0000 10.0689 0.0000
# 3 14.9375 37.0860 68.0463 -0.0003 6.0602 0.0000
# 4 0.0000 0.0000 -0.0003 30.3576 0.0001 5.2678
# 5 3.6370 10.0689 6.0602 0.0001 42.1960 0.0000
# 6 0.0000 0.0000 0.0000 5.2678 0.0000 40.5033
#
#
#
# Elastic Compliance Matrix: (Units=1/GPa)
#
#
# Indices 1 2 3 4 5 6 
#
# 1 0.008535 -0.002093 -0.000721 0.000000 -0.000133 0.000000
# 2 -0.002093 0.015917 -0.007996 0.000000 -0.002469 0.000000
# 3 -0.000721 -0.007996 0.019283 0.000000 -0.000799 0.000000
# 4 0.000000 0.000000 0.000000 0.033701 0.000000 -0.004383
# 5 -0.000133 -0.002469 -0.000799 0.000000 0.024414 0.000000
# 6 0.000000 0.000000 0.000000 -0.004383 0.000000 0.025259
#
#
# Mechanical properties :
#
#
# Convention : Reuss Voigt Hill
#
# Bulk Modulus (GPa) = 45.21647 47.96310 46.58978
# Shear Modulus (GPa) = 32.03033 36.09726 34.06379
#
# Velocity S-wave (km/s) = 3.84516 4.08198 3.96534
# Velocity P-wave (km/s) = 6.37069 6.66007 6.51699
#
# Compressibility (1/GPa) = 0.02211584
#
# Stress axis : x y z
#
# Youngs Moduli (GPa) = 117.16014 62.82575 51.85906
#
# Poissons Ratio (x) = 0.13150 0.03739
# Poissons Ratio (y) = 0.24524 0.41464
# Poissons Ratio (z) = 0.08448 0.50233
#
# Static dielectric constant tensor:
#      x y z
#    x 4.085370 0.000000 0.076170 
#    y 0.000000 3.890290 0.000000 
#    z 0.076170 0.000000 3.952390 
# 
# 
# High freq. dielectric constant tensor:
#      x y z
#    x 1.868050 0.000000 0.002010 
#    y 0.000000 1.843660 0.000000 
#    z 0.002010 0.000000 1.863340 
# 
# From -- ./inp_files/184792.got.cif
#   From: 2010.06.25/outbox.cif.g09.slc.cpg/sg12_93_cif.got.tgz:184792.got - 2010.06.28 00:19:55.
