data_PCOD8111284
_publ_section_title
;
Structure prediction by ZEFSAII (Michael W. Deem and Ramdas Pophale) SiO2 
 PCOD8111284
Probable space group: C 2/M
;
_chemical_formula_sum "Si O2"
_cell_formula_units_Z 56
_cell_length_a 9.013602
_cell_length_b 27.333303
_cell_length_c 11.601235
_cell_angle_alpha 90.000000
_cell_angle_beta 68.466018
_cell_angle_gamma 90.000000
_cell_volume 2658.710607
_symmetry_space_group_name_H-M "C 2/M"
_symmetry_group_IT_number 12
_symmetry_cell_setting 'monoclinic'
loop_
_space_group_symop_operation_xyz
x,y,z
-x,y,-z
-x,-y,-z
x,-y,z
1/2+x,1/2+y,z
1/2-x,1/2+y,-z
1/2-x,1/2-y,-z
1/2+x,1/2-y,z
loop_
_atom_site_type_symbol
_atom_site_label
_atom_site_fract_x
_atom_site_fract_y
_atom_site_fract_z
Si Si1 0.680537 0.056705 0.597618
Si Si2 0.746957 0.694869 0.807552
Si Si3 0.165058 0.119054 0.642152
Si Si4 0.668085 0.610542 0.984988
Si Si5 0.674927 0.054559 0.237611
Si Si6 0.563629 0.204432 0.852353
Si Si7 0.197302 0.881307 0.242879
O O1 0.748867 0.100113 0.498000
O O2 0.489734 0.060599 0.646499
O O3 0.741963 0.070338 0.707638
O O4 0.731509 0.000000 0.553058
O O5 0.747271 0.665247 0.684913
O O6 0.660364 0.665385 0.935525
O O7 0.649683 0.744057 0.822081
O O8 0.925478 0.706368 0.796683
O O9 0.179527 0.073142 0.724637
O O10 0.982244 0.131862 0.665982
O O11 0.821705 0.584962 0.881930
O O12 0.500000 0.584819 0.000000
O O13 0.698360 0.606579 0.109367
O O14 0.709753 0.000000 0.192143
O O15 0.687377 0.164387 0.770020
O O16 0.500000 0.192516 0.000000
#
# Coordination Sequence:
#
# PCOD8111284 Si02
#       7
#     8   8   8   8   8   8   8
#     4  11  26  46  68  95 129 179 233 277 330 391
#     4  11  23  40  66 103 132 177 221 266 328 395
#     4  11  23  43  66  91 132 171 230 279 322 388
#     4  11  21  40  62  97 138 171 216 274 337 401
#     4  10  22  39  64  93 125 171 220 275 338 399
#     4  12  24  38  68 103 143 175 215 264 332 409
#     4  12  24  40  65  99 135 173 218 278 331 393
#
# _framework density 21.062842
#
# number of rings (size 3 to 8) (size 9 to 14) (size 15 to 20)
#    0.000    0.857    4.286    4.714    0.000    3.714 
#    0.000    2.143    0.000    3.429    0.000    0.000 
#    0.000    0.000    0.000    0.000    0.000    0.000 
#
# Total GULP energy -347028.633881 kJ/mol
# GULP energy per Si atom -12393.879781 kJ/mol
# Density = 2.101490 g / cm^3
# Si number density = 21.062842 Si / 1000 Ang^3
#
#
#
# Elastic Constant Matrix: (Units=GPa)
#
#
# Indices 1 2 3 4 5 6 
#
# 1 128.6957 58.4579 27.8014 0.0000 -8.9228 0.0000
# 2 58.4579 107.4413 48.0124 0.0000 -9.2997 0.0000
# 3 27.8014 48.0124 96.1360 0.0000 -4.7303 0.0000
# 4 0.0000 0.0000 0.0000 22.7649 0.0000 -7.3792
# 5 -8.9228 -9.2997 -4.7303 0.0000 32.7754 0.0000
# 6 0.0000 0.0000 0.0000 -7.3792 0.0000 34.3062
#
#
#
# Elastic Compliance Matrix: (Units=1/GPa)
#
#
# Indices 1 2 3 4 5 6 
#
# 1 0.010375 -0.005437 -0.000224 0.000000 0.001250 0.000000
# 2 -0.005437 0.015047 -0.005847 0.000000 0.001945 0.000000
# 3 -0.000224 -0.005847 0.013397 0.000000 0.000214 0.000000
# 4 0.000000 0.000000 0.000000 0.047220 0.000000 0.010157
# 5 0.001250 0.001945 0.000214 0.000000 0.031434 0.000000
# 6 0.000000 0.000000 0.000000 0.010157 0.000000 0.031334
#
#
# Mechanical properties :
#
#
# Convention : Reuss Voigt Hill
#
# Bulk Modulus (GPa) = 63.27307 66.75736 65.01522
# Shear Modulus (GPa) = 28.23461 31.16938 29.70200
#
# Velocity S-wave (km/s) = 3.66525 3.85103 3.75929
# Velocity P-wave (km/s) = 6.92946 7.17893 7.05530
#
# Compressibility (1/GPa) = 0.01580451
#
# Stress axis : x y z
#
# Youngs Moduli (GPa) = 96.38780 66.46027 74.64346
#
# Poissons Ratio (x) = 0.36133 0.01669
# Poissons Ratio (y) = 0.52404 0.43641
# Poissons Ratio (z) = 0.02155 0.38857
#
# Static dielectric constant tensor:
#      x y z
#    x 4.096480 0.000000 -0.112540 
#    y 0.000000 3.871490 0.000000 
#    z -0.112540 0.000000 4.026500 
# 
# 
# High freq. dielectric constant tensor:
#      x y z
#    x 1.839290 0.000000 -0.000230 
#    y 0.000000 1.820190 0.000000 
#    z -0.000230 0.000000 1.819640 
# 
# From -- ./inp_files/124223.got.cif
#   From: 2010.06.25/outbox.cif.g09.slc.cpg/sg12_63_cif.got.tgz:124223.got - 2010.06.28 00:19:55.
