data_PCOD8111437
_publ_section_title
;
Structure prediction by ZEFSAII (Michael W. Deem and Ramdas Pophale) SiO2 
 PCOD8111437
Probable space group: C 2/M
;
_chemical_formula_sum "Si O2"
_cell_formula_units_Z 56
_cell_length_a 17.476301
_cell_length_b 17.815160
_cell_length_c 8.719341
_cell_angle_alpha 90.000000
_cell_angle_beta 99.609744
_cell_angle_gamma 90.000000
_cell_volume 2676.612961
_symmetry_space_group_name_H-M "C 2/M"
_symmetry_group_IT_number 12
_symmetry_cell_setting 'monoclinic'
loop_
_space_group_symop_operation_xyz
x,y,z
-x,y,-z
-x,-y,-z
x,-y,z
1/2+x,1/2+y,z
1/2-x,1/2+y,-z
1/2-x,1/2-y,-z
1/2+x,1/2-y,z
loop_
_atom_site_type_symbol
_atom_site_label
_atom_site_fract_x
_atom_site_fract_y
_atom_site_fract_z
Si Si1 0.638947 0.588785 0.861919
Si Si2 0.555434 0.178217 0.151853
Si Si3 0.290550 0.825901 0.968410
Si Si4 0.300852 0.088186 0.270795
Si Si5 0.076268 0.588197 0.448133
Si Si6 0.375206 0.414390 0.789598
Si Si7 0.502067 0.317894 0.678982
O O1 0.636356 0.500000 0.819026
O O2 0.727246 0.618363 0.868378
O O3 0.581971 0.637744 0.737298
O O4 0.609979 0.602318 0.026167
O O5 0.639700 0.201454 0.116839
O O6 0.577335 0.111471 0.272978
O O7 0.508323 0.244643 0.219385
O O8 0.500000 0.146556 0.000000
O O9 0.250000 0.750000 0.000000
O O10 0.327445 0.867653 0.127879
O O11 0.350293 0.118450 0.431069
O O12 0.212491 0.106857 0.281938
O O13 0.312966 0.000000 0.242111
O O14 0.076139 0.500000 0.455279
O O15 0.000000 0.622671 0.500000
O O16 0.393152 0.500000 0.760057
O O17 0.429761 0.370027 0.693750
O O18 0.500000 0.295201 0.500000
#
# Coordination Sequence:
#
# PCOD8111437 Si02
#       7
#     8   8   8   8   8   8   8
#     4  10  22  42  67  94 126 164 208 258 312 371
#     4  12  25  41  62  87 122 163 207 255 307 374
#     4  11  22  38  64  93 124 163 209 259 306 364
#     4   9  19  39  64  89 122 160 201 252 314 378
#     4  10  22  40  61  86 118 157 200 251 310 369
#     4   9  18  36  63  91 121 159 201 249 307 370
#     4  12  25  40  60  89 125 165 210 258 309 367
#
# _framework density 20.921963999999999
#
# number of rings (size 3 to 8) (size 9 to 14) (size 15 to 20)
#    0.000    1.571    0.000    6.857    0.000    6.000 
#    0.000    3.571    0.000    0.000    0.000    0.000 
#    0.000    0.000    0.000    0.000    0.000    0.000 
#
# Total GULP energy -347181.555704 kJ/mol
# GULP energy per Si atom -12399.341275 kJ/mol
# Density = 2.087434 g / cm^3
# Si number density = 20.921964 Si / 1000 Ang^3
#
#
#
# Elastic Constant Matrix: (Units=GPa)
#
#
# Indices 1 2 3 4 5 6 
#
# 1 93.1550 31.0375 57.7978 0.0000 8.6023 0.0000
# 2 31.0375 37.0481 31.8295 0.0000 9.3458 0.0000
# 3 57.7978 31.8295 142.4949 0.0000 21.0040 0.0000
# 4 0.0000 0.0000 0.0000 32.4840 0.0000 -4.3387
# 5 8.6023 9.3458 21.0040 0.0000 35.1566 0.0000
# 6 0.0000 0.0000 0.0000 -4.3387 0.0000 33.5928
#
#
#
# Elastic Compliance Matrix: (Units=1/GPa)
#
#
# Indices 1 2 3 4 5 6 
#
# 1 0.017095 -0.010583 -0.004790 0.000000 0.001492 0.000000
# 2 -0.010583 0.040724 -0.003937 0.000000 -0.005884 0.000000
# 3 -0.004790 -0.003937 0.010432 0.000000 -0.004014 0.000000
# 4 0.000000 0.000000 0.000000 0.031325 0.000000 0.004046
# 5 0.001492 -0.005884 -0.004014 0.000000 0.032041 0.000000
# 6 0.000000 0.000000 0.000000 0.004046 0.000000 0.030291
#
#
# Mechanical properties :
#
#
# Convention : Reuss Voigt Hill
#
# Bulk Modulus (GPa) = 33.74728 57.11417 45.43072
# Shear Modulus (GPa) = 23.76383 30.38225 27.07304
#
# Velocity S-wave (km/s) = 3.37387 3.81487 3.60112
# Velocity P-wave (km/s) = 5.59843 6.83829 6.24918
#
# Compressibility (1/GPa) = 0.02963202
#
# Stress axis : x y z
#
# Youngs Moduli (GPa) = 58.49722 24.55535 95.86172
#
# Poissons Ratio (x) = 0.25986 0.45917
# Poissons Ratio (y) = 0.61905 0.37740
# Poissons Ratio (z) = 0.28020 0.09667
#
# Static dielectric constant tensor:
#      x y z
#    x 3.712830 0.000000 0.833510 
#    y 0.000000 3.800100 0.000000 
#    z 0.833510 0.000000 2.363870 
# 
# 
# High freq. dielectric constant tensor:
#      x y z
#    x 1.827310 0.000000 0.013230 
#    y 0.000000 1.822850 0.000000 
#    z 0.013230 0.000000 1.811330 
# 
# From -- ./inp_files/75999.got.cif
#   From: 2010.06.25/outbox.cif.g09.slc.cpg/sg12_38_cif.got.tgz:75999.got - 2010.06.28 00:19:55.
