data_PCOD8111813
_publ_section_title
;
Structure prediction by ZEFSAII (Michael W. Deem and Ramdas Pophale) SiO2 
 PCOD8111813
Probable space group: C 2/M
;
_chemical_formula_sum "Si O2"
_cell_formula_units_Z 64
_cell_length_a 15.220148
_cell_length_b 8.864916
_cell_length_c 23.886035
_cell_angle_alpha 90.000000
_cell_angle_beta 83.272987
_cell_angle_gamma 90.000000
_cell_volume 3200.643763
_symmetry_space_group_name_H-M "C 2/M"
_symmetry_group_IT_number 12
_symmetry_cell_setting 'monoclinic'
loop_
_space_group_symop_operation_xyz
x,y,z
-x,y,-z
-x,-y,-z
x,-y,z
1/2+x,1/2+y,z
1/2-x,1/2+y,-z
1/2-x,1/2-y,-z
1/2+x,1/2-y,z
loop_
_atom_site_type_symbol
_atom_site_label
_atom_site_fract_x
_atom_site_fract_y
_atom_site_fract_z
Si Si1 0.626837 0.178803 0.317325
Si Si2 0.053402 0.822678 0.670313
Si Si3 0.213881 0.678473 0.059246
Si Si4 0.800687 0.323886 0.264902
Si Si5 0.635798 0.324347 0.549590
Si Si6 0.516920 0.821446 0.060437
Si Si7 0.667690 0.177325 0.438514
Si Si8 0.343546 0.824539 0.134552
O O1 0.532025 0.232814 0.301123
O O2 0.701416 0.260562 0.275271
O O3 0.633432 0.233757 0.381113
O O4 0.636893 0.000000 0.309890
O O5 0.139583 0.768200 0.696516
O O6 0.066091 0.785622 0.603482
O O7 0.041380 0.000000 0.681277
O O8 0.220975 0.500000 0.052906
O O9 0.112362 0.731606 0.075796
O O10 0.267458 0.732760 0.108988
O O11 0.250000 0.750000 0.000000
O O12 0.802109 0.500000 0.280154
O O13 0.837546 0.293637 0.200534
O O14 0.639741 0.500000 0.537237
O O15 0.608224 0.245002 0.493352
O O16 0.731750 0.265002 0.562410
O O17 0.439687 0.764676 0.107639
O O18 0.514414 0.000000 0.056970
O O19 0.500000 0.752583 0.000000
O O20 0.660974 0.000000 0.442475
O O21 0.330830 0.000000 0.120775
#
# Coordination Sequence:
#
# PCOD8111813 Si02
#       8
#     8   8   8   8   8   8   8   8
#     4  11  23  41  63  88 121 161 207 254 305 368
#     4  11  23  41  63  89 122 159 205 255 307 368
#     4  11  21  35  60  91 122 160 199 238 292 349
#     4  11  24  42  64  89 120 161 206 256 312 363
#     4   9  18  34  56  84 117 154 193 246 308 365
#     4   9  17  34  60  85 117 159 191 226 284 349
#     4   9  18  34  56  84 116 154 196 246 304 364
#     4  10  22  41  62  88 120 154 199 248 294 356
#
# _framework density 19.995978999999998
#
# number of rings (size 3 to 8) (size 9 to 14) (size 15 to 20)
#    0.000    1.875    2.500    1.500    0.000    4.500 
#    0.000    5.625    0.000    0.000    0.000    0.000 
#    0.000    0.000    0.000    0.000    0.000    0.000 
#
# Total GULP energy -396861.443726 kJ/mol
# GULP energy per Si atom -12401.920116 kJ/mol
# Density = 1.995047 g / cm^3
# Si number density = 19.995979 Si / 1000 Ang^3
#
#
#
# Elastic Constant Matrix: (Units=GPa)
#
#
# Indices 1 2 3 4 5 6 
#
# 1 123.4415 30.6826 34.2939 0.0000 -19.8812 0.0000
# 2 30.6826 58.4709 38.8642 0.0000 -8.0198 0.0000
# 3 34.2939 38.8642 82.9168 0.0000 -19.2315 0.0000
# 4 0.0000 0.0000 0.0000 30.2867 0.0000 2.3239
# 5 -19.8812 -8.0198 -19.2315 0.0000 26.4022 0.0000
# 6 0.0000 0.0000 0.0000 2.3239 0.0000 31.2718
#
#
#
# Elastic Compliance Matrix: (Units=1/GPa)
#
#
# Indices 1 2 3 4 5 6 
#
# 1 0.010302 -0.003881 -0.001102 0.000000 0.005776 0.000000
# 2 -0.003881 0.026332 -0.011503 0.000000 -0.003303 0.000000
# 3 -0.001102 -0.011503 0.020341 0.000000 0.010493 0.000000
# 4 0.000000 0.000000 0.000000 0.033207 0.000000 -0.002468
# 5 0.005776 -0.003303 0.010493 0.000000 0.048865 0.000000
# 6 0.000000 0.000000 0.000000 -0.002468 0.000000 0.032161
#
#
# Mechanical properties :
#
#
# Convention : Reuss Voigt Hill
#
# Bulk Modulus (GPa) = 41.66173 52.50117 47.08145
# Shear Modulus (GPa) = 23.56468 28.32471 25.94470
#
# Velocity S-wave (km/s) = 3.43661 3.76775 3.60598
# Velocity P-wave (km/s) = 6.05205 6.72613 6.39797
#
# Compressibility (1/GPa) = 0.02400284
#
# Stress axis : x y z
#
# Youngs Moduli (GPa) = 97.06692 37.97670 49.16104
#
# Poissons Ratio (x) = 0.14740 0.05418
# Poissons Ratio (y) = 0.37675 0.56550
# Poissons Ratio (z) = 0.10697 0.43684
#
# Static dielectric constant tensor:
#      x y z
#    x 3.805000 0.000000 -0.084330 
#    y 0.000000 3.468710 0.000000 
#    z -0.084330 0.000000 3.662970 
# 
# 
# High freq. dielectric constant tensor:
#      x y z
#    x 1.787390 0.000000 -0.005850 
#    y 0.000000 1.767640 0.000000 
#    z -0.005850 0.000000 1.777400 
# 
# From -- ./inp_files/338682.got.cif
#   From: 2010.06.25/outbox.cif.g09.slc.cpg/sg12_170_cif.got.tgz:338682.got - 2010.06.28 00:19:55.
