data_PCOD8111260
_publ_section_title
;
Structure prediction by ZEFSAII (Michael W. Deem and Ramdas Pophale) SiO2 
 PCOD8111260
Probable space group: C 2/M
;
_chemical_formula_sum "Si O2"
_cell_formula_units_Z 64
_cell_length_a 8.539055
_cell_length_b 20.635122
_cell_length_c 21.283824
_cell_angle_alpha 90.000000
_cell_angle_beta 57.290004
_cell_angle_gamma 90.000000
_cell_volume 3155.568003
_symmetry_space_group_name_H-M "C 2/M"
_symmetry_group_IT_number 12
_symmetry_cell_setting 'monoclinic'
loop_
_space_group_symop_operation_xyz
x,y,z
-x,y,-z
-x,-y,-z
x,-y,z
1/2+x,1/2+y,z
1/2-x,1/2+y,-z
1/2-x,1/2-y,-z
1/2+x,1/2-y,z
loop_
_atom_site_type_symbol
_atom_site_label
_atom_site_fract_x
_atom_site_fract_y
_atom_site_fract_z
Si Si1 0.410022 0.427770 0.712728
Si Si2 0.659352 0.691785 0.701665
Si Si3 0.910408 0.928160 0.084145
Si Si4 0.507069 0.115159 0.182907
Si Si5 0.434406 0.801367 0.081419
Si Si6 0.462064 0.823466 0.326145
Si Si7 0.976289 0.813298 0.863689
Si Si8 0.652665 0.573438 0.415253
O O1 0.471940 0.500000 0.721873
O O2 0.533964 0.372168 0.717612
O O3 0.444799 0.420799 0.631133
O O4 0.189733 0.421766 0.775388
O O5 0.617959 0.750030 0.662145
O O6 0.624318 0.714216 0.781210
O O7 0.878330 0.675479 0.654895
O O8 0.685086 0.931053 0.135213
O O9 0.988478 0.887342 0.125627
O O10 0.987019 0.000000 0.078591
O O11 0.000000 0.901311 0.000000
O O12 0.526045 0.161263 0.118976
O O13 0.532007 0.154358 0.242348
O O14 0.215030 0.806643 0.131768
O O15 0.504084 0.727593 0.076148
O O16 0.500000 0.828353 0.000000
O O17 0.313659 0.873558 0.386248
O O18 0.500000 0.590337 0.500000
O O19 0.731963 0.500000 0.407374
#
# Coordination Sequence:
#
# PCOD8111260 Si02
#       8
#     8   8   8   8   8   8   8   8
#     4  10  22  39  63  91 121 160 204 250 298 362
#     4  12  22  40  61  91 124 160 207 257 302 353
#     4  11  24  40  56  79 115 156 201 256 314 374
#     4  11  20  40  60  83 115 153 205 251 314 369
#     4  12  23  36  59  85 112 149 202 261 317 371
#     4  11  22  38  65  91 124 162 204 249 300 360
#     4  12  22  39  56  82 115 153 199 256 313 360
#     4   9  20  42  70 100 133 165 196 236 292 357
#
# _framework density 20.281610000000001
#
# number of rings (size 3 to 8) (size 9 to 14) (size 15 to 20)
#    0.000    1.000    3.750    4.875    0.000    1.500 
#    0.000    3.125    0.000    4.875    0.000    0.000 
#    0.000    0.000    0.000    0.000    0.000    0.000 
#
# Total GULP energy -396708.655379 kJ/mol
# GULP energy per Si atom -12397.145481 kJ/mol
# Density = 2.023545 g / cm^3
# Si number density = 20.281610 Si / 1000 Ang^3
#
#
#
# Elastic Constant Matrix: (Units=GPa)
#
#
# Indices 1 2 3 4 5 6 
#
# 1 100.8491 45.3956 13.7698 0.0000 -7.9878 0.0000
# 2 45.3956 117.8622 25.0545 0.0000 -9.2380 0.0000
# 3 13.7698 25.0545 96.5341 0.0000 -8.2284 0.0000
# 4 0.0000 0.0000 0.0000 23.6879 0.0000 0.6206
# 5 -7.9878 -9.2380 -8.2284 0.0000 17.4694 0.0000
# 6 0.0000 0.0000 0.0000 0.6206 0.0000 31.0364
#
#
#
# Elastic Compliance Matrix: (Units=1/GPa)
#
#
# Indices 1 2 3 4 5 6 
#
# 1 0.012177 -0.004376 -0.000337 0.000000 0.003095 0.000000
# 2 -0.004376 0.010802 -0.001941 0.000000 0.002797 0.000000
# 3 -0.000337 -0.001941 0.011262 0.000000 0.004124 0.000000
# 4 0.000000 0.000000 0.000000 0.042238 0.000000 -0.000845
# 5 0.003095 0.002797 0.004124 0.000000 0.062080 0.000000
# 6 0.000000 0.000000 0.000000 -0.000845 0.000000 0.032237
#
#
# Mechanical properties :
#
#
# Convention : Reuss Voigt Hill
#
# Bulk Modulus (GPa) = 47.77198 53.74279 50.75738
# Shear Modulus (GPa) = 26.16695 29.84045 28.00370
#
# Velocity S-wave (km/s) = 3.59581 3.83992 3.71987
# Velocity P-wave (km/s) = 6.39103 6.79822 6.59777
#
# Compressibility (1/GPa) = 0.02093277
#
# Stress axis : x y z
#
# Youngs Moduli (GPa) = 82.12459 92.57886 88.79077
#
# Poissons Ratio (x) = 0.40509 0.02996
# Poissons Ratio (y) = 0.35935 0.17233
# Poissons Ratio (z) = 0.02771 0.17968
#
# Static dielectric constant tensor:
#      x y z
#    x 3.610570 0.000000 -0.040920 
#    y 0.000000 3.699980 0.000000 
#    z -0.040920 0.000000 3.569090 
# 
# 
# High freq. dielectric constant tensor:
#      x y z
#    x 1.790690 0.000000 -0.002360 
#    y 0.000000 1.797130 0.000000 
#    z -0.002360 0.000000 1.777500 
# 
# From -- ./inp_files/301692.got.cif
#   From: 2010.06.25/outbox.cif.g09.slc.cpg/sg12_151_cif.got.tgz:301692.got - 2010.06.28 00:19:55.
