data_PCOD8111792
_publ_section_title
;
Structure prediction by ZEFSAII (Michael W. Deem and Ramdas Pophale) SiO2 
 PCOD8111792
Probable space group: C 2/M
;
_chemical_formula_sum "Si O2"
_cell_formula_units_Z 48
_cell_length_a 8.487157
_cell_length_b 18.634423
_cell_length_c 16.680091
_cell_angle_alpha 90.000000
_cell_angle_beta 55.658507
_cell_angle_gamma 90.000000
_cell_volume 2178.179242
_symmetry_space_group_name_H-M "C 2/M"
_symmetry_group_IT_number 12
_symmetry_cell_setting 'monoclinic'
loop_
_space_group_symop_operation_xyz
x,y,z
-x,y,-z
-x,-y,-z
x,-y,z
1/2+x,1/2+y,z
1/2-x,1/2+y,-z
1/2-x,1/2-y,-z
1/2+x,1/2-y,z
loop_
_atom_site_type_symbol
_atom_site_label
_atom_site_fract_x
_atom_site_fract_y
_atom_site_fract_z
Si Si1 0.279662 0.198892 0.241161
Si Si2 0.012177 0.919001 0.654517
Si Si3 0.283981 0.811154 0.057104
Si Si4 0.664519 0.170589 0.517435
Si Si5 0.413839 0.167788 0.730835
Si Si6 0.552064 0.580906 0.829517
O O1 0.263149 0.219477 0.152291
O O2 0.495002 0.197307 0.211909
O O3 0.171882 0.269894 0.304090
O O4 0.183998 0.124877 0.295163
O O5 0.170010 0.884664 0.552841
O O6 0.078972 0.916633 0.726868
O O7 0.971668 0.000000 0.637969
O O8 0.129703 0.874157 0.086423
O O9 0.500000 0.842940 0.000000
O O10 0.250000 0.750000 0.000000
O O11 0.500000 0.167562 0.500000
O O12 0.750000 0.250000 0.500000
O O13 0.585859 0.139474 0.625159
O O14 0.252564 0.111629 0.805019
O O15 0.524203 0.500000 0.869185
#
# Coordination Sequence:
#
# PCOD8111792 Si02
#       6
#     8   8   8   8   8   8
#     4  11  23  40  65  95 128 170 215 276 330 395
#     4  10  22  41  61  90 132 179 224 272 328 383
#     4  11  23  42  71 101 128 164 218 271 335 403
#     4  12  23  37  61  94 130 175 230 278 314 374
#     4  12  22  38  65  94 132 175 223 267 326 385
#     4  10  23  43  66  97 135 175 220 272 333 400
#
# _framework density 22.036753000000001
#
# number of rings (size 3 to 8) (size 9 to 14) (size 15 to 20)
#    0.000    1.000    3.333    5.000    0.000    2.000 
#    0.000    0.833    0.000   11.500    0.000    0.000 
#    0.000    0.000    0.000    0.000    0.000    0.000 
#
# Total GULP energy -297464.026214 kJ/mol
# GULP energy per Si atom -12394.334426 kJ/mol
# Density = 2.198660 g / cm^3
# Si number density = 22.036753 Si / 1000 Ang^3
#
#
#
# Elastic Constant Matrix: (Units=GPa)
#
#
# Indices 1 2 3 4 5 6 
#
# 1 144.7165 63.9183 50.6053 0.0000 -17.8504 0.0000
# 2 63.9183 170.7591 58.2998 0.0000 -18.7123 0.0000
# 3 50.6053 58.2998 104.4290 0.0000 -21.6790 0.0000
# 4 0.0000 0.0000 0.0000 34.8827 0.0000 -8.2716
# 5 -17.8504 -18.7123 -21.6790 0.0000 36.0902 0.0000
# 6 0.0000 0.0000 0.0000 -8.2716 0.0000 30.3326
#
#
#
# Elastic Compliance Matrix: (Units=1/GPa)
#
#
# Indices 1 2 3 4 5 6 
#
# 1 0.009093 -0.002268 -0.002800 0.000000 0.001640 0.000000
# 2 -0.002268 0.007874 -0.003064 0.000000 0.001120 0.000000
# 3 -0.002800 -0.003064 0.013739 0.000000 0.005279 0.000000
# 4 0.000000 0.000000 0.000000 0.030649 0.000000 0.008358
# 5 0.001640 0.001120 0.005279 0.000000 0.032272 0.000000
# 6 0.000000 0.000000 0.000000 0.008358 0.000000 0.035247
#
#
# Mechanical properties :
#
#
# Convention : Reuss Voigt Hill
#
# Bulk Modulus (GPa) = 69.24156 85.06126 77.15141
# Shear Modulus (GPa) = 33.34375 36.73317 35.03846
#
# Velocity S-wave (km/s) = 3.89407 4.08720 3.99181
# Velocity P-wave (km/s) = 7.19080 7.80751 7.50549
#
# Compressibility (1/GPa) = 0.01444219
#
# Stress axis : x y z
#
# Youngs Moduli (GPa) = 109.97266 126.99789 72.78369
#
# Poissons Ratio (x) = 0.28805 0.20378
# Poissons Ratio (y) = 0.24944 0.22303
# Poissons Ratio (z) = 0.30790 0.38915
#
# Static dielectric constant tensor:
#      x y z
#    x 3.914540 0.000000 0.065440 
#    y 0.000000 3.908380 0.000000 
#    z 0.065440 0.000000 3.788680 
# 
# 
# High freq. dielectric constant tensor:
#      x y z
#    x 1.879190 0.000000 -0.011590 
#    y 0.000000 1.848650 0.000000 
#    z -0.011590 0.000000 1.871420 
# 
# From -- ./inp_files/256453.got.cif
#   From: 2010.06.25/outbox.cif.g09.slc.cpg/sg12_129_cif.got.tgz:256453.got - 2010.06.28 00:19:55.
