data_PCOD8111132
_publ_section_title
;
Structure prediction by ZEFSAII (Michael W. Deem and Ramdas Pophale) SiO2 
 PCOD8111132
Probable space group: C 2/M
;
_chemical_formula_sum "Si O2"
_cell_formula_units_Z 64
_cell_length_a 9.927015
_cell_length_b 13.851597
_cell_length_c 25.388840
_cell_angle_alpha 90.000000
_cell_angle_beta 78.058161
_cell_angle_gamma 90.000000
_cell_volume 3415.539017
_symmetry_space_group_name_H-M "C 2/M"
_symmetry_group_IT_number 12
_symmetry_cell_setting 'monoclinic'
loop_
_space_group_symop_operation_xyz
x,y,z
-x,y,-z
-x,-y,-z
x,-y,z
1/2+x,1/2+y,z
1/2-x,1/2+y,-z
1/2-x,1/2-y,-z
1/2+x,1/2-y,z
loop_
_atom_site_type_symbol
_atom_site_label
_atom_site_fract_x
_atom_site_fract_y
_atom_site_fract_z
Si Si1 0.897458 0.731844 0.463649
Si Si2 0.273165 0.743308 0.216183
Si Si3 0.524041 0.612010 0.382455
Si Si4 0.653592 0.112240 0.633604
Si Si5 0.789454 0.388295 0.872242
Si Si6 0.356603 0.744887 0.037827
Si Si7 0.984401 0.767699 0.287770
Si Si8 0.102805 0.387020 0.875363
O O1 0.750000 0.750000 0.500000
O O2 0.891773 0.650118 0.419671
O O3 0.000000 0.692614 0.500000
O O4 0.953830 0.833025 0.436615
O O5 0.230446 0.652814 0.184319
O O6 0.146495 0.769238 0.263782
O O7 0.401993 0.709778 0.241059
O O8 0.310186 0.836230 0.177715
O O9 0.489825 0.500000 0.391740
O O10 0.686214 0.633366 0.369873
O O11 0.456966 0.649607 0.333398
O O12 0.564559 0.164261 0.686034
O O13 0.618659 0.000000 0.640273
O O14 0.757440 0.500000 0.872640
O O15 0.679054 0.342023 0.920267
O O16 0.942455 0.365530 0.879694
O O17 0.357466 0.845031 0.070582
O O18 0.500000 0.720324 0.000000
O O19 0.250000 0.750000 0.000000
O O20 0.137802 0.500000 0.871550
#
# Coordination Sequence:
#
# PCOD8111132 Si02
#       8
#     8   8   8   8   8   8   8   8
#     4  11  22  39  61  88 120 155 192 243 298 345
#     4  11  22  39  61  88 120 155 192 243 296 344
#     4  10  22  39  61  89 118 154 200 242 286 350
#     4  10  22  39  61  89 118 153 199 242 287 352
#     4  10  22  39  60  89 120 152 197 245 289 345
#     4  11  22  39  61  88 120 155 192 241 295 344
#     4  11  22  39  61  88 120 155 192 241 297 345
#     4  10  22  39  62  89 116 155 202 239 284 355
#
# _framework density 18.737893
#
# number of rings (size 3 to 8) (size 9 to 14) (size 15 to 20)
#    0.000    1.500    5.000    0.000    0.000    4.000 
#    0.000    2.500    0.000    0.000    0.000    0.000 
#    0.000    0.000    0.000    0.000    0.000    0.000 
#
# Total GULP energy -396949.131955 kJ/mol
# GULP energy per Si atom -12404.660374 kJ/mol
# Density = 1.869524 g / cm^3
# Si number density = 18.737893 Si / 1000 Ang^3
#
#
#
# Elastic Constant Matrix: (Units=GPa)
#
#
# Indices 1 2 3 4 5 6 
#
# 1 99.5368 47.8948 42.5054 0.0000 3.6324 0.0000
# 2 47.8948 128.6487 51.6106 0.0000 0.6683 0.0000
# 3 42.5054 51.6106 104.7252 0.0000 6.4599 0.0000
# 4 0.0000 0.0000 0.0000 18.4049 0.0000 -0.3029
# 5 3.6324 0.6683 6.4599 0.0000 53.0799 0.0000
# 6 0.0000 0.0000 0.0000 -0.3029 0.0000 27.9479
#
#
#
# Elastic Compliance Matrix: (Units=1/GPa)
#
#
# Indices 1 2 3 4 5 6 
#
# 1 0.013298 -0.003482 -0.003655 0.000000 -0.000421 0.000000
# 2 -0.003482 0.010612 -0.003852 0.000000 0.000573 0.000000
# 3 -0.003655 -0.003852 0.013010 0.000000 -0.001285 0.000000
# 4 0.000000 0.000000 0.000000 0.054343 0.000000 0.000589
# 5 -0.000421 0.000573 -0.001285 0.000000 0.019017 0.000000
# 6 0.000000 0.000000 0.000000 0.000589 0.000000 0.035787
#
#
# Mechanical properties :
#
#
# Convention : Reuss Voigt Hill
#
# Bulk Modulus (GPa) = 66.92821 68.54803 67.73812
# Shear Modulus (GPa) = 28.89721 32.61319 30.75520
#
# Velocity S-wave (km/s) = 3.93132 4.17645 4.05574
# Velocity P-wave (km/s) = 7.51017 7.74073 7.62632
#
# Compressibility (1/GPa) = 0.01494138
#
# Stress axis : x y z
#
# Youngs Moduli (GPa) = 75.19659 94.23523 76.86468
#
# Poissons Ratio (x) = 0.32815 0.28097
# Poissons Ratio (y) = 0.26185 0.29606
# Poissons Ratio (z) = 0.27487 0.36296
#
# Static dielectric constant tensor:
#      x y z
#    x 3.523260 0.000000 0.048220 
#    y 0.000000 3.307220 0.000000 
#    z 0.048220 0.000000 3.730730 
# 
# 
# High freq. dielectric constant tensor:
#      x y z
#    x 1.735790 0.000000 0.002410 
#    y 0.000000 1.718600 0.000000 
#    z 0.002410 0.000000 1.746110 
# 
# From -- ./inp_files/356158.got.cif
#   From: 2010.06.25/outbox.cif.g09.slc.cpg/sg12_179_cif.got.tgz:356158.got - 2010.06.28 00:19:55.
