data_PCOD8111937
_publ_section_title
;
Structure prediction by ZEFSAII (Michael W. Deem and Ramdas Pophale) SiO2 
 PCOD8111937
Probable space group: C 2/M
;
_chemical_formula_sum "Si O2"
_cell_formula_units_Z 56
_cell_length_a 15.945706
_cell_length_b 8.824152
_cell_length_c 22.662660
_cell_angle_alpha 90.000000
_cell_angle_beta 121.733804
_cell_angle_gamma 90.000000
_cell_volume 2712.079481
_symmetry_space_group_name_H-M "C 2/M"
_symmetry_group_IT_number 12
_symmetry_cell_setting 'monoclinic'
loop_
_space_group_symop_operation_xyz
x,y,z
-x,y,-z
-x,-y,-z
x,-y,z
1/2+x,1/2+y,z
1/2-x,1/2+y,-z
1/2-x,1/2-y,-z
1/2+x,1/2-y,z
loop_
_atom_site_type_symbol
_atom_site_label
_atom_site_fract_x
_atom_site_fract_y
_atom_site_fract_z
Si Si1 0.807741 0.822394 0.294376
Si Si2 0.445766 0.678595 0.920631
Si Si3 0.780689 0.675509 0.166097
Si Si4 0.631545 0.675501 0.287075
Si Si5 0.520882 0.179147 0.573794
Si Si6 0.339670 0.324719 0.567203
Si Si7 0.464916 0.176270 0.162494
O O1 0.832375 0.771371 0.237245
O O2 0.696042 0.772981 0.265447
O O3 0.873119 0.737124 0.367128
O O4 0.824106 0.000000 0.307291
O O5 0.453024 0.500000 0.913257
O O6 0.331707 0.730569 0.885278
O O7 0.503358 0.757137 0.888507
O O8 0.500000 0.730298 0.000000
O O9 0.782344 0.500000 0.185413
O O10 0.847760 0.701228 0.132233
O O11 0.635395 0.500000 0.270314
O O12 0.672615 0.699538 0.367834
O O13 0.521735 0.739140 0.237087
O O14 0.500000 0.235905 0.500000
O O15 0.441117 0.247626 0.587832
O O16 0.517033 0.000000 0.576272
O O17 0.343091 0.500000 0.551414
O O18 0.250000 0.250000 0.500000
O O19 0.491816 0.000000 0.173702
#
# Coordination Sequence:
#
# PCOD8111937 Si02
#       7
#     8   8   8   8   8   8   8
#     4  12  24  38  62  93 122 159 209 261 315 376
#     4  10  22  42  67  94 129 175 217 259 319 386
#     4  10  22  41  64  92 131 171 210 261 320 380
#     4  11  23  40  61  87 122 163 205 257 319 378
#     4  11  24  41  60  84 118 161 206 256 318 380
#     4  11  24  40  60  87 119 159 208 260 318 381
#     4  11  23  39  63  96 127 165 215 265 317 374
#
# _framework density 20.648361999999999
#
# number of rings (size 3 to 8) (size 9 to 14) (size 15 to 20)
#    0.000    1.143    1.429    4.714    0.000   11.143 
#    0.000    0.000    0.000    0.000    0.000    0.000 
#    0.000    0.000    0.000    0.000    0.000    0.000 
#
# Total GULP energy -347293.599890 kJ/mol
# GULP energy per Si atom -12403.342853 kJ/mol
# Density = 2.060137 g / cm^3
# Si number density = 20.648362 Si / 1000 Ang^3
#
#
#
# Elastic Constant Matrix: (Units=GPa)
#
#
# Indices 1 2 3 4 5 6 
#
# 1 133.1957 40.5686 47.6659 0.0000 -2.6533 0.0000
# 2 40.5686 85.2760 50.1334 0.0000 -11.0001 0.0000
# 3 47.6659 50.1334 132.8357 0.0000 -0.4209 0.0000
# 4 0.0000 0.0000 0.0000 28.4746 0.0000 -1.7526
# 5 -2.6533 -11.0001 -0.4209 0.0000 24.0627 0.0000
# 6 0.0000 0.0000 0.0000 -1.7526 0.0000 33.7959
#
#
#
# Elastic Compliance Matrix: (Units=1/GPa)
#
#
# Indices 1 2 3 4 5 6 
#
# 1 0.009230 -0.003221 -0.002098 0.000000 -0.000491 0.000000
# 2 -0.003221 0.017392 -0.005384 0.000000 0.007501 0.000000
# 3 -0.002098 -0.005384 0.010305 0.000000 -0.002512 0.000000
# 4 0.000000 0.000000 0.000000 0.035231 0.000000 0.001827
# 5 -0.000491 0.007501 -0.002512 0.000000 0.044889 0.000000
# 6 0.000000 0.000000 0.000000 0.001827 0.000000 0.029684
#
#
# Mechanical properties :
#
#
# Convention : Reuss Voigt Hill
#
# Bulk Modulus (GPa) = 64.43124 69.78258 67.10691
# Shear Modulus (GPa) = 28.84980 31.46260 30.15620
#
# Velocity S-wave (km/s) = 3.74196 3.90774 3.82575
# Velocity P-wave (km/s) = 7.06693 7.36408 7.21703
#
# Compressibility (1/GPa) = 0.01552042
#
# Stress axis : x y z
#
# Youngs Moduli (GPa) = 108.34528 57.49773 97.04005
#
# Poissons Ratio (x) = 0.18520 0.20358
# Poissons Ratio (y) = 0.34897 0.52250
# Poissons Ratio (z) = 0.22730 0.30959
#
# Static dielectric constant tensor:
#      x y z
#    x 3.884720 0.000000 0.071750 
#    y 0.000000 3.736720 0.000000 
#    z 0.071750 0.000000 3.770610 
# 
# 
# High freq. dielectric constant tensor:
#      x y z
#    x 1.821040 0.000000 0.002310 
#    y 0.000000 1.810900 0.000000 
#    z 0.002310 0.000000 1.807760 
# 
# From -- ./inp_files/338995.got.cif
#   From: 2010.06.25/outbox.cif.g09.slc.cpg/sg12_170_cif.got.tgz:338995.got - 2010.06.28 00:19:55.
