data_PCOD8111693
_publ_section_title
;
Structure prediction by ZEFSAII (Michael W. Deem and Ramdas Pophale) SiO2 
 PCOD8111693
Probable space group: C 2/M
;
_chemical_formula_sum "Si O2"
_cell_formula_units_Z 40
_cell_length_a 19.451313
_cell_length_b 14.717560
_cell_length_c 13.393646
_cell_angle_alpha 90.000000
_cell_angle_beta 28.728895
_cell_angle_gamma 90.000000
_cell_volume 1843.006086
_symmetry_space_group_name_H-M "C 2/M"
_symmetry_group_IT_number 12
_symmetry_cell_setting 'monoclinic'
loop_
_space_group_symop_operation_xyz
x,y,z
-x,y,-z
-x,-y,-z
x,-y,z
1/2+x,1/2+y,z
1/2-x,1/2+y,-z
1/2-x,1/2-y,-z
1/2+x,1/2-y,z
loop_
_atom_site_type_symbol
_atom_site_label
_atom_site_fract_x
_atom_site_fract_y
_atom_site_fract_z
Si Si1 0.846771 0.893783 0.644273
Si Si2 0.655682 0.824620 0.064619
Si Si3 0.855233 0.398784 0.720735
Si Si4 0.559170 0.606305 0.026569
Si Si5 0.878601 0.790466 0.399919
O O1 0.723061 0.862588 0.877560
O O2 0.831827 0.828688 0.567032
O O3 0.000000 0.878755 0.500000
O O4 0.825114 0.000000 0.643528
O O5 0.750000 0.750000 0.000000
O O6 0.648732 0.905687 0.154342
O O7 0.495684 0.789190 0.252115
O O8 0.858122 0.500000 0.672336
O O9 0.000000 0.346537 0.500000
O O10 0.713548 0.348171 0.857138
O O11 0.581394 0.500000 0.986397
O O12 0.446064 0.623211 0.257664
O O13 0.500000 0.650499 0.000000
O O14 0.750000 0.750000 0.500000
#
# Coordination Sequence:
#
# PCOD8111693 Si02
#       5
#     8   8   8   8   8
#     4  11  24  47  74 100 135 185 232 276 340 416
#     4  12  24  40  68 100 131 168 225 280 331 387
#     4  10  22  40  65  96 129 166 214 270 328 394
#     4  10  22  42  65  91 128 173 217 262 325 401
#     4  12  28  42  66 100 138 175 221 278 338 395
#
# _framework density 21.703672999999998
#
# number of rings (size 3 to 8) (size 9 to 14) (size 15 to 20)
#    0.000    1.000    4.000    1.200    8.400    3.200 
#    0.000    4.000    0.000    0.000    0.000    0.000 
#    0.000    0.000    0.000    0.000    0.000    0.000 
#
# Total GULP energy -247908.181956 kJ/mol
# GULP energy per Si atom -12395.409098 kJ/mol
# Density = 2.165427 g / cm^3
# Si number density = 21.703673 Si / 1000 Ang^3
#
#
#
# Elastic Constant Matrix: (Units=GPa)
#
#
# Indices 1 2 3 4 5 6 
#
# 1 178.5283 44.2739 100.4978 0.0000 -7.5436 0.0000
# 2 44.2739 63.7237 38.1874 0.0000 -5.1816 0.0000
# 3 100.4978 38.1874 175.6602 0.0001 3.7964 -0.0001
# 4 0.0000 0.0000 0.0001 36.5011 0.0000 6.2267
# 5 -7.5436 -5.1816 3.7964 0.0000 52.1819 0.0000
# 6 0.0000 0.0000 -0.0001 6.2267 0.0000 32.7918
#
#
#
# Elastic Compliance Matrix: (Units=1/GPa)
#
#
# Indices 1 2 3 4 5 6 
#
# 1 0.009015 -0.003510 -0.004422 0.000000 0.001276 0.000000
# 2 -0.003510 0.019638 -0.002296 0.000000 0.001610 0.000000
# 3 -0.004422 -0.002296 0.008755 0.000000 -0.001504 0.000000
# 4 0.000000 0.000000 0.000000 0.028314 0.000000 -0.005376
# 5 0.001276 0.001610 -0.001504 0.000000 0.019618 0.000000
# 6 0.000000 0.000000 0.000000 -0.005376 0.000000 0.031516
#
#
# Mechanical properties :
#
#
# Convention : Reuss Voigt Hill
#
# Bulk Modulus (GPa) = 58.99113 87.09226 73.04169
# Shear Modulus (GPa) = 34.97450 39.95852 37.46651
#
# Velocity S-wave (km/s) = 4.01865 4.29545 4.15935
# Velocity P-wave (km/s) = 6.98369 8.05085 7.53619
#
# Compressibility (1/GPa) = 0.01695170
#
# Stress axis : x y z
#
# Youngs Moduli (GPa) = 110.92586 50.92177 114.22676
#
# Poissons Ratio (x) = 0.17871 0.50514
# Poissons Ratio (y) = 0.38930 0.26228
# Poissons Ratio (z) = 0.49054 0.11692
#
# Static dielectric constant tensor:
#      x y z
#    x 4.268870 0.000000 -0.050210 
#    y 0.000000 3.804690 0.000000 
#    z -0.050210 0.000000 4.265780 
# 
# 
# High freq. dielectric constant tensor:
#      x y z
#    x 1.856400 0.000000 0.002600 
#    y 0.000000 1.843890 0.000000 
#    z 0.002600 0.000000 1.865920 
# 
# From -- ./inp_files/98282.got.cif
#   From: 2010.06.25/outbox.cif.g09.slc.cpg/sg12_50_cif.got.tgz:98282.got - 2010.06.28 00:19:55.
