data_PCOD8111613
_publ_section_title
;
Structure prediction by ZEFSAII (Michael W. Deem and Ramdas Pophale) SiO2 
 PCOD8111613
Probable space group: C 2/M
;
_chemical_formula_sum "Si O2"
_cell_formula_units_Z 40
_cell_length_a 12.196633
_cell_length_b 15.933325
_cell_length_c 10.072771
_cell_angle_alpha 90.000000
_cell_angle_beta 67.701127
_cell_angle_gamma 90.000000
_cell_volume 1811.085780
_symmetry_space_group_name_H-M "C 2/M"
_symmetry_group_IT_number 12
_symmetry_cell_setting 'monoclinic'
loop_
_space_group_symop_operation_xyz
x,y,z
-x,y,-z
-x,-y,-z
x,-y,z
1/2+x,1/2+y,z
1/2-x,1/2+y,-z
1/2-x,1/2-y,-z
1/2+x,1/2-y,z
loop_
_atom_site_type_symbol
_atom_site_label
_atom_site_fract_x
_atom_site_fract_y
_atom_site_fract_z
Si Si1 0.003300 0.401456 0.146042
Si Si2 0.140870 0.900043 0.717669
Si Si3 0.284970 0.804769 0.857269
Si Si4 0.575441 0.338862 0.338391
Si Si5 0.720421 0.094373 0.601540
O O1 0.980725 0.500000 0.148715
O O2 0.897984 0.360089 0.285521
O O3 0.132239 0.383332 0.144393
O O4 0.000000 0.361786 0.000000
O O5 0.172416 0.846152 0.834336
O O6 0.230380 0.867831 0.559762
O O7 0.005172 0.878702 0.740902
O O8 0.150776 0.000000 0.737999
O O9 0.361775 0.746862 0.727737
O O10 0.250000 0.750000 0.000000
O O11 0.500000 0.315240 0.500000
O O12 0.677225 0.405015 0.333075
O O13 0.685190 0.000000 0.585328
#
# Coordination Sequence:
#
# PCOD8111613 Si02
#       5
#     8   8   8   8   8
#     4  10  22  40  64  89 125 170 214 260 320 387
#     4  10  23  44  68  94 129 170 219 265 317 388
#     4  12  27  40  61  92 132 168 214 274 324 377
#     4  10  23  39  66  96 131 168 208 262 323 387
#     4   9  19  39  68  97 125 165 213 263 316 385
#
# _framework density 22.086200999999999
#
# number of rings (size 3 to 8) (size 9 to 14) (size 15 to 20)
#    0.000    1.800    0.000    2.400    8.400    4.000 
#    0.000    7.000    0.000    0.000    0.000    0.000 
#    0.000    0.000    0.000    0.000    0.000    0.000 
#
# Total GULP energy -247893.594500 kJ/mol
# GULP energy per Si atom -12394.679725 kJ/mol
# Density = 2.203593 g / cm^3
# Si number density = 22.086201 Si / 1000 Ang^3
#
#
#
# Elastic Constant Matrix: (Units=GPa)
#
#
# Indices 1 2 3 4 5 6 
#
# 1 122.0557 27.2118 43.4238 0.0000 19.6815 0.0000
# 2 27.2118 61.7377 29.3677 0.0000 10.1127 0.0000
# 3 43.4238 29.3677 74.5140 0.0000 14.2858 0.0000
# 4 0.0000 0.0000 0.0000 29.1752 0.0000 4.5339
# 5 19.6815 10.1127 14.2858 0.0000 37.3993 0.0000
# 6 0.0000 0.0000 0.0000 4.5339 0.0000 33.6874
#
#
#
# Elastic Compliance Matrix: (Units=1/GPa)
#
#
# Indices 1 2 3 4 5 6 
#
# 1 0.010926 -0.001901 -0.004979 0.000000 -0.003334 0.000000
# 2 -0.001901 0.020499 -0.006582 0.000000 -0.002028 0.000000
# 3 -0.004979 -0.006582 0.019500 0.000000 -0.003049 0.000000
# 4 0.000000 0.000000 0.000000 0.035008 0.000000 -0.004712
# 5 -0.003334 -0.002028 -0.003049 0.000000 0.030206 0.000000
# 6 0.000000 0.000000 0.000000 -0.004712 0.000000 0.030319
#
#
# Mechanical properties :
#
#
# Convention : Reuss Voigt Hill
#
# Bulk Modulus (GPa) = 41.66557 50.92377 46.29467
# Shear Modulus (GPa) = 27.56615 30.60599 29.08607
#
# Velocity S-wave (km/s) = 3.53670 3.72661 3.63290
# Velocity P-wave (km/s) = 5.96520 6.45164 6.21318
#
# Compressibility (1/GPa) = 0.02400063
#
# Stress axis : x y z
#
# Youngs Moduli (GPa) = 91.52750 48.78321 51.28112
#
# Poissons Ratio (x) = 0.09275 0.25530
# Poissons Ratio (y) = 0.17403 0.33755
# Poissons Ratio (z) = 0.45567 0.32110
#
# Static dielectric constant tensor:
#      x y z
#    x 4.269800 0.000000 -0.090700 
#    y 0.000000 3.643780 0.000000 
#    z -0.090700 0.000000 4.205210 
# 
# 
# High freq. dielectric constant tensor:
#      x y z
#    x 1.874950 0.000000 -0.003110 
#    y 0.000000 1.854650 0.000000 
#    z -0.003110 0.000000 1.868760 
# 
# From -- ./inp_files/46957.got.cif
#   From: 2010.06.25/outbox.cif.g09.slc.cpg/sg12_24_cif.got.tgz:46957.got - 2010.06.28 00:19:55.
