data_PCOD8111278
_publ_section_title
;
Structure prediction by ZEFSAII (Michael W. Deem and Ramdas Pophale) SiO2 
 PCOD8111278
Probable space group: C 2/M
;
_chemical_formula_sum "Si O2"
_cell_formula_units_Z 40
_cell_length_a 9.296025
_cell_length_b 14.540865
_cell_length_c 15.543213
_cell_angle_alpha 90.000000
_cell_angle_beta 71.825837
_cell_angle_gamma 90.000000
_cell_volume 1996.197432
_symmetry_space_group_name_H-M "C 2/M"
_symmetry_group_IT_number 12
_symmetry_cell_setting 'monoclinic'
loop_
_space_group_symop_operation_xyz
x,y,z
-x,y,-z
-x,-y,-z
x,-y,z
1/2+x,1/2+y,z
1/2-x,1/2+y,-z
1/2-x,1/2-y,-z
1/2+x,1/2-y,z
loop_
_atom_site_type_symbol
_atom_site_label
_atom_site_fract_x
_atom_site_fract_y
_atom_site_fract_z
Si Si1 0.383446 0.000000 0.759989
Si Si2 0.716070 0.655299 0.894014
Si Si3 0.714335 0.000000 0.643895
Si Si4 0.306418 0.500000 0.360892
Si Si5 0.380632 0.342074 0.901885
Si Si6 0.171945 0.848738 0.500725
Si Si7 0.105859 0.000000 0.224055
O O1 0.322441 0.911301 0.820408
O O2 0.564381 0.000000 0.729479
O O3 0.350254 0.000000 0.663107
O O4 0.560771 0.672311 0.872065
O O5 0.804703 0.748843 0.888073
O O6 0.680421 0.617441 0.996239
O O7 0.728366 0.907365 0.585063
O O8 0.852130 0.000000 0.684181
O O9 0.325998 0.406568 0.411503
O O10 0.423935 0.500000 0.259346
O O11 0.332275 0.411815 0.836891
O O12 0.250000 0.750000 0.500000
O O13 0.000000 0.835739 0.500000
#
# Coordination Sequence:
#
# PCOD8111278 Si02
#       7
#     4   8   4   4   8   8   4
#     4  12  25  40  64  95 125 161 208 259 299 361
#     4  10  22  41  59  92 126 166 210 253 301 362
#     4  11  27  44  62  94 129 155 205 257 306 370
#     4  11  23  44  66  90 128 157 207 251 306 370
#     4  10  22  39  64  87 126 169 209 251 305 360
#     4  11  25  46  69  91 124 163 198 248 313 373
#     4  12  21  42  64  91 120 171 200 256 309 356
#
# _framework density 20.038098000000002
#
# number of rings (size 3 to 8) (size 9 to 14) (size 15 to 20)
#    0.000    1.200    4.000    1.200    5.600    5.600 
#    0.000    1.000    0.000    0.000    0.000    0.000 
#    0.000    0.000    0.000    0.000    0.000    0.000 
#
# Total GULP energy -247994.233866 kJ/mol
# GULP energy per Si atom -12399.711693 kJ/mol
# Density = 1.999249 g / cm^3
# Si number density = 20.038098 Si / 1000 Ang^3
#
#
#
# Elastic Constant Matrix: (Units=GPa)
#
#
# Indices 1 2 3 4 5 6 
#
# 1 77.0080 44.1385 35.7690 0.0000 -11.3822 0.0000
# 2 44.1385 135.1154 61.4848 0.0000 -0.4462 0.0000
# 3 35.7690 61.4848 103.9983 0.0000 -2.8914 0.0000
# 4 0.0000 0.0000 0.0000 40.0602 0.0000 13.2855
# 5 -11.3822 -0.4462 -2.8914 0.0000 40.9661 0.0000
# 6 0.0000 0.0000 0.0000 13.2855 0.0000 11.4950
#
#
#
# Elastic Compliance Matrix: (Units=1/GPa)
#
#
# Indices 1 2 3 4 5 6 
#
# 1 0.017680 -0.004175 -0.003484 0.000000 0.004621 0.000000
# 2 -0.004175 0.011115 -0.005174 0.000000 -0.001404 0.000000
# 3 -0.003484 -0.005174 0.013872 0.000000 -0.000045 0.000000
# 4 0.000000 0.000000 0.000000 0.040477 0.000000 -0.046782
# 5 0.004621 -0.001404 -0.000045 0.000000 0.025676 0.000000
# 6 0.000000 0.000000 0.000000 -0.046782 0.000000 0.141063
#
#
# Mechanical properties :
#
#
# Convention : Reuss Voigt Hill
#
# Bulk Modulus (GPa) = 58.82406 66.54516 62.68461
# Shear Modulus (GPa) = 17.77997 30.15289 23.96643
#
# Velocity S-wave (km/s) = 2.98200 3.88336 3.46214
# Velocity P-wave (km/s) = 6.42466 7.30676 6.87986
#
# Compressibility (1/GPa) = 0.01699985
#
# Stress axis : x y z
#
# Youngs Moduli (GPa) = 56.56159 89.96975 72.08900
#
# Poissons Ratio (x) = 0.37560 0.25117
# Poissons Ratio (y) = 0.23613 0.37302
# Poissons Ratio (z) = 0.19707 0.46554
#
# Static dielectric constant tensor:
#      x y z
#    x 3.628910 0.000000 0.039170 
#    y 0.000000 3.627490 0.000000 
#    z 0.039170 0.000000 3.734780 
# 
# 
# High freq. dielectric constant tensor:
#      x y z
#    x 1.789260 0.000000 0.002700 
#    y 0.000000 1.784340 0.000000 
#    z 0.002700 0.000000 1.793480 
# 
# From -- ./inp_files/194505.got.cif
#   From: 2010.06.25/outbox.cif.g09.slc.cpg/sg12_98_cif.got.tgz:194505.got - 2010.06.28 00:19:55.
