data_PCOD8111535
_publ_section_title
;
Structure prediction by ZEFSAII (Michael W. Deem and Ramdas Pophale) SiO2 
 PCOD8111535
Probable space group: C 2/M
;
_chemical_formula_sum "Si O2"
_cell_formula_units_Z 56
_cell_length_a 18.618728
_cell_length_b 8.782486
_cell_length_c 18.356665
_cell_angle_alpha 90.000000
_cell_angle_beta 67.710785
_cell_angle_gamma 90.000000
_cell_volume 2777.377805
_symmetry_space_group_name_H-M "C 2/M"
_symmetry_group_IT_number 12
_symmetry_cell_setting 'monoclinic'
loop_
_space_group_symop_operation_xyz
x,y,z
-x,y,-z
-x,-y,-z
x,-y,z
1/2+x,1/2+y,z
1/2-x,1/2+y,-z
1/2-x,1/2-y,-z
1/2+x,1/2-y,z
loop_
_atom_site_type_symbol
_atom_site_label
_atom_site_fract_x
_atom_site_fract_y
_atom_site_fract_z
Si Si1 0.445427 0.828350 0.959441
Si Si2 0.923264 0.180065 0.490188
Si Si3 0.035494 0.822147 0.202296
Si Si4 0.727312 0.171067 0.935088
Si Si5 0.116600 0.821572 0.655654
Si Si6 0.677461 0.179671 0.225214
Si Si7 0.777642 0.819836 0.639600
O O1 0.446230 0.727403 0.886873
O O2 0.471290 0.000000 0.927902
O O3 0.500000 0.755221 0.000000
O O4 0.364503 0.832581 0.032067
O O5 0.919400 0.231926 0.407661
O O6 0.844879 0.237683 0.559295
O O7 0.000000 0.250481 0.500000
O O8 0.928430 0.000000 0.493526
O O9 0.092606 0.739718 0.236612
O O10 0.946928 0.782949 0.257861
O O11 0.051252 0.000000 0.203763
O O12 0.758644 0.271608 0.857630
O O13 0.762119 0.000000 0.917293
O O14 0.750000 0.250000 0.000000
O O15 0.194524 0.729736 0.641136
O O16 0.136927 0.000000 0.646499
O O17 0.705706 0.244826 0.290088
O O18 0.674044 0.000000 0.230551
O O19 0.778418 0.000000 0.648516
#
# Coordination Sequence:
#
# PCOD8111535 Si02
#       7
#     8   8   8   8   8   8   8
#     4  10  23  41  61  87 121 160 201 250 306 360
#     4   9  18  37  65  92 123 161 203 249 300 361
#     4  11  23  40  63  90 120 159 207 254 305 368
#     4  11  22  39  63  91 122 160 202 254 308 362
#     4  10  22  40  62  92 128 163 200 250 307 364
#     4  12  25  41  62  88 123 163 205 258 309 361
#     4  11  23  39  63  93 123 163 206 250 304 364
#
# _framework density 20.162901999999999
#
# number of rings (size 3 to 8) (size 9 to 14) (size 15 to 20)
#    0.000    1.429    1.429    3.857    2.000    4.286 
#    0.000    0.714    0.000    3.000    0.000    0.000 
#    0.000    0.000    0.000    0.000    0.000    0.000 
#
# Total GULP energy -347251.629528 kJ/mol
# GULP energy per Si atom -12401.843912 kJ/mol
# Density = 2.011701 g / cm^3
# Si number density = 20.162902 Si / 1000 Ang^3
#
#
#
# Elastic Constant Matrix: (Units=GPa)
#
#
# Indices 1 2 3 4 5 6 
#
# 1 132.3724 54.6088 41.4372 0.0000 -0.3679 0.0000
# 2 54.6088 80.6790 36.8775 0.0000 -1.5753 0.0000
# 3 41.4372 36.8775 102.5712 0.0000 -7.4272 0.0000
# 4 0.0000 0.0000 0.0000 21.1287 0.0000 -2.7706
# 5 -0.3679 -1.5753 -7.4272 0.0000 40.1551 0.0000
# 6 0.0000 0.0000 0.0000 -2.7706 0.0000 30.1518
#
#
#
# Elastic Compliance Matrix: (Units=1/GPa)
#
#
# Indices 1 2 3 4 5 6 
#
# 1 0.010853 -0.006383 -0.002129 0.000000 -0.000545 0.000000
# 2 -0.006383 0.018594 -0.004113 0.000000 -0.000090 0.000000
# 3 -0.002129 -0.004113 0.012239 0.000000 0.002083 0.000000
# 4 0.000000 0.000000 0.000000 0.047906 0.000000 0.004402
# 5 -0.000545 -0.000090 0.002083 0.000000 0.025280 0.000000
# 6 0.000000 0.000000 0.000000 0.004402 0.000000 0.033570
#
#
# Mechanical properties :
#
#
# Convention : Reuss Voigt Hill
#
# Bulk Modulus (GPa) = 60.84419 64.60771 62.72595
# Shear Modulus (GPa) = 27.90654 30.46708 29.18681
#
# Velocity S-wave (km/s) = 3.72432 3.89144 3.80880
# Velocity P-wave (km/s) = 6.98111 7.23211 7.10772
#
# Compressibility (1/GPa) = 0.01643542
#
# Stress axis : x y z
#
# Youngs Moduli (GPa) = 92.14287 53.78191 81.70773
#
# Poissons Ratio (x) = 0.34331 0.17393
# Poissons Ratio (y) = 0.58819 0.33604
# Poissons Ratio (z) = 0.19615 0.22119
#
# Static dielectric constant tensor:
#      x y z
#    x 3.506870 0.000000 0.213010 
#    y 0.000000 3.613770 0.000000 
#    z 0.213010 0.000000 3.585920 
# 
# 
# High freq. dielectric constant tensor:
#      x y z
#    x 1.802450 0.000000 -0.002980 
#    y 0.000000 1.777070 0.000000 
#    z -0.002980 0.000000 1.799390 
# 
# From -- ./inp_files/275094.got.cif
#   From: 2010.06.25/outbox.cif.g09.slc.cpg/sg12_138_cif.got.tgz:275094.got - 2010.06.28 00:19:55.
