data_PCOD8111607
_publ_section_title
;
Structure prediction by ZEFSAII (Michael W. Deem and Ramdas Pophale) SiO2 
 PCOD8111607
Probable space group: C 2/M
;
_chemical_formula_sum "Si O2"
_cell_formula_units_Z 40
_cell_length_a 19.261625
_cell_length_b 22.175743
_cell_length_c 8.589996
_cell_angle_alpha 90.000000
_cell_angle_beta 149.041980
_cell_angle_gamma 90.000000
_cell_volume 1887.440990
_symmetry_space_group_name_H-M "C 2/M"
_symmetry_group_IT_number 12
_symmetry_cell_setting 'monoclinic'
loop_
_space_group_symop_operation_xyz
x,y,z
-x,y,-z
-x,-y,-z
x,-y,z
1/2+x,1/2+y,z
1/2-x,1/2+y,-z
1/2-x,1/2-y,-z
1/2+x,1/2-y,z
loop_
_atom_site_type_symbol
_atom_site_label
_atom_site_fract_x
_atom_site_fract_y
_atom_site_fract_z
Si Si1 0.257317 0.928309 0.848719
Si Si2 0.618203 0.739500 0.846992
Si Si3 0.021227 0.648175 0.860925
Si Si4 0.001417 0.068215 0.171719
Si Si5 0.756392 0.120808 0.839501
O O1 0.114585 0.904574 0.505277
O O2 0.263425 0.000000 0.886992
O O3 0.376077 0.907804 0.960379
O O4 0.282341 0.893239 0.057749
O O5 0.500000 0.727727 0.500000
O O6 0.582587 0.793245 0.895361
O O7 0.750000 0.750000 0.000000
O O8 0.648454 0.679380 0.003148
O O9 0.880014 0.627995 0.517356
O O10 0.000000 0.663638 0.000000
O O11 0.048822 0.000000 0.236629
O O12 0.000000 0.101176 0.000000
O O13 0.851541 0.067910 0.956697
#
# Coordination Sequence:
#
# PCOD8111607 Si02
#       5
#     8   8   8   8   8
#     4  11  23  42  68  96 128 172 219 263 316 384
#     4  12  23  45  68  93 128 166 212 267 317 380
#     4  12  27  44  63  96 132 168 215 267 327 385
#     4  10  22  40  63  97 134 167 211 265 320 378
#     4  12  24  41  69  92 129 169 217 268 318 383
#
# _framework density 21.192715
#
# number of rings (size 3 to 8) (size 9 to 14) (size 15 to 20)
#    0.000    0.600    4.000    4.200    0.000    6.000 
#    0.000    0.000    0.000    0.000    0.000    0.000 
#    0.000    0.000    0.000    0.000    0.000    0.000 
#
# Total GULP energy -248013.590318 kJ/mol
# GULP energy per Si atom -12400.679516 kJ/mol
# Density = 2.114448 g / cm^3
# Si number density = 21.192715 Si / 1000 Ang^3
#
#
#
# Elastic Constant Matrix: (Units=GPa)
#
#
# Indices 1 2 3 4 5 6 
#
# 1 127.0056 21.4271 67.1579 0.0000 -0.4001 0.0000
# 2 21.4271 74.5822 44.2800 0.0000 0.3691 0.0000
# 3 67.1579 44.2800 179.2166 0.0000 5.3364 0.0000
# 4 0.0000 0.0000 0.0000 24.5758 0.0000 10.8571
# 5 -0.4001 0.3691 5.3364 0.0000 39.5391 0.0000
# 6 0.0000 0.0000 0.0000 10.8571 0.0000 33.7390
#
#
#
# Elastic Compliance Matrix: (Units=1/GPa)
#
#
# Indices 1 2 3 4 5 6 
#
# 1 0.009868 -0.000741 -0.003532 0.000000 0.000584 0.000000
# 2 -0.000741 0.015774 -0.003630 0.000000 0.000335 0.000000
# 3 -0.003532 -0.003630 0.007832 0.000000 -0.001059 0.000000
# 4 0.000000 0.000000 0.000000 0.047434 0.000000 -0.015264
# 5 0.000584 0.000335 -0.001059 0.000000 0.025437 0.000000
# 6 0.000000 0.000000 0.000000 -0.015264 0.000000 0.034551
#
#
# Mechanical properties :
#
#
# Convention : Reuss Voigt Hill
#
# Bulk Modulus (GPa) = 56.59775 71.83716 64.21745
# Shear Modulus (GPa) = 30.75183 36.10006 33.42595
#
# Velocity S-wave (km/s) = 3.81341 4.13173 3.97575
# Velocity P-wave (km/s) = 6.79365 7.53208 7.17237
#
# Compressibility (1/GPa) = 0.01766855
#
# Stress axis : x y z
#
# Youngs Moduli (GPa) = 101.33465 63.39452 127.68374
#
# Poissons Ratio (x) = 0.04697 0.45101
# Poissons Ratio (y) = 0.07507 0.46346
# Poissons Ratio (z) = 0.35794 0.23011
#
# Static dielectric constant tensor:
#      x y z
#    x 3.896160 0.000000 -0.043070 
#    y 0.000000 2.411250 0.000000 
#    z -0.043070 0.000000 4.031120 
# 
# 
# High freq. dielectric constant tensor:
#      x y z
#    x 1.834560 0.000000 0.003940 
#    y 0.000000 1.828620 0.000000 
#    z 0.003940 0.000000 1.849870 
# 
# From -- ./inp_files/39244.got.cif
#   From: 2010.06.25/outbox.cif.g09.slc.cpg/sg12_20_cif.got.tgz:39244.got - 2010.06.28 00:19:55.
