data_PCOD8111750
_publ_section_title
;
Structure prediction by ZEFSAII (Michael W. Deem and Ramdas Pophale) SiO2 
 PCOD8111750
Probable space group: C 2/M
;
_chemical_formula_sum "Si O2"
_cell_formula_units_Z 52
_cell_length_a 19.422271
_cell_length_b 20.841748
_cell_length_c 11.026669
_cell_angle_alpha 90.000000
_cell_angle_beta 146.047017
_cell_angle_gamma 90.000000
_cell_volume 2492.937051
_symmetry_space_group_name_H-M "C 2/M"
_symmetry_group_IT_number 12
_symmetry_cell_setting 'monoclinic'
loop_
_space_group_symop_operation_xyz
x,y,z
-x,y,-z
-x,-y,-z
x,-y,z
1/2+x,1/2+y,z
1/2-x,1/2+y,-z
1/2-x,1/2-y,-z
1/2+x,1/2-y,z
loop_
_atom_site_type_symbol
_atom_site_label
_atom_site_fract_x
_atom_site_fract_y
_atom_site_fract_z
Si Si1 0.621755 0.637153 0.977661
Si Si2 0.435732 0.500000 0.213874
Si Si3 0.696248 0.500000 0.725382
Si Si4 0.058917 0.670790 0.236576
Si Si5 0.000000 0.211762 0.000000
Si Si6 0.887923 0.327155 0.410250
Si Si7 0.687084 0.877533 0.202649
Si Si8 0.060111 0.184101 0.473801
O O1 0.583646 0.563306 0.897183
O O2 0.547031 0.686411 0.782548
O O3 0.593772 0.662749 0.071699
O O4 0.766997 0.644773 0.169451
O O5 0.576033 0.500000 0.464699
O O6 0.340631 0.500000 0.187131
O O7 0.789232 0.443372 0.830049
O O8 0.111731 0.659033 0.446198
O O9 0.128374 0.618663 0.252261
O O10 0.078522 0.742593 0.208162
O O11 0.910725 0.661108 0.022892
O O12 0.897934 0.251217 0.408666
O O13 0.000000 0.360167 0.500000
O O14 0.819802 0.845474 0.409640
O O15 0.000000 0.143866 0.500000
#
# Coordination Sequence:
#
# PCOD8111750 Si02
#       8
#     8   4   4   8   4   8   8   8
#     4  12  25  43  67  99 138 179 227 279 337 404
#     4  11  26  43  64 103 134 181 236 268 340 392
#     4  11  22  43  71  96 126 179 233 296 317 383
#     4  10  23  43  65 103 137 177 219 275 351 416
#     4  10  22  43  70  95 138 176 218 282 336 400
#     4  11  26  40  66 100 140 177 217 276 356 411
#     4  10  22  40  69  94 131 171 230 280 328 393
#     4  11  23  38  68  99 130 172 222 284 337 400
#
# _framework density 20.858930999999998
#
# number of rings (size 3 to 8) (size 9 to 14) (size 15 to 20)
#    0.000    1.385    3.077    2.769    6.462    4.000 
#    0.000    1.923    0.000    0.000    0.000    0.000 
#    0.000    0.000    0.000    0.000    0.000    0.000 
#
# Total GULP energy -322184.864477 kJ/mol
# GULP energy per Si atom -12391.725557 kJ/mol
# Density = 2.081146 g / cm^3
# Si number density = 20.858931 Si / 1000 Ang^3
#
#
#
# Elastic Constant Matrix: (Units=GPa)
#
#
# Indices 1 2 3 4 5 6 
#
# 1 125.9120 38.6213 43.1859 0.0000 11.8614 0.0000
# 2 38.6213 97.2255 26.5624 0.0000 0.2382 0.0000
# 3 43.1859 26.5624 128.5925 0.0000 14.0711 0.0000
# 4 0.0000 0.0000 0.0000 22.6207 0.0000 2.3746
# 5 11.8614 0.2382 14.0711 0.0000 32.6489 0.0000
# 6 0.0000 0.0000 0.0000 2.3746 0.0000 28.7319
#
#
#
# Elastic Compliance Matrix: (Units=1/GPa)
#
#
# Indices 1 2 3 4 5 6 
#
# 1 0.010027 -0.003321 -0.002398 0.000000 -0.002585 0.000000
# 2 -0.003321 0.012028 -0.001565 0.000000 0.001794 0.000000
# 3 -0.002398 -0.001565 0.009245 0.000000 -0.003102 0.000000
# 4 0.000000 0.000000 0.000000 0.044594 0.000000 -0.003686
# 5 -0.002585 0.001794 -0.003102 0.000000 0.032892 0.000000
# 6 0.000000 0.000000 0.000000 -0.003686 0.000000 0.035109
#
#
# Mechanical properties :
#
#
# Convention : Reuss Voigt Hill
#
# Bulk Modulus (GPa) = 59.77576 63.16323 61.46950
# Shear Modulus (GPa) = 30.48005 33.02432 31.75219
#
# Velocity S-wave (km/s) = 3.82677 3.98329 3.90582
# Velocity P-wave (km/s) = 6.94586 7.17651 7.06213
#
# Compressibility (1/GPa) = 0.01672919
#
# Stress axis : x y z
#
# Youngs Moduli (GPa) = 99.73065 83.13918 108.16986
#
# Poissons Ratio (x) = 0.27614 0.25944
# Poissons Ratio (y) = 0.33125 0.16932
# Poissons Ratio (z) = 0.23920 0.13014
#
# Static dielectric constant tensor:
#      x y z
#    x 4.199850 0.000000 0.113410 
#    y 0.000000 3.750940 0.000000 
#    z 0.113410 0.000000 3.642350 
# 
# 
# High freq. dielectric constant tensor:
#      x y z
#    x 1.833370 0.000000 0.010220 
#    y 0.000000 1.791240 0.000000 
#    z 0.010220 0.000000 1.813440 
# 
# From -- ./inp_files/169896.got.cif
#   From: 2010.06.25/outbox.cif.g09.slc.cpg/sg12_85_cif.got.tgz:169896.got - 2010.06.28 00:19:55.
