data_PCOD8111449
_publ_section_title
;
Structure prediction by ZEFSAII (Michael W. Deem and Ramdas Pophale) SiO2 
 PCOD8111449
Probable space group: C 2/M
;
_chemical_formula_sum "Si O2"
_cell_formula_units_Z 32
_cell_length_a 9.818922
_cell_length_b 8.989862
_cell_length_c 18.023192
_cell_angle_alpha 90.000000
_cell_angle_beta 74.504690
_cell_angle_gamma 90.000000
_cell_volume 1533.094473
_symmetry_space_group_name_H-M "C 2/M"
_symmetry_group_IT_number 12
_symmetry_cell_setting 'monoclinic'
loop_
_space_group_symop_operation_xyz
x,y,z
-x,y,-z
-x,-y,-z
x,-y,z
1/2+x,1/2+y,z
1/2-x,1/2+y,-z
1/2-x,1/2-y,-z
1/2+x,1/2-y,z
loop_
_atom_site_type_symbol
_atom_site_label
_atom_site_fract_x
_atom_site_fract_y
_atom_site_fract_z
Si Si1 0.307960 0.671448 0.327198
Si Si2 0.164321 0.828236 0.076909
Si Si3 0.991445 0.328595 0.416720
Si Si4 0.610668 0.828545 0.833329
O O1 0.348373 0.500000 0.309615
O O2 0.140563 0.694046 0.354434
O O3 0.375042 0.727834 0.393955
O O4 0.372368 0.764738 0.250931
O O5 0.243734 0.807621 0.143574
O O6 0.010805 0.756027 0.104344
O O7 0.147101 0.000000 0.058504
O O8 0.250000 0.750000 0.000000
O O9 0.942854 0.500000 0.420731
O O10 0.000000 0.273615 0.500000
O O11 0.566596 0.000000 0.833204
#
# Coordination Sequence:
#
# PCOD8111449 Si02
#       4
#     8   8   8   8
#     4  11  23  38  60  89 118 154 199 244 295 352
#     4  11  24  41  63  91 121 156 198 243 294 351
#     4  10  22  40  61  87 120 157 197 243 296 353
#     4  11  24  41  61  87 120 157 198 244 294 350
#
# _framework density 20.872817999999999
#
# number of rings (size 3 to 8) (size 9 to 14) (size 15 to 20)
#    0.000    1.250    0.000    5.250    0.000   13.500 
#    0.000    0.000    0.000    0.000    0.000    0.000 
#    0.000    0.000    0.000    0.000    0.000    0.000 
#
# Total GULP energy -198540.580659 kJ/mol
# GULP energy per Si atom -12408.786291 kJ/mol
# Density = 2.082531 g / cm^3
# Si number density = 20.872818 Si / 1000 Ang^3
#
#
#
# Elastic Constant Matrix: (Units=GPa)
#
#
# Indices 1 2 3 4 5 6 
#
# 1 53.8772 36.8039 -8.7436 0.0000 3.5548 0.0000
# 2 36.8039 129.4429 31.4935 0.0000 3.7618 0.0000
# 3 -8.7436 31.4935 85.1225 0.0000 -0.8727 0.0000
# 4 0.0000 0.0000 0.0000 40.6940 0.0000 1.9361
# 5 3.5548 3.7618 -0.8727 0.0000 36.9128 0.0000
# 6 0.0000 0.0000 0.0000 1.9361 0.0000 33.1258
#
#
#
# Elastic Compliance Matrix: (Units=1/GPa)
#
#
# Indices 1 2 3 4 5 6 
#
# 1 0.025476 -0.008610 0.005788 0.000000 -0.001439 0.000000
# 2 -0.008610 0.011432 -0.005119 0.000000 -0.000457 0.000000
# 3 0.005788 -0.005119 0.014239 0.000000 0.000301 0.000000
# 4 0.000000 0.000000 0.000000 0.024642 0.000000 -0.001440
# 5 -0.001439 -0.000457 0.000301 0.000000 0.027283 0.000000
# 6 0.000000 0.000000 0.000000 -0.001440 0.000000 0.030272
#
#
# Mechanical properties :
#
#
# Convention : Reuss Voigt Hill
#
# Bulk Modulus (GPa) = 28.35618 43.06114 35.70866
# Shear Modulus (GPa) = 31.05930 36.07243 33.56586
#
# Velocity S-wave (km/s) = 3.86168 4.16167 4.01448
# Velocity P-wave (km/s) = 5.78776 6.61572 6.21554
#
# Compressibility (1/GPa) = 0.03526567
#
# Stress axis : x y z
#
# Youngs Moduli (GPa) = 39.25196 87.47304 70.22886
#
# Poissons Ratio (x) = 0.75313 -0.40646
# Poissons Ratio (y) = 0.33796 0.35948
# Poissons Ratio (z) = -0.22717 0.44775
#
# Static dielectric constant tensor:
#      x y z
#    x 3.938930 0.000000 -0.099020 
#    y 0.000000 3.876890 0.000000 
#    z -0.099020 0.000000 3.923400 
# 
# 
# High freq. dielectric constant tensor:
#      x y z
#    x 1.825330 0.000000 0.000800 
#    y 0.000000 1.826520 0.000000 
#    z 0.000800 0.000000 1.830040 
# 
# From -- ./inp_files/202047.got.cif
#   From: 2010.06.25/outbox.cif.g09.slc.cpg/sg12_102_cif.got.tgz:202047.got - 2010.06.28 00:19:55.
