data_PCOD8111962
_publ_section_title
;
Structure prediction by ZEFSAII (Michael W. Deem and Ramdas Pophale) SiO2 
 PCOD8111962
Probable space group: C 2/M
;
_chemical_formula_sum "Si O2"
_cell_formula_units_Z 48
_cell_length_a 20.381344
_cell_length_b 7.765996
_cell_length_c 14.189679
_cell_angle_alpha 90.000000
_cell_angle_beta 84.520123
_cell_angle_gamma 90.000000
_cell_volume 2235.698267
_symmetry_space_group_name_H-M "C 2/M"
_symmetry_group_IT_number 12
_symmetry_cell_setting 'monoclinic'
loop_
_space_group_symop_operation_xyz
x,y,z
-x,y,-z
-x,-y,-z
x,-y,z
1/2+x,1/2+y,z
1/2-x,1/2+y,-z
1/2-x,1/2-y,-z
1/2+x,1/2-y,z
loop_
_atom_site_type_symbol
_atom_site_label
_atom_site_fract_x
_atom_site_fract_y
_atom_site_fract_z
Si Si1 0.205240 0.197678 0.419097
Si Si2 0.480681 0.689590 0.216818
Si Si3 0.375004 0.204085 0.089923
Si Si4 0.604281 0.000000 0.444853
Si Si5 0.471140 0.000000 0.353780
Si Si6 0.614823 0.805080 0.124031
Si Si7 0.256800 0.302425 0.793499
O O1 0.250000 0.250000 0.500000
O O2 0.143557 0.324712 0.421444
O O3 0.248162 0.218838 0.318468
O O4 0.180563 0.000000 0.433073
O O5 0.467044 0.500000 0.261119
O O6 0.439824 0.713591 0.126461
O O7 0.457204 0.829631 0.295527
O O8 0.558068 0.697210 0.182600
O O9 0.310003 0.273192 0.152533
O O10 0.379523 0.000000 0.098037
O O11 0.371153 0.266497 0.982520
O O12 0.545786 0.000000 0.378277
O O13 0.580404 0.000000 0.555000
O O14 0.681194 0.801535 0.175580
O O15 0.588743 0.000000 0.121931
O O16 0.266502 0.500000 0.821977
#
# Coordination Sequence:
#
# PCOD8111962 Si02
#       7
#     8   8   8   4   4   8   8
#     4  11  24  42  70 102 132 172 224 273 333 407
#     4  12  25  42  70  97 131 180 226 274 331 398
#     4  10  22  41  64  96 136 179 223 278 329 388
#     4  11  26  46  72  98 134 179 213 284 348 385
#     4  11  26  48  69  96 138 172 225 280 333 406
#     4  11  22  39  65  95 136 180 224 271 331 400
#     4  10  23  40  64  96 135 175 221 277 334 399
#
# _framework density 21.469801
#
# number of rings (size 3 to 8) (size 9 to 14) (size 15 to 20)
#    0.000    1.167    2.500    2.500    3.500    6.667 
#    0.000    1.667    0.000    0.000    0.000    0.000 
#    0.000    0.000    0.000    0.000    0.000    0.000 
#
# Total GULP energy -297736.411404 kJ/mol
# GULP energy per Si atom -12405.683809 kJ/mol
# Density = 2.142094 g / cm^3
# Si number density = 21.469801 Si / 1000 Ang^3
#
#
#
# Elastic Constant Matrix: (Units=GPa)
#
#
# Indices 1 2 3 4 5 6 
#
# 1 67.3194 10.8299 12.2581 0.0000 -4.2233 0.0000
# 2 10.8299 121.3255 34.2013 0.0000 -4.2169 0.0000
# 3 12.2581 34.2013 108.7612 0.0000 9.4068 0.0000
# 4 0.0000 0.0000 0.0000 12.9911 0.0000 0.8902
# 5 -4.2233 -4.2169 9.4068 0.0000 29.1670 0.0000
# 6 0.0000 0.0000 0.0000 0.8902 0.0000 28.3868
#
#
#
# Elastic Compliance Matrix: (Units=1/GPa)
#
#
# Indices 1 2 3 4 5 6 
#
# 1 0.015465 -0.000802 -0.001723 0.000000 0.002679 0.000000
# 2 -0.000802 0.009237 -0.003003 0.000000 0.002188 0.000000
# 3 -0.001723 -0.003003 0.010690 0.000000 -0.004131 0.000000
# 4 0.000000 0.000000 0.000000 0.077141 0.000000 -0.002419
# 5 0.002679 0.002188 -0.004131 0.000000 0.036322 0.000000
# 6 0.000000 0.000000 0.000000 -0.002419 0.000000 0.035303
#
#
# Mechanical properties :
#
#
# Convention : Reuss Voigt Hill
#
# Bulk Modulus (GPa) = 41.09033 45.77608 43.43321
# Shear Modulus (GPa) = 24.59094 30.11677 27.35386
#
# Velocity S-wave (km/s) = 3.38801 3.74939 3.57327
# Velocity P-wave (km/s) = 5.87239 6.33335 6.10722
#
# Compressibility (1/GPa) = 0.02433663
#
# Stress axis : x y z
#
# Youngs Moduli (GPa) = 64.66100 108.26540 93.54187
#
# Poissons Ratio (x) = 0.08680 0.16114
# Poissons Ratio (y) = 0.05184 0.28095
# Poissons Ratio (z) = 0.11139 0.32517
#
# Static dielectric constant tensor:
#      x y z
#    x 3.831610 0.000000 -0.006560 
#    y 0.000000 3.998620 0.000000 
#    z -0.006560 0.000000 4.019820 
# 
# 
# High freq. dielectric constant tensor:
#      x y z
#    x 1.843680 0.000000 0.003960 
#    y 0.000000 1.845010 0.000000 
#    z 0.003960 0.000000 1.852450 
# 
# From -- ./inp_files/221765.got.cif
#   From: 2010.06.25/outbox.cif.g09.slc.cpg/sg12_111_cif.got.tgz:221765.got - 2010.06.28 00:19:55.
