data_PCOD8111702
_publ_section_title
;
Structure prediction by ZEFSAII (Michael W. Deem and Ramdas Pophale) SiO2 
 PCOD8111702
Probable space group: C 2/M
;
_chemical_formula_sum "Si O2"
_cell_formula_units_Z 56
_cell_length_a 20.584325
_cell_length_b 23.556775
_cell_length_c 9.789386
_cell_angle_alpha 90.000000
_cell_angle_beta 147.596661
_cell_angle_gamma 90.000000
_cell_volume 2543.737094
_symmetry_space_group_name_H-M "C 2/M"
_symmetry_group_IT_number 12
_symmetry_cell_setting 'monoclinic'
loop_
_space_group_symop_operation_xyz
x,y,z
-x,y,-z
-x,-y,-z
x,-y,z
1/2+x,1/2+y,z
1/2-x,1/2+y,-z
1/2-x,1/2-y,-z
1/2+x,1/2-y,z
loop_
_atom_site_type_symbol
_atom_site_label
_atom_site_fract_x
_atom_site_fract_y
_atom_site_fract_z
Si Si1 0.308491 0.435410 0.515047
Si Si2 0.428411 0.726752 0.502806
Si Si3 0.721101 0.391072 0.247694
Si Si4 0.969599 0.934036 0.292805
Si Si5 0.537386 0.855182 0.422171
Si Si6 0.688571 0.166329 0.167426
Si Si7 0.592672 0.718653 0.053427
O O1 0.266450 0.500000 0.408550
O O2 0.326998 0.429969 0.711751
O O3 0.425920 0.420718 0.632656
O O4 0.208104 0.389023 0.295316
O O5 0.500000 0.703846 0.500000
O O6 0.399103 0.793717 0.439851
O O7 0.307434 0.689158 0.300491
O O8 0.522835 0.715348 0.788863
O O9 0.865668 0.396982 0.478773
O O10 0.702984 0.325075 0.252288
O O11 0.651725 0.406379 0.984269
O O12 0.000000 0.910265 0.500000
O O13 0.944184 0.000000 0.261473
O O14 0.500000 0.882549 0.500000
O O15 0.414017 0.850646 0.120320
O O16 0.641874 0.218557 0.178079
O O17 0.500000 0.696774 0.000000
#
# Coordination Sequence:
#
# PCOD8111702 Si02
#       7
#     8   8   8   8   8   8   8
#     4  11  26  45  69  99 132 176 230 285 337 391
#     4  10  22  40  65  97 135 178 219 264 328 404
#     4  12  23  42  69 101 138 176 219 280 341 407
#     4  10  23  44  73 104 133 173 228 286 335 389
#     4  10  25  40  62 101 143 180 219 272 335 403
#     4  11  24  42  67  93 139 181 218 276 330 406
#     4  11  24  37  63  99 133 172 221 272 336 399
#
# _framework density 22.014852999999999
#
# number of rings (size 3 to 8) (size 9 to 14) (size 15 to 20)
#    0.000    1.286    1.429    3.429    8.000    5.143 
#    0.000    2.143    0.000    2.143    0.000    0.000 
#    0.000    0.000    0.000    0.000    0.000    0.000 
#
# Total GULP energy -347120.978764 kJ/mol
# GULP energy per Si atom -12397.177813 kJ/mol
# Density = 2.196475 g / cm^3
# Si number density = 22.014853 Si / 1000 Ang^3
#
#
#
# Elastic Constant Matrix: (Units=GPa)
#
#
# Indices 1 2 3 4 5 6 
#
# 1 138.2957 26.9382 40.7548 0.0000 -3.8487 0.0000
# 2 26.9382 78.1640 56.5035 0.0000 2.2297 0.0000
# 3 40.7548 56.5035 98.2783 0.0000 1.9606 0.0000
# 4 0.0000 0.0000 0.0000 30.0987 0.0000 -1.8623
# 5 -3.8487 2.2297 1.9606 0.0000 37.4170 0.0000
# 6 0.0000 0.0000 0.0000 -1.8623 0.0000 28.7718
#
#
#
# Elastic Compliance Matrix: (Units=1/GPa)
#
#
# Indices 1 2 3 4 5 6 
#
# 1 0.008297 -0.000662 -0.003081 0.000000 0.001054 0.000000
# 2 -0.000662 0.021961 -0.012337 0.000000 -0.000730 0.000000
# 3 -0.003081 -0.012337 0.018557 0.000000 -0.000554 0.000000
# 4 0.000000 0.000000 0.000000 0.033358 0.000000 0.002159
# 5 0.001054 -0.000730 -0.000554 0.000000 0.026907 0.000000
# 6 0.000000 0.000000 0.000000 0.002159 0.000000 0.034896
#
#
# Mechanical properties :
#
#
# Convention : Reuss Voigt Hill
#
# Bulk Modulus (GPa) = 60.04395 62.57009 61.30702
# Shear Modulus (GPa) = 27.51991 31.96027 29.74009
#
# Velocity S-wave (km/s) = 3.53946 3.81433 3.67946
# Velocity P-wave (km/s) = 6.63605 6.91970 6.77936
#
# Compressibility (1/GPa) = 0.01665447
#
# Stress axis : x y z
#
# Youngs Moduli (GPa) = 120.52279 45.53576 53.88907
#
# Poissons Ratio (x) = 0.03017 0.16603
# Poissons Ratio (y) = 0.07984 0.66481
# Poissons Ratio (z) = 0.37132 0.56176
#
# Static dielectric constant tensor:
#      x y z
#    x 4.117220 0.000000 -0.044630 
#    y 0.000000 4.046900 0.000000 
#    z -0.044630 0.000000 3.858660 
# 
# 
# High freq. dielectric constant tensor:
#      x y z
#    x 1.873590 0.000000 -0.004910 
#    y 0.000000 1.858600 0.000000 
#    z -0.004910 0.000000 1.860810 
# 
# From -- ./inp_files/80069.got.cif
#   From: 2010.06.25/outbox.cif.g09.slc.cpg/sg12_41_cif.got.tgz:80069.got - 2010.06.28 00:19:55.
