data_PCOD8111830
_publ_section_title
;
Structure prediction by ZEFSAII (Michael W. Deem and Ramdas Pophale) SiO2 
 PCOD8111830
Probable space group: C 2/M
;
_chemical_formula_sum "Si O2"
_cell_formula_units_Z 36
_cell_length_a 11.675347
_cell_length_b 26.368755
_cell_length_c 9.358142
_cell_angle_alpha 90.000000
_cell_angle_beta 141.307145
_cell_angle_gamma 90.000000
_cell_volume 1801.067723
_symmetry_space_group_name_H-M "C 2/M"
_symmetry_group_IT_number 12
_symmetry_cell_setting 'monoclinic'
loop_
_space_group_symop_operation_xyz
x,y,z
-x,y,-z
-x,-y,-z
x,-y,z
1/2+x,1/2+y,z
1/2-x,1/2+y,-z
1/2-x,1/2-y,-z
1/2+x,1/2-y,z
loop_
_atom_site_type_symbol
_atom_site_label
_atom_site_fract_x
_atom_site_fract_y
_atom_site_fract_z
Si Si1 0.323002 0.800962 0.905374
Si Si2 0.217102 0.410811 0.211904
Si Si3 0.000000 0.871616 0.000000
Si Si4 0.337953 0.194979 0.242482
Si Si5 0.013631 0.942378 0.283418
O O1 0.250500 0.850121 0.750100
O O2 0.174870 0.756256 0.761379
O O3 0.500000 0.778328 0.000000
O O4 0.376940 0.819497 0.116796
O O5 0.318404 0.432364 0.170111
O O6 0.313716 0.434371 0.443986
O O7 0.000000 0.424406 0.000000
O O8 0.164255 0.834094 0.130182
O O9 0.041607 0.906227 0.176340
O O10 0.500000 0.175937 0.500000
O O11 0.015637 0.000000 0.231041
#
# Coordination Sequence:
#
# PCOD8111830 Si02
#       5
#     8   8   4   8   8
#     4  10  22  41  62  98 128 169 212 252 312 383
#     4  10  22  41  67  97 126 160 213 265 317 377
#     4  12  25  44  60  96 132 170 211 266 312 386
#     4  11  25  40  63  94 135 172 209 254 318 382
#     4  11  25  43  67  91 124 171 218 269 321 365
#
# _framework density 19.988143999999998
#
# number of rings (size 3 to 8) (size 9 to 14) (size 15 to 20)
#    0.000    1.333    3.333    1.667    9.333    2.667 
#    0.000    0.000    0.000    4.000    0.000    0.000 
#    0.000    0.000    0.000    0.000    0.000    0.000 
#
# Total GULP energy -223207.721534 kJ/mol
# GULP energy per Si atom -12400.428974 kJ/mol
# Density = 1.994265 g / cm^3
# Si number density = 19.988144 Si / 1000 Ang^3
#
#
#
# Elastic Constant Matrix: (Units=GPa)
#
#
# Indices 1 2 3 4 5 6 
#
# 1 130.7457 25.4387 63.0540 0.0000 -1.9084 0.0000
# 2 25.4387 102.9588 24.3382 0.0000 0.9294 0.0000
# 3 63.0540 24.3382 90.4024 0.0000 6.2752 0.0000
# 4 0.0000 0.0000 0.0000 1.5650 0.0000 8.8246
# 5 -1.9084 0.9294 6.2752 0.0000 33.3393 0.0000
# 6 0.0000 0.0000 0.0000 8.8246 0.0000 36.7243
#
#
#
# Elastic Compliance Matrix: (Units=1/GPa)
#
#
# Indices 1 2 3 4 5 6 
#
# 1 0.011786 -0.001017 -0.008101 0.000000 0.002228 0.000000
# 2 -0.001017 0.010462 -0.002111 0.000000 0.000047 0.000000
# 3 -0.008101 -0.002111 0.017538 0.000000 -0.003706 0.000000
# 4 0.000000 0.000000 0.000000 -1.800107 0.000000 0.432555
# 5 0.002228 0.000047 -0.003706 0.000000 0.030818 0.000000
# 6 0.000000 0.000000 0.000000 0.432555 0.000000 -0.076711
#
#
# Mechanical properties :
#
#
# Convention : Reuss Voigt Hill
#
# Bulk Modulus (GPa) = 57.71006 61.08541 59.39774
# Shear Modulus (GPa) = -2.81218 28.41079 12.79930
#
# Velocity S-wave (km/s) = -1.18743 3.77421 2.53325
# Velocity P-wave (km/s) = 5.20143 7.04415 6.19173
#
# Compressibility (1/GPa) = 0.01732800
#
# Stress axis : x y z
#
# Youngs Moduli (GPa) = 84.84825 95.58031 57.02056
#
# Poissons Ratio (x) = 0.09721 0.46193
# Poissons Ratio (y) = 0.08630 0.12035
# Poissons Ratio (z) = 0.68737 0.20173
#
# Static dielectric constant tensor:
#      x y z
#    x 3.799120 0.000000 -0.099970 
#    y 0.000000 3.680780 0.000000 
#    z -0.099970 0.000000 3.533250 
# 
# 
# High freq. dielectric constant tensor:
#      x y z
#    x 1.789110 0.000000 -0.002150 
#    y 0.000000 1.790960 0.000000 
#    z -0.002150 0.000000 1.768480 
# 
# From -- ./inp_files/52942.got.cif
#   From: 2010.06.25/outbox.cif.g09.slc.cpg/sg12_27_cif.got.tgz:52942.got - 2010.06.28 00:19:55.
