data_PCOD8111722
_publ_section_title
;
Structure prediction by ZEFSAII (Michael W. Deem and Ramdas Pophale) SiO2 
 PCOD8111722
Probable space group: C 2/M
;
_chemical_formula_sum "Si O2"
_cell_formula_units_Z 40
_cell_length_a 18.306898
_cell_length_b 12.382566
_cell_length_c 7.779316
_cell_angle_alpha 90.000000
_cell_angle_beta 79.975116
_cell_angle_gamma 90.000000
_cell_volume 1736.540773
_symmetry_space_group_name_H-M "C 2/M"
_symmetry_group_IT_number 12
_symmetry_cell_setting 'monoclinic'
loop_
_space_group_symop_operation_xyz
x,y,z
-x,y,-z
-x,-y,-z
x,-y,z
1/2+x,1/2+y,z
1/2-x,1/2+y,-z
1/2-x,1/2-y,-z
1/2+x,1/2-y,z
loop_
_atom_site_type_symbol
_atom_site_label
_atom_site_fract_x
_atom_site_fract_y
_atom_site_fract_z
Si Si1 0.602962 0.000000 0.075392
Si Si2 0.102858 0.731611 0.637176
Si Si3 0.339180 0.381501 0.667486
Si Si4 0.950988 0.500000 0.290550
Si Si5 0.301250 0.177327 0.092447
Si Si6 0.518980 0.623957 0.183211
O O1 0.541449 0.000000 0.252721
O O2 0.653727 0.893802 0.064956
O O3 0.569358 0.000000 0.899122
O O4 0.155180 0.783923 0.470829
O O5 0.081858 0.606630 0.603275
O O6 0.143234 0.742015 0.805094
O O7 0.028019 0.802162 0.668081
O O8 0.359060 0.500000 0.579428
O O9 0.254441 0.391245 0.764834
O O10 0.394401 0.358742 0.806530
O O11 0.250000 0.250000 0.000000
O O12 0.494405 0.500000 0.215987
O O13 0.500000 0.664576 0.000000
#
# Coordination Sequence:
#
# PCOD8111722 Si02
#       6
#     4   8   8   4   8   8
#     4   9  20  42  63  94 127 172 217 271 323 374
#     4  11  23  41  66  94 131 172 216 266 331 388
#     4  11  23  43  67  95 134 171 213 274 335 389
#     4   9  22  38  68  93 127 171 221 268 317 388
#     4  11  23  41  66  96 129 173 222 269 323 386
#     4  10  22  40  66  95 124 164 220 273 323 384
#
# _framework density 23.034300999999999
#
# number of rings (size 3 to 8) (size 9 to 14) (size 15 to 20)
#    0.000    1.600    1.000    3.000    8.400    1.600 
#    3.600    3.000    0.000    0.000    0.000    0.000 
#    0.000    0.000    0.000    0.000    0.000    0.000 
#
# Total GULP energy -247949.820649 kJ/mol
# GULP energy per Si atom -12397.491032 kJ/mol
# Density = 2.298187 g / cm^3
# Si number density = 23.034301 Si / 1000 Ang^3
#
#
#
# Elastic Constant Matrix: (Units=GPa)
#
#
# Indices 1 2 3 4 5 6 
#
# 1 106.0221 36.5060 12.2809 0.0000 -7.3056 0.0000
# 2 36.5060 137.4268 41.9494 0.0000 -5.0365 0.0000
# 3 12.2809 41.9494 48.3282 0.0000 1.2673 0.0000
# 4 0.0000 0.0000 0.0000 34.5203 0.0000 -2.8919
# 5 -7.3056 -5.0365 1.2673 0.0000 35.9994 0.0000
# 6 0.0000 0.0000 0.0000 -2.8919 0.0000 36.6674
#
#
#
# Elastic Compliance Matrix: (Units=1/GPa)
#
#
# Indices 1 2 3 4 5 6 
#
# 1 0.010498 -0.002578 -0.000477 0.000000 0.001787 0.000000
# 2 -0.002578 0.010636 -0.008611 0.000000 0.001268 0.000000
# 3 -0.000477 -0.008611 0.028348 0.000000 -0.002299 0.000000
# 4 0.000000 0.000000 0.000000 0.029161 0.000000 0.002300
# 5 0.001787 0.001268 -0.002299 0.000000 0.028399 0.000000
# 6 0.000000 0.000000 0.000000 0.002300 0.000000 0.027454
#
#
# Mechanical properties :
#
#
# Convention : Reuss Voigt Hill
#
# Bulk Modulus (GPa) = 38.23952 52.58331 45.41142
# Shear Modulus (GPa) = 30.02228 34.84013 32.43121
#
# Velocity S-wave (km/s) = 3.61414 3.89335 3.75634
# Velocity P-wave (km/s) = 5.83551 6.56420 6.21055
#
# Compressibility (1/GPa) = 0.02615095
#
# Stress axis : x y z
#
# Youngs Moduli (GPa) = 95.25737 94.01912 35.27646
#
# Poissons Ratio (x) = 0.24234 0.01683
# Poissons Ratio (y) = 0.24553 0.30375
# Poissons Ratio (z) = 0.04546 0.80956
#
# Static dielectric constant tensor:
#      x y z
#    x 4.723920 0.000000 -0.337800 
#    y 0.000000 4.222560 0.000000 
#    z -0.337800 0.000000 3.905340 
# 
# 
# High freq. dielectric constant tensor:
#      x y z
#    x 1.923880 0.000000 -0.003070 
#    y 0.000000 1.916860 0.000000 
#    z -0.003070 0.000000 1.881320 
# 
# From -- ./inp_files/71280.got.cif
#   From: 2010.06.25/outbox.cif.g09.slc.cpg/sg12_36_cif.got.tgz:71280.got - 2010.06.28 00:19:55.
