data_PCOD8111678
_publ_section_title
;
Structure prediction by ZEFSAII (Michael W. Deem and Ramdas Pophale) SiO2 
 PCOD8111678
Probable space group: C 2/M
;
_chemical_formula_sum "Si O2"
_cell_formula_units_Z 56
_cell_length_a 11.519032
_cell_length_b 17.557153
_cell_length_c 17.285452
_cell_angle_alpha 90.000000
_cell_angle_beta 47.055247
_cell_angle_gamma 90.000000
_cell_volume 2558.988948
_symmetry_space_group_name_H-M "C 2/M"
_symmetry_group_IT_number 12
_symmetry_cell_setting 'monoclinic'
loop_
_space_group_symop_operation_xyz
x,y,z
-x,y,-z
-x,-y,-z
x,-y,z
1/2+x,1/2+y,z
1/2-x,1/2+y,-z
1/2-x,1/2-y,-z
1/2+x,1/2-y,z
loop_
_atom_site_type_symbol
_atom_site_label
_atom_site_fract_x
_atom_site_fract_y
_atom_site_fract_z
Si Si1 0.373227 0.409481 0.726545
Si Si2 0.316123 0.158555 0.326469
Si Si3 0.820987 0.835766 0.345595
Si Si4 0.316856 0.171719 0.062537
Si Si5 0.248774 0.412107 0.231500
Si Si6 0.894336 0.587866 0.442705
Si Si7 0.327951 0.834042 0.880947
O O1 0.400752 0.500000 0.706856
O O2 0.310286 0.373807 0.675943
O O3 0.535471 0.364366 0.666700
O O4 0.248045 0.394253 0.852406
O O5 0.294449 0.246465 0.356193
O O6 0.287073 0.112009 0.418386
O O7 0.488979 0.146039 0.212363
O O8 0.858634 0.865652 0.241400
O O9 0.659233 0.869977 0.454815
O O10 0.211355 0.247133 0.123291
O O11 0.500000 0.189040 0.000000
O O12 0.288332 0.145250 0.987266
O O13 0.291171 0.500000 0.219096
O O14 0.275402 0.385985 0.130820
O O15 0.072518 0.391053 0.338987
O O16 0.872441 0.500000 0.470455
#
# Coordination Sequence:
#
# PCOD8111678 Si02
#       7
#     8   8   8   8   8   8   8
#     4  12  26  43  66  99 134 170 214 271 330 384
#     4  11  23  42  65  94 130 169 216 264 315 388
#     4  12  24  42  67  92 133 174 218 261 319 387
#     4  11  22  41  66  96 127 169 214 268 323 393
#     4  10  22  40  65  93 128 168 213 265 319 380
#     4  10  22  42  66  96 129 169 216 266 322 379
#     4  10  22  40  67  94 123 166 216 265 323 379
#
# _framework density 21.883642999999999
#
# number of rings (size 3 to 8) (size 9 to 14) (size 15 to 20)
#    0.000    1.143    2.857    3.429    2.000    3.143 
#    2.571    1.429    0.000    2.143    0.000    0.000 
#    0.000    0.000    0.000    0.000    0.000    0.000 
#
# Total GULP energy -347253.144233 kJ/mol
# GULP energy per Si atom -12401.898008 kJ/mol
# Density = 2.183383 g / cm^3
# Si number density = 21.883643 Si / 1000 Ang^3
#
#
#
# Elastic Constant Matrix: (Units=GPa)
#
#
# Indices 1 2 3 4 5 6 
#
# 1 92.6717 12.7578 0.1214 -0.0002 21.7287 0.0000
# 2 12.7578 59.5551 0.7671 -0.0011 1.6025 0.0009
# 3 0.1214 0.7671 44.2091 -0.0017 16.2053 0.0015
# 4 -0.0002 -0.0011 -0.0017 23.0685 0.0004 5.9257
# 5 21.7287 1.6025 16.2053 0.0004 29.4220 -0.0003
# 6 0.0000 0.0009 0.0015 5.9257 -0.0003 32.0721
#
#
#
# Elastic Compliance Matrix: (Units=1/GPa)
#
#
# Indices 1 2 3 4 5 6 
#
# 1 0.014203 -0.002755 0.004760 0.000001 -0.012960 0.000000
# 2 -0.002755 0.017350 -0.000868 0.000001 0.001568 -0.000001
# 3 0.004760 -0.000868 0.029937 0.000003 -0.019957 -0.000002
# 4 0.000001 0.000001 0.000003 0.045509 -0.000003 -0.008408
# 5 -0.012960 0.001568 -0.019957 -0.000003 0.054466 0.000002
# 6 0.000000 -0.000001 -0.000002 -0.008408 0.000002 0.032733
#
#
# Mechanical properties :
#
#
# Convention : Reuss Voigt Hill
#
# Bulk Modulus (GPa) = 15.68315 24.85873 20.27094
# Shear Modulus (GPa) = 23.45430 29.09848 26.27639
#
# Velocity S-wave (km/s) = 3.27735 3.65045 3.46892
# Velocity P-wave (km/s) = 4.63719 5.39925 5.03266
#
# Compressibility (1/GPa) = 0.06376272
#
# Stress axis : x y z
#
# Youngs Moduli (GPa) = 70.40943 57.63568 33.40335
#
# Poissons Ratio (x) = 0.15879 -0.15899
# Poissons Ratio (y) = 0.19398 0.02900
# Poissons Ratio (z) = -0.33512 0.05004
#
# Static dielectric constant tensor:
#      x y z
#    x 4.202050 0.000000 0.227700 
#    y 0.000000 3.802510 0.000000 
#    z 0.227700 0.000000 3.960160 
# 
# 
# High freq. dielectric constant tensor:
#      x y z
#    x 1.877150 0.000000 0.016830 
#    y 0.000000 1.855130 0.000000 
#    z 0.016830 0.000000 1.858840 
# 
# From -- ./inp_files/264172.got.cif
#   From: 2010.06.25/outbox.cif.g09.slc.cpg/sg12_133_cif.got.tgz:264172.got - 2010.06.28 00:19:55.
