data_PCOD8111487
_publ_section_title
;
Structure prediction by ZEFSAII (Michael W. Deem and Ramdas Pophale) SiO2 
 PCOD8111487
Probable space group: C 2/M
;
_chemical_formula_sum "Si O2"
_cell_formula_units_Z 40
_cell_length_a 33.288887
_cell_length_b 7.561459
_cell_length_c 13.152941
_cell_angle_alpha 90.000000
_cell_angle_beta 142.615609
_cell_angle_gamma 90.000000
_cell_volume 2010.159269
_symmetry_space_group_name_H-M "C 2/M"
_symmetry_group_IT_number 12
_symmetry_cell_setting 'monoclinic'
loop_
_space_group_symop_operation_xyz
x,y,z
-x,y,-z
-x,-y,-z
x,-y,z
1/2+x,1/2+y,z
1/2-x,1/2+y,-z
1/2-x,1/2-y,-z
1/2+x,1/2-y,z
loop_
_atom_site_type_symbol
_atom_site_label
_atom_site_fract_x
_atom_site_fract_y
_atom_site_fract_z
Si Si1 0.115370 0.299771 0.988762
Si Si2 0.079981 0.000000 0.777791
Si Si3 0.076657 0.000000 0.533059
Si Si4 0.740957 0.294384 0.363351
Si Si5 0.370671 0.204782 0.501993
Si Si6 0.997795 0.294980 0.885639
O O1 0.101653 0.500000 0.923236
O O2 0.178865 0.304814 0.189634
O O3 0.119109 0.172634 0.898401
O O4 0.054271 0.214365 0.927917
O O5 0.090809 0.000000 0.680082
O O6 0.001776 0.000000 0.647577
O O7 0.112423 0.174462 0.560625
O O8 0.728652 0.500000 0.326643
O O9 0.750000 0.250000 0.500000
O O10 0.803715 0.234827 0.422754
O O11 0.425916 0.238137 0.697212
O O12 0.368680 0.000000 0.462483
O O13 0.015702 0.500000 0.933229
O O14 0.000000 0.201844 0.000000
#
# Coordination Sequence:
#
# PCOD8111487 Si02
#       6
#     8   4   4   8   8   8
#     4  11  22  40  63  89 128 166 204 261 316 372
#     4  11  24  44  64  98 118 157 218 273 323 373
#     4  11  24  42  70  90 122 159 214 275 323 373
#     4  11  23  39  63  95 134 170 208 250 309 384
#     4  10  22  40  61  90 126 164 206 259 313 374
#     4   9  17  33  57  86 121 159 200 245 307 376
#
# _framework density 19.898918999999999
#
# number of rings (size 3 to 8) (size 9 to 14) (size 15 to 20)
#    0.000    1.600    3.000    1.800    2.800    4.000 
#    0.000    4.000    0.000    0.000    0.000    0.000 
#    0.000    0.000    0.000    0.000    0.000    0.000 
#
# Total GULP energy -247972.043883 kJ/mol
# GULP energy per Si atom -12398.602194 kJ/mol
# Density = 1.985363 g / cm^3
# Si number density = 19.898919 Si / 1000 Ang^3
#
#
#
# Elastic Constant Matrix: (Units=GPa)
#
#
# Indices 1 2 3 4 5 6 
#
# 1 103.3903 49.6984 38.1650 0.0000 -13.5524 0.0000
# 2 49.6984 102.0501 36.4481 0.0000 -14.7675 0.0000
# 3 38.1650 36.4481 100.1429 0.0000 -12.4083 0.0000
# 4 0.0000 0.0000 0.0000 28.1614 0.0000 -2.5430
# 5 -13.5524 -14.7675 -12.4083 0.0000 37.7132 0.0000
# 6 0.0000 0.0000 0.0000 -2.5430 0.0000 29.3387
#
#
#
# Elastic Compliance Matrix: (Units=1/GPa)
#
#
# Indices 1 2 3 4 5 6 
#
# 1 0.013555 -0.005257 -0.003027 0.000000 0.001816 0.000000
# 2 -0.005257 0.013683 -0.002655 0.000000 0.002595 0.000000
# 3 -0.003027 -0.002655 0.012345 0.000000 0.001934 0.000000
# 4 0.000000 0.000000 0.000000 0.035790 0.000000 0.003102
# 5 0.001816 0.002595 0.001934 0.000000 0.028821 0.000000
# 6 0.000000 0.000000 0.000000 0.003102 0.000000 0.034354
#
#
# Mechanical properties :
#
#
# Convention : Reuss Voigt Hill
#
# Bulk Modulus (GPa) = 56.48323 61.57849 59.03086
# Shear Modulus (GPa) = 30.06106 31.12746 30.59426
#
# Velocity S-wave (km/s) = 3.89097 3.95939 3.92533
# Velocity P-wave (km/s) = 6.97373 7.20522 7.09042
#
# Compressibility (1/GPa) = 0.01770437
#
# Stress axis : x y z
#
# Youngs Moduli (GPa) = 73.77541 73.08276 81.00129
#
# Poissons Ratio (x) = 0.38420 0.24522
# Poissons Ratio (y) = 0.38784 0.21506
# Poissons Ratio (z) = 0.22334 0.19404
#
# Static dielectric constant tensor:
#      x y z
#    x 3.701390 0.000000 0.092440 
#    y 0.000000 3.626260 0.000000 
#    z 0.092440 0.000000 3.529810 
# 
# 
# High freq. dielectric constant tensor:
#      x y z
#    x 1.771750 0.000000 0.008810 
#    y 0.000000 1.780790 0.000000 
#    z 0.008810 0.000000 1.773270 
# 
# From -- ./inp_files/151779.got.cif
#   From: 2010.06.25/outbox.cif.g09.slc.cpg/sg12_76_cif.got.tgz:151779.got - 2010.06.28 00:19:55.
