data_PCOD8111697
_publ_section_title
;
Structure prediction by ZEFSAII (Michael W. Deem and Ramdas Pophale) SiO2 
 PCOD8111697
Probable space group: C 2/M
;
_chemical_formula_sum "Si O2"
_cell_formula_units_Z 40
_cell_length_a 24.277707
_cell_length_b 8.734662
_cell_length_c 16.935881
_cell_angle_alpha 90.000000
_cell_angle_beta 146.809043
_cell_angle_gamma 90.000000
_cell_volume 1966.034205
_symmetry_space_group_name_H-M "C 2/M"
_symmetry_group_IT_number 12
_symmetry_cell_setting 'monoclinic'
loop_
_space_group_symop_operation_xyz
x,y,z
-x,y,-z
-x,-y,-z
x,-y,z
1/2+x,1/2+y,z
1/2-x,1/2+y,-z
1/2-x,1/2-y,-z
1/2+x,1/2-y,z
loop_
_atom_site_type_symbol
_atom_site_label
_atom_site_fract_x
_atom_site_fract_y
_atom_site_fract_z
Si Si1 0.140690 0.678973 0.372473
Si Si2 0.707353 0.822775 0.704212
Si Si3 0.538619 0.680633 0.401142
Si Si4 0.320445 0.821756 0.150994
Si Si5 0.601970 0.325765 0.169100
O O1 0.147765 0.500000 0.396595
O O2 0.250000 0.750000 0.500000
O O3 0.078049 0.754004 0.366628
O O4 0.087400 0.714753 0.225863
O O5 0.610819 0.727401 0.560012
O O6 0.729605 0.794304 0.823292
O O7 0.805491 0.768987 0.773818
O O8 0.683373 0.000000 0.659359
O O9 0.533854 0.500000 0.389795
O O10 0.428206 0.743652 0.282931
O O11 0.333653 0.000000 0.148068
O O12 0.250000 0.750000 0.000000
O O13 0.621022 0.500000 0.220180
O O14 0.500000 0.312595 0.000000
#
# Coordination Sequence:
#
# PCOD8111697 Si02
#       5
#     8   8   8   8   8
#     4  12  24  41  65  97 131 167 211 262 317 380
#     4  10  22  42  66  93 129 170 212 262 322 381
#     4  12  25  42  67  95 127 170 217 266 318 378
#     4  11  25  44  66  96 131 169 213 266 324 381
#     4  10  22  40  65  96 132 171 209 256 318 385
#
# _framework density 20.345526
#
# number of rings (size 3 to 8) (size 9 to 14) (size 15 to 20)
#    0.000    1.000    2.000    4.800    2.800    4.400 
#    0.000    0.000    0.000    0.000    0.000    0.000 
#    0.000    0.000    0.000    0.000    0.000    0.000 
#
# Total GULP energy -248097.138214 kJ/mol
# GULP energy per Si atom -12404.856911 kJ/mol
# Density = 2.029922 g / cm^3
# Si number density = 20.345526 Si / 1000 Ang^3
#
#
#
# Elastic Constant Matrix: (Units=GPa)
#
#
# Indices 1 2 3 4 5 6 
#
# 1 102.4183 50.2590 38.2764 0.0000 -18.6664 0.0000
# 2 50.2590 139.9953 53.0951 0.0000 -9.4711 0.0000
# 3 38.2764 53.0951 119.1021 0.0000 -6.9027 0.0000
# 4 0.0000 0.0000 0.0000 36.5131 0.0000 -3.5851
# 5 -18.6664 -9.4711 -6.9027 0.0000 35.9931 0.0000
# 6 0.0000 0.0000 0.0000 -3.5851 0.0000 32.9964
#
#
#
# Elastic Compliance Matrix: (Units=1/GPa)
#
#
# Indices 1 2 3 4 5 6 
#
# 1 0.013409 -0.003521 -0.002417 0.000000 0.005564 0.000000
# 2 -0.003521 0.009607 -0.003145 0.000000 0.000099 0.000000
# 3 -0.002417 -0.003145 0.010572 0.000000 -0.000054 0.000000
# 4 0.000000 0.000000 0.000000 0.027683 0.000000 0.003008
# 5 0.005564 0.000099 -0.000054 0.000000 0.030684 0.000000
# 6 0.000000 0.000000 0.000000 0.003008 0.000000 0.030633
#
#
# Mechanical properties :
#
#
# Convention : Reuss Voigt Hill
#
# Bulk Modulus (GPa) = 64.84689 71.64186 68.24437
# Shear Modulus (GPa) = 34.27113 35.75952 35.01532
#
# Velocity S-wave (km/s) = 4.10866 4.19694 4.15303
# Velocity P-wave (km/s) = 7.37903 7.66647 7.52412
#
# Compressibility (1/GPa) = 0.01542094
#
# Stress axis : x y z
#
# Youngs Moduli (GPa) = 74.57634 104.09446 94.58831
#
# Poissons Ratio (x) = 0.36648 0.22865
# Poissons Ratio (y) = 0.26256 0.29752
# Poissons Ratio (z) = 0.18028 0.32742
#
# Static dielectric constant tensor:
#      x y z
#    x 3.600790 0.000000 0.024130 
#    y 0.000000 3.882910 0.000000 
#    z 0.024130 0.000000 3.794350 
# 
# 
# High freq. dielectric constant tensor:
#      x y z
#    x 1.812530 0.000000 -0.003750 
#    y 0.000000 1.798250 0.000000 
#    z -0.003750 0.000000 1.803470 
# 
# From -- ./inp_files/220602.got.cif
#   From: 2010.06.25/outbox.cif.g09.slc.cpg/sg12_111_cif.got.tgz:220602.got - 2010.06.28 00:19:55.
