data_PCOD8111459
_publ_section_title
;
Structure prediction by ZEFSAII (Michael W. Deem and Ramdas Pophale) SiO2 
 PCOD8111459
Probable space group: C 2/M
;
_chemical_formula_sum "Si O2"
_cell_formula_units_Z 64
_cell_length_a 15.368802
_cell_length_b 8.877827
_cell_length_c 33.068908
_cell_angle_alpha 90.000000
_cell_angle_beta 45.947706
_cell_angle_gamma 90.000000
_cell_volume 3242.780152
_symmetry_space_group_name_H-M "C 2/M"
_symmetry_group_IT_number 12
_symmetry_cell_setting 'monoclinic'
loop_
_space_group_symop_operation_xyz
x,y,z
-x,y,-z
-x,-y,-z
x,-y,z
1/2+x,1/2+y,z
1/2-x,1/2+y,-z
1/2-x,1/2-y,-z
1/2+x,1/2-y,z
loop_
_atom_site_type_symbol
_atom_site_label
_atom_site_fract_x
_atom_site_fract_y
_atom_site_fract_z
Si Si1 0.841433 0.822723 0.939467
Si Si2 0.289655 0.822476 0.246166
Si Si3 0.384302 0.677239 0.137016
Si Si4 0.933871 0.673285 0.642960
Si Si5 0.104365 0.677303 0.436767
Si Si6 0.859300 0.673518 0.364143
Si Si7 0.279814 0.326051 0.869544
Si Si8 0.033549 0.174238 0.747533
O O1 0.811471 0.767288 0.903997
O O2 0.976683 0.770935 0.906671
O O3 0.829146 0.000000 0.946730
O O4 0.750000 0.750000 0.000000
O O5 0.307601 0.767544 0.194836
O O6 0.155281 0.780108 0.303411
O O7 0.387082 0.742130 0.242560
O O8 0.306957 0.000000 0.243122
O O9 0.371113 0.500000 0.149036
O O10 0.330378 0.724132 0.110994
O O11 0.891550 0.500000 0.661227
O O12 0.931806 0.723601 0.596972
O O13 0.069175 0.694567 0.616737
O O14 0.119206 0.500000 0.436443
O O15 0.229860 0.749610 0.409885
O O16 0.000000 0.739057 0.500000
O O17 0.839098 0.500000 0.359900
O O18 0.940324 0.744594 0.302820
O O19 0.239783 0.500000 0.883403
O O20 0.393972 0.303170 0.803364
O O21 0.068665 0.000000 0.731945
#
# Coordination Sequence:
#
# PCOD8111459 Si02
#       8
#     8   8   8   8   8   8   8   8
#     4  10  23  43  63  86 120 160 204 252 302 354
#     4  12  23  36  61  94 123 156 200 243 295 361
#     4  11  23  41  63  90 124 160 198 245 302 358
#     4  10  22  40  61  87 124 161 195 244 303 357
#     4  10  22  41  63  85 115 162 209 248 299 357
#     4  11  23  38  59  91 122 155 200 248 299 354
#     4  10  22  41  63  90 123 159 201 247 299 359
#     4  11  21  38  62  87 123 161 193 241 303 359
#
# _framework density 19.736152000000001
#
# number of rings (size 3 to 8) (size 9 to 14) (size 15 to 20)
#    0.000    1.375    2.500    3.000    0.000    6.750 
#    0.000    2.500    0.000    0.000    0.000    0.000 
#    0.000    0.000    0.000    0.000    0.000    0.000 
#
# Total GULP energy -396966.239694 kJ/mol
# GULP energy per Si atom -12405.194990 kJ/mol
# Density = 1.969123 g / cm^3
# Si number density = 19.736152 Si / 1000 Ang^3
#
#
#
# Elastic Constant Matrix: (Units=GPa)
#
#
# Indices 1 2 3 4 5 6 
#
# 1 116.3373 -58.1218 25.9255 0.0014 -15.4403 0.0023
# 2 -58.1218 -220.6474 -42.2879 0.0032 -33.1925 0.0024
# 3 25.9255 -42.2879 106.4354 0.0006 -18.9151 0.0003
# 4 0.0014 0.0032 0.0006 29.1145 -0.0001 -2.7421
# 5 -15.4403 -33.1925 -18.9151 -0.0001 9.8557 0.0002
# 6 0.0023 0.0024 0.0003 -2.7421 0.0002 34.4718
#
#
#
# Elastic Compliance Matrix: (Units=1/GPa)
#
#
# Indices 1 2 3 4 5 6 
#
# 1 0.008394 -0.001972 -0.002536 0.000000 0.001641 0.000000
# 2 -0.001972 -0.001567 -0.002472 0.000000 -0.013110 0.000000
# 3 -0.002536 -0.002472 0.010389 0.000000 0.007639 0.000000
# 4 0.000000 0.000000 0.000000 0.034606 0.000001 0.002753
# 5 0.001641 -0.013110 0.007639 0.000001 0.074543 0.000000
# 6 0.000000 0.000000 0.000000 0.002753 0.000000 0.029228
#
#
# Mechanical properties :
#
#
# Convention : Reuss Voigt Hill
#
# Bulk Modulus (GPa) = 307.20742 -16.31591 145.44576
# Shear Modulus (GPa) = 29.30170 19.79569 24.54870
#
# Velocity S-wave (km/s) = 3.85732 3.17048 3.53064
# Velocity P-wave (km/s) = 13.26023 2.26222 9.51187
#
# Compressibility (1/GPa) = 0.00325513
#
# Stress axis : x y z
#
# Youngs Moduli (GPa) = 119.13826 -638.26563 96.26010
#
# Poissons Ratio (x) = -1.25855 0.24414
# Poissons Ratio (y) = 0.23492 0.23796
# Poissons Ratio (z) = 0.30216 -1.57782
#
# Static dielectric constant tensor:
#      x y z
#    x 3.787670 0.000000 0.034180 
#    y 0.000000 3.568860 0.000000 
#    z 0.034180 0.000000 3.563390 
# 
# 
# High freq. dielectric constant tensor:
#      x y z
#    x 1.787010 0.000000 0.002270 
#    y 0.000000 1.768700 0.000000 
#    z 0.002270 0.000000 1.764230 
# 
# From -- ./inp_files/375511.got.cif
#   From: 2010.06.25/outbox.cif.g09.slc.cpg/sg12_188_cif.got.tgz:375511.got - 2010.06.28 00:19:55.
