data_PCOD8111302
_publ_section_title
;
Structure prediction by ZEFSAII (Michael W. Deem and Ramdas Pophale) SiO2 
 PCOD8111302
Probable space group: C 2/M
;
_chemical_formula_sum "Si O2"
_cell_formula_units_Z 64
_cell_length_a 16.645580
_cell_length_b 17.256129
_cell_length_c 21.733672
_cell_angle_alpha 90.000000
_cell_angle_beta 149.394795
_cell_angle_gamma 90.000000
_cell_volume 3178.302595
_symmetry_space_group_name_H-M "C 2/M"
_symmetry_group_IT_number 12
_symmetry_cell_setting 'monoclinic'
loop_
_space_group_symop_operation_xyz
x,y,z
-x,y,-z
-x,-y,-z
x,-y,z
1/2+x,1/2+y,z
1/2-x,1/2+y,-z
1/2-x,1/2-y,-z
1/2+x,1/2-y,z
loop_
_atom_site_type_symbol
_atom_site_label
_atom_site_fract_x
_atom_site_fract_y
_atom_site_fract_z
Si Si1 0.008538 0.786209 0.434057
Si Si2 0.170553 0.798281 0.360855
Si Si3 0.601601 0.186414 0.009868
Si Si4 0.339197 0.411758 0.536009
Si Si5 0.229984 0.691582 0.797274
Si Si6 0.274713 0.909496 0.015979
Si Si7 0.034969 0.177944 0.144542
Si Si8 0.008664 0.639787 0.272196
O O1 0.157258 0.734970 0.511252
O O2 0.029025 0.872071 0.420058
O O3 0.000000 0.796024 0.500000
O O4 0.851205 0.746028 0.307009
O O5 0.149644 0.871540 0.390608
O O6 0.150708 0.829712 0.278902
O O7 0.040719 0.731982 0.287795
O O8 0.711478 0.254176 0.108798
O O9 0.500000 0.150006 0.000000
O O10 0.699557 0.121540 0.037131
O O11 0.494879 0.230592 0.888593
O O12 0.388077 0.500000 0.577238
O O13 0.167440 0.406896 0.391075
O O14 0.371378 0.646537 0.854546
O O15 0.112020 0.629080 0.749916
O O16 0.431526 0.894294 0.159462
O O17 0.239091 0.000000 0.987669
O O18 0.126249 0.868546 0.950627
#
# Coordination Sequence:
#
# PCOD8111302 Si02
#       8
#     8   8   8   8   8   8   8   8
#     4  11  21  38  64  91 117 157 211 255 302 362
#     4  11  20  37  66  88 118 158 214 255 293 369
#     4  10  22  39  65  91 119 160 211 256 299 359
#     4  11  24  38  58  94 129 158 197 253 319 374
#     4  11  20  38  66  89 115 155 219 263 291 348
#     4  12  25  40  61  93 132 165 198 250 317 371
#     4  11  22  37  63  93 118 160 211 263 296 348
#     4  11  20  40  64  88 116 169 214 250 298 365
#
# _framework density 20.136534999999999
#
# number of rings (size 3 to 8) (size 9 to 14) (size 15 to 20)
#    0.000    1.000    6.250    2.250    0.000    1.000 
#    0.000    1.875    0.000    1.875    0.000    0.000 
#    0.000    0.000    0.000    0.000    0.000    0.000 
#
# Total GULP energy -396773.545875 kJ/mol
# GULP energy per Si atom -12399.173309 kJ/mol
# Density = 2.009070 g / cm^3
# Si number density = 20.136535 Si / 1000 Ang^3
#
#
#
# Elastic Constant Matrix: (Units=GPa)
#
#
# Indices 1 2 3 4 5 6 
#
# 1 125.9965 24.1703 4.7264 -0.0138 0.1831 -0.0054
# 2 24.1703 64.7937 -9.9426 -0.0299 -2.0617 -0.0119
# 3 4.7264 -9.9426 53.9780 -0.0289 -4.9707 -0.0127
# 4 -0.0138 -0.0299 -0.0289 17.6349 -0.0017 -3.7750
# 5 0.1831 -2.0617 -4.9707 -0.0017 32.8543 0.0019
# 6 -0.0054 -0.0119 -0.0127 -3.7750 0.0019 17.3511
#
#
#
# Elastic Compliance Matrix: (Units=1/GPa)
#
#
# Indices 1 2 3 4 5 6 
#
# 1 0.008656 -0.003466 -0.001441 -0.000002 -0.000484 -0.000001
# 2 -0.003466 0.017339 0.003650 0.000037 0.001660 0.000021
# 3 -0.001441 0.003650 0.019620 0.000043 0.003205 0.000025
# 4 -0.000002 0.000037 0.000043 0.059476 0.000011 0.012940
# 5 -0.000484 0.001660 0.003205 0.000011 0.031029 0.000002
# 6 -0.000001 0.000021 0.000025 0.012940 0.000002 0.060449
#
#
# Mechanical properties :
#
#
# Convention : Reuss Voigt Hill
#
# Bulk Modulus (GPa) = 23.20031 31.40848 27.30440
# Shear Modulus (GPa) = 23.42473 28.62232 26.02353
#
# Velocity S-wave (km/s) = 3.41441 3.77425 3.59883
# Velocity P-wave (km/s) = 5.20488 5.88430 5.55499
#
# Compressibility (1/GPa) = 0.04310286
#
# Stress axis : x y z
#
# Youngs Moduli (GPa) = 115.52290 57.67239 50.96893
#
# Poissons Ratio (x) = 0.19987 0.07344
# Poissons Ratio (y) = 0.40035 -0.18604
# Poissons Ratio (z) = 0.16645 -0.21051
#
# Static dielectric constant tensor:
#      x y z
#    x 4.083220 -0.000010 0.279700 
#    y -0.000010 3.250310 -0.000010 
#    z 0.279700 -0.000010 4.129700 
# 
# 
# High freq. dielectric constant tensor:
#      x y z
#    x 1.801790 0.000000 -0.005580 
#    y 0.000000 1.738300 0.000000 
#    z -0.005580 0.000000 1.801810 
# 
# From -- ./inp_files/317393.got.cif
#   From: 2010.06.25/outbox.cif.g09.slc.cpg/sg12_159_cif.got.tgz:317393.got - 2010.06.28 00:19:55.
