data_PCOD8111508
_publ_section_title
;
Structure prediction by ZEFSAII (Michael W. Deem and Ramdas Pophale) SiO2 
 PCOD8111508
Probable space group: C 2/M
;
_chemical_formula_sum "Si O2"
_cell_formula_units_Z 60
_cell_length_a 15.579679
_cell_length_b 26.210264
_cell_length_c 17.730688
_cell_angle_alpha 90.000000
_cell_angle_beta 155.432328
_cell_angle_gamma 90.000000
_cell_volume 3010.275497
_symmetry_space_group_name_H-M "C 2/M"
_symmetry_group_IT_number 12
_symmetry_cell_setting 'monoclinic'
loop_
_space_group_symop_operation_xyz
x,y,z
-x,y,-z
-x,-y,-z
x,-y,z
1/2+x,1/2+y,z
1/2-x,1/2+y,-z
1/2-x,1/2-y,-z
1/2+x,1/2-y,z
loop_
_atom_site_type_symbol
_atom_site_label
_atom_site_fract_x
_atom_site_fract_y
_atom_site_fract_z
Si Si1 0.174556 0.056942 0.469955
Si Si2 0.218460 0.627786 0.706180
Si Si3 0.288893 0.716439 0.136497
Si Si4 0.068714 0.156047 0.469298
Si Si5 0.006692 0.058585 0.175917
Si Si6 0.500000 0.710215 0.000000
Si Si7 0.893221 0.403286 0.221714
Si Si8 0.501655 0.196588 0.226474
O O1 0.126139 0.097595 0.496541
O O2 0.024086 0.067019 0.279310
O O3 0.409475 0.060630 0.628812
O O4 0.139901 0.000000 0.475022
O O5 0.316398 0.590826 0.723001
O O6 0.367508 0.675976 0.836658
O O7 0.193486 0.595580 0.762903
O O8 0.000000 0.647808 0.500000
O O9 0.384923 0.674786 0.268726
O O10 0.150782 0.756074 0.071272
O O11 0.467255 0.747382 0.234424
O O12 0.148127 0.686505 0.964167
O O13 0.263309 0.193154 0.613326
O O14 0.000000 0.159402 0.500000
O O15 0.041106 0.000000 0.180906
O O16 0.779538 0.076400 0.972596
O O17 0.954156 0.345213 0.252016
#
# Coordination Sequence:
#
# PCOD8111508 Si02
#       8
#     8   8   8   8   8   4   8   8
#     4  10  23  41  63  89 118 158 204 254 310 363
#     4  12  23  37  56  87 127 166 200 248 296 360
#     4  11  22  40  62  90 122 164 200 254 298 364
#     4  11  24  41  63  92 121 156 204 259 310 361
#     4  11  22  36  60  88 120 163 206 249 299 362
#     4  12  24  40  59  88 127 162 208 238 304 358
#     4  11  20  40  59  87 122 163 204 248 300 360
#     4  10  22  40  62  88 121 162 206 245 305 358
#
# _framework density 19.931730999999999
#
# number of rings (size 3 to 8) (size 9 to 14) (size 15 to 20)
#    0.000    1.067    4.000    2.400    0.000    4.800 
#    0.000    0.000    0.000    0.000    0.000    7.933 
#    0.000    0.000    0.000    0.000    0.000    0.000 
#
# Total GULP energy -372185.802733 kJ/mol
# GULP energy per Si atom -12406.193424 kJ/mol
# Density = 1.988637 g / cm^3
# Si number density = 19.931731 Si / 1000 Ang^3
#
#
#
# Elastic Constant Matrix: (Units=GPa)
#
#
# Indices 1 2 3 4 5 6 
#
# 1 86.0236 26.2278 13.9040 0.0006 3.2795 0.0002
# 2 26.2278 69.7861 19.4801 0.0006 6.6342 0.0006
# 3 13.9040 19.4801 103.3794 0.0013 8.1418 0.0016
# 4 0.0006 0.0006 0.0013 28.6117 0.0004 -6.3721
# 5 3.2795 6.6342 8.1418 0.0004 26.8646 0.0003
# 6 0.0002 0.0006 0.0016 -6.3721 0.0003 18.4845
#
#
#
# Elastic Compliance Matrix: (Units=1/GPa)
#
#
# Indices 1 2 3 4 5 6 
#
# 1 0.013207 -0.004701 -0.000876 0.000000 -0.000186 0.000000
# 2 -0.004701 0.017029 -0.002347 0.000000 -0.002920 0.000000
# 3 -0.000876 -0.002347 0.010428 -0.000001 -0.002474 -0.000001
# 4 0.000000 0.000000 -0.000001 0.037857 0.000000 0.013050
# 5 -0.000186 -0.002920 -0.002474 0.000000 0.038717 0.000000
# 6 0.000000 0.000000 -0.000001 0.013050 0.000000 0.058598
#
#
# Mechanical properties :
#
#
# Convention : Reuss Voigt Hill
#
# Bulk Modulus (GPa) = 40.29592 42.04588 41.17090
# Shear Modulus (GPa) = 25.00555 28.09732 26.55144
#
# Velocity S-wave (km/s) = 3.54582 3.75864 3.65378
# Velocity P-wave (km/s) = 6.08479 6.32276 6.20491
#
# Compressibility (1/GPa) = 0.02481641
#
# Stress axis : x y z
#
# Youngs Moduli (GPa) = 75.71883 58.72320 95.89665
#
# Poissons Ratio (x) = 0.27608 0.08398
# Poissons Ratio (y) = 0.35598 0.22503
# Poissons Ratio (z) = 0.06631 0.13780
#
# Static dielectric constant tensor:
#      x y z
#    x 3.559400 0.000000 0.015480 
#    y 0.000000 3.600310 0.000000 
#    z 0.015480 0.000000 3.821830 
# 
# 
# High freq. dielectric constant tensor:
#      x y z
#    x 1.770450 0.000000 0.001460 
#    y 0.000000 1.774440 0.000000 
#    z 0.001460 0.000000 1.794220 
# 
# From -- ./inp_files/219255.got.cif
#   From: 2010.06.25/outbox.cif.g09.slc.cpg/sg12_110_cif.got.tgz:219255.got - 2010.06.28 00:19:55.
