data_PCOD8111668
_publ_section_title
;
Structure prediction by ZEFSAII (Michael W. Deem and Ramdas Pophale) SiO2 
 PCOD8111668
Probable space group: C 2/M
;
_chemical_formula_sum "Si O2"
_cell_formula_units_Z 52
_cell_length_a 9.101133
_cell_length_b 14.644065
_cell_length_c 19.171894
_cell_angle_alpha 90.000000
_cell_angle_beta 95.948083
_cell_angle_gamma 90.000000
_cell_volume 2541.427107
_symmetry_space_group_name_H-M "C 2/M"
_symmetry_group_IT_number 12
_symmetry_cell_setting 'monoclinic'
loop_
_space_group_symop_operation_xyz
x,y,z
-x,y,-z
-x,-y,-z
x,-y,z
1/2+x,1/2+y,z
1/2-x,1/2+y,-z
1/2-x,1/2-y,-z
1/2+x,1/2-y,z
loop_
_atom_site_type_symbol
_atom_site_label
_atom_site_fract_x
_atom_site_fract_y
_atom_site_fract_z
Si Si1 0.935228 0.106719 0.329923
Si Si2 0.633528 0.737851 0.553401
Si Si3 0.084426 0.398585 0.788288
Si Si4 0.722583 0.897721 0.645605
Si Si5 0.256303 0.892976 0.813630
Si Si6 0.231156 0.721142 0.903000
Si Si7 0.500000 0.743171 0.000000
O O1 0.845345 0.161073 0.385582
O O2 0.866035 0.130325 0.251079
O O3 0.107793 0.136749 0.336833
O O4 0.915949 0.000000 0.345096
O O5 0.500000 0.706881 0.500000
O O6 0.750000 0.750000 0.500000
O O7 0.626009 0.836194 0.589436
O O8 0.102010 0.500000 0.819200
O O9 0.129942 0.393478 0.711140
O O10 0.202616 0.336803 0.833438
O O11 0.915576 0.366885 0.789165
O O12 0.725752 0.000000 0.615589
O O13 0.231618 0.828913 0.880629
O O14 0.246742 0.000000 0.835113
O O15 0.104543 0.698051 0.953791
O O16 0.387190 0.687853 0.944258
#
# Coordination Sequence:
#
# PCOD8111668 Si02
#       7
#     8   8   8   8   8   8   4
#     4  10  23  42  63  88 120 156 199 251 299 349
#     4  12  25  40  61  89 120 161 203 238 294 366
#     4  10  22  40  65  91 117 155 202 249 299 348
#     4  10  23  42  62  89 121 153 199 254 299 345
#     4  10  22  40  65  91 116 156 203 246 300 352
#     4  11  21  42  61  88 122 164 193 252 287 358
#     4  10  24  38  60  88 126 162 202 228 304 354
#
# _framework density 20.460946
#
# number of rings (size 3 to 8) (size 9 to 14) (size 15 to 20)
#    0.000    1.538    3.077    0.923    4.308    3.692 
#    0.000    4.615    0.000    0.000    0.000    0.000 
#    0.000    0.000    0.000    0.000    0.000    0.000 
#
# Total GULP energy -322172.762946 kJ/mol
# GULP energy per Si atom -12391.260113 kJ/mol
# Density = 2.041438 g / cm^3
# Si number density = 20.460946 Si / 1000 Ang^3
#
#
#
# Elastic Constant Matrix: (Units=GPa)
#
#
# Indices 1 2 3 4 5 6 
#
# 1 77.9945 20.0117 23.6847 0.0000 -5.3439 0.0000
# 2 20.0117 82.5003 49.1596 0.0000 2.2913 0.0000
# 3 23.6847 49.1596 88.1279 0.0000 3.5581 0.0000
# 4 0.0000 0.0000 0.0000 5.8502 0.0000 0.7178
# 5 -5.3439 2.2913 3.5581 0.0000 41.6520 0.0000
# 6 0.0000 0.0000 0.0000 0.7178 0.0000 23.8154
#
#
#
# Elastic Compliance Matrix: (Units=1/GPa)
#
#
# Indices 1 2 3 4 5 6 
#
# 1 0.014322 -0.001780 -0.002944 0.000000 0.002187 0.000000
# 2 -0.001780 0.018378 -0.009757 0.000000 -0.000406 0.000000
# 3 -0.002944 -0.009757 0.017635 0.000000 -0.001348 0.000000
# 4 0.000000 0.000000 0.000000 0.171568 0.000000 -0.005171
# 5 0.002187 -0.000406 -0.001348 0.000000 0.024426 0.000000
# 6 0.000000 0.000000 0.000000 -0.005171 0.000000 0.042146
#
#
# Mechanical properties :
#
#
# Convention : Reuss Voigt Hill
#
# Bulk Modulus (GPa) = 46.78869 48.25941 47.52405
# Shear Modulus (GPa) = 15.40534 24.64796 20.02665
#
# Velocity S-wave (km/s) = 2.74690 3.47455 3.13193
# Velocity P-wave (km/s) = 5.74261 6.30349 6.02958
#
# Compressibility (1/GPa) = 0.02137269
#
# Stress axis : x y z
#
# Youngs Moduli (GPa) = 69.82184 54.41251 56.70408
#
# Poissons Ratio (x) = 0.09687 0.16695
# Poissons Ratio (y) = 0.12431 0.55325
# Poissons Ratio (z) = 0.20558 0.53089
#
# Static dielectric constant tensor:
#      x y z
#    x 3.821100 0.000000 0.115630 
#    y 0.000000 3.307890 0.000000 
#    z 0.115630 0.000000 3.661070 
# 
# 
# High freq. dielectric constant tensor:
#      x y z
#    x 1.811820 0.000000 0.000240 
#    y 0.000000 1.783180 0.000000 
#    z 0.000240 0.000000 1.808150 
# 
# From -- ./inp_files/299855.got.cif
#   From: 2010.06.25/outbox.cif.g09.slc.cpg/sg12_150_cif.got.tgz:299855.got - 2010.06.28 00:19:55.
