data_PCOD8111509
_publ_section_title
;
Structure prediction by ZEFSAII (Michael W. Deem and Ramdas Pophale) SiO2 
 PCOD8111509
Probable space group: C 2/M
;
_chemical_formula_sum "Si O2"
_cell_formula_units_Z 64
_cell_length_a 31.946427
_cell_length_b 8.831374
_cell_length_c 14.902392
_cell_angle_alpha 90.000000
_cell_angle_beta 132.947820
_cell_angle_gamma 90.000000
_cell_volume 3077.531493
_symmetry_space_group_name_H-M "C 2/M"
_symmetry_group_IT_number 12
_symmetry_cell_setting 'monoclinic'
loop_
_space_group_symop_operation_xyz
x,y,z
-x,y,-z
-x,-y,-z
x,-y,z
1/2+x,1/2+y,z
1/2-x,1/2+y,-z
1/2-x,1/2-y,-z
1/2+x,1/2-y,z
loop_
_atom_site_type_symbol
_atom_site_label
_atom_site_fract_x
_atom_site_fract_y
_atom_site_fract_z
Si Si1 0.540539 0.822673 0.909422
Si Si2 0.373592 0.821477 0.493273
Si Si3 0.226931 0.174018 0.054797
Si Si4 0.742406 0.321443 0.717953
Si Si5 0.362257 0.822960 0.807885
Si Si6 0.065811 0.677082 0.603274
Si Si7 0.596387 0.326264 0.829093
Si Si8 0.423836 0.678546 0.739059
O O1 0.553372 0.772001 0.826442
O O2 0.484975 0.735760 0.865150
O O3 0.527715 0.000000 0.892046
O O4 0.593445 0.777990 0.049556
O O5 0.311117 0.748546 0.412537
O O6 0.401695 0.776891 0.439745
O O7 0.413966 0.754983 0.628770
O O8 0.368807 0.000000 0.498348
O O9 0.256507 0.255629 0.180931
O O10 0.245985 0.000000 0.083612
O O11 0.250000 0.250000 0.000000
O O12 0.159156 0.192953 0.961694
O O13 0.735621 0.500000 0.714646
O O14 0.799279 0.275389 0.747403
O O15 0.374999 0.728369 0.737279
O O16 0.366291 0.000000 0.791284
O O17 0.071303 0.500000 0.631851
O O18 0.095972 0.767709 0.727043
O O19 0.000000 0.726653 0.500000
O O20 0.576503 0.500000 0.802529
O O21 0.423406 0.500000 0.727700
#
# Coordination Sequence:
#
# PCOD8111509 Si02
#       8
#     8   8   8   8   8   8   8   8
#     4  11  22  41  67  94 128 168 211 261 317 385
#     4  11  24  43  66  93 127 171 218 265 318 383
#     4  11  23  38  59  89 125 164 209 259 315 376
#     4  11  23  42  66  93 127 167 213 265 320 378
#     4  10  23  43  67  94 125 168 214 260 319 386
#     4  10  22  40  62  88 121 166 215 259 311 378
#     4  11  23  37  59  92 126 161 204 258 315 372
#     4  12  26  42  65  96 128 165 209 267 325 380
#
# _framework density 20.795888000000001
#
# number of rings (size 3 to 8) (size 9 to 14) (size 15 to 20)
#    0.000    1.125    1.250    4.875    0.000    9.750 
#    0.000    0.000    0.000    0.000    0.000    0.000 
#    0.000    0.000    0.000    0.000    0.000    0.000 
#
# Total GULP energy -397074.906362 kJ/mol
# GULP energy per Si atom -12408.590824 kJ/mol
# Density = 2.074856 g / cm^3
# Si number density = 20.795888 Si / 1000 Ang^3
#
#
#
# Elastic Constant Matrix: (Units=GPa)
#
#
# Indices 1 2 3 4 5 6 
#
# 1 112.6044 46.7484 24.6091 0.0000 4.5796 0.0000
# 2 46.7484 91.2365 31.3423 0.0000 0.6671 0.0000
# 3 24.6091 31.3423 76.6971 0.0000 6.2943 0.0000
# 4 0.0000 0.0000 0.0000 38.5352 0.0000 -0.2533
# 5 4.5796 0.6671 6.2943 0.0000 37.9781 0.0000
# 6 0.0000 0.0000 0.0000 -0.2533 0.0000 32.5671
#
#
#
# Elastic Compliance Matrix: (Units=1/GPa)
#
#
# Indices 1 2 3 4 5 6 
#
# 1 0.011465 -0.005389 -0.001389 0.000000 -0.001058 0.000000
# 2 -0.005389 0.015300 -0.004617 0.000000 0.001146 0.000000
# 3 -0.001389 -0.004617 0.015562 0.000000 -0.002331 0.000000
# 4 0.000000 0.000000 0.000000 0.025952 0.000000 0.000202
# 5 -0.001058 0.001146 -0.002331 0.000000 0.026825 0.000000
# 6 0.000000 0.000000 0.000000 0.000202 0.000000 0.030707
#
#
# Mechanical properties :
#
#
# Convention : Reuss Voigt Hill
#
# Bulk Modulus (GPa) = 51.19056 53.99308 52.59182
# Shear Modulus (GPa) = 32.23448 33.67196 32.95322
#
# Velocity S-wave (km/s) = 3.94133 4.02825 3.98503
# Velocity P-wave (km/s) = 6.73656 6.90329 6.82043
#
# Compressibility (1/GPa) = 0.01953485
#
# Stress axis : x y z
#
# Youngs Moduli (GPa) = 87.22416 65.36096 64.25853
#
# Poissons Ratio (x) = 0.35225 0.08928
# Poissons Ratio (y) = 0.47008 0.29669
# Poissons Ratio (z) = 0.12119 0.30178
#
# Static dielectric constant tensor:
#      x y z
#    x 3.860230 0.000000 0.109180 
#    y 0.000000 3.747210 0.000000 
#    z 0.109180 0.000000 3.793350 
# 
# 
# High freq. dielectric constant tensor:
#      x y z
#    x 1.826250 0.000000 0.002650 
#    y 0.000000 1.818780 0.000000 
#    z 0.002650 0.000000 1.819150 
# 
# From -- ./inp_files/250068.got.cif
#   From: 2010.06.25/outbox.cif.g09.slc.cpg/sg12_126_cif.got.tgz:250068.got - 2010.06.28 00:19:55.
