data_PCOD8111902
_publ_section_title
;
Structure prediction by ZEFSAII (Michael W. Deem and Ramdas Pophale) SiO2 
 PCOD8111902
Probable space group: C 2/M
;
_chemical_formula_sum "Si O2"
_cell_formula_units_Z 56
_cell_length_a 25.091235
_cell_length_b 8.757784
_cell_length_c 18.434881
_cell_angle_alpha 90.000000
_cell_angle_beta 137.185655
_cell_angle_gamma 90.000000
_cell_volume 2753.125079
_symmetry_space_group_name_H-M "C 2/M"
_symmetry_group_IT_number 12
_symmetry_cell_setting 'monoclinic'
loop_
_space_group_symop_operation_xyz
x,y,z
-x,y,-z
-x,-y,-z
x,-y,z
1/2+x,1/2+y,z
1/2-x,1/2+y,-z
1/2-x,1/2-y,-z
1/2+x,1/2-y,z
loop_
_atom_site_type_symbol
_atom_site_label
_atom_site_fract_x
_atom_site_fract_y
_atom_site_fract_z
Si Si1 0.659123 0.820470 0.100825
Si Si2 0.050978 0.821903 0.882941
Si Si3 0.390897 0.321968 0.804696
Si Si4 0.465457 0.324668 0.298588
Si Si5 0.160473 0.174961 0.712525
Si Si6 0.107973 0.321842 0.519312
Si Si7 0.750551 0.321337 0.578740
O O1 0.610169 0.729733 0.112889
O O2 0.749849 0.769424 0.192888
O O3 0.650392 0.000000 0.104971
O O4 0.623379 0.773319 0.987696
O O5 0.038194 0.766895 0.787738
O O6 0.974500 0.784326 0.853671
O O7 0.072167 0.000000 0.906316
O O8 0.370801 0.500000 0.778778
O O9 0.327139 0.226427 0.698181
O O10 0.494630 0.500000 0.330605
O O11 0.379582 0.307687 0.248711
O O12 0.524498 0.219813 0.402435
O O13 0.111536 0.277987 0.607495
O O14 0.156940 0.000000 0.682207
O O15 0.123689 0.500000 0.525262
O O16 0.174163 0.227364 0.545146
O O17 0.750330 0.500000 0.569150
O O18 0.750000 0.250000 0.500000
#
# Coordination Sequence:
#
# PCOD8111902 Si02
#       7
#     8   8   8   8   8   8   8
#     4  11  23  39  62  91 123 163 210 258 309 370
#     4  10  23  41  62  89 122 161 206 257 313 370
#     4  11  22  39  62  90 123 162 208 255 308 370
#     4  10  22  42  65  88 122 167 209 257 318 374
#     4  10  22  41  64  90 122 165 211 255 311 376
#     4  12  24  39  62  93 126 162 206 257 310 369
#     4  12  24  39  61  91 127 165 204 251 308 370
#
# _framework density 20.340522
#
# number of rings (size 3 to 8) (size 9 to 14) (size 15 to 20)
#    0.000    1.143    1.429    5.143    0.000    8.000 
#    0.000    0.000    0.000    0.000    0.000    0.000 
#    0.000    0.000    0.000    0.000    0.000    0.000 
#
# Total GULP energy -347382.194755 kJ/mol
# GULP energy per Si atom -12406.506956 kJ/mol
# Density = 2.029423 g / cm^3
# Si number density = 20.340522 Si / 1000 Ang^3
#
#
#
# Elastic Constant Matrix: (Units=GPa)
#
#
# Indices 1 2 3 4 5 6 
#
# 1 131.7391 28.6357 45.9933 0.0000 -4.8591 0.0000
# 2 28.6357 109.9192 54.4717 0.0000 -0.3273 0.0000
# 3 45.9933 54.4717 139.7089 0.0000 -5.6349 0.0000
# 4 0.0000 0.0000 0.0000 33.4590 0.0000 0.2656
# 5 -4.8591 -0.3273 -5.6349 0.0000 23.3592 0.0000
# 6 0.0000 0.0000 0.0000 0.2656 0.0000 26.2854
#
#
#
# Elastic Compliance Matrix: (Units=1/GPa)
#
#
# Indices 1 2 3 4 5 6 
#
# 1 0.008707 -0.001077 -0.002397 0.000000 0.001218 0.000000
# 2 -0.001077 0.011429 -0.004144 0.000000 -0.001064 0.000000
# 3 -0.002397 -0.004144 0.009634 0.000000 0.001767 0.000000
# 4 0.000000 0.000000 0.000000 0.029890 0.000000 -0.000302
# 5 0.001218 -0.001064 0.001767 0.000000 0.043474 0.000000
# 6 0.000000 0.000000 0.000000 -0.000302 0.000000 0.038047
#
#
# Mechanical properties :
#
#
# Convention : Reuss Voigt Hill
#
# Bulk Modulus (GPa) = 68.81053 71.06317 69.93685
# Shear Modulus (GPa) = 31.00544 33.43847 32.22196
#
# Velocity S-wave (km/s) = 3.90849 4.05894 3.98443
# Velocity P-wave (km/s) = 7.36689 7.54846 7.45823
#
# Compressibility (1/GPa) = 0.01453266
#
# Stress axis : x y z
#
# Youngs Moduli (GPa) = 114.85426 87.49885 103.79681
#
# Poissons Ratio (x) = 0.09419 0.24885
# Poissons Ratio (y) = 0.12364 0.43019
# Poissons Ratio (z) = 0.27536 0.36264
#
# Static dielectric constant tensor:
#      x y z
#    x 3.817430 0.000000 -0.050260 
#    y 0.000000 3.696670 0.000000 
#    z -0.050260 0.000000 3.723510 
# 
# 
# High freq. dielectric constant tensor:
#      x y z
#    x 1.805110 0.000000 -0.002370 
#    y 0.000000 1.794650 0.000000 
#    z -0.002370 0.000000 1.801860 
# 
# From -- ./inp_files/292572.got.cif
#   From: 2010.06.25/outbox.cif.g09.slc.cpg/sg12_147_cif.got.tgz:292572.got - 2010.06.28 00:19:55.
