data_PCOD8111332
_publ_section_title
;
Structure prediction by ZEFSAII (Michael W. Deem and Ramdas Pophale) SiO2 
 PCOD8111332
Probable space group: C 2/M
;
_chemical_formula_sum "Si O2"
_cell_formula_units_Z 40
_cell_length_a 13.086409
_cell_length_b 29.482196
_cell_length_c 5.870057
_cell_angle_alpha 90.000000
_cell_angle_beta 59.233916
_cell_angle_gamma 90.000000
_cell_volume 1946.026149
_symmetry_space_group_name_H-M "C 2/M"
_symmetry_group_IT_number 12
_symmetry_cell_setting 'monoclinic'
loop_
_space_group_symop_operation_xyz
x,y,z
-x,y,-z
-x,-y,-z
x,-y,z
1/2+x,1/2+y,z
1/2-x,1/2+y,-z
1/2-x,1/2-y,-z
1/2+x,1/2-y,z
loop_
_atom_site_type_symbol
_atom_site_label
_atom_site_fract_x
_atom_site_fract_y
_atom_site_fract_z
Si Si1 0.293618 0.649949 0.527014
Si Si2 0.624049 0.723750 0.229481
Si Si3 0.127990 0.405454 0.975517
Si Si4 0.865001 0.322392 0.696932
Si Si5 0.000000 0.171665 0.000000
Si Si6 0.066026 0.500000 0.175073
O O1 0.299421 0.686182 0.724153
O O2 0.237720 0.601914 0.675144
O O3 0.198050 0.670829 0.468357
O O4 0.423398 0.640897 0.264005
O O5 0.500000 0.730281 0.500000
O O6 0.686003 0.774577 0.137184
O O7 0.597772 0.703193 0.010255
O O8 0.146663 0.366739 0.138753
O O9 0.143371 0.454034 0.082424
O O10 0.000000 0.401056 0.000000
O O11 0.000000 0.311922 0.500000
O O12 0.000000 0.500000 0.500000
O O13 0.000000 0.500000 0.000000
#
# Coordination Sequence:
#
# PCOD8111332 Si02
#       6
#     8   8   8   8   4   4
#     4  11  22  38  58  87 123 168 216 261 315 386
#     4   9  21  36  56  83 123 170 214 264 313 372
#     4  11  23  38  62  92 124 163 210 265 331 391
#     4  11  21  35  59  89 126 163 211 266 324 386
#     4  10  22  40  56  81 122 173 220 262 312 370
#     4  10  24  44  68  95 137 167 210 270 341 405
#
# _framework density 20.554708000000002
#
# number of rings (size 3 to 8) (size 9 to 14) (size 15 to 20)
#    0.000    1.600    2.000    2.400    4.200    4.800 
#    0.000    0.000    0.000    0.600    0.000   13.300 
#    0.000    0.000    0.000    0.000    0.000    0.000 
#
# Total GULP energy -247810.207133 kJ/mol
# GULP energy per Si atom -12390.510357 kJ/mol
# Density = 2.050792 g / cm^3
# Si number density = 20.554708 Si / 1000 Ang^3
#
#
#
# Elastic Constant Matrix: (Units=GPa)
#
#
# Indices 1 2 3 4 5 6 
#
# 1 97.4776 49.9765 41.7386 0.0000 13.7913 0.0000
# 2 49.9765 177.0321 84.9949 0.0000 -17.2458 0.0000
# 3 41.7386 84.9949 120.4855 0.0000 -5.7736 0.0000
# 4 0.0000 0.0000 0.0000 36.4873 0.0000 -6.5841
# 5 13.7913 -17.2458 -5.7736 0.0000 42.8356 0.0000
# 6 0.0000 0.0000 0.0000 -6.5841 0.0000 20.1221
#
#
#
# Elastic Compliance Matrix: (Units=1/GPa)
#
#
# Indices 1 2 3 4 5 6 
#
# 1 0.013998 -0.003149 -0.002923 0.000000 -0.006168 0.000000
# 2 -0.003149 0.009558 -0.005454 0.000000 0.004127 0.000000
# 3 -0.002923 -0.005454 0.013185 0.000000 0.000522 0.000000
# 4 0.000000 0.000000 0.000000 0.029127 0.000000 0.009530
# 5 -0.006168 0.004127 0.000522 0.000000 0.027063 0.000000
# 6 0.000000 0.000000 0.000000 0.009530 0.000000 0.052815
#
#
# Mechanical properties :
#
#
# Convention : Reuss Voigt Hill
#
# Bulk Modulus (GPa) = 73.05557 83.15725 78.10641
# Shear Modulus (GPa) = 28.84155 34.44135 31.64145
#
# Velocity S-wave (km/s) = 3.74994 4.09784 3.92775
# Velocity P-wave (km/s) = 7.37351 7.93310 7.65842
#
# Compressibility (1/GPa) = 0.01368821
#
# Stress axis : x y z
#
# Youngs Moduli (GPa) = 71.44051 104.62145 75.84381
#
# Poissons Ratio (x) = 0.32945 0.22171
# Poissons Ratio (y) = 0.22497 0.41366
# Poissons Ratio (z) = 0.20884 0.57062
#
# Static dielectric constant tensor:
#      x y z
#    x 3.903900 0.000000 -0.195560 
#    y 0.000000 3.910450 0.000000 
#    z -0.195560 0.000000 4.230210 
# 
# 
# High freq. dielectric constant tensor:
#      x y z
#    x 1.807240 0.000000 -0.009410 
#    y 0.000000 1.780190 0.000000 
#    z -0.009410 0.000000 1.837300 
# 
# From -- ./inp_files/8562.got.cif
#   From: 2010.06.25/outbox.cif.g09.slc.cpg/sg12_5_cif.got.tgz:8562.got - 2010.06.28 00:19:55.
