data_PCOD8111497
_publ_section_title
;
Structure prediction by ZEFSAII (Michael W. Deem and Ramdas Pophale) SiO2 
 PCOD8111497
Probable space group: C 2/M
;
_chemical_formula_sum "Si O2"
_cell_formula_units_Z 40
_cell_length_a 13.208657
_cell_length_b 28.379526
_cell_length_c 9.396382
_cell_angle_alpha 90.000000
_cell_angle_beta 31.837972
_cell_angle_gamma 90.000000
_cell_volume 1858.071907
_symmetry_space_group_name_H-M "C 2/M"
_symmetry_group_IT_number 12
_symmetry_cell_setting 'monoclinic'
loop_
_space_group_symop_operation_xyz
x,y,z
-x,y,-z
-x,-y,-z
x,-y,z
1/2+x,1/2+y,z
1/2-x,1/2+y,-z
1/2-x,1/2-y,-z
1/2+x,1/2-y,z
loop_
_atom_site_type_symbol
_atom_site_label
_atom_site_fract_x
_atom_site_fract_y
_atom_site_fract_z
Si Si1 0.637077 0.553107 0.202723
Si Si2 0.925162 0.697025 0.741783
Si Si3 0.583941 0.382953 0.743440
Si Si4 0.996618 0.778554 0.838576
Si Si5 0.504446 0.108344 0.159909
O O1 0.500000 0.559346 0.500000
O O2 0.626398 0.500000 0.155254
O O3 0.570563 0.590251 0.165734
O O4 0.856678 0.563642 0.983356
O O5 0.068865 0.735430 0.649233
O O6 0.905173 0.652307 0.866535
O O7 0.000000 0.680119 0.500000
O O8 0.719118 0.717579 0.956733
O O9 0.606969 0.327543 0.676518
O O10 0.794597 0.405347 0.472079
O O11 0.500000 0.387552 0.000000
O O12 0.000000 0.764013 0.000000
O O13 0.500000 0.121408 0.000000
#
# Coordination Sequence:
#
# PCOD8111497 Si02
#       5
#     8   8   8   8   8
#     4  11  25  47  72 102 135 172 229 286 345 414
#     4  11  23  38  64  97 136 179 230 278 325 396
#     4  11  24  44  71  99 142 179 222 282 341 398
#     4  10  22  40  61  94 137 182 224 272 331 397
#     4  12  25  42  70 101 133 182 227 274 342 411
#
# _framework density 21.527691000000001
#
# number of rings (size 3 to 8) (size 9 to 14) (size 15 to 20)
#    0.000    1.000    4.000    3.000    0.000    8.800 
#    0.000    1.000    0.000    0.000    0.000    0.000 
#    0.000    0.000    0.000    0.000    0.000    0.000 
#
# Total GULP energy -247968.131723 kJ/mol
# GULP energy per Si atom -12398.406586 kJ/mol
# Density = 2.147869 g / cm^3
# Si number density = 21.527691 Si / 1000 Ang^3
#
#
#
# Elastic Constant Matrix: (Units=GPa)
#
#
# Indices 1 2 3 4 5 6 
#
# 1 121.2014 50.4826 39.6999 0.0000 13.8509 0.0000
# 2 50.4826 95.0905 36.9748 0.0000 18.7737 0.0000
# 3 39.6999 36.9748 117.3308 0.0000 -0.2247 0.0000
# 4 0.0000 0.0000 0.0000 -109.9548 0.0000 -27.2914
# 5 13.8509 18.7737 -0.2247 0.0000 32.7645 0.0000
# 6 0.0000 0.0000 0.0000 -27.2914 0.0000 20.4368
#
#
#
# Elastic Compliance Matrix: (Units=1/GPa)
#
#
# Indices 1 2 3 4 5 6 
#
# 1 0.011175 -0.004612 -0.002332 0.000000 -0.002098 0.000000
# 2 -0.004612 0.015677 -0.003393 0.000000 -0.007057 0.000000
# 3 -0.002332 -0.003393 0.010387 0.000000 0.003001 0.000000
# 4 0.000000 0.000000 0.000000 -0.006831 0.000000 -0.009122
# 5 -0.002098 -0.007057 0.003001 0.000000 0.035472 0.000000
# 6 0.000000 0.000000 0.000000 -0.009122 0.000000 0.036750
#
#
# Mechanical properties :
#
#
# Convention : Reuss Voigt Hill
#
# Bulk Modulus (GPa) = 60.36793 65.32637 62.84715
# Shear Modulus (GPa) = 38.81163 2.41365 20.61264
#
# Velocity S-wave (km/s) = 4.25063 1.06001 3.09770
# Velocity P-wave (km/s) = 7.22449 5.64883 6.48470
#
# Compressibility (1/GPa) = 0.01656509
#
# Stress axis : x y z
#
# Youngs Moduli (GPa) = 89.48364 63.78587 96.27359
#
# Poissons Ratio (x) = 0.29418 0.22450
# Poissons Ratio (y) = 0.41270 0.32670
# Poissons Ratio (z) = 0.20866 0.21646
#
# Static dielectric constant tensor:
#      x y z
#    x 4.444240 0.000000 0.611400 
#    y 0.000000 3.965110 0.000000 
#    z 0.611400 0.000000 4.380090 
# 
# 
# High freq. dielectric constant tensor:
#      x y z
#    x 1.868570 0.000000 -0.008010 
#    y 0.000000 1.835140 0.000000 
#    z -0.008010 0.000000 1.845030 
# 
# From -- ./inp_files/54002.got.cif
#   From: 2010.06.25/outbox.cif.g09.slc.cpg/sg12_28_cif.got.tgz:54002.got - 2010.06.28 00:19:55.
