data_PCOD8111397
_publ_section_title
;
Structure prediction by ZEFSAII (Michael W. Deem and Ramdas Pophale) SiO2 
 PCOD8111397
Probable space group: C 2/M
;
_chemical_formula_sum "Si O2"
_cell_formula_units_Z 40
_cell_length_a 9.929473
_cell_length_b 8.966827
_cell_length_c 22.017970
_cell_angle_alpha 90.000000
_cell_angle_beta 96.729194
_cell_angle_gamma 90.000000
_cell_volume 1946.884063
_symmetry_space_group_name_H-M "C 2/M"
_symmetry_group_IT_number 12
_symmetry_cell_setting 'monoclinic'
loop_
_space_group_symop_operation_xyz
x,y,z
-x,y,-z
-x,-y,-z
x,-y,z
1/2+x,1/2+y,z
1/2-x,1/2+y,-z
1/2-x,1/2-y,-z
1/2+x,1/2-y,z
loop_
_atom_site_type_symbol
_atom_site_label
_atom_site_fract_x
_atom_site_fract_y
_atom_site_fract_z
Si Si1 0.625527 0.170596 0.962356
Si Si2 0.731960 0.672546 0.237160
Si Si3 0.026895 0.172166 0.432983
Si Si4 0.443943 0.672528 0.166161
Si Si5 0.737016 0.827565 0.362407
O O1 0.592299 0.243682 0.896868
O O2 0.664333 0.000000 0.952187
O O3 0.500000 0.187244 0.000000
O O4 0.750000 0.250000 0.000000
O O5 0.771942 0.500000 0.243839
O O6 0.602339 0.695913 0.187303
O O7 0.858154 0.763028 0.217347
O O8 0.696197 0.732320 0.301703
O O9 0.894077 0.197706 0.385499
O O10 0.000000 0.225188 0.500000
O O11 0.147533 0.273095 0.414049
O O12 0.072604 0.000000 0.434213
O O13 0.406653 0.500000 0.156749
O O14 0.705501 0.000000 0.348088
#
# Coordination Sequence:
#
# PCOD8111397 Si02
#       5
#     8   8   8   8   8
#     4  11  24  41  63  91 122 158 199 243 293 349
#     4  11  24  41  62  88 120 158 197 242 297 352
#     4  10  22  40  60  85 119 156 196 244 296 351
#     4  11  24  41  62  89 120 155 198 245 293 349
#     4  11  23  38  60  89 118 153 198 244 293 352
#
# _framework density 20.545649999999998
#
# number of rings (size 3 to 8) (size 9 to 14) (size 15 to 20)
#    0.000    1.200    0.000    5.400    0.000   14.800 
#    0.000    0.000    0.000    0.000    0.000    0.000 
#    0.000    0.000    0.000    0.000    0.000    0.000 
#
# Total GULP energy -248169.106347 kJ/mol
# GULP energy per Si atom -12408.455317 kJ/mol
# Density = 2.049889 g / cm^3
# Si number density = 20.545650 Si / 1000 Ang^3
#
#
#
# Elastic Constant Matrix: (Units=GPa)
#
#
# Indices 1 2 3 4 5 6 
#
# 1 59.0445 51.9984 0.7345 0.0000 -8.0728 0.0000
# 2 51.9984 129.6722 41.9281 0.0000 0.9883 0.0000
# 3 0.7345 41.9281 101.6610 0.0000 -2.9359 0.0000
# 4 0.0000 0.0000 0.0000 39.6551 0.0000 -6.6849
# 5 -8.0728 0.9883 -2.9359 0.0000 33.8028 0.0000
# 6 0.0000 0.0000 0.0000 -6.6849 0.0000 36.3088
#
#
#
# Elastic Compliance Matrix: (Units=1/GPa)
#
#
# Indices 1 2 3 4 5 6 
#
# 1 0.030470 -0.014177 0.005864 0.000000 0.008200 0.000000
# 2 -0.014177 0.015506 -0.006420 0.000000 -0.004397 0.000000
# 3 0.005864 -0.006420 0.012519 0.000000 0.002675 0.000000
# 4 0.000000 0.000000 0.000000 0.026025 0.000000 0.004792
# 5 0.008200 -0.004397 0.002675 0.000000 0.031903 0.000000
# 6 0.000000 0.000000 0.000000 0.004792 0.000000 0.028424
#
#
# Mechanical properties :
#
#
# Convention : Reuss Voigt Hill
#
# Bulk Modulus (GPa) = 34.44825 53.29998 43.87411
# Shear Modulus (GPa) = 27.17571 35.00112 31.08842
#
# Velocity S-wave (km/s) = 3.64084 4.13192 3.89413
# Velocity P-wave (km/s) = 5.87174 6.98300 6.45134
#
# Compressibility (1/GPa) = 0.02902905
#
# Stress axis : x y z
#
# Youngs Moduli (GPa) = 32.81967 64.49197 79.87767
#
# Poissons Ratio (x) = 0.91428 -0.46837
# Poissons Ratio (y) = 0.46527 0.51278
# Poissons Ratio (z) = -0.19244 0.41401
#
# Static dielectric constant tensor:
#      x y z
#    x 3.758650 0.000000 -0.034130 
#    y 0.000000 3.876210 0.000000 
#    z -0.034130 0.000000 3.733560 
# 
# 
# High freq. dielectric constant tensor:
#      x y z
#    x 1.813840 0.000000 -0.001030 
#    y 0.000000 1.815710 0.000000 
#    z -0.001030 0.000000 1.819780 
# 
# From -- ./inp_files/260982.got.cif
#   From: 2010.06.25/outbox.cif.g09.slc.cpg/sg12_131_cif.got.tgz:260982.got - 2010.06.28 00:19:55.
