data_PCOD8111521
_publ_section_title
;
Structure prediction by ZEFSAII (Michael W. Deem and Ramdas Pophale) SiO2 
 PCOD8111521
Probable space group: C 2/M
;
_chemical_formula_sum "Si O2"
_cell_formula_units_Z 32
_cell_length_a 17.838783
_cell_length_b 8.176537
_cell_length_c 20.528284
_cell_angle_alpha 90.000000
_cell_angle_beta 149.867766
_cell_angle_gamma 90.000000
_cell_volume 1503.102957
_symmetry_space_group_name_H-M "C 2/M"
_symmetry_group_IT_number 12
_symmetry_cell_setting 'monoclinic'
loop_
_space_group_symop_operation_xyz
x,y,z
-x,y,-z
-x,-y,-z
x,-y,z
1/2+x,1/2+y,z
1/2-x,1/2+y,-z
1/2-x,1/2-y,-z
1/2+x,1/2-y,z
loop_
_atom_site_type_symbol
_atom_site_label
_atom_site_fract_x
_atom_site_fract_y
_atom_site_fract_z
Si Si1 0.668750 0.188232 0.631568
Si Si2 0.822186 0.689485 0.620466
Si Si3 0.664333 0.188862 0.120409
Si Si4 0.344514 0.305544 0.132400
O O1 0.500000 0.254171 0.500000
O O2 0.750155 0.207067 0.624185
O O3 0.752961 0.292187 0.749157
O O4 0.670602 0.000000 0.654606
O O5 0.785456 0.500000 0.603807
O O6 0.750000 0.750000 0.500000
O O7 0.998049 0.716060 0.751726
O O8 0.761132 0.262900 0.134111
O O9 0.642093 0.000000 0.087459
O O10 0.500000 0.272841 0.000000
O O11 0.367966 0.500000 0.151123
O O12 0.250000 0.250000 0.000000
#
# Coordination Sequence:
#
# PCOD8111521 Si02
#       4
#     8   8   8   8
#     4  11  24  41  63  92 123 157 202 254 309 370
#     4  12  25  42  64  90 124 164 208 257 308 366
#     4  10  22  40  62  90 123 160 202 248 302 364
#     4  11  23  40  64  94 128 165 206 253 307 367
#
# _framework density 21.289293000000001
#
# number of rings (size 3 to 8) (size 9 to 14) (size 15 to 20)
#    0.000    1.000    0.000    6.750    0.000   10.500 
#    0.000    0.000    0.000    0.000    0.000    0.000 
#    0.000    0.000    0.000    0.000    0.000    0.000 
#
# Total GULP energy -198503.170304 kJ/mol
# GULP energy per Si atom -12406.448144 kJ/mol
# Density = 2.124084 g / cm^3
# Si number density = 21.289293 Si / 1000 Ang^3
#
#
#
# Elastic Constant Matrix: (Units=GPa)
#
#
# Indices 1 2 3 4 5 6 
#
# 1 169.3494 -6.4995 69.5241 0.0000 4.5884 0.0000
# 2 -6.4995 48.6477 0.6725 -0.0001 4.4673 -0.0002
# 3 69.5241 0.6725 172.6612 -0.0003 6.2733 -0.0002
# 4 0.0000 -0.0001 -0.0003 37.0248 -0.0001 -2.6555
# 5 4.5884 4.4673 6.2733 -0.0001 50.3495 0.0000
# 6 0.0000 -0.0002 -0.0002 -2.6555 0.0000 13.3625
#
#
#
# Elastic Compliance Matrix: (Units=1/GPa)
#
#
# Indices 1 2 3 4 5 6 
#
# 1 0.007129 0.001027 -0.002861 0.000000 -0.000384 0.000000
# 2 0.001027 0.020873 -0.000426 0.000000 -0.001892 0.000000
# 3 -0.002861 -0.000426 0.006966 0.000000 -0.000569 0.000000
# 4 0.000000 0.000000 0.000000 0.027399 0.000000 0.005445
# 5 -0.000384 -0.001892 -0.000569 0.000000 0.020135 0.000000
# 6 0.000000 0.000000 0.000000 0.005445 0.000000 0.075918
#
#
# Mechanical properties :
#
#
# Convention : Reuss Voigt Hill
#
# Bulk Modulus (GPa) = 32.84194 57.56140 45.20167
# Shear Modulus (GPa) = 28.88677 41.94478 35.41577
#
# Velocity S-wave (km/s) = 3.68757 4.44354 4.08309
# Velocity P-wave (km/s) = 5.79576 7.30912 6.59598
#
# Compressibility (1/GPa) = 0.03044887
#
# Stress axis : x y z
#
# Youngs Moduli (GPa) = 140.26795 47.90908 143.55584
#
# Poissons Ratio (x) = -0.04922 0.41067
# Poissons Ratio (y) = -0.14410 0.06118
# Poissons Ratio (z) = 0.40126 0.02042
#
# Static dielectric constant tensor:
#      x y z
#    x 4.154940 0.000000 0.186850 
#    y 0.000000 3.702340 0.000000 
#    z 0.186850 0.000000 3.902520 
# 
# 
# High freq. dielectric constant tensor:
#      x y z
#    x 1.854980 0.000000 0.004100 
#    y 0.000000 1.829900 0.000000 
#    z 0.004100 0.000000 1.853440 
# 
# From -- ./inp_files/101334.got.cif
#   From: 2010.06.25/outbox.cif.g09.slc.cpg/sg12_51_cif.got.tgz:101334.got - 2010.06.28 00:19:55.
