data_PCOD8111439
_publ_section_title
;
Structure prediction by ZEFSAII (Michael W. Deem and Ramdas Pophale) SiO2 
 PCOD8111439
Probable space group: C 2/M
;
_chemical_formula_sum "Si O2"
_cell_formula_units_Z 40
_cell_length_a 16.984069
_cell_length_b 13.680598
_cell_length_c 12.785987
_cell_angle_alpha 90.000000
_cell_angle_beta 38.745974
_cell_angle_gamma 90.000000
_cell_volume 1859.363485
_symmetry_space_group_name_H-M "C 2/M"
_symmetry_group_IT_number 12
_symmetry_cell_setting 'monoclinic'
loop_
_space_group_symop_operation_xyz
x,y,z
-x,y,-z
-x,-y,-z
x,-y,z
1/2+x,1/2+y,z
1/2-x,1/2+y,-z
1/2-x,1/2-y,-z
1/2+x,1/2-y,z
loop_
_atom_site_type_symbol
_atom_site_label
_atom_site_fract_x
_atom_site_fract_y
_atom_site_fract_z
Si Si1 0.744364 0.112938 0.778702
Si Si2 0.637022 0.806299 0.318091
Si Si3 0.403819 0.112309 0.855236
Si Si4 0.360874 0.791471 0.316412
Si Si5 0.623583 0.605272 0.808607
O O1 0.860138 0.188303 0.670082
O O2 0.673536 0.137726 0.744444
O O3 0.790468 0.000000 0.729517
O O4 0.652866 0.133161 0.971750
O O5 0.500000 0.843822 0.500000
O O6 0.663012 0.829934 0.169509
O O7 0.751967 0.855786 0.261045
O O8 0.548289 0.146302 0.704492
O O9 0.394591 0.000000 0.834682
O O10 0.250000 0.750000 0.500000
O O11 0.426473 0.690208 0.215102
O O12 0.660389 0.500000 0.717504
O O13 0.500000 0.581847 0.000000
#
# Coordination Sequence:
#
# PCOD8111439 Si02
#       5
#     8   8   8   8   8
#     4  10  22  40  61  86 121 164 206 249 303 370
#     4  11  23  40  63  93 127 159 201 257 310 363
#     4  11  22  38  63  90 120 163 209 254 305 363
#     4  11  22  37  59  88 122 159 202 254 306 363
#     4  10  22  41  63  86 117 159 203 248 300 361
#
# _framework density 21.512739
#
# number of rings (size 3 to 8) (size 9 to 14) (size 15 to 20)
#    0.000    1.400    0.000    7.200    0.000    6.800 
#    0.000    3.000    0.000    0.000    0.000    0.000 
#    0.000    0.000    0.000    0.000    0.000    0.000 
#
# Total GULP energy -247761.762057 kJ/mol
# GULP energy per Si atom -12388.088103 kJ/mol
# Density = 2.146378 g / cm^3
# Si number density = 21.512739 Si / 1000 Ang^3
#
#
#
# Elastic Constant Matrix: (Units=GPa)
#
#
# Indices 1 2 3 4 5 6 
#
# 1 65.1707 32.7203 5.2428 0.0000 -5.2899 0.0000
# 2 32.7203 142.7492 14.2098 0.0000 4.0250 0.0000
# 3 5.2428 14.2098 62.7562 0.0000 -7.8575 0.0000
# 4 0.0000 0.0000 0.0000 34.5732 0.0000 -12.9704
# 5 -5.2899 4.0250 -7.8575 0.0000 37.6440 0.0000
# 6 0.0000 0.0000 0.0000 -12.9704 0.0000 26.8064
#
#
#
# Elastic Compliance Matrix: (Units=1/GPa)
#
#
# Indices 1 2 3 4 5 6 
#
# 1 0.017657 -0.004110 -0.000184 0.000000 0.002882 0.000000
# 2 -0.004110 0.008171 -0.001734 0.000000 -0.001813 0.000000
# 3 -0.000184 -0.001734 0.016802 0.000000 0.003667 0.000000
# 4 0.000000 0.000000 0.000000 0.035339 0.000000 0.017099
# 5 0.002882 -0.001813 0.003667 0.000000 0.027929 0.000000
# 6 0.000000 0.000000 0.000000 0.017099 0.000000 0.045578
#
#
# Mechanical properties :
#
#
# Convention : Reuss Voigt Hill
#
# Bulk Modulus (GPa) = 32.70710 41.66909 37.18809
# Shear Modulus (GPa) = 28.78168 34.37160 31.57664
#
# Velocity S-wave (km/s) = 3.66169 4.00150 3.83536
# Velocity P-wave (km/s) = 5.75446 6.38443 6.07761
#
# Compressibility (1/GPa) = 0.03057441
#
# Stress axis : x y z
#
# Youngs Moduli (GPa) = 56.63591 122.38219 59.51784
#
# Poissons Ratio (x) = 0.50301 0.01092
# Poissons Ratio (y) = 0.23278 0.10319
# Poissons Ratio (z) = 0.01039 0.21219
#
# Static dielectric constant tensor:
#      x y z
#    x 3.757160 0.000000 0.143810 
#    y 0.000000 3.781080 0.000000 
#    z 0.143810 0.000000 3.818520 
# 
# 
# High freq. dielectric constant tensor:
#      x y z
#    x 1.834340 0.000000 0.005150 
#    y 0.000000 1.868330 0.000000 
#    z 0.005150 0.000000 1.841300 
# 
# From -- ./inp_files/155753.got.cif
#   From: 2010.06.25/outbox.cif.g09.slc.cpg/sg12_78_cif.got.tgz:155753.got - 2010.06.28 00:19:55.
