data_PCOD8111948
_publ_section_title
;
Structure prediction by ZEFSAII (Michael W. Deem and Ramdas Pophale) SiO2 
 PCOD8111948
Probable space group: C 2/M
;
_chemical_formula_sum "Si O2"
_cell_formula_units_Z 48
_cell_length_a 13.973837
_cell_length_b 23.274399
_cell_length_c 7.546822
_cell_angle_alpha 90.000000
_cell_angle_beta 112.885973
_cell_angle_gamma 90.000000
_cell_volume 2261.258441
_symmetry_space_group_name_H-M "C 2/M"
_symmetry_group_IT_number 12
_symmetry_cell_setting 'monoclinic'
loop_
_space_group_symop_operation_xyz
x,y,z
-x,y,-z
-x,-y,-z
x,-y,z
1/2+x,1/2+y,z
1/2-x,1/2+y,-z
1/2-x,1/2-y,-z
1/2+x,1/2-y,z
loop_
_atom_site_type_symbol
_atom_site_label
_atom_site_fract_x
_atom_site_fract_y
_atom_site_fract_z
Si Si1 0.785592 0.356526 0.572433
Si Si2 0.945416 0.825030 0.630725
Si Si3 0.280310 0.933845 0.917183
Si Si4 0.014519 0.290501 0.206250
Si Si5 0.953309 0.064182 0.160200
Si Si6 0.600543 0.883527 0.676642
O O1 0.676695 0.324791 0.487184
O O2 0.795015 0.399546 0.745017
O O3 0.804123 0.386573 0.394150
O O4 0.872206 0.307865 0.645215
O O5 0.000000 0.798359 0.500000
O O6 0.984600 0.779251 0.805361
O O7 0.982954 0.890222 0.680863
O O8 0.168249 0.919624 0.923012
O O9 0.290268 0.000000 0.872247
O O10 0.367974 0.919962 0.127174
O O11 0.927655 0.319066 0.272368
O O12 0.000000 0.315285 0.000000
O O13 0.970788 0.000000 0.251199
O O14 0.000000 0.067761 0.000000
O O15 0.500000 0.909610 0.500000
#
# Coordination Sequence:
#
# PCOD8111948 Si02
#       6
#     8   8   8   8   8   8
#     4  11  23  43  65  95 136 172 218 277 324 386
#     4  12  23  39  64  98 130 169 223 260 333 394
#     4  11  23  42  68  99 133 177 220 268 331 388
#     4  11  23  43  66  91 130 174 220 275 327 388
#     4  10  22  41  64  93 132 171 218 272 320 388
#     4  10  23  43  67  93 135 171 221 275 326 384
#
# _framework density 21.227118000000001
#
# number of rings (size 3 to 8) (size 9 to 14) (size 15 to 20)
#    0.000    1.167    3.333    3.500    0.000    2.000 
#    0.000    8.333    0.000    0.000    0.000    0.000 
#    0.000    0.000    0.000    0.000    0.000    0.000 
#
# Total GULP energy -297441.418037 kJ/mol
# GULP energy per Si atom -12393.392418 kJ/mol
# Density = 2.117880 g / cm^3
# Si number density = 21.227118 Si / 1000 Ang^3
#
#
#
# Elastic Constant Matrix: (Units=GPa)
#
#
# Indices 1 2 3 4 5 6 
#
# 1 128.9848 28.7780 38.8054 0.0000 -17.4764 0.0000
# 2 28.7780 97.6228 28.2504 0.0000 -7.2939 0.0000
# 3 38.8054 28.2504 99.7222 0.0000 -20.8369 0.0000
# 4 0.0000 0.0000 0.0000 30.2955 0.0000 -0.4296
# 5 -17.4764 -7.2939 -20.8369 0.0000 32.7323 0.0000
# 6 0.0000 0.0000 0.0000 -0.4296 0.0000 19.5238
#
#
#
# Elastic Compliance Matrix: (Units=1/GPa)
#
#
# Indices 1 2 3 4 5 6 
#
# 1 0.009308 -0.001801 -0.002488 0.000000 0.002984 0.000000
# 2 -0.001801 0.011515 -0.002568 0.000000 -0.000030 0.000000
# 3 -0.002488 -0.002568 0.013064 0.000000 0.006416 0.000000
# 4 0.000000 0.000000 0.000000 0.033019 0.000000 0.000727
# 5 0.002984 -0.000030 0.006416 0.000000 0.036222 0.000000
# 6 0.000000 0.000000 0.000000 0.000727 0.000000 0.051236
#
#
# Mechanical properties :
#
#
# Convention : Reuss Voigt Hill
#
# Bulk Modulus (GPa) = 49.56989 57.55525 53.56257
# Shear Modulus (GPa) = 28.60407 31.87671 30.24039
#
# Velocity S-wave (km/s) = 3.67485 3.87938 3.77850
# Velocity P-wave (km/s) = 6.43497 6.87306 6.65762
#
# Compressibility (1/GPa) = 0.02017354
#
# Stress axis : x y z
#
# Youngs Moduli (GPa) = 107.43976 86.84220 76.54586
#
# Poissons Ratio (x) = 0.15638 0.19046
# Poissons Ratio (y) = 0.19347 0.19654
# Poissons Ratio (z) = 0.26733 0.22298
#
# Static dielectric constant tensor:
#      x y z
#    x 4.053240 0.000000 -0.083710 
#    y 0.000000 3.726320 0.000000 
#    z -0.083710 0.000000 3.771180 
# 
# 
# High freq. dielectric constant tensor:
#      x y z
#    x 1.843530 0.000000 -0.010370 
#    y 0.000000 1.823370 0.000000 
#    z -0.010370 0.000000 1.838480 
# 
# From -- ./inp_files/51451.got.cif
#   From: 2010.06.25/outbox.cif.g09.slc.cpg/sg12_26_cif.got.tgz:51451.got - 2010.06.28 00:19:55.
