data_PCOD8111044
_publ_section_title
;
Structure prediction by ZEFSAII (Michael W. Deem and Ramdas Pophale) SiO2 
 PCOD8111044
Probable space group: C 2/M
;
_chemical_formula_sum "Si O2"
_cell_formula_units_Z 56
_cell_length_a 15.831023
_cell_length_b 8.876593
_cell_length_c 22.706027
_cell_angle_alpha 90.000000
_cell_angle_beta 121.892062
_cell_angle_gamma 90.000000
_cell_volume 2709.112815
_symmetry_space_group_name_H-M "C 2/M"
_symmetry_group_IT_number 12
_symmetry_cell_setting 'monoclinic'
loop_
_space_group_symop_operation_xyz
x,y,z
-x,y,-z
-x,-y,-z
x,-y,z
1/2+x,1/2+y,z
1/2-x,1/2+y,-z
1/2-x,1/2-y,-z
1/2+x,1/2-y,z
loop_
_atom_site_type_symbol
_atom_site_label
_atom_site_fract_x
_atom_site_fract_y
_atom_site_fract_z
Si Si1 0.304857 0.178393 0.574904
Si Si2 0.585434 0.328829 0.075565
Si Si3 0.532963 0.177834 0.662916
Si Si4 0.304158 0.673220 0.346717
Si Si5 0.557165 0.322680 0.791685
Si Si6 0.387536 0.173007 0.792867
Si Si7 0.719867 0.828086 0.928991
O O1 0.250000 0.250000 0.500000
O O2 0.419234 0.234008 0.616144
O O3 0.249182 0.232620 0.613639
O O4 0.301641 0.000000 0.568619
O O5 0.561882 0.500000 0.087304
O O6 0.587137 0.219848 0.131722
O O7 0.690833 0.318978 0.083629
O O8 0.500000 0.271132 0.000000
O O9 0.596057 0.231284 0.629259
O O10 0.584538 0.251373 0.738985
O O11 0.539317 0.000000 0.671218
O O12 0.335650 0.500000 0.365776
O O13 0.228846 0.693927 0.264064
O O14 0.569113 0.500000 0.791668
O O15 0.445499 0.275992 0.767478
O O16 0.627008 0.260295 0.868701
O O17 0.419689 0.000000 0.794935
O O18 0.689169 0.000000 0.930255
O O19 0.750000 0.750000 0.000000
#
# Coordination Sequence:
#
# PCOD8111044 Si02
#       7
#     8   8   8   8   8   8   8
#     4  10  23  44  67  94 134 172 212 265 323 386
#     4  10  22  39  57  83 119 157 202 256 314 379
#     4  11  23  42  66  96 131 168 215 269 320 380
#     4  10  22  42  65  94 131 169 211 265 324 386
#     4  12  24  39  62  90 123 165 213 262 318 383
#     4  11  22  39  63  89 122 160 207 264 321 377
#     4  11  23  39  60  87 122 162 207 261 320 380
#
# _framework density 20.670973
#
# number of rings (size 3 to 8) (size 9 to 14) (size 15 to 20)
#    0.000    1.286    1.429    4.286    0.000    8.286 
#    0.000    2.857    0.000    0.000    0.000    0.000 
#    0.000    0.000    0.000    0.000    0.000    0.000 
#
# Total GULP energy -347342.460181 kJ/mol
# GULP energy per Si atom -12405.087864 kJ/mol
# Density = 2.062393 g / cm^3
# Si number density = 20.670973 Si / 1000 Ang^3
#
#
#
# Elastic Constant Matrix: (Units=GPa)
#
#
# Indices 1 2 3 4 5 6 
#
# 1 131.8757 52.4402 48.5927 0.0000 -1.5181 0.0000
# 2 52.4402 107.0580 48.7459 0.0000 -0.4549 0.0000
# 3 48.5927 48.7459 125.4902 0.0000 -5.7647 0.0000
# 4 0.0000 0.0000 0.0000 37.2198 0.0000 -3.6560
# 5 -1.5181 -0.4549 -5.7647 0.0000 26.9237 0.0000
# 6 0.0000 0.0000 0.0000 -3.6560 0.0000 34.0216
#
#
#
# Elastic Compliance Matrix: (Units=1/GPa)
#
#
# Indices 1 2 3 4 5 6 
#
# 1 0.009973 -0.003798 -0.002387 0.000000 -0.000013 0.000000
# 2 -0.003798 0.012810 -0.003540 0.000000 -0.000756 0.000000
# 3 -0.002387 -0.003540 0.010361 0.000000 0.002024 0.000000
# 4 0.000000 0.000000 0.000000 0.027154 0.000000 0.002918
# 5 -0.000013 -0.000756 0.002024 0.000000 0.037562 0.000000
# 6 0.000000 0.000000 0.000000 0.002918 0.000000 0.029707
#
#
# Mechanical properties :
#
#
# Convention : Reuss Voigt Hill
#
# Bulk Modulus (GPa) = 73.02652 73.77570 73.40111
# Shear Modulus (GPa) = 32.98587 33.94270 33.46429
#
# Velocity S-wave (km/s) = 3.99903 4.05661 4.02792
# Velocity P-wave (km/s) = 7.53178 7.59667 7.56430
#
# Compressibility (1/GPa) = 0.01369366
#
# Stress axis : x y z
#
# Youngs Moduli (GPa) = 100.27514 78.06563 96.51586
#
# Poissons Ratio (x) = 0.29650 0.23037
# Poissons Ratio (y) = 0.38086 0.34165
# Poissons Ratio (z) = 0.23934 0.27634
#
# Static dielectric constant tensor:
#      x y z
#    x 3.764450 0.000000 -0.003770 
#    y 0.000000 3.689320 0.000000 
#    z -0.003770 0.000000 3.728500 
# 
# 
# High freq. dielectric constant tensor:
#      x y z
#    x 1.821300 0.000000 0.000760 
#    y 0.000000 1.806980 0.000000 
#    z 0.000760 0.000000 1.809630 
# 
# From -- ./inp_files/339088.got.cif
#   From: 2010.06.25/outbox.cif.g09.slc.cpg/sg12_170_cif.got.tgz:339088.got - 2010.06.28 00:19:55.
