data_PCOD8111906
_publ_section_title
;
Structure prediction by ZEFSAII (Michael W. Deem and Ramdas Pophale) SiO2 
 PCOD8111906
Probable space group: C 2/M
;
_chemical_formula_sum "Si O2"
_cell_formula_units_Z 48
_cell_length_a 18.942540
_cell_length_b 13.532304
_cell_length_c 18.178108
_cell_angle_alpha 90.000000
_cell_angle_beta 27.059613
_cell_angle_gamma 90.000000
_cell_volume 2119.781445
_symmetry_space_group_name_H-M "C 2/M"
_symmetry_group_IT_number 12
_symmetry_cell_setting 'monoclinic'
loop_
_space_group_symop_operation_xyz
x,y,z
-x,y,-z
-x,-y,-z
x,-y,z
1/2+x,1/2+y,z
1/2-x,1/2+y,-z
1/2-x,1/2-y,-z
1/2+x,1/2-y,z
loop_
_atom_site_type_symbol
_atom_site_label
_atom_site_fract_x
_atom_site_fract_y
_atom_site_fract_z
Si Si1 0.133622 0.612573 0.217603
Si Si2 0.334102 0.893604 0.116201
Si Si3 0.777099 0.886551 0.936709
Si Si4 0.624825 0.614413 0.583332
Si Si5 0.801861 0.308064 0.554587
Si Si6 0.315963 0.310636 0.178366
O O1 0.090042 0.500000 0.240555
O O2 0.253750 0.616260 0.173688
O O3 0.982008 0.669332 0.382595
O O4 0.208141 0.665015 0.075074
O O5 0.343773 0.873752 0.018897
O O6 0.244460 0.800253 0.233574
O O7 0.247402 0.000000 0.209044
O O8 0.500000 0.901019 0.000000
O O9 0.946952 0.848585 0.755268
O O10 0.799372 0.000000 0.938601
O O11 0.640092 0.500000 0.542388
O O12 0.705394 0.626615 0.587154
O O13 0.713825 0.689122 0.444496
O O14 0.736840 0.344618 0.692768
O O15 0.500000 0.307795 0.000000
#
# Coordination Sequence:
#
# PCOD8111906 Si02
#       6
#     8   8   8   8   8   8
#     4  11  24  41  63  89 120 159 202 252 302 352
#     4   9  19  36  60  90 121 153 194 246 298 351
#     4   9  19  38  63  89 117 156 202 243 296 361
#     4  10  22  41  64  90 124 161 197 246 302 356
#     4  11  24  39  60  92 122 157 205 248 297 358
#     4  11  24  40  60  88 122 161 204 248 298 359
#
# _framework density 22.643843
#
# number of rings (size 3 to 8) (size 9 to 14) (size 15 to 20)
#    0.000    1.833    0.000    3.000    0.000   11.000 
#    0.000    3.333    0.000    5.000    0.000    0.000 
#    0.000    0.000    0.000    0.000    0.000    0.000 
#
# Total GULP energy -297472.704114 kJ/mol
# GULP energy per Si atom -12394.696005 kJ/mol
# Density = 2.259230 g / cm^3
# Si number density = 22.643843 Si / 1000 Ang^3
#
#
#
# Elastic Constant Matrix: (Units=GPa)
#
#
# Indices 1 2 3 4 5 6 
#
# 1 150.8437 3.3377 45.1002 0.0007 2.7047 -0.0005
# 2 3.3377 62.0394 10.0449 -0.0099 -4.6304 0.0053
# 3 45.1002 10.0449 91.8482 -0.0149 3.4999 0.0032
# 4 0.0007 -0.0099 -0.0149 30.0612 0.0116 10.6661
# 5 2.7047 -4.6304 3.4999 0.0116 32.8074 -0.0015
# 6 -0.0005 0.0053 0.0032 10.6661 -0.0015 47.3983
#
#
#
# Elastic Compliance Matrix: (Units=1/GPa)
#
#
# Indices 1 2 3 4 5 6 
#
# 1 0.007774 0.000186 -0.003830 -0.000002 -0.000206 0.000001
# 2 0.000186 0.016624 -0.002007 0.000004 0.002545 -0.000003
# 3 -0.003830 -0.002007 0.013039 0.000007 -0.001359 -0.000002
# 4 -0.000002 0.000004 0.000007 0.036152 -0.000013 -0.008135
# 5 -0.000206 0.002545 -0.001359 -0.000013 0.031002 0.000004
# 6 0.000001 -0.000003 -0.000002 -0.008135 0.000004 0.022929
#
#
# Mechanical properties :
#
#
# Convention : Reuss Voigt Hill
#
# Bulk Modulus (GPa) = 38.25982 46.85521 42.55752
# Shear Modulus (GPa) = 33.89105 38.46995 36.18050
#
# Velocity S-wave (km/s) = 3.87292 4.12626 4.00159
# Velocity P-wave (km/s) = 6.07720 6.59079 6.33920
#
# Compressibility (1/GPa) = 0.02613708
#
# Stress axis : x y z
#
# Youngs Moduli (GPa) = 128.63381 60.15554 76.69127
#
# Poissons Ratio (x) = -0.01122 0.29371
# Poissons Ratio (y) = -0.02399 0.15389
# Poissons Ratio (z) = 0.49264 0.12071
#
# Static dielectric constant tensor:
#      x y z
#    x 4.191770 -0.000010 -0.002790 
#    y -0.000010 4.438940 0.000010 
#    z -0.002790 0.000010 3.772620 
# 
# 
# High freq. dielectric constant tensor:
#      x y z
#    x 1.906180 0.000000 -0.005850 
#    y 0.000000 1.908280 0.000000 
#    z -0.005850 0.000000 1.860690 
# 
# From -- ./inp_files/278026.got.cif
#   From: 2010.06.25/outbox.cif.g09.slc.cpg/sg12_140_cif.got.tgz:278026.got - 2010.06.28 00:19:55.
