data_PCOD8111719
_publ_section_title
;
Structure prediction by ZEFSAII (Michael W. Deem and Ramdas Pophale) SiO2 
 PCOD8111719
Probable space group: C 2/M
;
_chemical_formula_sum "Si O2"
_cell_formula_units_Z 40
_cell_length_a 15.211640
_cell_length_b 25.049049
_cell_length_c 9.543198
_cell_angle_alpha 90.000000
_cell_angle_beta 33.528515
_cell_angle_gamma 90.000000
_cell_volume 2008.524290
_symmetry_space_group_name_H-M "C 2/M"
_symmetry_group_IT_number 12
_symmetry_cell_setting 'monoclinic'
loop_
_space_group_symop_operation_xyz
x,y,z
-x,y,-z
-x,-y,-z
x,-y,z
1/2+x,1/2+y,z
1/2-x,1/2+y,-z
1/2-x,1/2-y,-z
1/2+x,1/2-y,z
loop_
_atom_site_type_symbol
_atom_site_label
_atom_site_fract_x
_atom_site_fract_y
_atom_site_fract_z
Si Si1 0.157045 0.940770 0.882021
Si Si2 0.344842 0.562218 0.792128
Si Si3 0.188951 0.242353 0.238765
Si Si4 0.622618 0.152531 0.456672
Si Si5 0.600748 0.854795 0.999853
O O1 0.271424 0.899081 0.654032
O O2 0.234321 0.000000 0.776059
O O3 0.123028 0.923986 0.087844
O O4 0.000000 0.940741 0.000000
O O5 0.500000 0.580343 0.500000
O O6 0.309144 0.500000 0.815885
O O7 0.192306 0.594152 0.939577
O O8 0.229710 0.296733 0.268607
O O9 0.000000 0.232293 0.500000
O O10 0.250000 0.250000 0.000000
O O11 0.276169 0.192901 0.197766
O O12 0.500000 0.136054 0.500000
O O13 0.525625 0.168409 0.722646
O O14 0.500000 0.873069 0.000000
#
# Coordination Sequence:
#
# PCOD8111719 Si02
#       5
#     8   8   8   8   8
#     4  10  22  40  66  94 122 164 212 260 318 378
#     4  10  22  42  64  90 127 168 207 256 318 379
#     4  11  21  43  68  89 124 168 211 263 317 374
#     4  11  22  42  64  91 127 162 213 261 314 377
#     4  12  26  41  62  97 127 167 214 258 317 380
#
# _framework density 19.915120000000002
#
# number of rings (size 3 to 8) (size 9 to 14) (size 15 to 20)
#    0.000    1.200    6.000    0.600    2.800    3.200 
#    0.000    0.000    0.000    0.000    0.000    0.000 
#    0.000    0.000    0.000    0.000    0.000    0.000 
#
# Total GULP energy -248020.986675 kJ/mol
# GULP energy per Si atom -12401.049334 kJ/mol
# Density = 1.986979 g / cm^3
# Si number density = 19.915120 Si / 1000 Ang^3
#
#
#
# Elastic Constant Matrix: (Units=GPa)
#
#
# Indices 1 2 3 4 5 6 
#
# 1 125.0454 45.6529 34.7135 -0.0133 7.0967 0.0000
# 2 45.6529 124.7606 46.1062 -0.0050 -10.8437 0.0000
# 3 34.7135 46.1062 119.4924 -0.0323 4.9153 0.0001
# 4 -0.0133 -0.0050 -0.0323-1734.8667 0.0210 26.4347
# 5 7.0967 -10.8437 4.9153 0.0210 21.3107 -0.0001
# 6 0.0000 0.0000 0.0001 26.4347 -0.0001 6.5039
#
#
#
# Elastic Compliance Matrix: (Units=1/GPa)
#
#
# Indices 1 2 3 4 5 6 
#
# 1 0.009939 -0.003572 -0.001311 0.000000 -0.004825 0.000000
# 2 -0.003572 0.011356 -0.003666 0.000000 0.007813 -0.000001
# 3 -0.001311 -0.003666 0.010321 0.000000 -0.003809 0.000001
# 4 0.000000 0.000000 0.000000 -0.000543 0.000001 0.002206
# 5 -0.004825 0.007813 -0.003809 0.000001 0.053386 -0.000002
# 6 0.000000 -0.000001 0.000001 0.002206 -0.000002 0.144787
#
#
# Mechanical properties :
#
#
# Convention : Reuss Voigt Hill
#
# Bulk Modulus (GPa) = 68.87320 69.13817 69.00569
# Shear Modulus (GPa) = 19.90592 -325.22203 -152.65806
#
# Velocity S-wave (km/s) = 3.16498 -12.79291 -8.76475
# Velocity P-wave (km/s) = 6.92925 13.54325 8.22816
#
# Compressibility (1/GPa) = 0.01451944
#
# Stress axis : x y z
#
# Youngs Moduli (GPa) = 100.61551 88.05827 96.89451
#
# Poissons Ratio (x) = 0.31453 0.12699
# Poissons Ratio (y) = 0.35939 0.35517
# Poissons Ratio (z) = 0.13187 0.32278
#
# Static dielectric constant tensor:
#      x y z
#    x 3.094800 0.000000 -0.190210 
#    y 0.000000 3.838400 0.000000 
#    z -0.190210 0.000000 3.645590 
# 
# 
# High freq. dielectric constant tensor:
#      x y z
#    x 1.764840 0.000000 0.004610 
#    y 0.000000 1.789770 0.000000 
#    z 0.004610 0.000000 1.782610 
# 
# From -- ./inp_files/50419.got.cif
#   From: 2010.06.25/outbox.cif.g09.slc.cpg/sg12_26_cif.got.tgz:50419.got - 2010.06.28 00:19:55.
