data_PCOD8111317
_publ_section_title
;
Structure prediction by ZEFSAII (Michael W. Deem and Ramdas Pophale) SiO2 
 PCOD8111317
Probable space group: C 2/M
;
_chemical_formula_sum "Si O2"
_cell_formula_units_Z 36
_cell_length_a 26.677839
_cell_length_b 8.968054
_cell_length_c 13.036528
_cell_angle_alpha 90.000000
_cell_angle_beta 152.119509
_cell_angle_gamma 90.000000
_cell_volume 1458.519089
_symmetry_space_group_name_H-M "C 2/M"
_symmetry_group_IT_number 12
_symmetry_cell_setting 'monoclinic'
loop_
_space_group_symop_operation_xyz
x,y,z
-x,y,-z
-x,-y,-z
x,-y,z
1/2+x,1/2+y,z
1/2-x,1/2+y,-z
1/2-x,1/2-y,-z
1/2+x,1/2-y,z
loop_
_atom_site_type_symbol
_atom_site_label
_atom_site_fract_x
_atom_site_fract_y
_atom_site_fract_z
Si Si1 0.874319 0.000000 0.336891
Si Si2 0.924447 0.250380 0.964014
Si Si3 0.484045 0.500000 0.745510
Si Si4 0.837283 0.000000 0.663044
Si Si5 0.904888 0.500000 0.704170
Si Si6 0.500000 0.756003 0.500000
Si Si7 0.684500 0.000000 0.140938
Si Si8 0.479639 0.000000 0.633247
O O1 0.963011 0.000000 0.587162
O O2 0.894649 0.148659 0.305604
O O3 0.758399 0.000000 0.175438
O O4 0.947637 0.146395 0.104300
O O5 0.030926 0.353871 0.138702
O O6 0.816937 0.349086 0.793456
O O7 0.896356 0.145471 0.816213
O O8 0.367777 0.500000 0.595896
O O9 0.710127 0.000000 0.447876
O O10 0.879653 0.500000 0.533322
O O11 0.488084 0.853917 0.579760
O O12 0.567208 0.000000 0.879742
#
# Coordination Sequence:
#
# PCOD8111317 Si02
#       8
#     4   8   4   4   4   4   4   4
#     4  11  23  39  63  97 120 171 212 271 329 396
#     4   9  21  42  62  95 133 173 219 272 319 401
#     4  11  23  44  62  92 139 166 221 273 322 391
#     4  11  24  42  68  98 132 191 217 264 344 394
#     4  10  22  42  70  98 140 169 223 279 324 398
#     4  10  22  40  68  86 126 166 214 266 340 392
#     4  10  22  39  66  95 129 164 220 268 332 399
#     4   9  20  42  63  94 126 167 206 279 327 391
#
# _framework density 24.682573000000001
#
# number of rings (size 3 to 8) (size 9 to 14) (size 15 to 20)
#    0.000    2.222    0.000    4.000    6.222    1.778 
#    4.000    4.444    0.000    0.000    0.000    0.000 
#    0.000    0.000    0.000    0.000    0.000    0.000 
#
# Total GULP energy -223032.841339 kJ/mol
# GULP energy per Si atom -12390.713408 kJ/mol
# Density = 2.462639 g / cm^3
# Si number density = 24.682573 Si / 1000 Ang^3
#
#
#
# Elastic Constant Matrix: (Units=GPa)
#
#
# Indices 1 2 3 4 5 6 
#
# 1 144.2131 52.0094 17.2051 0.0000 20.7810 0.0000
# 2 52.0094 186.5481 22.6813 0.0000 14.2740 0.0000
# 3 17.2051 22.6813 36.7880 0.0000 13.8708 0.0000
# 4 0.0000 0.0000 0.0000 30.8334 0.0000 9.1563
# 5 20.7810 14.2740 13.8708 0.0000 52.3196 0.0000
# 6 0.0000 0.0000 0.0000 9.1563 0.0000 38.9440
#
#
#
# Elastic Compliance Matrix: (Units=1/GPa)
#
#
# Indices 1 2 3 4 5 6 
#
# 1 0.008152 -0.001881 -0.001806 0.000000 -0.002246 0.000000
# 2 -0.001881 0.006253 -0.002904 0.000000 -0.000189 0.000000
# 3 -0.001806 -0.002904 0.032497 0.000000 -0.007106 0.000000
# 4 0.000000 0.000000 0.000000 0.034867 0.000000 -0.008198
# 5 -0.002246 -0.000189 -0.007106 0.000000 0.021941 0.000000
# 6 0.000000 0.000000 0.000000 -0.008198 0.000000 0.027605
#
#
# Mechanical properties :
#
#
# Convention : Reuss Voigt Hill
#
# Bulk Modulus (GPa) = 29.65663 61.26011 45.45837
# Shear Modulus (GPa) = 32.10566 42.79630 37.45098
#
# Velocity S-wave (km/s) = 3.61049 4.16849 3.89949
# Velocity P-wave (km/s) = 5.42422 6.93120 6.22349
#
# Compressibility (1/GPa) = 0.03371927
#
# Stress axis : x y z
#
# Youngs Moduli (GPa) = 122.67363 159.93434 30.77207
#
# Poissons Ratio (x) = 0.30088 0.05557
# Poissons Ratio (y) = 0.23079 0.08936
# Poissons Ratio (z) = 0.22152 0.46444
#
# Static dielectric constant tensor:
#      x y z
#    x 4.544410 0.000000 -0.063320 
#    y 0.000000 5.125280 0.000000 
#    z -0.063320 0.000000 4.171280 
# 
# 
# High freq. dielectric constant tensor:
#      x y z
#    x 2.004560 0.000000 -0.006050 
#    y 0.000000 2.015550 0.000000 
#    z -0.006050 0.000000 1.944460 
# 
# From -- ./inp_files/249496.got.cif
#   From: 2010.06.25/outbox.cif.g09.slc.cpg/sg12_125_cif.got.tgz:249496.got - 2010.06.28 00:19:55.
