data_PCOD8111507
_publ_section_title
;
Structure prediction by ZEFSAII (Michael W. Deem and Ramdas Pophale) SiO2 
 PCOD8111507
Probable space group: C 2/M
;
_chemical_formula_sum "Si O2"
_cell_formula_units_Z 40
_cell_length_a 24.345521
_cell_length_b 8.213541
_cell_length_c 17.180582
_cell_angle_alpha 90.000000
_cell_angle_beta 146.693785
_cell_angle_gamma 90.000000
_cell_volume 1886.468147
_symmetry_space_group_name_H-M "C 2/M"
_symmetry_group_IT_number 12
_symmetry_cell_setting 'monoclinic'
loop_
_space_group_symop_operation_xyz
x,y,z
-x,y,-z
-x,-y,-z
x,-y,z
1/2+x,1/2+y,z
1/2-x,1/2+y,-z
1/2-x,1/2-y,-z
1/2+x,1/2-y,z
loop_
_atom_site_type_symbol
_atom_site_label
_atom_site_fract_x
_atom_site_fract_y
_atom_site_fract_z
Si Si1 0.613855 0.311944 0.130096
Si Si2 0.063071 0.688665 0.646236
Si Si3 0.218778 0.686789 0.107561
Si Si4 0.652990 0.807091 0.341459
Si Si5 0.038249 0.693898 0.788796
O O1 0.623457 0.500000 0.116950
O O2 0.668689 0.200446 0.132437
O O3 0.663108 0.282341 0.271489
O O4 0.500000 0.253395 0.000000
O O5 0.035724 0.500000 0.615762
O O6 0.181080 0.707884 0.774402
O O7 0.031659 0.764698 0.692870
O O8 0.000000 0.770110 0.500000
O O9 0.246658 0.500000 0.124450
O O10 0.141381 0.754710 0.950924
O O11 0.750000 0.750000 0.500000
O O12 0.555788 0.741869 0.272950
O O13 0.648592 0.000000 0.325266
O O14 0.038188 0.500000 0.787864
#
# Coordination Sequence:
#
# PCOD8111507 Si02
#       5
#     8   8   8   8   8
#     4  11  23  40  63  92 123 158 207 256 307 370
#     4  10  22  40  62  88 120 160 203 252 308 364
#     4  11  22  39  63  89 121 160 204 254 307 365
#     4  11  23  40  62  91 129 167 204 248 306 367
#     4   9  20  39  61  86 121 163 201 244 304 365
#
# _framework density 21.203645999999999
#
# number of rings (size 3 to 8) (size 9 to 14) (size 15 to 20)
#    0.000    1.600    2.000    2.400    2.800    1.200 
#    0.000    3.000    0.000    0.000    0.000    0.000 
#    0.000    0.000    0.000    0.000    0.000    0.000 
#
# Total GULP energy -248046.280449 kJ/mol
# GULP energy per Si atom -12402.314022 kJ/mol
# Density = 2.115539 g / cm^3
# Si number density = 21.203646 Si / 1000 Ang^3
#
#
#
# Elastic Constant Matrix: (Units=GPa)
#
#
# Indices 1 2 3 4 5 6 
#
# 1 126.9700 3.7189 52.7777 0.0000 -25.9131 0.0000
# 2 3.7189 25.5974 2.1214 0.0000 0.5964 0.0000
# 3 52.7777 2.1214 157.8334 0.0000 -21.6944 0.0000
# 4 0.0000 0.0000 0.0000 23.6733 0.0000 -3.6376
# 5 -25.9131 0.5964 -21.6944 0.0000 43.2727 0.0000
# 6 0.0000 0.0000 0.0000 -3.6376 0.0000 7.4900
#
#
#
# Elastic Compliance Matrix: (Units=1/GPa)
#
#
# Indices 1 2 3 4 5 6 
#
# 1 0.009978 -0.001336 -0.002679 0.000000 0.004650 0.000000
# 2 -0.001336 0.039319 -0.000286 0.000000 -0.001485 0.000000
# 3 -0.002679 -0.000286 0.007535 0.000000 0.002177 0.000000
# 4 0.000000 0.000000 0.000000 0.045648 0.000000 0.022170
# 5 0.004650 -0.001485 0.002177 0.000000 0.027006 0.000000
# 6 0.000000 0.000000 0.000000 0.022170 0.000000 0.144278
#
#
# Mechanical properties :
#
#
# Convention : Reuss Voigt Hill
#
# Bulk Modulus (GPa) = 20.73436 47.51521 34.12479
# Shear Modulus (GPa) = 16.75367 31.67272 24.21319
#
# Velocity S-wave (km/s) = 2.81398 3.86909 3.38292
# Velocity P-wave (km/s) = 4.51197 6.51286 5.60247
#
# Compressibility (1/GPa) = 0.04822913
#
# Stress axis : x y z
#
# Youngs Moduli (GPa) = 100.22274 25.43307 132.71749
#
# Poissons Ratio (x) = 0.03398 0.35559
# Poissons Ratio (y) = 0.13389 0.03795
# Poissons Ratio (z) = 0.26853 0.00727
#
# Static dielectric constant tensor:
#      x y z
#    x 4.399860 0.000000 -0.328450 
#    y 0.000000 3.525690 0.000000 
#    z -0.328450 0.000000 4.011600 
# 
# 
# High freq. dielectric constant tensor:
#      x y z
#    x 1.843970 0.000000 -0.008470 
#    y 0.000000 1.804270 0.000000 
#    z -0.008470 0.000000 1.842800 
# 
# From -- ./inp_files/221213.got.cif
#   From: 2010.06.25/outbox.cif.g09.slc.cpg/sg12_111_cif.got.tgz:221213.got - 2010.06.28 00:19:55.
