data_PCOD8111894
_publ_section_title
;
Structure prediction by ZEFSAII (Michael W. Deem and Ramdas Pophale) SiO2 
 PCOD8111894
Probable space group: C 2/M
;
_chemical_formula_sum "Si O2"
_cell_formula_units_Z 56
_cell_length_a 9.796247
_cell_length_b 13.929230
_cell_length_c 21.117174
_cell_angle_alpha 90.000000
_cell_angle_beta 84.437795
_cell_angle_gamma 90.000000
_cell_volume 2867.959098
_symmetry_space_group_name_H-M "C 2/M"
_symmetry_group_IT_number 12
_symmetry_cell_setting 'monoclinic'
loop_
_space_group_symop_operation_xyz
x,y,z
-x,y,-z
-x,-y,-z
x,-y,z
1/2+x,1/2+y,z
1/2-x,1/2+y,-z
1/2-x,1/2-y,-z
1/2+x,1/2-y,z
loop_
_atom_site_type_symbol
_atom_site_label
_atom_site_fract_x
_atom_site_fract_y
_atom_site_fract_z
Si Si1 0.069746 0.610638 0.862197
Si Si2 0.105527 0.388004 0.441555
Si Si3 0.315279 0.770611 0.250321
Si Si4 0.256061 0.888892 0.840831
Si Si5 0.549611 0.257789 0.335815
Si Si6 0.417526 0.387792 0.443317
Si Si7 0.869474 0.230772 0.043417
O O1 0.101774 0.500000 0.874586
O O2 0.175993 0.648878 0.804572
O O3 0.092551 0.668218 0.925779
O O4 0.916106 0.627475 0.845314
O O5 0.088614 0.500000 0.427908
O O6 0.072924 0.335303 0.377836
O O7 0.257645 0.362932 0.459413
O O8 0.000000 0.353426 0.500000
O O9 0.287786 0.666238 0.220965
O O10 0.458428 0.771367 0.280410
O O11 0.194280 0.797836 0.304119
O O12 0.170638 0.849564 0.903978
O O13 0.219735 0.000000 0.832612
O O14 0.475245 0.341686 0.377228
O O15 0.500000 0.346563 0.500000
O O16 0.442719 0.500000 0.435310
O O17 0.750000 0.250000 0.000000
O O18 0.000000 0.190058 0.000000
#
# Coordination Sequence:
#
# PCOD8111894 Si02
#       7
#     8   8   8   8   8   8   8
#     4  10  22  41  64  89 122 164 201 241 297 354
#     4  10  23  41  61  87 119 156 197 244 302 366
#     4  11  24  40  60  91 120 155 203 253 292 347
#     4  10  22  41  64  88 123 165 198 242 301 351
#     4  12  23  39  63  88 118 158 202 246 300 357
#     4  10  23  41  60  87 122 154 192 249 308 358
#     4  11  22  39  63  96 128 155 198 251 292 347
#
# _framework density 19.52608
#
# number of rings (size 3 to 8) (size 9 to 14) (size 15 to 20)
#    0.000    1.429    4.286    0.429    2.000    4.571 
#    0.000    1.429    0.000    0.000    0.000    0.000 
#    0.000    0.000    0.000    0.000    0.000    0.000 
#
# Total GULP energy -347367.193665 kJ/mol
# GULP energy per Si atom -12405.971202 kJ/mol
# Density = 1.948164 g / cm^3
# Si number density = 19.526080 Si / 1000 Ang^3
#
#
#
# Elastic Constant Matrix: (Units=GPa)
#
#
# Indices 1 2 3 4 5 6 
#
# 1 112.2790 48.8830 46.4476 0.0000 -7.3919 0.0000
# 2 48.8830 99.0381 40.2819 0.0000 -2.5373 0.0000
# 3 46.4476 40.2819 98.1424 0.0000 -7.5055 0.0000
# 4 0.0000 0.0000 0.0000 24.5063 0.0000 2.4844
# 5 -7.3919 -2.5373 -7.5055 0.0000 52.9347 0.0000
# 6 0.0000 0.0000 0.0000 2.4844 0.0000 27.6531
#
#
#
# Elastic Compliance Matrix: (Units=1/GPa)
#
#
# Indices 1 2 3 4 5 6 
#
# 1 0.012625 -0.004569 -0.004025 0.000000 0.000973 0.000000
# 2 -0.004569 0.013775 -0.003528 0.000000 -0.000478 0.000000
# 3 -0.004025 -0.003528 0.013634 0.000000 0.001202 0.000000
# 4 0.000000 0.000000 0.000000 0.041181 0.000000 -0.003700
# 5 0.000973 -0.000478 0.001202 0.000000 0.019175 0.000000
# 6 0.000000 0.000000 0.000000 -0.003700 0.000000 0.036495
#
#
# Mechanical properties :
#
#
# Convention : Reuss Voigt Hill
#
# Bulk Modulus (GPa) = 63.33328 64.52050 63.92689
# Shear Modulus (GPa) = 30.04947 32.60862 31.32905
#
# Velocity S-wave (km/s) = 3.92719 4.09100 4.00993
# Velocity P-wave (km/s) = 7.28487 7.44513 7.36544
#
# Compressibility (1/GPa) = 0.01578949
#
# Stress axis : x y z
#
# Youngs Moduli (GPa) = 79.20851 72.59465 73.34517
#
# Poissons Ratio (x) = 0.33171 0.29522
# Poissons Ratio (y) = 0.36193 0.25876
# Poissons Ratio (z) = 0.31882 0.25611
#
# Static dielectric constant tensor:
#      x y z
#    x 3.756630 0.000000 -0.075890 
#    y 0.000000 3.457810 0.000000 
#    z -0.075890 0.000000 3.679620 
# 
# 
# High freq. dielectric constant tensor:
#      x y z
#    x 1.772280 0.000000 -0.003700 
#    y 0.000000 1.756450 0.000000 
#    z -0.003700 0.000000 1.771920 
# 
# From -- ./inp_files/300144.got.cif
#   From: 2010.06.25/outbox.cif.g09.slc.cpg/sg12_151_cif.got.tgz:300144.got - 2010.06.28 00:19:55.
