data_PCOD8111022
_publ_section_title
;
Structure prediction by ZEFSAII (Michael W. Deem and Ramdas Pophale) SiO2 
 PCOD8111022
Probable space group: C 2/M
;
_chemical_formula_sum "Si O2"
_cell_formula_units_Z 64
_cell_length_a 18.602026
_cell_length_b 9.231418
_cell_length_c 30.022975
_cell_angle_alpha 90.000000
_cell_angle_beta 137.240696
_cell_angle_gamma 90.000000
_cell_volume 3500.265421
_symmetry_space_group_name_H-M "C 2/M"
_symmetry_group_IT_number 12
_symmetry_cell_setting 'monoclinic'
loop_
_space_group_symop_operation_xyz
x,y,z
-x,y,-z
-x,-y,-z
x,-y,z
1/2+x,1/2+y,z
1/2-x,1/2+y,-z
1/2-x,1/2-y,-z
1/2+x,1/2-y,z
loop_
_atom_site_type_symbol
_atom_site_label
_atom_site_fract_x
_atom_site_fract_y
_atom_site_fract_z
Si Si1 0.174368 0.669605 0.329503
Si Si2 0.459407 0.169310 0.271244
Si Si3 0.334896 0.333602 0.138018
Si Si4 0.122247 0.836570 0.684535
Si Si5 0.135193 0.664812 0.214758
Si Si6 0.057471 0.171000 0.905373
Si Si7 0.403870 0.167300 0.988242
Si Si8 0.903164 0.171458 0.428313
O O1 0.190714 0.500000 0.328032
O O2 0.135003 0.732162 0.264340
O O3 0.290225 0.731073 0.396232
O O4 0.084840 0.704586 0.324690
O O5 0.392777 0.241318 0.201802
O O6 0.432422 0.226094 0.307345
O O7 0.436936 0.000000 0.257868
O O8 0.367009 0.500000 0.160032
O O9 0.372794 0.283562 0.106005
O O10 0.208980 0.312830 0.087487
O O11 0.246889 0.829590 0.750816
O O12 0.090552 0.785564 0.620631
O O13 0.081693 0.000000 0.674635
O O14 0.091441 0.500000 0.193462
O O15 0.061180 0.767140 0.151798
O O16 0.053417 0.000000 0.909493
O O17 0.107006 0.239328 0.972079
O O18 0.423004 0.000000 0.010007
O O19 0.500000 0.221080 0.000000
O O20 0.000000 0.243421 0.500000
O O21 0.908811 0.000000 0.436234
#
# Coordination Sequence:
#
# PCOD8111022 Si02
#       8
#     8   8   8   8   8   8   8   8
#     4   8  15  29  49  76 104 135 177 215 252 304
#     4  11  21  33  53  79 110 143 174 217 269 318
#     4  10  22  39  56  77 105 139 179 219 264 318
#     4   9  19  33  52  78 109 140 175 220 264 308
#     4   9  17  33  54  73  99 139 179 212 253 315
#     4  11  22  35  55  81 107 132 169 224 273 313
#     4  10  23  41  58  75 100 139 181 217 263 324
#     4   8  14  29  55  81 104 138 185 225 253 297
#
# _framework density 18.284327999999999
#
# number of rings (size 3 to 8) (size 9 to 14) (size 15 to 20)
#    0.000    2.500    1.250    2.625    1.750    1.750 
#    0.000    0.625    0.000    0.375    0.000    0.000 
#    0.000    0.000    0.000    0.000    0.000    0.000 
#
# Total GULP energy -396676.085163 kJ/mol
# GULP energy per Si atom -12396.127661 kJ/mol
# Density = 1.824271 g / cm^3
# Si number density = 18.284328 Si / 1000 Ang^3
#
#
#
# Elastic Constant Matrix: (Units=GPa)
#
#
# Indices 1 2 3 4 5 6 
#
# 1 119.7756 47.4052 55.7850 0.0000 4.0571 0.0000
# 2 47.4052 57.6701 42.8815 0.0000 1.2696 0.0000
# 3 55.7850 42.8815 113.0211 0.0000 9.3179 0.0000
# 4 0.0000 0.0000 0.0000 14.7519 0.0000 -2.6317
# 5 4.0571 1.2696 9.3179 0.0000 20.8558 0.0000
# 6 0.0000 0.0000 0.0000 -2.6317 0.0000 29.2158
#
#
#
# Elastic Compliance Matrix: (Units=1/GPa)
#
#
# Indices 1 2 3 4 5 6 
#
# 1 0.013233 -0.008419 -0.003288 0.000000 -0.000593 0.000000
# 2 -0.008419 0.029661 -0.007355 0.000000 0.003118 0.000000
# 3 -0.003288 -0.007355 0.013676 0.000000 -0.005023 0.000000
# 4 0.000000 0.000000 0.000000 0.068895 0.000000 0.006206
# 5 -0.000593 0.003118 -0.005023 0.000000 0.050118 0.000000
# 6 0.000000 0.000000 0.000000 0.006206 0.000000 0.034787
#
#
# Mechanical properties :
#
#
# Convention : Reuss Voigt Hill
#
# Bulk Modulus (GPa) = 54.21813 64.73447 59.47630
# Shear Modulus (GPa) = 19.63532 22.59103 21.11317
#
# Velocity S-wave (km/s) = 3.28058 3.51884 3.40180
# Velocity P-wave (km/s) = 6.63828 7.21047 6.93028
#
# Compressibility (1/GPa) = 0.01844401
#
# Stress axis : x y z
#
# Youngs Moduli (GPa) = 75.57025 33.71394 73.12276
#
# Poissons Ratio (x) = 0.28385 0.24044
# Poissons Ratio (y) = 0.63626 0.53784
# Poissons Ratio (z) = 0.24849 0.24798
#
# Static dielectric constant tensor:
#      x y z
#    x 3.449370 0.000000 0.191450 
#    y 0.000000 3.109480 0.000000 
#    z 0.191450 0.000000 3.477640 
# 
# 
# High freq. dielectric constant tensor:
#      x y z
#    x 1.711730 0.000000 0.010410 
#    y 0.000000 1.680090 0.000000 
#    z 0.010410 0.000000 1.704950 
# 
# From -- ./inp_files/365153.got.cif
#   From: 2010.06.25/outbox.cif.g09.slc.cpg/sg12_183_cif.got.tgz:365153.got - 2010.06.28 00:19:55.
