data_PCOD8111616
_publ_section_title
;
Structure prediction by ZEFSAII (Michael W. Deem and Ramdas Pophale) SiO2 
 PCOD8111616
Probable space group: C 2/M
;
_chemical_formula_sum "Si O2"
_cell_formula_units_Z 40
_cell_length_a 27.576765
_cell_length_b 7.503650
_cell_length_c 30.898437
_cell_angle_alpha 90.000000
_cell_angle_beta 161.939738
_cell_angle_gamma 90.000000
_cell_volume 1982.157090
_symmetry_space_group_name_H-M "C 2/M"
_symmetry_group_IT_number 12
_symmetry_cell_setting 'monoclinic'
loop_
_space_group_symop_operation_xyz
x,y,z
-x,y,-z
-x,-y,-z
x,-y,z
1/2+x,1/2+y,z
1/2-x,1/2+y,-z
1/2-x,1/2-y,-z
1/2+x,1/2-y,z
loop_
_atom_site_type_symbol
_atom_site_label
_atom_site_fract_x
_atom_site_fract_y
_atom_site_fract_z
Si Si1 0.515958 0.790241 0.808384
Si Si2 0.191555 0.205824 0.572197
Si Si3 0.780143 0.202606 0.094646
Si Si4 0.682526 0.500000 0.161183
Si Si5 0.647989 0.708830 0.749808
Si Si6 0.670009 0.000000 0.624401
O O1 0.338533 0.734342 0.667532
O O2 0.563114 0.716238 0.801365
O O3 0.539045 0.000000 0.827146
O O4 0.633380 0.708124 0.944689
O O5 0.192403 0.321175 0.616083
O O6 0.036705 0.240895 0.413006
O O7 0.206795 0.000000 0.599303
O O8 0.808363 0.287994 0.165814
O O9 0.739784 0.000000 0.069986
O O10 0.757623 0.320972 0.205395
O O11 0.703902 0.500000 0.230705
O O12 0.500000 0.500000 0.000000
O O13 0.688950 0.500000 0.778532
O O14 0.500000 0.000000 0.500000
#
# Coordination Sequence:
#
# PCOD8111616 Si02
#       6
#     8   8   8   4   8   4
#     4   9  19  35  56  88 119 159 204 243 301 364
#     4  10  22  40  64  90 122 160 203 251 306 362
#     4   9  19  35  56  86 122 160 199 247 301 359
#     4  12  28  44  62  96 120 160 212 254 312 362
#     4  10  22  42  63  88 125 159 200 255 306 362
#     4  12  24  44  64  92 122 158 210 258 302 368
#
# _framework density 20.180035
#
# number of rings (size 3 to 8) (size 9 to 14) (size 15 to 20)
#    0.000    2.000    2.000    0.000    5.600    2.400 
#    0.000    0.000    0.000    0.000    0.000    0.000 
#    0.000    0.000    0.000    0.000    0.000    0.000 
#
# Total GULP energy -247982.598178 kJ/mol
# GULP energy per Si atom -12399.129909 kJ/mol
# Density = 2.013410 g / cm^3
# Si number density = 20.180035 Si / 1000 Ang^3
#
#
#
# Elastic Constant Matrix: (Units=GPa)
#
#
# Indices 1 2 3 4 5 6 
#
# 1 81.4352 32.5768 37.4368 -0.0931 -11.2420 -0.0171
# 2 32.5768 69.2148 30.8410 -0.0307 -0.4051 -0.0219
# 3 37.4368 30.8410 117.7655 -0.0607 7.9027 -0.0200
# 4 -0.0931 -0.0307 -0.0607 14.1030 -0.0307 -1.6353
# 5 -11.2420 -0.4051 7.9027 -0.0307 46.4181 -0.0070
# 6 -0.0171 -0.0219 -0.0200 -1.6353 -0.0070 33.5210
#
#
#
# Elastic Compliance Matrix: (Units=1/GPa)
#
#
# Indices 1 2 3 4 5 6 
#
# 1 0.017405 -0.006286 -0.004214 0.000095 0.004878 0.000008
# 2 -0.006286 0.018662 -0.002830 -0.000014 -0.000878 0.000006
# 3 -0.004214 -0.002830 0.010765 0.000006 -0.002878 0.000002
# 4 0.000095 -0.000014 0.000006 0.071311 0.000069 0.003479
# 5 0.004878 -0.000878 -0.002878 0.000069 0.023207 0.000008
# 6 0.000008 0.000006 0.000002 0.003479 0.000008 0.030002
#
#
# Mechanical properties :
#
#
# Convention : Reuss Voigt Hill
#
# Bulk Modulus (GPa) = 49.57217 52.23609 50.90413
# Shear Modulus (GPa) = 24.42164 29.97915 27.20040
#
# Velocity S-wave (km/s) = 3.48255 3.85851 3.67534
# Velocity P-wave (km/s) = 6.38664 6.76698 6.57956
#
# Compressibility (1/GPa) = 0.02017261
#
# Stress axis : x y z
#
# Youngs Moduli (GPa) = 57.45510 53.58438 92.88971
#
# Poissons Ratio (x) = 0.33680 0.39145
# Poissons Ratio (y) = 0.36113 0.26291
# Poissons Ratio (z) = 0.24212 0.15166
#
# Static dielectric constant tensor:
#      x y z
#    x 5.158270 0.000530 -0.052780 
#    y 0.000530 3.550950 -0.000010 
#    z -0.052780 -0.000010 3.886570 
# 
# 
# High freq. dielectric constant tensor:
#      x y z
#    x 1.785020 0.000000 -0.001670 
#    y 0.000000 1.789810 0.000000 
#    z -0.001670 0.000000 1.791640 
# 
# From -- ./inp_files/101139.got.cif
#   From: 2010.06.25/outbox.cif.g09.slc.cpg/sg12_51_cif.got.tgz:101139.got - 2010.06.28 00:19:55.
