data_PCOD8111236
_publ_section_title
;
Structure prediction by ZEFSAII (Michael W. Deem and Ramdas Pophale) SiO2 
 PCOD8111236
Probable space group: C 2/M
;
_chemical_formula_sum "Si O2"
_cell_formula_units_Z 64
_cell_length_a 7.611168
_cell_length_b 15.241931
_cell_length_c 30.931330
_cell_angle_alpha 90.000000
_cell_angle_beta 128.042229
_cell_angle_gamma 90.000000
_cell_volume 2825.997452
_symmetry_space_group_name_H-M "C 2/M"
_symmetry_group_IT_number 12
_symmetry_cell_setting 'monoclinic'
loop_
_space_group_symop_operation_xyz
x,y,z
-x,y,-z
-x,-y,-z
x,-y,z
1/2+x,1/2+y,z
1/2-x,1/2+y,-z
1/2-x,1/2-y,-z
1/2+x,1/2-y,z
loop_
_atom_site_type_symbol
_atom_site_label
_atom_site_fract_x
_atom_site_fract_y
_atom_site_fract_z
Si Si1 0.619579 0.642774 0.641310
Si Si2 0.342095 0.597955 0.755018
Si Si3 0.053021 0.404762 0.239565
Si Si4 0.632015 0.749277 0.830985
Si Si5 0.904070 0.761100 0.083028
Si Si6 0.218709 0.101118 0.005126
Si Si7 0.617391 0.900841 0.559746
Si Si8 0.476739 0.161634 0.361171
O O1 0.723656 0.591911 0.697945
O O2 0.383531 0.601142 0.593148
O O3 0.575678 0.737618 0.654458
O O4 0.784774 0.638393 0.624754
O O5 0.438160 0.500000 0.773436
O O6 0.549243 0.661661 0.794844
O O7 0.149489 0.618457 0.759637
O O8 0.229939 0.608288 0.690730
O O9 0.025034 0.500000 0.213015
O O10 0.044155 0.329009 0.202182
O O11 0.753633 0.744239 0.898239
O O12 0.880142 0.771514 0.850234
O O13 0.887127 0.669136 0.054025
O O14 0.841796 0.851169 0.049199
O O15 0.312140 0.000000 0.012172
O O16 0.000000 0.092785 0.000000
O O17 0.500000 0.856926 0.500000
O O18 0.520953 0.852793 0.587213
O O19 0.536032 0.000000 0.551733
#
# Coordination Sequence:
#
# PCOD8111236 Si02
#       8
#     8   8   8   8   8   8   8   8
#     4  11  22  42  69  97 130 176 228 276 330 406
#     4  10  22  39  62  93 130 171 211 260 326 390
#     4  10  22  39  63  93 128 173 215 256 320 398
#     4  12  22  39  63  93 134 160 205 260 319 379
#     4  11  24  39  63  95 123 160 206 268 312 366
#     4  10  22  43  67  88 118 167 216 254 314 381
#     4  11  26  45  66  98 135 172 223 288 348 398
#     4  11  22  42  69  96 130 176 228 275 330 408
#
# _framework density 22.646871999999998
#
# number of rings (size 3 to 8) (size 9 to 14) (size 15 to 20)
#    0.000    1.250    5.000    0.750    0.000    5.500 
#    0.000    3.125    0.000    0.000    0.000    0.000 
#    0.000    0.000    0.000    0.000    0.000    0.000 
#
# Total GULP energy -396428.010051 kJ/mol
# GULP energy per Si atom -12388.375314 kJ/mol
# Density = 2.259533 g / cm^3
# Si number density = 22.646872 Si / 1000 Ang^3
#
#
#
# Elastic Constant Matrix: (Units=GPa)
#
#
# Indices 1 2 3 4 5 6 
#
# 1 49.7637 10.4368 33.4259 0.0000 4.2179 0.0000
# 2 10.4368 141.7028 46.8300 0.0000 0.0512 0.0000
# 3 33.4259 46.8300 133.3014 0.0000 3.9239 0.0000
# 4 0.0000 0.0000 0.0000 28.7564 0.0000 3.3724
# 5 4.2179 0.0512 3.9239 0.0000 40.5268 0.0000
# 6 0.0000 0.0000 0.0000 3.3724 0.0000 25.2236
#
#
#
# Elastic Compliance Matrix: (Units=1/GPa)
#
#
# Indices 1 2 3 4 5 6 
#
# 1 0.024324 0.000233 -0.006124 0.000000 -0.001939 0.000000
# 2 0.000233 0.007989 -0.002872 0.000000 0.000244 0.000000
# 3 -0.006124 -0.002872 0.010056 0.000000 -0.000333 0.000000
# 4 0.000000 0.000000 0.000000 0.035329 0.000000 -0.004723
# 5 -0.001939 0.000244 -0.000333 0.000000 0.024909 0.000000
# 6 0.000000 0.000000 0.000000 -0.004723 0.000000 0.040277
#
#
# Mechanical properties :
#
#
# Convention : Reuss Voigt Hill
#
# Bulk Modulus (GPa) = 40.25336 56.23927 48.24631
# Shear Modulus (GPa) = 29.63999 34.50639 32.07319
#
# Velocity S-wave (km/s) = 3.62164 3.90766 3.76737
# Velocity P-wave (km/s) = 5.94149 6.72657 6.34618
#
# Compressibility (1/GPa) = 0.02484265
#
# Stress axis : x y z
#
# Youngs Moduli (GPa) = 41.11169 125.17241 99.44030
#
# Poissons Ratio (x) = -0.02917 0.60899
# Poissons Ratio (y) = -0.00958 0.28561
# Poissons Ratio (z) = 0.25177 0.35952
#
# Static dielectric constant tensor:
#      x y z
#    x 4.157990 0.000000 -0.003920 
#    y 0.000000 4.091800 0.000000 
#    z -0.003920 0.000000 4.072810 
# 
# 
# High freq. dielectric constant tensor:
#      x y z
#    x 1.908620 0.000000 -0.001980 
#    y 0.000000 1.892810 0.000000 
#    z -0.001980 0.000000 1.893230 
# 
# From -- ./inp_files/372600.got.cif
#   From: 2010.06.25/outbox.cif.g09.slc.cpg/sg12_187_cif.got.tgz:372600.got - 2010.06.28 00:19:55.
