data_PCOD8111700
_publ_section_title
;
Structure prediction by ZEFSAII (Michael W. Deem and Ramdas Pophale) SiO2 
 PCOD8111700
Probable space group: C 2/M
;
_chemical_formula_sum "Si O2"
_cell_formula_units_Z 48
_cell_length_a 8.580670
_cell_length_b 13.415075
_cell_length_c 19.391861
_cell_angle_alpha 90.000000
_cell_angle_beta 69.227112
_cell_angle_gamma 90.000000
_cell_volume 2087.096047
_symmetry_space_group_name_H-M "C 2/M"
_symmetry_group_IT_number 12
_symmetry_cell_setting 'monoclinic'
loop_
_space_group_symop_operation_xyz
x,y,z
-x,y,-z
-x,-y,-z
x,-y,z
1/2+x,1/2+y,z
1/2-x,1/2+y,-z
1/2-x,1/2-y,-z
1/2+x,1/2-y,z
loop_
_atom_site_type_symbol
_atom_site_label
_atom_site_fract_x
_atom_site_fract_y
_atom_site_fract_z
Si Si1 0.922515 0.290867 0.946707
Si Si2 0.325469 0.614113 0.604851
Si Si3 0.729146 0.611898 0.703771
Si Si4 0.263631 0.304876 0.151545
Si Si5 0.148896 0.112609 0.245220
Si Si6 0.981263 0.705237 0.427069
O O1 0.874809 0.345676 0.882111
O O2 0.050854 0.199796 0.909972
O O3 0.750000 0.250000 0.000000
O O4 0.000000 0.354129 0.000000
O O5 0.350309 0.500000 0.576877
O O6 0.261183 0.616868 0.694339
O O7 0.501803 0.673563 0.569045
O O8 0.191027 0.670717 0.578411
O O9 0.770477 0.500000 0.675277
O O10 0.747157 0.620715 0.783299
O O11 0.543625 0.643060 0.711149
O O12 0.860871 0.680962 0.645486
O O13 0.229016 0.189620 0.179271
O O14 0.159727 0.000000 0.212770
O O15 0.000000 0.656145 0.500000
#
# Coordination Sequence:
#
# PCOD8111700 Si02
#       6
#     8   8   8   8   8   8
#     4   9  20  36  62  96 128 168 211 253 330 407
#     4  11  25  44  68  99 135 177 230 288 345 413
#     4  11  24  41  66  97 128 174 233 283 341 407
#     4  11  19  38  67  90 126 171 212 272 323 394
#     4  10  22  40  65  97 127 165 221 280 337 394
#     4  12  26  46  69  97 140 185 228 290 355 409
#
# _framework density 22.998463000000001
#
# number of rings (size 3 to 8) (size 9 to 14) (size 15 to 20)
#    0.000    1.333    3.333    2.000    2.333    1.667 
#    0.000    2.500    0.000   20.000    0.000    0.000 
#    0.000    0.000    0.000    0.000    0.000    0.000 
#
# Total GULP energy -297366.330484 kJ/mol
# GULP energy per Si atom -12390.263770 kJ/mol
# Density = 2.294612 g / cm^3
# Si number density = 22.998463 Si / 1000 Ang^3
#
#
#
# Elastic Constant Matrix: (Units=GPa)
#
#
# Indices 1 2 3 4 5 6 
#
# 1 134.2567 41.5085 43.9218 0.0000 29.2557 0.0000
# 2 41.5085 105.0148 3.7729 0.0000 0.5984 0.0000
# 3 43.9218 3.7729 93.9390 0.0000 24.3144 0.0000
# 4 0.0000 0.0000 0.0000 5.0175 0.0000 4.7026
# 5 29.2557 0.5984 24.3144 0.0000 51.5131 0.0000
# 6 0.0000 0.0000 0.0000 4.7026 0.0000 27.4892
#
#
#
# Elastic Compliance Matrix: (Units=1/GPa)
#
#
# Indices 1 2 3 4 5 6 
#
# 1 0.010933 -0.004159 -0.003816 0.000000 -0.004359 0.000000
# 2 -0.004159 0.011119 0.001048 0.000000 0.001738 0.000000
# 3 -0.003816 0.001048 0.013476 0.000000 -0.004206 0.000000
# 4 0.000000 0.000000 0.000000 0.237361 0.000000 -0.040606
# 5 -0.004359 0.001738 -0.004206 0.000000 0.023853 0.000000
# 6 0.000000 0.000000 0.000000 -0.040606 0.000000 0.043324
#
#
# Mechanical properties :
#
#
# Convention : Reuss Voigt Hill
#
# Bulk Modulus (GPa) = 46.14067 56.84633 51.49350
# Shear Modulus (GPa) = 13.84485 33.07112 23.45799
#
# Velocity S-wave (km/s) = 2.45621 3.79617 3.19718
# Velocity P-wave (km/s) = 5.30566 6.63217 6.00565
#
# Compressibility (1/GPa) = 0.02167285
#
# Stress axis : x y z
#
# Youngs Moduli (GPa) = 91.46753 89.93647 74.20621
#
# Poissons Ratio (x) = 0.37408 0.28319
# Poissons Ratio (y) = 0.38045 -0.07779
# Poissons Ratio (z) = 0.34907 -0.09428
#
# Static dielectric constant tensor:
#      x y z
#    x 4.676100 0.000000 0.550500 
#    y 0.000000 3.828760 0.000000 
#    z 0.550500 0.000000 4.644510 
# 
# 
# High freq. dielectric constant tensor:
#      x y z
#    x 1.924070 0.000000 0.015820 
#    y 0.000000 1.865430 0.000000 
#    z 0.015820 0.000000 1.925720 
# 
# From -- ./inp_files/299771.got.cif
#   From: 2010.06.25/outbox.cif.g09.slc.cpg/sg12_150_cif.got.tgz:299771.got - 2010.06.28 00:19:55.
