data_PCOD8111808
_publ_section_title
;
Structure prediction by ZEFSAII (Michael W. Deem and Ramdas Pophale) SiO2 
 PCOD8111808
Probable space group: C 2/M
;
_chemical_formula_sum "Si O2"
_cell_formula_units_Z 56
_cell_length_a 9.080879
_cell_length_b 18.279944
_cell_length_c 18.888235
_cell_angle_alpha 90.000000
_cell_angle_beta 113.274544
_cell_angle_gamma 90.000000
_cell_volume 2880.255288
_symmetry_space_group_name_H-M "C 2/M"
_symmetry_group_IT_number 12
_symmetry_cell_setting 'monoclinic'
loop_
_space_group_symop_operation_xyz
x,y,z
-x,y,-z
-x,-y,-z
x,-y,z
1/2+x,1/2+y,z
1/2-x,1/2+y,-z
1/2-x,1/2-y,-z
1/2+x,1/2-y,z
loop_
_atom_site_type_symbol
_atom_site_label
_atom_site_fract_x
_atom_site_fract_y
_atom_site_fract_z
Si Si1 0.010174 0.166326 0.924387
Si Si2 0.412598 0.284662 0.554800
Si Si3 0.639716 0.822924 0.075561
Si Si4 0.556664 0.795998 0.710234
Si Si5 0.514225 0.581499 0.342625
Si Si6 0.688828 0.582515 0.228570
Si Si7 0.774889 0.336387 0.759673
O O1 0.194049 0.178650 0.935820
O O2 0.916214 0.242501 0.911622
O O3 0.918743 0.112774 0.854754
O O4 0.000000 0.129157 0.000000
O O5 0.500000 0.305260 0.500000
O O6 0.250000 0.250000 0.500000
O O7 0.507346 0.225945 0.620935
O O8 0.387256 0.361224 0.591017
O O9 0.654450 0.867962 0.152724
O O10 0.500000 0.858759 0.000000
O O11 0.649876 0.872176 0.727410
O O12 0.661030 0.730548 0.762583
O O13 0.404312 0.803376 0.731384
O O14 0.530282 0.500000 0.377975
O O15 0.580911 0.585368 0.276949
O O16 0.325951 0.602721 0.302105
O O17 0.742028 0.500000 0.220717
#
# Coordination Sequence:
#
# PCOD8111808 Si02
#       7
#     8   8   8   8   8   8   8
#     4  11  22  36  58  87 122 157 201 255 306 356
#     4  11  22  39  63  94 120 150 191 246 304 364
#     4  11  21  33  57  93 118 153 196 254 310 340
#     4  11  22  37  62  90 118 154 201 250 298 356
#     4  10  22  41  62  87 120 161 201 240 297 364
#     4  11  23  40  60  83 119 166 210 249 296 357
#     4  11  20  36  63  87 118 158 202 250 295 353
#
# _framework density 19.442720999999999
#
# number of rings (size 3 to 8) (size 9 to 14) (size 15 to 20)
#    0.000    1.143    2.857    6.857    2.000    1.143 
#    0.000    0.714    0.000    3.429    0.000    0.000 
#    0.000    0.000    0.000    0.000    0.000    0.000 
#
# Total GULP energy -347155.511892 kJ/mol
# GULP energy per Si atom -12398.411139 kJ/mol
# Density = 1.939847 g / cm^3
# Si number density = 19.442721 Si / 1000 Ang^3
#
#
#
# Elastic Constant Matrix: (Units=GPa)
#
#
# Indices 1 2 3 4 5 6 
#
# 1 100.1474 45.6942 35.1791 0.0000 1.0635 0.0000
# 2 45.6942 114.2805 49.8398 0.0000 14.8265 0.0000
# 3 35.1791 49.8398 133.6181 0.0000 8.4292 0.0000
# 4 0.0000 0.0000 0.0000 18.6589 0.0000 -8.2651
# 5 1.0635 14.8265 8.4292 0.0000 36.8514 0.0000
# 6 0.0000 0.0000 0.0000 -8.2651 0.0000 6.2355
#
#
#
# Elastic Compliance Matrix: (Units=1/GPa)
#
#
# Indices 1 2 3 4 5 6 
#
# 1 0.012651 -0.004534 -0.001757 0.000000 0.001861 0.000000
# 2 -0.004534 0.012502 -0.003207 0.000000 -0.004166 0.000000
# 3 -0.001757 -0.003207 0.009191 0.000000 -0.000761 0.000000
# 4 0.000000 0.000000 0.000000 0.129808 0.000000 0.172059
# 5 0.001861 -0.004166 -0.000761 0.000000 0.028932 0.000000
# 6 0.000000 0.000000 0.000000 0.172059 0.000000 0.388435
#
#
# Mechanical properties :
#
#
# Convention : Reuss Voigt Hill
#
# Bulk Modulus (GPa) = 65.15130 67.71912 66.43521
# Shear Modulus (GPa) = 8.25585 26.83803 17.54694
#
# Velocity S-wave (km/s) = 2.06288 3.71936 3.00741
# Velocity P-wave (km/s) = 6.26546 7.30414 6.80465
#
# Compressibility (1/GPa) = 0.01534889
#
# Stress axis : x y z
#
# Youngs Moduli (GPa) = 79.04308 79.98608 108.80364
#
# Poissons Ratio (x) = 0.36263 0.19119
# Poissons Ratio (y) = 0.35835 0.34893
# Poissons Ratio (z) = 0.13889 0.25651
#
# Static dielectric constant tensor:
#      x y z
#    x 3.665350 0.000000 0.073980 
#    y 0.000000 3.494150 0.000000 
#    z 0.073980 0.000000 3.942100 
# 
# 
# High freq. dielectric constant tensor:
#      x y z
#    x 1.765720 0.000000 -0.001800 
#    y 0.000000 1.727070 0.000000 
#    z -0.001800 0.000000 1.775260 
# 
# From -- ./inp_files/257211.got.cif
#   From: 2010.06.25/outbox.cif.g09.slc.cpg/sg12_129_cif.got.tgz:257211.got - 2010.06.28 00:19:55.
