data_PCOD8111049
_publ_section_title
;
Structure prediction by ZEFSAII (Michael W. Deem and Ramdas Pophale) SiO2 
 PCOD8111049
Probable space group: C 2/M
;
_chemical_formula_sum "Si O2"
_cell_formula_units_Z 40
_cell_length_a 15.252798
_cell_length_b 17.564150
_cell_length_c 15.188823
_cell_angle_alpha 90.000000
_cell_angle_beta 150.913099
_cell_angle_gamma 90.000000
_cell_volume 1978.145388
_symmetry_space_group_name_H-M "C 2/M"
_symmetry_group_IT_number 12
_symmetry_cell_setting 'monoclinic'
loop_
_space_group_symop_operation_xyz
x,y,z
-x,y,-z
-x,-y,-z
x,-y,z
1/2+x,1/2+y,z
1/2-x,1/2+y,-z
1/2-x,1/2-y,-z
1/2+x,1/2-y,z
loop_
_atom_site_type_symbol
_atom_site_label
_atom_site_fract_x
_atom_site_fract_y
_atom_site_fract_z
Si Si1 0.644805 0.914064 0.553153
Si Si2 0.811737 0.413932 0.600753
Si Si3 0.904443 0.911956 0.188581
Si Si4 0.498023 0.343326 0.900030
Si Si5 0.943222 0.667563 0.046466
O O1 0.500000 0.896622 0.500000
O O2 0.574097 0.907836 0.390550
O O3 0.790279 0.847651 0.689880
O O4 0.725588 0.000000 0.636482
O O5 0.821772 0.500000 0.646008
O O6 0.602382 0.391034 0.400395
O O7 0.903619 0.358660 0.751101
O O8 0.888619 0.892943 0.070524
O O9 0.860341 0.000000 0.163154
O O10 0.754805 0.864500 0.108827
O O11 0.572335 0.258199 0.963355
O O12 0.500000 0.378677 0.000000
O O13 0.000000 0.639209 0.000000
#
# Coordination Sequence:
#
# PCOD8111049 Si02
#       5
#     8   8   8   8   8
#     4   9  19  36  59  91 122 153 196 241 297 364
#     4   9  20  39  61  88 117 155 203 247 298 351
#     4  10  22  40  63  88 117 156 202 252 299 351
#     4  10  22  39  57  91 125 155 195 242 303 365
#     4  11  24  41  58  88 122 163 204 245 293 353
#
# _framework density 20.220962
#
# number of rings (size 3 to 8) (size 9 to 14) (size 15 to 20)
#    0.000    2.200    0.000    3.000    2.800    7.200 
#    7.200    2.000    0.000    0.000    0.000    0.000 
#    0.000    0.000    0.000    0.000    0.000    0.000 
#
# Total GULP energy -247886.698488 kJ/mol
# GULP energy per Si atom -12394.334924 kJ/mol
# Density = 2.017494 g / cm^3
# Si number density = 20.220962 Si / 1000 Ang^3
#
#
#
# Elastic Constant Matrix: (Units=GPa)
#
#
# Indices 1 2 3 4 5 6 
#
# 1 142.4612 26.1316 44.8965 0.0029 2.7189 0.0002
# 2 26.1316 43.7118 20.4851 0.0039 6.2475 -0.0003
# 3 44.8965 20.4851 74.0824 0.0056 -3.4838 0.0007
# 4 0.0029 0.0039 0.0056 27.3924 0.0024 3.2543
# 5 2.7189 6.2475 -3.4838 0.0024 33.0941 -0.0001
# 6 0.0002 -0.0003 0.0007 3.2543 -0.0001 26.8840
#
#
#
# Elastic Compliance Matrix: (Units=1/GPa)
#
#
# Indices 1 2 3 4 5 6 
#
# 1 0.009079 -0.003151 -0.004661 0.000001 -0.000642 0.000000
# 2 -0.003151 0.028515 -0.006247 -0.000002 -0.005782 0.000001
# 3 -0.004661 -0.006247 0.018214 -0.000003 0.003480 0.000000
# 4 0.000001 -0.000002 -0.000003 0.037039 -0.000003 -0.004484
# 5 -0.000642 -0.005782 0.003480 -0.000003 0.031727 0.000000
# 6 0.000000 0.000001 0.000000 -0.004484 0.000000 0.037740
#
#
# Mechanical properties :
#
#
# Convention : Reuss Voigt Hill
#
# Bulk Modulus (GPa) = 36.11470 49.25352 42.68411
# Shear Modulus (GPa) = 25.04237 28.72358 26.88297
#
# Velocity S-wave (km/s) = 3.52296 3.77302 3.65013
# Velocity P-wave (km/s) = 5.86917 6.58722 6.23853
#
# Compressibility (1/GPa) = 0.02768956
#
# Stress axis : x y z
#
# Youngs Moduli (GPa) = 110.14952 35.06925 54.90271
#
# Poissons Ratio (x) = 0.11052 0.25588
# Poissons Ratio (y) = 0.34713 0.34297
# Poissons Ratio (z) = 0.51337 0.21908
#
# Static dielectric constant tensor:
#      x y z
#    x 3.968010 0.000000 -0.083860 
#    y 0.000000 3.525980 0.000000 
#    z -0.083860 0.000000 3.520210 
# 
# 
# High freq. dielectric constant tensor:
#      x y z
#    x 1.804960 0.000000 -0.003700 
#    y 0.000000 1.783150 0.000000 
#    z -0.003700 0.000000 1.777580 
# 
# From -- ./inp_files/58954.got.cif
#   From: 2010.06.25/outbox.cif.g09.slc.cpg/sg12_30_cif.got.tgz:58954.got - 2010.06.28 00:19:55.
