data_PCOD8111259
_publ_section_title
;
Structure prediction by ZEFSAII (Michael W. Deem and Ramdas Pophale) SiO2 
 PCOD8111259
Probable space group: C 2/M
;
_chemical_formula_sum "Si O2"
_cell_formula_units_Z 64
_cell_length_a 31.202727
_cell_length_b 8.697981
_cell_length_c 15.086852
_cell_angle_alpha 90.000000
_cell_angle_beta 49.594614
_cell_angle_gamma 90.000000
_cell_volume 3117.932021
_symmetry_space_group_name_H-M "C 2/M"
_symmetry_group_IT_number 12
_symmetry_cell_setting 'monoclinic'
loop_
_space_group_symop_operation_xyz
x,y,z
-x,y,-z
-x,-y,-z
x,-y,z
1/2+x,1/2+y,z
1/2-x,1/2+y,-z
1/2-x,1/2-y,-z
1/2+x,1/2-y,z
loop_
_atom_site_type_symbol
_atom_site_label
_atom_site_fract_x
_atom_site_fract_y
_atom_site_fract_z
Si Si1 0.372515 0.176221 0.998045
Si Si2 0.333182 0.683146 0.640433
Si Si3 0.965675 0.324162 0.135994
Si Si4 0.862797 0.180575 0.191480
Si Si5 0.252002 0.324088 0.901810
Si Si6 0.527229 0.679831 0.214276
Si Si7 0.751164 0.181959 0.596739
Si Si8 0.460757 0.682827 0.473577
O O1 0.412622 0.232767 0.864293
O O2 0.386594 0.000000 0.003495
O O3 0.387546 0.283073 0.061481
O O4 0.308437 0.198828 0.059756
O O5 0.331905 0.500000 0.646414
O O6 0.297652 0.748939 0.772366
O O7 0.305350 0.733612 0.583271
O O8 0.396832 0.748150 0.562899
O O9 0.962783 0.500000 0.172780
O O10 0.902950 0.257640 0.210475
O O11 0.995520 0.216810 0.166680
O O12 0.000000 0.309918 0.000000
O O13 0.802228 0.258316 0.278110
O O14 0.858956 0.000000 0.214172
O O15 0.267318 0.500000 0.896237
O O16 0.250000 0.250000 0.000000
O O17 0.538720 0.500000 0.208603
O O18 0.489285 0.741361 0.345384
O O19 0.750000 0.250000 0.500000
O O20 0.748852 0.000000 0.591678
O O21 0.500000 0.746950 0.500000
O O22 0.457668 0.500000 0.481898
#
# Coordination Sequence:
#
# PCOD8111259 Si02
#       8
#     8   8   8   8   8   8   8   8
#     4  11  22  40  61  87 125 165 203 252 319 383
#     4   9  19  39  62  86 124 165 204 254 310 372
#     4  11  23  39  60  86 124 169 202 244 309 375
#     4  12  24  39  62  90 123 160 207 263 312 369
#     4  10  22  39  63  91 120 158 202 254 317 378
#     4  11  23  37  61  95 124 159 211 262 305 368
#     4  11  23  41  63  90 126 169 213 256 315 379
#     4   9  20  38  61  90 123 160 206 259 312 364
#
# _framework density 20.526426000000001
#
# number of rings (size 3 to 8) (size 9 to 14) (size 15 to 20)
#    0.000    1.500    2.500    2.625    3.500    1.500 
#    0.000    0.000    0.000    3.000    0.000    0.000 
#    0.000    0.000    0.000    0.000    0.000    0.000 
#
# Total GULP energy -396792.858730 kJ/mol
# GULP energy per Si atom -12399.776835 kJ/mol
# Density = 2.047971 g / cm^3
# Si number density = 20.526426 Si / 1000 Ang^3
#
#
#
# Elastic Constant Matrix: (Units=GPa)
#
#
# Indices 1 2 3 4 5 6 
#
# 1 105.6477 37.4177 69.1229 0.0000 -6.8603 -0.0002
# 2 37.4177 52.9619 29.2884 -0.0001 -5.5863 -0.0006
# 3 69.1229 29.2884 153.3655 0.0000 -7.3403 0.0000
# 4 0.0000 -0.0001 0.0000 30.6585 0.0000 -1.9873
# 5 -6.8603 -5.5863 -7.3403 0.0000 40.7041 -0.0001
# 6 -0.0002 -0.0006 0.0000 -1.9873 -0.0001 23.3996
#
#
#
# Elastic Compliance Matrix: (Units=1/GPa)
#
#
# Indices 1 2 3 4 5 6 
#
# 1 0.016113 -0.008187 -0.005671 0.000000 0.000569 0.000000
# 2 -0.008187 0.025466 -0.001081 0.000000 0.001920 0.000001
# 3 -0.005671 -0.001081 0.009311 0.000000 0.000575 0.000000
# 4 0.000000 0.000000 0.000000 0.032798 0.000000 0.002785
# 5 0.000569 0.001920 0.000575 0.000000 0.025031 0.000000
# 6 0.000000 0.000001 0.000000 0.002785 0.000000 0.042972
#
#
# Mechanical properties :
#
#
# Convention : Reuss Voigt Hill
#
# Bulk Modulus (GPa) = 47.59735 64.84813 56.22274
# Shear Modulus (GPa) = 26.51480 30.69552 28.60516
#
# Velocity S-wave (km/s) = 3.59798 3.87125 3.73711
# Velocity P-wave (km/s) = 6.36390 7.18632 6.78758
#
# Compressibility (1/GPa) = 0.02100957
#
# Stress axis : x y z
#
# Youngs Moduli (GPa) = 62.06250 39.26741 107.40555
#
# Poissons Ratio (x) = 0.32150 0.60913
# Poissons Ratio (y) = 0.50813 0.11614
# Poissons Ratio (z) = 0.35198 0.04246
#
# Static dielectric constant tensor:
#      x y z
#    x 3.819010 0.000000 -0.117090 
#    y 0.000000 3.523170 0.000000 
#    z -0.117090 0.000000 3.964750 
# 
# 
# High freq. dielectric constant tensor:
#      x y z
#    x 1.812800 0.000000 -0.007930 
#    y 0.000000 1.777300 0.000000 
#    z -0.007930 0.000000 1.812080 
# 
# From -- ./inp_files/249695.got.cif
#   From: 2010.06.25/outbox.cif.g09.slc.cpg/sg12_125_cif.got.tgz:249695.got - 2010.06.28 00:19:55.
