data_PCOD8111483
_publ_section_title
;
Structure prediction by ZEFSAII (Michael W. Deem and Ramdas Pophale) SiO2 
 PCOD8111483
Probable space group: C 2/M
;
_chemical_formula_sum "Si O2"
_cell_formula_units_Z 64
_cell_length_a 31.977068
_cell_length_b 8.874173
_cell_length_c 14.922501
_cell_angle_alpha 90.000000
_cell_angle_beta 47.344233
_cell_angle_gamma 90.000000
_cell_volume 3114.254988
_symmetry_space_group_name_H-M "C 2/M"
_symmetry_group_IT_number 12
_symmetry_cell_setting 'monoclinic'
loop_
_space_group_symop_operation_xyz
x,y,z
-x,y,-z
-x,-y,-z
x,-y,z
1/2+x,1/2+y,z
1/2-x,1/2+y,-z
1/2-x,1/2-y,-z
1/2+x,1/2-y,z
loop_
_atom_site_type_symbol
_atom_site_label
_atom_site_fract_x
_atom_site_fract_y
_atom_site_fract_z
Si Si1 0.864179 0.677117 0.173485
Si Si2 0.044481 0.175093 0.089297
Si Si3 0.132535 0.824848 0.474849
Si Si4 0.400164 0.176927 0.835653
Si Si5 0.749976 0.172530 0.276255
Si Si6 0.565818 0.175650 0.411634
Si Si7 0.914995 0.172412 0.263494
Si Si8 0.783917 0.172356 0.029287
O O1 0.867461 0.500000 0.154583
O O2 0.801324 0.731860 0.241591
O O3 0.876901 0.718935 0.257902
O O4 0.911154 0.753635 0.043313
O O5 0.048938 0.249817 0.181242
O O6 0.981052 0.202546 0.145851
O O7 0.058892 0.000000 0.077370
O O8 0.191219 0.735709 0.399153
O O9 0.095277 0.771813 0.445380
O O10 0.096555 0.791976 0.616102
O O11 0.146426 0.000000 0.442328
O O12 0.404857 0.218806 0.724730
O O13 0.342448 0.241545 0.960744
O O14 0.402087 0.000000 0.847487
O O15 0.757382 0.000000 0.296127
O O16 0.747255 0.184139 0.172629
O O17 0.500000 0.219185 0.500000
O O18 0.573628 0.000000 0.423030
O O19 0.899213 0.000000 0.263587
O O20 0.796154 0.000000 0.985404
O O21 0.750000 0.250000 0.000000
#
# Coordination Sequence:
#
# PCOD8111483 Si02
#       8
#     8   8   8   8   8   8   8   8
#     4  12  25  41  66  97 126 161 209 263 317 374
#     4  11  22  40  65  93 128 167 206 256 318 379
#     4  11  24  42  65  94 126 165 215 266 312 368
#     4  11  22  36  59  90 123 161 206 254 307 368
#     4  11  24  43  65  89 125 170 209 254 317 379
#     4  10  22  40  61  89 128 171 212 257 312 372
#     4  10  24  44  65  91 126 167 210 258 317 380
#     4  11  23  38  59  86 119 160 203 251 309 369
#
# _framework density 20.550663
#
# number of rings (size 3 to 8) (size 9 to 14) (size 15 to 20)
#    0.000    1.125    1.250    4.875    0.000    9.750 
#    0.000    0.000    0.000    0.000    0.000    0.000 
#    0.000    0.000    0.000    0.000    0.000    0.000 
#
# Total GULP energy -397009.397152 kJ/mol
# GULP energy per Si atom -12406.543661 kJ/mol
# Density = 2.050389 g / cm^3
# Si number density = 20.550663 Si / 1000 Ang^3
#
#
#
# Elastic Constant Matrix: (Units=GPa)
#
#
# Indices 1 2 3 4 5 6 
#
# 1 108.5948 47.9695 28.6992 0.0000 7.6397 0.0000
# 2 47.9695 111.8767 37.3877 0.0000 7.7905 0.0000
# 3 28.6992 37.3877 82.6371 0.0000 -7.6801 0.0000
# 4 0.0000 0.0000 0.0000 29.7083 0.0000 2.7126
# 5 7.6397 7.7905 -7.6801 0.0000 32.9416 0.0000
# 6 0.0000 0.0000 0.0000 2.7126 0.0000 42.6864
#
#
#
# Elastic Compliance Matrix: (Units=1/GPa)
#
#
# Indices 1 2 3 4 5 6 
#
# 1 0.011833 -0.004080 -0.002483 0.000000 -0.002358 0.000000
# 2 -0.004080 0.012393 -0.004471 0.000000 -0.003027 0.000000
# 3 -0.002483 -0.004471 0.015473 0.000000 0.005241 0.000000
# 4 0.000000 0.000000 0.000000 0.033857 0.000000 -0.002152
# 5 -0.002358 -0.003027 0.005241 0.000000 0.032841 0.000000
# 6 0.000000 0.000000 0.000000 -0.002152 0.000000 0.023563
#
#
# Mechanical properties :
#
#
# Convention : Reuss Voigt Hill
#
# Bulk Modulus (GPa) = 56.71758 59.02462 57.87110
# Shear Modulus (GPa) = 31.66451 33.67072 32.66762
#
# Velocity S-wave (km/s) = 3.92956 4.05214 3.99132
# Velocity P-wave (km/s) = 6.94604 7.11878 7.03294
#
# Compressibility (1/GPa) = 0.01763122
#
# Stress axis : x y z
#
# Youngs Moduli (GPa) = 84.51175 80.69270 64.62679
#
# Poissons Ratio (x) = 0.32919 0.16046
# Poissons Ratio (y) = 0.34477 0.28897
# Poissons Ratio (z) = 0.20983 0.36081
#
# Static dielectric constant tensor:
#      x y z
#    x 3.842180 0.000000 -0.024460 
#    y 0.000000 3.864990 0.000000 
#    z -0.024460 0.000000 3.818390 
# 
# 
# High freq. dielectric constant tensor:
#      x y z
#    x 1.816400 0.000000 0.000770 
#    y 0.000000 1.811960 0.000000 
#    z 0.000770 0.000000 1.808340 
# 
# From -- ./inp_files/249817.got.cif
#   From: 2010.06.25/outbox.cif.g09.slc.cpg/sg12_125_cif.got.tgz:249817.got - 2010.06.28 00:19:55.
