data_PCOD8111078
_publ_section_title
;
Structure prediction by ZEFSAII (Michael W. Deem and Ramdas Pophale) SiO2 
 PCOD8111078
Probable space group: C 2/M
;
_chemical_formula_sum "Si O2"
_cell_formula_units_Z 40
_cell_length_a 22.357215
_cell_length_b 9.308132
_cell_length_c 28.960480
_cell_angle_alpha 90.000000
_cell_angle_beta 161.411478
_cell_angle_gamma 90.000000
_cell_volume 1921.156164
_symmetry_space_group_name_H-M "C 2/M"
_symmetry_group_IT_number 12
_symmetry_cell_setting 'monoclinic'
loop_
_space_group_symop_operation_xyz
x,y,z
-x,y,-z
-x,-y,-z
x,-y,z
1/2+x,1/2+y,z
1/2-x,1/2+y,-z
1/2-x,1/2-y,-z
1/2+x,1/2-y,z
loop_
_atom_site_type_symbol
_atom_site_label
_atom_site_fract_x
_atom_site_fract_y
_atom_site_fract_z
Si Si1 0.627498 0.664003 0.805413
Si Si2 0.903638 0.665146 0.083914
Si Si3 0.557580 0.164660 0.592835
Si Si4 0.792298 0.329217 0.833869
Si Si5 0.153890 0.834432 0.324945
O O1 0.569700 0.500000 0.757346
O O2 0.651813 0.727914 0.771821
O O3 0.459252 0.732796 0.713480
O O4 0.835247 0.675932 0.980878
O O5 0.918719 0.500000 0.110794
O O6 0.098998 0.745912 0.238117
O O7 0.750000 0.750000 0.000000
O O8 0.500000 0.221359 0.500000
O O9 0.726657 0.257519 0.737932
O O10 0.376590 0.179572 0.494145
O O11 0.625028 0.000000 0.638697
O O12 0.783840 0.500000 0.821409
O O13 0.000000 0.279378 0.000000
O O14 0.092706 0.000000 0.272628
#
# Coordination Sequence:
#
# PCOD8111078 Si02
#       5
#     8   8   8   8   8
#     4   8  16  32  53  79 110 142 178 227 278 324
#     4   9  16  28  50  80 114 146 180 222 274 330
#     4  10  23  41  58  81 114 151 188 232 287 340
#     4  10  22  39  59  83 112 147 187 232 282 337
#     4   9  18  34  55  78 110 147 184 231 280 327
#
# _framework density 20.820796000000001
#
# number of rings (size 3 to 8) (size 9 to 14) (size 15 to 20)
#    0.000    2.800    0.000    1.800    2.800    2.400 
#    0.000    5.000    0.000    0.000    0.000    0.000 
#    0.000    0.000    0.000    0.000    0.000    0.000 
#
# Total GULP energy -247770.631803 kJ/mol
# GULP energy per Si atom -12388.531590 kJ/mol
# Density = 2.077341 g / cm^3
# Si number density = 20.820796 Si / 1000 Ang^3
#
#
#
# Elastic Constant Matrix: (Units=GPa)
#
#
# Indices 1 2 3 4 5 6 
#
# 1 95.8306 20.5243 43.4686 0.0091 -15.1610 0.0026
# 2 20.5243 67.2030 43.4449 0.0638 -12.2679 -0.0104
# 3 43.4686 43.4449 115.0719 0.2832 -13.9772 -0.0665
# 4 0.0091 0.0638 0.2832 33.7085 -0.0652 -7.0934
# 5 -15.1610 -12.2679 -13.9772 -0.0652 28.4092 0.0106
# 6 0.0026 -0.0104 -0.0665 -7.0934 0.0106 19.9454
#
#
#
# Elastic Compliance Matrix: (Units=1/GPa)
#
#
# Indices 1 2 3 4 5 6 
#
# 1 0.013209 -0.000412 -0.004254 0.000041 0.004778 -0.000004
# 2 -0.000412 0.020433 -0.006928 0.000029 0.005195 -0.000005
# 3 -0.004254 -0.006928 0.013054 -0.000092 0.001160 0.000007
# 4 0.000041 0.000029 -0.000092 0.032067 0.000059 0.011404
# 5 0.004778 0.005195 0.001160 0.000059 0.040564 0.000005
# 6 -0.000004 -0.000005 0.000007 0.011404 0.000005 0.054193
#
#
# Mechanical properties :
#
#
# Convention : Reuss Voigt Hill
#
# Bulk Modulus (GPa) = 42.53740 54.77566 48.65653
# Shear Modulus (GPa) = 24.44474 27.79047 26.11760
#
# Velocity S-wave (km/s) = 3.43016 3.65738 3.54559
# Velocity P-wave (km/s) = 6.01354 6.64835 6.33889
#
# Compressibility (1/GPa) = 0.02350872
#
# Stress axis : x y z
#
# Youngs Moduli (GPa) = 75.70713 48.94012 76.60541
#
# Poissons Ratio (x) = 0.02015 0.32587
# Poissons Ratio (y) = 0.03118 0.53071
# Poissons Ratio (z) = 0.32205 0.33905
#
# Static dielectric constant tensor:
#      x y z
#    x 4.008580 0.000030 -0.026320 
#    y 0.000030 3.640470 0.000190 
#    z -0.026320 0.000190 4.086700 
# 
# 
# High freq. dielectric constant tensor:
#      x y z
#    x 1.816680 0.000000 0.004290 
#    y 0.000000 1.781170 -0.000010 
#    z 0.004290 -0.000010 1.807410 
# 
# From -- ./inp_files/381956.got.cif
#   From: 2010.06.25/outbox.cif.g09.slc.cpg/sg12_191_cif.got.tgz:381956.got - 2010.06.28 00:19:55.
