data_PCOD8111988
_publ_section_title
;
Structure prediction by ZEFSAII (Michael W. Deem and Ramdas Pophale) SiO2 
 PCOD8111988
Probable space group: C 2/M
;
_chemical_formula_sum "Si O2"
_cell_formula_units_Z 36
_cell_length_a 5.265361
_cell_length_b 13.731257
_cell_length_c 24.298537
_cell_angle_alpha 90.000000
_cell_angle_beta 121.220304
_cell_angle_gamma 90.000000
_cell_volume 1502.368366
_symmetry_space_group_name_H-M "C 2/M"
_symmetry_group_IT_number 12
_symmetry_cell_setting 'monoclinic'
loop_
_space_group_symop_operation_xyz
x,y,z
-x,y,-z
-x,-y,-z
x,-y,z
1/2+x,1/2+y,z
1/2-x,1/2+y,-z
1/2-x,1/2-y,-z
1/2+x,1/2-y,z
loop_
_atom_site_type_symbol
_atom_site_label
_atom_site_fract_x
_atom_site_fract_y
_atom_site_fract_z
Si Si1 0.123957 0.000000 0.343584
Si Si2 0.311072 0.808374 0.424830
Si Si3 0.427476 0.000000 0.261481
Si Si4 0.603133 0.207485 0.785456
Si Si5 0.528065 0.210288 0.073689
Si Si6 0.851778 0.500000 0.042005
O O1 0.269449 0.093173 0.387293
O O2 0.208574 0.000000 0.288891
O O3 0.772800 0.000000 0.316043
O O4 0.500000 0.832861 0.500000
O O5 0.491297 0.734796 0.405641
O O6 0.351773 0.907271 0.215427
O O7 0.752905 0.263844 0.750215
O O8 0.727949 0.243316 0.858026
O O9 0.225520 0.278003 0.039123
O O10 0.462648 0.098831 0.084115
O O11 0.500000 0.500000 0.000000
O O12 0.000000 0.500000 0.000000
#
# Coordination Sequence:
#
# PCOD8111988 Si02
#       6
#     4   8   4   8   8   4
#     4  12  25  40  63  94 132 166 208 266 327 372
#     4  10  22  41  65  92 126 170 215 258 314 387
#     4  12  26  40  62  96 126 165 212 267 319 368
#     4  10  23  42  65  90 123 165 214 259 306 373
#     4  10  23  42  67  93 125 167 206 252 309 377
#     4  12  26  42  66 100 132 161 204 261 319 374
#
# _framework density 23.962164999999999
#
# number of rings (size 3 to 8) (size 9 to 14) (size 15 to 20)
#    0.000    1.333    0.000    4.333    0.000   15.111 
#    0.000    4.444    0.000    0.000    0.000    0.000 
#    0.000    0.000    0.000    0.000    0.000    0.000 
#
# Total GULP energy -223227.775698 kJ/mol
# GULP energy per Si atom -12401.543094 kJ/mol
# Density = 2.390763 g / cm^3
# Si number density = 23.962165 Si / 1000 Ang^3
#
#
#
# Elastic Constant Matrix: (Units=GPa)
#
#
# Indices 1 2 3 4 5 6 
#
# 1 186.4829 38.5588 15.1900 0.0001 -12.9587 0.0002
# 2 38.5588 183.2887 36.0190 0.0000 -12.6169 0.0001
# 3 15.1900 36.0190 46.6017 0.0000 -10.4747 0.0001
# 4 0.0001 0.0000 0.0000 43.5042 0.0000 -6.2658
# 5 -12.9587 -12.6169 -10.4747 0.0000 22.8091 0.0001
# 6 0.0002 0.0001 0.0001 -6.2658 0.0001 44.0331
#
#
#
# Elastic Compliance Matrix: (Units=1/GPa)
#
#
# Indices 1 2 3 4 5 6 
#
# 1 0.005776 -0.000924 -0.000609 0.000000 0.002491 0.000000
# 2 -0.000924 0.006622 -0.004585 0.000000 0.001033 0.000000
# 3 -0.000609 -0.004585 0.027379 0.000000 0.009691 0.000000
# 4 0.000000 0.000000 0.000000 0.023467 0.000000 0.003339
# 5 0.002491 0.001033 0.009691 0.000000 0.050279 0.000000
# 6 0.000000 0.000000 0.000000 0.003339 0.000000 0.023185
#
#
# Mechanical properties :
#
#
# Convention : Reuss Voigt Hill
#
# Bulk Modulus (GPa) = 36.30839 66.21209 51.26024
# Shear Modulus (GPa) = 31.62034 43.84297 37.73166
#
# Velocity S-wave (km/s) = 3.63656 4.28211 3.97247
# Velocity P-wave (km/s) = 5.72871 7.22084 6.51761
#
# Compressibility (1/GPa) = 0.02754185
#
# Stress axis : x y z
#
# Youngs Moduli (GPa) = 173.12527 151.00223 36.52410
#
# Poissons Ratio (x) = 0.13954 0.02223
# Poissons Ratio (y) = 0.15998 0.16747
# Poissons Ratio (z) = 0.10537 0.69238
#
# Static dielectric constant tensor:
#      x y z
#    x 5.284770 0.000000 -0.080340 
#    y 0.000000 4.655790 0.000000 
#    z -0.080340 0.000000 4.278970 
# 
# 
# High freq. dielectric constant tensor:
#      x y z
#    x 1.999620 0.000000 -0.003430 
#    y 0.000000 1.955210 0.000000 
#    z -0.003430 0.000000 1.943550 
# 
# From -- ./inp_files/371343.got.cif
#   From: 2010.06.25/outbox.cif.g09.slc.cpg/sg12_186_cif.got.tgz:371343.got - 2010.06.28 00:19:55.
