data_PCOD8111076
_publ_section_title
;
Structure prediction by ZEFSAII (Michael W. Deem and Ramdas Pophale) SiO2 
 PCOD8111076
Probable space group: C 2/M
;
_chemical_formula_sum "Si O2"
_cell_formula_units_Z 64
_cell_length_a 14.545004
_cell_length_b 26.450356
_cell_length_c 9.091274
_cell_angle_alpha 90.000000
_cell_angle_beta 67.268886
_cell_angle_gamma 90.000000
_cell_volume 3225.935581
_symmetry_space_group_name_H-M "C 2/M"
_symmetry_group_IT_number 12
_symmetry_cell_setting 'monoclinic'
loop_
_space_group_symop_operation_xyz
x,y,z
-x,y,-z
-x,-y,-z
x,-y,z
1/2+x,1/2+y,z
1/2-x,1/2+y,-z
1/2-x,1/2-y,-z
1/2+x,1/2-y,z
loop_
_atom_site_type_symbol
_atom_site_label
_atom_site_fract_x
_atom_site_fract_y
_atom_site_fract_z
Si Si1 0.467132 0.916410 0.685737
Si Si2 0.163254 0.445572 0.662636
Si Si3 0.382393 0.327000 0.563673
Si Si4 0.393727 0.783305 0.640601
Si Si5 0.249329 0.387988 0.861632
Si Si6 0.260101 0.557776 0.146804
Si Si7 0.074689 0.675759 0.084508
Si Si8 0.258044 0.366883 0.387447
O O1 0.500000 0.902841 0.500000
O O2 0.545621 0.954590 0.710556
O O3 0.359049 0.941793 0.756652
O O4 0.473455 0.866746 0.782293
O O5 0.215579 0.500000 0.597404
O O6 0.184243 0.429737 0.816568
O O7 0.196324 0.400278 0.538829
O O8 0.500000 0.332686 0.500000
O O9 0.347722 0.269942 0.618575
O O10 0.338197 0.366493 0.707668
O O11 0.345149 0.338127 0.420959
O O12 0.500000 0.793284 0.500000
O O13 0.405512 0.778914 0.811646
O O14 0.317159 0.828403 0.647645
O O15 0.294402 0.418270 0.971454
O O16 0.179074 0.341582 0.951167
O O17 0.298607 0.500000 0.137717
O O18 0.308346 0.594571 0.239921
O O19 0.000000 0.692481 0.000000
#
# Coordination Sequence:
#
# PCOD8111076 Si02
#       8
#     8   8   8   8   8   8   8   8
#     4  11  19  31  49  82 132 171 200 226 270 356
#     4  11  20  31  53  83 121 170 205 231 281 355
#     4  10  25  46  65  85 109 155 214 267 312 352
#     4  11  22  40  64  91 125 158 200 245 301 369
#     4  10  22  39  59  81 124 162 196 255 293 352
#     4  11  22  35  57  92 128 161 193 238 302 360
#     4  11  20  34  56  90 129 166 193 230 291 357
#     4  11  21  37  62  90 120 160 196 252 296 360
#
# _framework density 19.839206000000001
#
# number of rings (size 3 to 8) (size 9 to 14) (size 15 to 20)
#    0.000    1.250    5.000    2.625    1.750    1.000 
#    0.000    2.500    0.000   14.250    0.000    0.000 
#    0.000    0.000    0.000    0.000    0.000    0.000 
#
# Total GULP energy -396654.067863 kJ/mol
# GULP energy per Si atom -12395.439621 kJ/mol
# Density = 1.979405 g / cm^3
# Si number density = 19.839206 Si / 1000 Ang^3
#
#
#
# Elastic Constant Matrix: (Units=GPa)
#
#
# Indices 1 2 3 4 5 6 
#
# 1 78.8930 39.7277 38.0265 0.0000 24.7687 0.0000
# 2 39.7277 112.9097 36.1285 0.0000 21.5109 0.0000
# 3 38.0265 36.1285 104.5533 0.0000 27.2368 0.0000
# 4 0.0000 0.0000 0.0000 9.6602 0.0000 -9.1993
# 5 24.7687 21.5109 27.2368 0.0000 36.4257 0.0000
# 6 0.0000 0.0000 0.0000 -9.1993 0.0000 -6.2527
#
#
#
# Elastic Compliance Matrix: (Units=1/GPa)
#
#
# Indices 1 2 3 4 5 6 
#
# 1 0.018816 -0.004033 -0.003399 0.000000 -0.007871 0.000000
# 2 -0.004033 0.011343 -0.001766 0.000000 -0.002635 0.000000
# 3 -0.003399 -0.001766 0.013086 0.000000 -0.006431 0.000000
# 4 0.000000 0.000000 0.000000 0.043114 0.000000 -0.063430
# 5 -0.007871 -0.002635 -0.006431 0.000000 0.039170 0.000000
# 6 0.000000 0.000000 0.000000 -0.063430 0.000000 -0.066609
#
#
# Mechanical properties :
#
#
# Convention : Reuss Voigt Hill
#
# Bulk Modulus (GPa) = 40.24489 58.23569 49.24029
# Shear Modulus (GPa) = 58.41103 20.13151 39.27127
#
# Velocity S-wave (km/s) = 5.43196 3.18894 4.45396
# Velocity P-wave (km/s) = 7.72471 6.55566 7.16407
#
# Compressibility (1/GPa) = 0.02484787
#
# Stress axis : x y z
#
# Youngs Moduli (GPa) = 53.14631 88.16053 76.41526
#
# Poissons Ratio (x) = 0.35557 0.25976
# Poissons Ratio (y) = 0.21435 0.13496
# Poissons Ratio (z) = 0.18066 0.15570
#
# Static dielectric constant tensor:
#      x y z
#    x 3.551030 0.000000 0.439830 
#    y 0.000000 3.659390 0.000000 
#    z 0.439830 0.000000 3.833100 
# 
# 
# High freq. dielectric constant tensor:
#      x y z
#    x 1.743920 0.000000 0.028300 
#    y 0.000000 1.773070 0.000000 
#    z 0.028300 0.000000 1.779190 
# 
# From -- ./inp_files/66889.got.cif
#   From: 2010.06.25/outbox.cif.g09.slc.cpg/sg12_34_cif.got.tgz:66889.got - 2010.06.28 00:19:55.
