data_PCOD8111867
_publ_section_title
;
Structure prediction by ZEFSAII (Michael W. Deem and Ramdas Pophale) SiO2 
 PCOD8111867
Probable space group: C 2/M
;
_chemical_formula_sum "Si O2"
_cell_formula_units_Z 64
_cell_length_a 23.845048
_cell_length_b 8.542083
_cell_length_c 28.882329
_cell_angle_alpha 90.000000
_cell_angle_beta 149.149388
_cell_angle_gamma 90.000000
_cell_volume 3016.778478
_symmetry_space_group_name_H-M "C 2/M"
_symmetry_group_IT_number 12
_symmetry_cell_setting 'monoclinic'
loop_
_space_group_symop_operation_xyz
x,y,z
-x,y,-z
-x,-y,-z
x,-y,z
1/2+x,1/2+y,z
1/2-x,1/2+y,-z
1/2-x,1/2-y,-z
1/2+x,1/2-y,z
loop_
_atom_site_type_symbol
_atom_site_label
_atom_site_fract_x
_atom_site_fract_y
_atom_site_fract_z
Si Si1 0.294255 0.315704 0.079319
Si Si2 0.728017 0.819227 0.184528
Si Si3 0.603073 0.682246 0.175851
Si Si4 0.312046 0.182003 0.674019
Si Si5 0.991831 0.681276 0.730847
Si Si6 0.375910 0.683462 0.972027
Si Si7 0.957658 0.318859 0.335551
Si Si8 0.934825 0.815986 0.498245
O O1 0.273812 0.500000 0.066446
O O2 0.422149 0.279847 0.177604
O O3 0.230977 0.230777 0.075559
O O4 0.250000 0.250000 0.000000
O O5 0.693937 0.781181 0.212726
O O6 0.627476 0.772803 0.079608
O O7 0.829253 0.712884 0.241066
O O8 0.760072 0.000000 0.202835
O O9 0.620839 0.500000 0.178437
O O10 0.616710 0.720253 0.239151
O O11 0.482581 0.737502 0.075572
O O12 0.370491 0.207900 0.665809
O O13 0.188799 0.250280 0.586337
O O14 0.313178 0.000000 0.688705
O O15 0.027214 0.500000 0.758750
O O16 0.988083 0.735530 0.674554
O O17 0.377302 0.500000 0.963293
O O18 0.980439 0.500000 0.361417
O O19 0.005451 0.220767 0.411692
O O20 0.000000 0.743689 0.500000
O O21 0.929809 0.000000 0.488603
#
# Coordination Sequence:
#
# PCOD8111867 Si02
#       8
#     8   8   8   8   8   8   8   8
#     4  12  24  38  60  88 122 168 217 265 316 372
#     4  12  24  39  62  91 124 165 211 259 313 378
#     4  11  24  40  61  90 125 165 207 260 318 373
#     4  10  22  41  64  91 125 166 210 258 313 377
#     4  10  22  41  63  89 126 167 210 262 319 375
#     4  11  23  40  60  88 125 163 208 260 315 375
#     4  11  23  40  65  93 126 166 210 263 320 378
#     4  10  22  41  65  94 127 163 208 262 320 381
#
# _framework density 21.214683999999998
#
# number of rings (size 3 to 8) (size 9 to 14) (size 15 to 20)
#    0.000    1.125    1.250    5.250    0.000    8.750 
#    0.000    0.000    0.000    0.000    0.000    0.000 
#    0.000    0.000    0.000    0.000    0.000    0.000 
#
# Total GULP energy -396965.328698 kJ/mol
# GULP energy per Si atom -12405.166522 kJ/mol
# Density = 2.116640 g / cm^3
# Si number density = 21.214684 Si / 1000 Ang^3
#
#
#
# Elastic Constant Matrix: (Units=GPa)
#
#
# Indices 1 2 3 4 5 6 
#
# 1 143.0947 20.9597 54.4904 0.0000 1.8733 -0.0002
# 2 20.9597 35.9486 11.8337 0.0003 1.2227 -0.0004
# 3 54.4904 11.8337 113.4325 0.0004 -1.8788 -0.0001
# 4 0.0000 0.0003 0.0004 31.6137 0.0001 -5.9996
# 5 1.8733 1.2227 -1.8788 0.0001 41.0095 0.0000
# 6 -0.0002 -0.0004 -0.0001 -5.9996 0.0000 23.8902
#
#
#
# Elastic Compliance Matrix: (Units=1/GPa)
#
#
# Indices 1 2 3 4 5 6 
#
# 1 0.009084 -0.003978 -0.003957 0.000000 -0.000478 0.000000
# 2 -0.003978 0.030589 -0.001293 0.000000 -0.000790 0.000000
# 3 -0.003957 -0.001293 0.010863 0.000000 0.000717 0.000000
# 4 0.000000 0.000000 0.000000 0.033215 0.000000 0.008341
# 5 -0.000478 -0.000790 0.000717 0.000000 0.024463 0.000000
# 6 0.000000 0.000000 0.000000 0.008341 0.000000 0.043953
#
#
# Mechanical properties :
#
#
# Convention : Reuss Voigt Hill
#
# Bulk Modulus (GPa) = 31.17113 51.89371 41.53242
# Shear Modulus (GPa) = 27.57609 32.98215 30.27912
#
# Velocity S-wave (km/s) = 3.60927 3.94723 3.78202
# Velocity P-wave (km/s) = 5.66517 6.72967 6.22023
#
# Compressibility (1/GPa) = 0.03208097
#
# Stress axis : x y z
#
# Youngs Moduli (GPa) = 110.08424 32.69115 92.05279
#
# Poissons Ratio (x) = 0.13003 0.36422
# Poissons Ratio (y) = 0.43788 0.11907
# Poissons Ratio (z) = 0.43557 0.04229
#
# Static dielectric constant tensor:
#      x y z
#    x 4.032630 0.000000 0.075080 
#    y 0.000000 3.650460 0.000000 
#    z 0.075080 0.000000 3.797380 
# 
# 
# High freq. dielectric constant tensor:
#      x y z
#    x 1.846790 0.000000 -0.001090 
#    y 0.000000 1.823750 0.000000 
#    z -0.001090 0.000000 1.830160 
# 
# From -- ./inp_files/382569.got.cif
#   From: 2010.06.25/outbox.cif.g09.slc.cpg/sg12_192_cif.got.tgz:382569.got - 2010.06.28 00:19:55.
