data_PCOD8111405
_publ_section_title
;
Structure prediction by ZEFSAII (Michael W. Deem and Ramdas Pophale) SiO2 
 PCOD8111405
Probable space group: C 2/M
;
_chemical_formula_sum "Si O2"
_cell_formula_units_Z 56
_cell_length_a 9.963375
_cell_length_b 9.059769
_cell_length_c 31.582125
_cell_angle_alpha 90.000000
_cell_angle_beta 103.296682
_cell_angle_gamma 90.000000
_cell_volume 2774.364799
_symmetry_space_group_name_H-M "C 2/M"
_symmetry_group_IT_number 12
_symmetry_cell_setting 'monoclinic'
loop_
_space_group_symop_operation_xyz
x,y,z
-x,y,-z
-x,-y,-z
x,-y,z
1/2+x,1/2+y,z
1/2-x,1/2+y,-z
1/2-x,1/2-y,-z
1/2+x,1/2-y,z
loop_
_atom_site_type_symbol
_atom_site_label
_atom_site_fract_x
_atom_site_fract_y
_atom_site_fract_z
Si Si1 0.980776 0.670518 0.950926
Si Si2 0.116174 0.670027 0.473558
Si Si3 0.769134 0.169698 0.664730
Si Si4 0.713710 0.170694 0.901697
Si Si5 0.909967 0.828179 0.187912
Si Si6 0.997686 0.170685 0.384069
Si Si7 0.216825 0.829274 0.237132
O O1 0.935293 0.500000 0.947364
O O2 0.864479 0.763347 0.919004
O O3 0.124859 0.695147 0.937541
O O4 0.000000 0.728996 0.000000
O O5 0.150990 0.500000 0.467588
O O6 0.250000 0.750000 0.500000
O O7 0.000000 0.689430 0.500000
O O8 0.069552 0.741719 0.426672
O O9 0.655404 0.270316 0.634352
O O10 0.791430 0.218193 0.714631
O O11 0.914560 0.194477 0.652169
O O12 0.721203 0.000000 0.657616
O O13 0.638956 0.246942 0.857435
O O14 0.730727 0.000000 0.891560
O O15 0.832711 0.768848 0.223619
O O16 0.071528 0.797039 0.204361
O O17 0.877176 0.000000 0.181163
O O18 0.989262 0.000000 0.396358
O O19 0.257523 0.000000 0.235461
#
# Coordination Sequence:
#
# PCOD8111405 Si02
#       7
#     8   8   8   8   8   8   8
#     4  10  22  40  61  87 118 151 191 239 288 341
#     4  11  24  41  61  87 119 155 196 242 291 343
#     4  10  22  40  60  86 120 153 190 239 290 343
#     4  11  23  38  59  87 117 153 195 236 286 346
#     4  11  23  39  60  86 117 153 194 241 290 341
#     4  11  23  39  61  89 119 153 195 239 287 346
#     4  10  22  40  61  86 117 153 193 238 289 344
#
# _framework density 20.184802000000001
#
# number of rings (size 3 to 8) (size 9 to 14) (size 15 to 20)
#    0.000    1.429    0.000    4.714    0.000   12.286 
#    0.000    0.000    0.000    0.000    0.000    0.000 
#    0.000    0.000    0.000    0.000    0.000    0.000 
#
# Total GULP energy -347405.775223 kJ/mol
# GULP energy per Si atom -12407.349115 kJ/mol
# Density = 2.013886 g / cm^3
# Si number density = 20.184802 Si / 1000 Ang^3
#
#
#
# Elastic Constant Matrix: (Units=GPa)
#
#
# Indices 1 2 3 4 5 6 
#
# 1 54.2354 34.5212 -6.3710 0.0000 6.4678 0.0000
# 2 34.5212 100.8449 31.4258 0.0000 4.9285 0.0000
# 3 -6.3710 31.4258 92.6910 0.0000 3.8228 0.0000
# 4 0.0000 0.0000 0.0000 29.2452 0.0000 -4.0889
# 5 6.4678 4.9285 3.8228 0.0000 40.8438 0.0000
# 6 0.0000 0.0000 0.0000 -4.0889 0.0000 33.3580
#
#
#
# Elastic Compliance Matrix: (Units=1/GPa)
#
#
# Indices 1 2 3 4 5 6 
#
# 1 0.026179 -0.010511 0.005503 0.000000 -0.003392 0.000000
# 2 -0.010511 0.015348 -0.005941 0.000000 0.000369 0.000000
# 3 0.005503 -0.005941 0.013238 0.000000 -0.001394 0.000000
# 4 0.000000 0.000000 0.000000 0.034790 0.000000 0.004264
# 5 -0.003392 0.000369 -0.001394 0.000000 0.025107 0.000000
# 6 0.000000 0.000000 0.000000 0.004264 0.000000 0.030501
#
#
# Mechanical properties :
#
#
# Convention : Reuss Voigt Hill
#
# Bulk Modulus (GPa) = 30.42519 40.76926 35.59722
# Shear Modulus (GPa) = 28.08734 33.23576 30.66155
#
# Velocity S-wave (km/s) = 3.73434 4.06220 3.90172
# Velocity P-wave (km/s) = 5.80515 6.49952 6.16213
#
# Compressibility (1/GPa) = 0.03286750
#
# Stress axis : x y z
#
# Youngs Moduli (GPa) = 38.19815 65.15672 75.53734
#
# Poissons Ratio (x) = 0.68484 -0.41567
# Poissons Ratio (y) = 0.40149 0.44877
# Poissons Ratio (z) = -0.21020 0.38710
#
# Static dielectric constant tensor:
#      x y z
#    x 1.888380 0.000000 -3.105360 
#    y 0.000000 3.764520 0.000000 
#    z -3.105360 0.000000 -1.171010 
# 
# 
# High freq. dielectric constant tensor:
#      x y z
#    x 1.798660 0.000000 -0.003280 
#    y 0.000000 1.794580 0.000000 
#    z -0.003280 0.000000 1.805050 
# 
# From -- ./inp_files/357521.got.cif
#   From: 2010.06.25/outbox.cif.g09.slc.cpg/sg12_179_cif.got.tgz:357521.got - 2010.06.28 00:19:55.
