data_PCOD8111708
_publ_section_title
;
Structure prediction by ZEFSAII (Michael W. Deem and Ramdas Pophale) SiO2 
 PCOD8111708
Probable space group: C 2/M
;
_chemical_formula_sum "Si O2"
_cell_formula_units_Z 64
_cell_length_a 15.726539
_cell_length_b 17.465157
_cell_length_c 14.785433
_cell_angle_alpha 90.000000
_cell_angle_beta 48.164348
_cell_angle_gamma 90.000000
_cell_volume 3025.739901
_symmetry_space_group_name_H-M "C 2/M"
_symmetry_group_IT_number 12
_symmetry_cell_setting 'monoclinic'
loop_
_space_group_symop_operation_xyz
x,y,z
-x,y,-z
-x,-y,-z
x,-y,z
1/2+x,1/2+y,z
1/2-x,1/2+y,-z
1/2-x,1/2-y,-z
1/2+x,1/2-y,z
loop_
_atom_site_type_symbol
_atom_site_label
_atom_site_fract_x
_atom_site_fract_y
_atom_site_fract_z
Si Si1 0.940635 0.838773 0.446469
Si Si2 0.639925 0.088454 0.244877
Si Si3 0.521072 0.589725 0.215716
Si Si4 0.796367 0.589028 0.343157
Si Si5 0.131739 0.410972 0.907696
Si Si6 0.773389 0.087493 0.325115
Si Si7 0.590294 0.166675 0.578518
Si Si8 0.250431 0.159925 0.006434
O O1 0.830617 0.891816 0.535196
O O2 0.908738 0.757922 0.425217
O O3 0.000000 0.826101 0.500000
O O4 0.023883 0.882442 0.317944
O O5 0.745481 0.097953 0.239045
O O6 0.531899 0.132732 0.364612
O O7 0.606975 0.000000 0.254583
O O8 0.672315 0.124271 0.126466
O O9 0.543392 0.500000 0.197500
O O10 0.403051 0.613170 0.250701
O O11 0.621607 0.629708 0.088490
O O12 0.821253 0.500000 0.343720
O O13 0.812012 0.609975 0.227724
O O14 0.886647 0.638938 0.335645
O O15 0.146311 0.500000 0.921352
O O16 0.197887 0.361911 0.934041
O O17 0.000000 0.387205 0.000000
O O18 0.689922 0.138953 0.442674
O O19 0.755361 0.000000 0.368923
O O20 0.250000 0.250000 0.000000
#
# Coordination Sequence:
#
# PCOD8111708 Si02
#       8
#     8   8   8   8   8   8   8   8
#     4  12  25  40  62  98 137 176 218 270 339 402
#     4  11  23  41  69  95 127 177 228 276 329 397
#     4  11  24  44  68  93 134 179 223 277 328 396
#     4  11  23  40  67  97 128 176 227 270 328 397
#     4  10  22  43  69  97 129 169 223 278 325 384
#     4  10  22  40  65  99 132 173 225 271 329 399
#     4  12  23  42  65 101 138 173 217 282 343 391
#     4  12  26  46  64  97 133 172 221 275 339 402
#
# _framework density 21.151851000000001
#
# number of rings (size 3 to 8) (size 9 to 14) (size 15 to 20)
#    0.000    0.875    1.250    6.375    0.000    5.500 
#    2.250    1.875    0.000    0.000    0.000    0.000 
#    0.000    0.000    0.000    0.000    0.000    0.000 
#
# Total GULP energy -397047.656132 kJ/mol
# GULP energy per Si atom -12407.739254 kJ/mol
# Density = 2.110371 g / cm^3
# Si number density = 21.151851 Si / 1000 Ang^3
#
#
#
# Elastic Constant Matrix: (Units=GPa)
#
#
# Indices 1 2 3 4 5 6 
#
# 1 119.3486 44.3101 29.1630 0.0000 4.1943 0.0000
# 2 44.3101 99.2477 44.8621 0.0000 0.5399 0.0000
# 3 29.1630 44.8621 89.4855 0.0000 -11.0271 0.0000
# 4 0.0000 0.0000 0.0000 20.4065 0.0000 4.0404
# 5 4.1943 0.5399 -11.0271 0.0000 40.0993 0.0000
# 6 0.0000 0.0000 0.0000 4.0404 0.0000 29.6021
#
#
#
# Elastic Compliance Matrix: (Units=1/GPa)
#
#
# Indices 1 2 3 4 5 6 
#
# 1 0.010247 -0.003848 -0.001590 0.000000 -0.001457 0.000000
# 2 -0.003848 0.014637 -0.006271 0.000000 -0.001519 0.000000
# 3 -0.001590 -0.006271 0.015389 0.000000 0.004483 0.000000
# 4 0.000000 0.000000 0.000000 0.050365 0.000000 -0.006874
# 5 -0.001457 -0.001519 0.004483 0.000000 0.026344 0.000000
# 6 0.000000 0.000000 0.000000 -0.006874 0.000000 0.034720
#
#
# Mechanical properties :
#
#
# Convention : Reuss Voigt Hill
#
# Bulk Modulus (GPa) = 59.32906 60.52801 59.92853
# Shear Modulus (GPa) = 27.66427 30.67135 29.16781
#
# Velocity S-wave (km/s) = 3.62040 3.81209 3.71748
# Velocity P-wave (km/s) = 6.75177 6.93211 6.84253
#
# Compressibility (1/GPa) = 0.01685515
#
# Stress axis : x y z
#
# Youngs Moduli (GPa) = 97.58669 68.32074 64.98017
#
# Poissons Ratio (x) = 0.26293 0.10330
# Poissons Ratio (y) = 0.37556 0.40749
# Poissons Ratio (z) = 0.15514 0.42843
#
# Static dielectric constant tensor:
#      x y z
#    x 4.039440 0.000000 -0.055690 
#    y 0.000000 3.852580 0.000000 
#    z -0.055690 0.000000 3.804780 
# 
# 
# High freq. dielectric constant tensor:
#      x y z
#    x 1.841490 0.000000 -0.000720 
#    y 0.000000 1.832870 0.000000 
#    z -0.000720 0.000000 1.835090 
# 
# From -- ./inp_files/216799.got.cif
#   From: 2010.06.25/outbox.cif.g09.slc.cpg/sg12_109_cif.got.tgz:216799.got - 2010.06.28 00:19:55.
