data_PCOD8111979
_publ_section_title
;
Structure prediction by ZEFSAII (Michael W. Deem and Ramdas Pophale) SiO2 
 PCOD8111979
Probable space group: C 2/M
;
_chemical_formula_sum "Si O2"
_cell_formula_units_Z 64
_cell_length_a 16.827775
_cell_length_b 15.399406
_cell_length_c 23.589969
_cell_angle_alpha 90.000000
_cell_angle_beta 150.219073
_cell_angle_gamma 90.000000
_cell_volume 3036.261257
_symmetry_space_group_name_H-M "C 2/M"
_symmetry_group_IT_number 12
_symmetry_cell_setting 'monoclinic'
loop_
_space_group_symop_operation_xyz
x,y,z
-x,y,-z
-x,-y,-z
x,-y,z
1/2+x,1/2+y,z
1/2-x,1/2+y,-z
1/2-x,1/2-y,-z
1/2+x,1/2-y,z
loop_
_atom_site_type_symbol
_atom_site_label
_atom_site_fract_x
_atom_site_fract_y
_atom_site_fract_z
Si Si1 0.500243 0.401708 0.713836
Si Si2 0.893101 0.308852 0.381192
Si Si3 0.101357 0.595399 0.896445
Si Si4 0.858144 0.192414 0.527293
Si Si5 0.852042 0.644661 0.951611
Si Si6 0.810082 0.902621 0.828557
Si Si7 0.869653 0.737235 0.704693
Si Si8 0.347345 0.660179 0.971203
O O1 0.454530 0.500000 0.706281
O O2 0.421512 0.389694 0.602442
O O3 0.692318 0.397161 0.825967
O O4 0.432260 0.326276 0.713448
O O5 0.839650 0.385538 0.305705
O O6 0.733101 0.263945 0.304603
O O7 0.000000 0.344815 0.500000
O O8 0.987464 0.241721 0.400845
O O9 0.041974 0.500000 0.839064
O O10 0.282932 0.612748 0.987763
O O11 0.009891 0.675893 0.812199
O O12 0.094557 0.592464 0.959843
O O13 0.750000 0.250000 0.500000
O O14 0.740879 0.173297 0.402101
O O15 0.800099 0.739881 0.938921
O O16 0.000000 0.642037 0.000000
O O17 0.764147 0.886445 0.865557
O O18 0.868166 0.000000 0.856111
O O19 0.960988 0.842114 0.908156
#
# Coordination Sequence:
#
# PCOD8111979 Si02
#       8
#     8   8   8   8   8   8   8   8
#     4  11  24  42  68  97 130 172 220 271 329 389
#     4  10  22  41  65  91 127 173 216 266 328 390
#     4  12  26  42  66 100 135 172 218 271 326 390
#     4   9  21  43  67  91 122 167 218 262 320 386
#     4  12  25  44  67  93 133 178 223 267 324 394
#     4  11  22  36  63  98 132 169 217 273 328 396
#     4  10  23  43  67  94 130 171 218 268 328 386
#     4  11  22  42  65  94 131 175 220 263 333 387
#
# _framework density 21.078555000000001
#
# number of rings (size 3 to 8) (size 9 to 14) (size 15 to 20)
#    0.000    1.250    2.500    3.750    5.250    2.250 
#    0.000    5.000    0.000    2.250    0.000    0.000 
#    0.000    0.000    0.000    0.000    0.000    0.000 
#
# Total GULP energy -396582.552954 kJ/mol
# GULP energy per Si atom -12393.204780 kJ/mol
# Density = 2.103058 g / cm^3
# Si number density = 21.078555 Si / 1000 Ang^3
#
#
#
# Elastic Constant Matrix: (Units=GPa)
#
#
# Indices 1 2 3 4 5 6 
#
# 1 125.5137 30.6531 25.0959 0.0078 5.5882 0.0000
# 2 30.6531 120.0915 46.0453 0.0173 -0.8444 0.0011
# 3 25.0959 46.0453 104.6610 0.0338 -10.6603 0.0015
# 4 0.0078 0.0173 0.0338 9.5927 0.0047 -5.7364
# 5 5.5882 -0.8444 -10.6603 0.0047 30.1216 -0.0008
# 6 0.0000 0.0011 0.0015 -5.7364 -0.0008 17.0157
#
#
#
# Elastic Compliance Matrix: (Units=1/GPa)
#
#
# Indices 1 2 3 4 5 6 
#
# 1 0.008791 -0.001640 -0.001615 0.000003 -0.002249 0.000001
# 2 -0.001640 0.010374 -0.004264 -0.000003 -0.000914 -0.000001
# 3 -0.001615 -0.004264 0.012279 -0.000046 0.004526 -0.000016
# 4 0.000003 -0.000003 -0.000046 0.130568 -0.000036 0.044017
# 5 -0.002249 -0.000914 0.004526 -0.000036 0.035192 -0.000011
# 6 0.000001 -0.000001 -0.000016 0.044017 -0.000011 0.073609
#
#
# Mechanical properties :
#
#
# Convention : Reuss Voigt Hill
#
# Bulk Modulus (GPa) = 60.95713 61.53942 61.24828
# Shear Modulus (GPa) = 17.16328 27.91079 22.53704
#
# Velocity S-wave (km/s) = 2.85661 3.64281 3.27340
# Velocity P-wave (km/s) = 6.31364 6.85216 6.58841
#
# Compressibility (1/GPa) = 0.01640497
#
# Stress axis : x y z
#
# Youngs Moduli (GPa) = 113.75342 96.39415 81.44121
#
# Poissons Ratio (x) = 0.15812 0.13155
# Poissons Ratio (y) = 0.18660 0.34725
# Poissons Ratio (z) = 0.18374 0.41100
#
# Static dielectric constant tensor:
#      x y z
#    x 3.951810 0.000000 -0.212600 
#    y 0.000000 3.685050 -0.000010 
#    z -0.212600 -0.000010 4.117830 
# 
# 
# High freq. dielectric constant tensor:
#      x y z
#    x 1.835470 0.000000 -0.002600 
#    y 0.000000 1.808640 0.000000 
#    z -0.002600 0.000000 1.832060 
# 
# From -- ./inp_files/344091.got.cif
#   From: 2010.06.25/outbox.cif.g09.slc.cpg/sg12_173_cif.got.tgz:344091.got - 2010.06.28 00:19:55.
