data_PCOD8111197
_publ_section_title
;
Structure prediction by ZEFSAII (Michael W. Deem and Ramdas Pophale) SiO2 
 PCOD8111197
Probable space group: C 2/M
;
_chemical_formula_sum "Si O2"
_cell_formula_units_Z 56
_cell_length_a 19.262348
_cell_length_b 17.908479
_cell_length_c 16.033140
_cell_angle_alpha 90.000000
_cell_angle_beta 149.911896
_cell_angle_gamma 90.000000
_cell_volume 2772.752836
_symmetry_space_group_name_H-M "C 2/M"
_symmetry_group_IT_number 12
_symmetry_cell_setting 'monoclinic'
loop_
_space_group_symop_operation_xyz
x,y,z
-x,y,-z
-x,-y,-z
x,-y,z
1/2+x,1/2+y,z
1/2-x,1/2+y,-z
1/2-x,1/2-y,-z
1/2+x,1/2-y,z
loop_
_atom_site_type_symbol
_atom_site_label
_atom_site_fract_x
_atom_site_fract_y
_atom_site_fract_z
Si Si1 0.269976 0.585799 0.569218
Si Si2 0.126741 0.182207 0.695246
Si Si3 0.614463 0.088332 0.048416
Si Si4 0.240392 0.661184 0.870241
Si Si5 0.014420 0.647353 0.769663
Si Si6 0.651288 0.587089 0.170338
Si Si7 0.993340 0.180641 0.253091
O O1 0.316422 0.500000 0.611584
O O2 0.281711 0.618535 0.675153
O O3 0.368220 0.633047 0.611525
O O4 0.113331 0.592425 0.376260
O O5 0.236207 0.122674 0.770345
O O6 0.203078 0.260202 0.790325
O O7 0.000000 0.192220 0.500000
O O8 0.071925 0.154371 0.727491
O O9 0.629383 0.000000 0.048621
O O10 0.500000 0.105084 0.000000
O O11 0.573674 0.131702 0.922303
O O12 0.129454 0.629663 0.819917
O O13 0.248838 0.603374 0.803217
O O14 0.387303 0.665204 0.068509
O O15 0.966263 0.732446 0.707431
O O16 0.633494 0.500000 0.161759
O O17 0.500000 0.624473 0.000000
#
# Coordination Sequence:
#
# PCOD8111197 Si02
#       7
#     8   8   8   8   8   8   8
#     4  11  25  41  62  97 132 166 209 259 315 380
#     4  11  25  43  66  96 126 162 213 267 316 372
#     4  11  25  44  65  92 128 170 213 262 317 373
#     4  11  22  42  69  92 125 165 209 259 316 381
#     4  11  23  44  64  93 129 165 213 263 316 373
#     4  10  22  39  61  95 129 161 205 253 314 387
#     4  11  22  44  67  94 124 166 217 257 308 385
#
# _framework density 20.196536999999999
#
# number of rings (size 3 to 8) (size 9 to 14) (size 15 to 20)
#    0.000    1.143    4.286    1.714    6.000    3.714 
#    0.000    1.429    0.000    0.000    0.000    0.000 
#    0.000    0.000    0.000    0.000    0.000    0.000 
#
# Total GULP energy -347267.157885 kJ/mol
# GULP energy per Si atom -12402.398496 kJ/mol
# Density = 2.015057 g / cm^3
# Si number density = 20.196537 Si / 1000 Ang^3
#
#
#
# Elastic Constant Matrix: (Units=GPa)
#
#
# Indices 1 2 3 4 5 6 
#
# 1 114.6141 36.8368 25.7985 0.0001 13.2028 0.0001
# 2 36.8368 49.0035 9.9265 0.0001 12.9364 0.0001
# 3 25.7985 9.9265 82.4625 0.0003 5.1110 0.0003
# 4 0.0001 0.0001 0.0003 9.4145 0.0003 -15.3454
# 5 13.2028 12.9364 5.1110 0.0003 27.6327 0.0002
# 6 0.0001 0.0001 0.0003 -15.3454 0.0002 17.0946
#
#
#
# Elastic Compliance Matrix: (Units=1/GPa)
#
#
# Indices 1 2 3 4 5 6 
#
# 1 0.012137 -0.008186 -0.002721 0.000000 -0.001463 0.000000
# 2 -0.008186 0.029189 -0.000352 -0.000001 -0.009689 0.000000
# 3 -0.002721 -0.000352 0.013080 0.000002 -0.000954 0.000001
# 4 0.000000 -0.000001 0.000002 -0.229324 0.000004 -0.205859
# 5 -0.001463 -0.009689 -0.000954 0.000004 0.041601 0.000003
# 6 0.000000 0.000000 0.000001 -0.205859 0.000003 -0.126296
#
#
# Mechanical properties :
#
#
# Convention : Reuss Voigt Hill
#
# Bulk Modulus (GPa) = 31.36027 43.46707 37.41367
# Shear Modulus (GPa) = -22.07836 22.39625 0.15895
#
# Velocity S-wave (km/s) = -3.30991 3.33365 0.28084
# Velocity P-wave (km/s) = 0.97670 6.03211 4.32090
#
# Compressibility (1/GPa) = 0.03188748
#
# Stress axis : x y z
#
# Youngs Moduli (GPa) = 82.39296 34.25894 76.45540
#
# Poissons Ratio (x) = 0.28045 0.20803
# Poissons Ratio (y) = 0.67448 0.02693
# Poissons Ratio (z) = 0.22419 0.01207
#
# Static dielectric constant tensor:
#      x y z
#    x 3.793620 0.000000 -0.037450 
#    y 0.000000 3.511730 0.000000 
#    z -0.037450 0.000000 3.777610 
# 
# 
# High freq. dielectric constant tensor:
#      x y z
#    x 1.800300 0.000000 -0.000940 
#    y 0.000000 1.780030 0.000000 
#    z -0.000940 0.000000 1.796330 
# 
# From -- ./inp_files/113351.got.cif
#   From: 2010.06.25/outbox.cif.g09.slc.cpg/sg12_57_cif.got.tgz:113351.got - 2010.06.28 00:19:55.
