data_PCOD8111651
_publ_section_title
;
Structure prediction by ZEFSAII (Michael W. Deem and Ramdas Pophale) SiO2 
 PCOD8111651
Probable space group: C 2/M
;
_chemical_formula_sum "Si O2"
_cell_formula_units_Z 32
_cell_length_a 23.988883
_cell_length_b 8.670017
_cell_length_c 9.880817
_cell_angle_alpha 90.000000
_cell_angle_beta 51.306968
_cell_angle_gamma 90.000000
_cell_volume 1603.981379
_symmetry_space_group_name_H-M "C 2/M"
_symmetry_group_IT_number 12
_symmetry_cell_setting 'monoclinic'
loop_
_space_group_symop_operation_xyz
x,y,z
-x,y,-z
-x,-y,-z
x,-y,z
1/2+x,1/2+y,z
1/2-x,1/2+y,-z
1/2-x,1/2-y,-z
1/2+x,1/2-y,z
loop_
_atom_site_type_symbol
_atom_site_label
_atom_site_fract_x
_atom_site_fract_y
_atom_site_fract_z
Si Si1 0.434547 0.680789 0.507535
Si Si2 0.433051 0.325227 0.198489
Si Si3 0.294883 0.179580 0.312599
Si Si4 0.717471 0.818474 0.183708
O O1 0.500000 0.743154 0.500000
O O2 0.424690 0.500000 0.545293
O O3 0.451828 0.720368 0.324628
O O4 0.361756 0.759710 0.664802
O O5 0.402443 0.500000 0.242403
O O6 0.377339 0.205022 0.221582
O O7 0.500000 0.310867 0.000000
O O8 0.250000 0.250000 0.500000
O O9 0.273802 0.270290 0.211198
O O10 0.278056 0.000000 0.319854
O O11 0.713968 0.000000 0.176889
O O12 0.750000 0.750000 0.000000
#
# Coordination Sequence:
#
# PCOD8111651 Si02
#       4
#     8   8   8   8
#     4  10  22  41  64  93 131 171 212 261 320 383
#     4  10  22  40  64  95 130 170 213 261 320 381
#     4  12  24  42  67  96 129 169 216 269 322 378
#     4  12  26  44  67  96 130 170 216 268 323 383
#
# _framework density 19.950358000000001
#
# number of rings (size 3 to 8) (size 9 to 14) (size 15 to 20)
#    0.000    1.000    2.500    4.500    3.500    1.000 
#    0.000    0.000    0.000    0.000    0.000    0.000 
#    0.000    0.000    0.000    0.000    0.000    0.000 
#
# Total GULP energy -198444.024020 kJ/mol
# GULP energy per Si atom -12402.751501 kJ/mol
# Density = 1.990495 g / cm^3
# Si number density = 19.950358 Si / 1000 Ang^3
#
#
#
# Elastic Constant Matrix: (Units=GPa)
#
#
# Indices 1 2 3 4 5 6 
#
# 1 149.2173 44.0896 69.9657 0.0000 16.7471 0.0000
# 2 44.0896 89.7755 52.8827 0.0000 -2.0447 0.0000
# 3 69.9657 52.8827 174.8188 0.0000 17.3072 0.0000
# 4 0.0000 0.0000 0.0000 29.0340 0.0000 -4.5457
# 5 16.7471 -2.0447 17.3072 0.0000 34.7524 0.0000
# 6 0.0000 0.0000 0.0000 -4.5457 0.0000 36.5548
#
#
#
# Elastic Compliance Matrix: (Units=1/GPa)
#
#
# Indices 1 2 3 4 5 6 
#
# 1 0.009126 -0.003172 -0.002355 0.000000 -0.003412 0.000000
# 2 -0.003172 0.014958 -0.003675 0.000000 0.004239 0.000000
# 3 -0.002355 -0.003675 0.008082 0.000000 -0.003106 0.000000
# 4 0.000000 0.000000 0.000000 0.035126 0.000000 0.004368
# 5 -0.003412 0.004239 -0.003106 0.000000 0.032215 0.000000
# 6 0.000000 0.000000 0.000000 0.004368 0.000000 0.027899
#
#
# Mechanical properties :
#
#
# Convention : Reuss Voigt Hill
#
# Bulk Modulus (GPa) = 72.66596 83.07641 77.87119
# Shear Modulus (GPa) = 33.24491 36.52648 34.88570
#
# Velocity S-wave (km/s) = 4.08656 4.28351 4.18619
# Velocity P-wave (km/s) = 7.66610 8.13613 7.90461
#
# Compressibility (1/GPa) = 0.01376160
#
# Stress axis : x y z
#
# Youngs Moduli (GPa) = 109.57544 66.85332 123.73327
#
# Poissons Ratio (x) = 0.21208 0.29140
# Poissons Ratio (y) = 0.34762 0.45470
# Poissons Ratio (z) = 0.25806 0.24568
#
# Static dielectric constant tensor:
#      x y z
#    x 3.862560 0.000000 0.150680 
#    y 0.000000 3.866400 0.000000 
#    z 0.150680 0.000000 3.729700 
# 
# 
# High freq. dielectric constant tensor:
#      x y z
#    x 1.790790 0.000000 0.005760 
#    y 0.000000 1.778950 0.000000 
#    z 0.005760 0.000000 1.794800 
# 
# From -- ./inp_files/81672.got.cif
#   From: 2010.06.25/outbox.cif.g09.slc.cpg/sg12_41_cif.got.tgz:81672.got - 2010.06.28 00:19:55.
