data_PCOD8111940
_publ_section_title
;
Structure prediction by ZEFSAII (Michael W. Deem and Ramdas Pophale) SiO2 
 PCOD8111940
Probable space group: C 2/M
;
_chemical_formula_sum "Si O2"
_cell_formula_units_Z 56
_cell_length_a 28.121787
_cell_length_b 8.632920
_cell_length_c 20.739072
_cell_angle_alpha 90.000000
_cell_angle_beta 147.203389
_cell_angle_gamma 90.000000
_cell_volume 2727.190688
_symmetry_space_group_name_H-M "C 2/M"
_symmetry_group_IT_number 12
_symmetry_cell_setting 'monoclinic'
loop_
_space_group_symop_operation_xyz
x,y,z
-x,y,-z
-x,-y,-z
x,-y,z
1/2+x,1/2+y,z
1/2-x,1/2+y,-z
1/2-x,1/2-y,-z
1/2+x,1/2-y,z
loop_
_atom_site_type_symbol
_atom_site_label
_atom_site_fract_x
_atom_site_fract_y
_atom_site_fract_z
Si Si1 0.264637 0.316939 0.328116
Si Si2 0.029113 0.682429 0.212378
Si Si3 0.080900 0.182216 0.137607
Si Si4 0.833198 0.322949 0.176824
Si Si5 0.903165 0.818993 0.382271
Si Si6 0.323921 0.682584 0.538701
Si Si7 0.134715 0.821377 0.918600
O O1 0.249252 0.500000 0.303692
O O2 0.172409 0.231601 0.209050
O O3 0.334384 0.250462 0.355778
O O4 0.302607 0.272827 0.441189
O O5 0.018832 0.500000 0.203418
O O6 0.076223 0.729378 0.200041
O O7 0.084115 0.740561 0.336715
O O8 0.934011 0.762627 0.106588
O O9 0.079050 0.000000 0.148449
O O10 0.000000 0.232981 0.000000
O O11 0.855803 0.500000 0.218756
O O12 0.870902 0.211519 0.273782
O O13 0.877727 0.278569 0.160099
O O14 0.729609 0.293508 0.056929
O O15 0.000000 0.743669 0.500000
O O16 0.909606 0.000000 0.402755
O O17 0.330049 0.500000 0.555528
O O18 0.250000 0.750000 0.500000
O O19 0.119068 0.000000 0.883637
#
# Coordination Sequence:
#
# PCOD8111940 Si02
#       7
#     8   8   8   8   8   8   8
#     4  10  23  42  64  92 124 166 214 259 314 377
#     4  12  25  40  63  95 127 163 208 257 312 376
#     4  11  25  43  64  92 127 168 212 260 318 379
#     4  10  22  41  64  93 124 159 208 261 315 371
#     4  10  23  42  64  91 125 169 213 255 313 377
#     4  11  22  39  63  91 124 162 206 257 310 368
#     4  10  22  41  65  91 125 164 204 257 314 373
#
# _framework density 20.533950999999998
#
# number of rings (size 3 to 8) (size 9 to 14) (size 15 to 20)
#    0.000    1.429    1.429    3.000    4.000    4.286 
#    0.000    0.000    0.000    0.000    0.000    0.000 
#    0.000    0.000    0.000    0.000    0.000    0.000 
#
# Total GULP energy -347363.026884 kJ/mol
# GULP energy per Si atom -12405.822389 kJ/mol
# Density = 2.048721 g / cm^3
# Si number density = 20.533951 Si / 1000 Ang^3
#
#
#
# Elastic Constant Matrix: (Units=GPa)
#
#
# Indices 1 2 3 4 5 6 
#
# 1 103.1418 12.3498 52.1356 0.0000 21.7914 0.0000
# 2 12.3498 50.1872 40.8075 0.0000 10.5469 0.0000
# 3 52.1356 40.8075 118.2292 0.0000 6.2593 0.0000
# 4 0.0000 0.0000 0.0000 29.5694 0.0000 2.1192
# 5 21.7914 10.5469 6.2593 0.0000 34.8334 0.0000
# 6 0.0000 0.0000 0.0000 2.1192 0.0000 31.6508
#
#
#
# Elastic Compliance Matrix: (Units=1/GPa)
#
#
# Indices 1 2 3 4 5 6 
#
# 1 0.015025 0.004530 -0.007692 0.000000 -0.009389 0.000000
# 2 0.004530 0.030723 -0.012074 0.000000 -0.009967 0.000000
# 3 -0.007692 -0.012074 0.015719 0.000000 0.005643 0.000000
# 4 0.000000 0.000000 0.000000 0.033982 0.000000 -0.002275
# 5 -0.009389 -0.009967 0.005643 0.000000 0.036585 0.000000
# 6 0.000000 0.000000 0.000000 -0.002275 0.000000 0.031747
#
#
# Mechanical properties :
#
#
# Convention : Reuss Voigt Hill
#
# Bulk Modulus (GPa) = 32.26387 53.57155 42.91771
# Shear Modulus (GPa) = 24.43985 30.29508 27.36747
#
# Velocity S-wave (km/s) = 3.45369 3.84522 3.65470
# Velocity P-wave (km/s) = 5.62588 6.77201 6.22538
#
# Compressibility (1/GPa) = 0.03099442
#
# Stress axis : x y z
#
# Youngs Moduli (GPa) = 66.55701 32.54912 63.61793
#
# Poissons Ratio (x) = -0.14746 0.48935
# Poissons Ratio (y) = -0.30153 0.76814
# Poissons Ratio (z) = 0.51196 0.39301
#
# Static dielectric constant tensor:
#      x y z
#    x 3.841680 0.000000 0.119700 
#    y 0.000000 3.645430 0.000000 
#    z 0.119700 0.000000 3.899550 
# 
# 
# High freq. dielectric constant tensor:
#      x y z
#    x 1.809450 0.000000 0.007670 
#    y 0.000000 1.802020 0.000000 
#    z 0.007670 0.000000 1.811080 
# 
# From -- ./inp_files/329622.got.cif
#   From: 2010.06.25/outbox.cif.g09.slc.cpg/sg12_165_cif.got.tgz:329622.got - 2010.06.28 00:19:55.
