data_PCOD8111870
_publ_section_title
;
Structure prediction by ZEFSAII (Michael W. Deem and Ramdas Pophale) SiO2 
 PCOD8111870
Probable space group: C 2/M
;
_chemical_formula_sum "Si O2"
_cell_formula_units_Z 64
_cell_length_a 15.363793
_cell_length_b 8.684434
_cell_length_c 28.409265
_cell_angle_alpha 90.000000
_cell_angle_beta 123.080390
_cell_angle_gamma 90.000000
_cell_volume 3176.106411
_symmetry_space_group_name_H-M "C 2/M"
_symmetry_group_IT_number 12
_symmetry_cell_setting 'monoclinic'
loop_
_space_group_symop_operation_xyz
x,y,z
-x,y,-z
-x,-y,-z
x,-y,z
1/2+x,1/2+y,z
1/2-x,1/2+y,-z
1/2-x,1/2-y,-z
1/2+x,1/2-y,z
loop_
_atom_site_type_symbol
_atom_site_label
_atom_site_fract_x
_atom_site_fract_y
_atom_site_fract_z
Si Si1 0.541810 0.821147 0.141265
Si Si2 0.896580 0.678423 0.244237
Si Si3 0.810788 0.318705 0.561317
Si Si4 0.546647 0.819816 0.633170
Si Si5 0.272720 0.823547 0.869001
Si Si6 0.306682 0.819952 0.061039
Si Si7 0.909547 0.820552 0.748566
Si Si8 0.270285 0.319341 0.361824
O O1 0.609589 0.797262 0.114066
O O2 0.425314 0.760495 0.097701
O O3 0.592387 0.718142 0.196885
O O4 0.542073 0.000000 0.156787
O O5 0.872096 0.500000 0.227643
O O6 0.905375 0.715562 0.301711
O O7 0.804944 0.780251 0.195947
O O8 0.004596 0.717565 0.251410
O O9 0.809147 0.500000 0.556388
O O10 0.750000 0.250000 0.500000
O O11 0.755524 0.265725 0.592999
O O12 0.928933 0.258428 0.596507
O O13 0.610268 0.723321 0.613235
O O14 0.552404 0.000000 0.623017
O O15 0.253744 0.721751 0.909249
O O16 0.253400 0.000000 0.877186
O O17 0.305678 0.000000 0.054159
O O18 0.250000 0.750000 0.000000
O O19 0.798097 0.778402 0.694680
O O20 0.932988 0.000000 0.747954
O O21 0.249154 0.500000 0.348686
#
# Coordination Sequence:
#
# PCOD8111870 Si02
#       8
#     8   8   8   8   8   8   8   8
#     4  10  23  42  64  90 126 165 200 246 310 365
#     4  11  21  38  62  89 127 164 196 244 308 364
#     4  10  23  43  63  86 120 161 205 255 307 359
#     4  10  22  41  63  90 124 161 203 250 303 365
#     4  11  23  40  63  94 124 158 205 251 301 367
#     4  11  24  43  65  88 121 165 207 258 309 357
#     4  12  23  36  62  95 125 160 204 248 299 364
#     4  11  23  41  63  90 125 161 200 249 307 365
#
# _framework density 20.150459000000001
#
# number of rings (size 3 to 8) (size 9 to 14) (size 15 to 20)
#    0.000    1.250    2.500    3.375    0.000    7.000 
#    0.000    5.000    0.000    0.000    0.000    0.000 
#    0.000    0.000    0.000    0.000    0.000    0.000 
#
# Total GULP energy -396993.111052 kJ/mol
# GULP energy per Si atom -12406.034720 kJ/mol
# Density = 2.010460 g / cm^3
# Si number density = 20.150459 Si / 1000 Ang^3
#
#
#
# Elastic Constant Matrix: (Units=GPa)
#
#
# Indices 1 2 3 4 5 6 
#
# 1 148.2676 27.7120 57.3084 0.0000 -3.6716 0.0000
# 2 27.7120 41.5866 36.6553 0.0000 -3.0794 0.0000
# 3 57.3084 36.6553 128.7702 0.0000 -14.6560 0.0000
# 4 0.0000 0.0000 0.0000 36.6432 0.0000 -0.8556
# 5 -3.6716 -3.0794 -14.6560 0.0000 14.1391 0.0000
# 6 0.0000 0.0000 0.0000 -0.8556 0.0000 34.2398
#
#
#
# Elastic Compliance Matrix: (Units=1/GPa)
#
#
# Indices 1 2 3 4 5 6 
#
# 1 0.008467 -0.003039 -0.003093 0.000000 -0.001669 0.000000
# 2 -0.003039 0.033290 -0.008376 0.000000 -0.002222 0.000000
# 3 -0.003093 -0.008376 0.012729 0.000000 0.010567 0.000000
# 4 0.000000 0.000000 0.000000 0.027306 0.000000 0.000682
# 5 -0.001669 -0.002222 0.010567 0.000000 0.080762 0.000000
# 6 0.000000 0.000000 0.000000 0.000682 0.000000 0.029223
#
#
# Mechanical properties :
#
#
# Convention : Reuss Voigt Hill
#
# Bulk Modulus (GPa) = 39.26373 62.44178 50.85275
# Shear Modulus (GPa) = 21.80695 30.13433 25.97064
#
# Velocity S-wave (km/s) = 3.29326 3.87132 3.59393
# Velocity P-wave (km/s) = 5.82995 7.14408 6.52021
#
# Compressibility (1/GPa) = 0.02546880
#
# Stress axis : x y z
#
# Youngs Moduli (GPa) = 118.10877 30.03880 78.55860
#
# Poissons Ratio (x) = 0.09130 0.24297
# Poissons Ratio (y) = 0.35899 0.65804
# Poissons Ratio (z) = 0.36529 0.25162
#
# Static dielectric constant tensor:
#      x y z
#    x 3.985220 0.000000 -0.026270 
#    y 0.000000 3.681720 0.000000 
#    z -0.026270 0.000000 3.622030 
# 
# 
# High freq. dielectric constant tensor:
#      x y z
#    x 1.803080 0.000000 0.001880 
#    y 0.000000 1.786390 0.000000 
#    z 0.001880 0.000000 1.781550 
# 
# From -- ./inp_files/375637.got.cif
#   From: 2010.06.25/outbox.cif.g09.slc.cpg/sg12_188_cif.got.tgz:375637.got - 2010.06.28 00:19:55.
