data_PCOD8111630
_publ_section_title
;
Structure prediction by ZEFSAII (Michael W. Deem and Ramdas Pophale) SiO2 
 PCOD8111630
Probable space group: C 2/M
;
_chemical_formula_sum "Si O2"
_cell_formula_units_Z 64
_cell_length_a 15.471552
_cell_length_b 17.337044
_cell_length_c 17.227535
_cell_angle_alpha 90.000000
_cell_angle_beta 43.362154
_cell_angle_gamma 90.000000
_cell_volume 3172.784485
_symmetry_space_group_name_H-M "C 2/M"
_symmetry_group_IT_number 12
_symmetry_cell_setting 'monoclinic'
loop_
_space_group_symop_operation_xyz
x,y,z
-x,y,-z
-x,-y,-z
x,-y,z
1/2+x,1/2+y,z
1/2-x,1/2+y,-z
1/2-x,1/2-y,-z
1/2+x,1/2-y,z
loop_
_atom_site_type_symbol
_atom_site_label
_atom_site_fract_x
_atom_site_fract_y
_atom_site_fract_z
Si Si1 0.473313 0.409398 0.928557
Si Si2 0.623491 0.727237 0.371273
Si Si3 0.022417 0.590774 0.071282
Si Si4 0.216112 0.664176 0.046039
Si Si5 0.271681 0.087250 0.320067
Si Si6 0.816427 0.411911 0.469315
Si Si7 0.487272 0.793351 0.703582
Si Si8 0.343737 0.678409 0.306755
O O1 0.491409 0.500000 0.903223
O O2 0.567025 0.363675 0.812076
O O3 0.500000 0.386523 0.000000
O O4 0.332902 0.385149 0.998807
O O5 0.500000 0.745865 0.500000
O O6 0.662654 0.638085 0.353227
O O7 0.593763 0.739780 0.300498
O O8 0.733916 0.781881 0.329702
O O9 0.034697 0.500000 0.062818
O O10 0.155862 0.624567 0.010128
O O11 0.908782 0.617079 0.202221
O O12 0.000000 0.623831 0.000000
O O13 0.111552 0.660481 0.180559
O O14 0.250000 0.750000 0.000000
O O15 0.260279 0.094552 0.419787
O O16 0.249760 0.000000 0.305839
O O17 0.855905 0.500000 0.462308
O O18 0.710712 0.384804 0.598551
O O19 0.937473 0.356548 0.396378
O O20 0.581947 0.742600 0.693084
#
# Coordination Sequence:
#
# PCOD8111630 Si02
#       8
#     8   8   8   8   8   8   8   8
#     4  11  26  47  69  96 136 180 222 277 336 392
#     4  12  24  40  66  95 129 171 217 269 328 397
#     4  10  22  40  64  92 128 169 212 267 326 387
#     4  12  24  41  65 100 128 173 223 268 324 399
#     4  10  22  41  64  95 132 170 213 272 337 391
#     4  11  22  41  70  98 129 175 224 273 338 394
#     4  12  24  43  68  99 134 175 221 274 339 395
#     4  12  23  46  67  98 137 176 225 275 333 403
#
# _framework density 20.171555000000001
#
# number of rings (size 3 to 8) (size 9 to 14) (size 15 to 20)
#    0.000    0.750    5.000    2.625    1.750    1.250 
#    0.000    3.125    0.000    0.000    0.000    0.000 
#    0.000    0.000    0.000    0.000    0.000    0.000 
#
# Total GULP energy -396946.295713 kJ/mol
# GULP energy per Si atom -12404.571741 kJ/mol
# Density = 2.012564 g / cm^3
# Si number density = 20.171555 Si / 1000 Ang^3
#
#
#
# Elastic Constant Matrix: (Units=GPa)
#
#
# Indices 1 2 3 4 5 6 
#
# 1 138.9641 47.2731 52.9922 0.0000 -11.0437 0.0000
# 2 47.2731 99.9176 47.0348 0.0000 -4.3290 0.0000
# 3 52.9922 47.0348 126.6379 0.0001 -2.7675 0.0000
# 4 0.0000 0.0000 0.0001 31.9002 -0.0001 -8.2472
# 5 -11.0437 -4.3290 -2.7675 -0.0001 30.0709 0.0000
# 6 0.0000 0.0000 0.0000 -8.2472 0.0000 35.4983
#
#
#
# Elastic Compliance Matrix: (Units=1/GPa)
#
#
# Indices 1 2 3 4 5 6 
#
# 1 0.009526 -0.003076 -0.002783 0.000000 0.002800 0.000000
# 2 -0.003076 0.013176 -0.003597 0.000000 0.000436 0.000000
# 3 -0.002783 -0.003597 0.010384 0.000000 -0.000584 0.000000
# 4 0.000000 0.000000 0.000000 0.033351 0.000000 0.007748
# 5 0.002800 0.000436 -0.000584 0.000000 0.034292 0.000000
# 6 0.000000 0.000000 0.000000 0.007748 0.000000 0.029971
#
#
# Mechanical properties :
#
#
# Convention : Reuss Voigt Hill
#
# Bulk Modulus (GPa) = 70.54690 73.34665 71.94678
# Shear Modulus (GPa) = 32.39706 34.04183 33.21944
#
# Velocity S-wave (km/s) = 4.01194 4.11252 4.06254
# Velocity P-wave (km/s) = 7.51733 7.68054 7.59937
#
# Compressibility (1/GPa) = 0.01417497
#
# Stress axis : x y z
#
# Youngs Moduli (GPa) = 104.97523 75.89798 96.30069
#
# Poissons Ratio (x) = 0.23345 0.26797
# Poissons Ratio (y) = 0.32288 0.34639
# Poissons Ratio (z) = 0.29211 0.27300
#
# Static dielectric constant tensor:
#      x y z
#    x 3.919460 0.000000 -0.035440 
#    y 0.000000 3.859510 0.000000 
#    z -0.035440 0.000000 3.871980 
# 
# 
# High freq. dielectric constant tensor:
#      x y z
#    x 1.791270 0.000000 0.002340 
#    y 0.000000 1.796200 0.000000 
#    z 0.002340 0.000000 1.799440 
# 
# From -- ./inp_files/271673.got.cif
#   From: 2010.06.25/outbox.cif.g09.slc.cpg/sg12_136_cif.got.tgz:271673.got - 2010.06.28 00:19:55.
