data_PCOD8111707
_publ_section_title
;
Structure prediction by ZEFSAII (Michael W. Deem and Ramdas Pophale) SiO2 
 PCOD8111707
Probable space group: C 2/M
;
_chemical_formula_sum "Si O2"
_cell_formula_units_Z 56
_cell_length_a 19.132656
_cell_length_b 14.118619
_cell_length_c 21.414902
_cell_angle_alpha 90.000000
_cell_angle_beta 153.549611
_cell_angle_gamma 90.000000
_cell_volume 2576.653159
_symmetry_space_group_name_H-M "C 2/M"
_symmetry_group_IT_number 12
_symmetry_cell_setting 'monoclinic'
loop_
_space_group_symop_operation_xyz
x,y,z
-x,y,-z
-x,-y,-z
x,-y,z
1/2+x,1/2+y,z
1/2-x,1/2+y,-z
1/2-x,1/2-y,-z
1/2+x,1/2-y,z
loop_
_atom_site_type_symbol
_atom_site_label
_atom_site_fract_x
_atom_site_fract_y
_atom_site_fract_z
Si Si1 0.358520 0.181983 0.546271
Si Si2 0.600605 0.245701 0.642654
Si Si3 0.118851 0.111240 0.149714
Si Si4 0.420599 0.306521 0.752159
Si Si5 0.525068 0.895426 0.239648
Si Si6 0.789430 0.893050 0.077853
Si Si7 0.825540 0.389380 0.877723
O O1 0.250000 0.250000 0.500000
O O2 0.492561 0.238298 0.617054
O O3 0.236145 0.138379 0.397700
O O4 0.438852 0.106570 0.657071
O O5 0.500000 0.257675 0.500000
O O6 0.708901 0.152715 0.724702
O O7 0.707333 0.338167 0.736022
O O8 0.040118 0.155642 0.148306
O O9 0.137630 0.000000 0.172691
O O10 0.000000 0.138704 0.000000
O O11 0.389309 0.192011 0.727567
O O12 0.566167 0.324315 0.822130
O O13 0.579772 0.000000 0.258174
O O14 0.338717 0.885367 0.079620
O O15 0.709501 0.861064 0.078690
O O16 0.854477 0.000000 0.134952
O O17 0.804791 0.500000 0.849563
O O18 0.000000 0.355529 0.000000
#
# Coordination Sequence:
#
# PCOD8111707 Si02
#       7
#     8   8   8   8   8   8   8
#     4  10  23  43  64  94 133 175 226 268 333 400
#     4  12  25  45  67  97 137 178 226 279 341 403
#     4  11  27  46  69 100 133 176 229 280 339 408
#     4  11  22  44  68  94 135 182 219 277 337 400
#     4  10  23  39  65 101 131 168 222 277 331 397
#     4  10  22  40  65  99 131 169 225 277 332 399
#     4  10  23  42  68 100 135 178 224 275 336 402
#
# _framework density 21.733619999999998
#
# number of rings (size 3 to 8) (size 9 to 14) (size 15 to 20)
#    0.000    1.429    1.429    3.000    6.000    2.286 
#    0.000    4.286    0.000    0.429    0.000    0.000 
#    0.000    0.000    0.000    0.000    0.000    0.000 
#
# Total GULP energy -347159.670120 kJ/mol
# GULP energy per Si atom -12398.559647 kJ/mol
# Density = 2.168415 g / cm^3
# Si number density = 21.733620 Si / 1000 Ang^3
#
#
#
# Elastic Constant Matrix: (Units=GPa)
#
#
# Indices 1 2 3 4 5 6 
#
# 1 145.4718 55.6261 61.8335 -0.0046 6.9030 -0.0007
# 2 55.6261 107.5269 68.3610 -0.0093 -9.7130 -0.0067
# 3 61.8335 68.3610 164.9754 -0.0128 -13.0977 -0.0082
# 4 -0.0046 -0.0093 -0.0128 19.5140 -0.0087 -4.1561
# 5 6.9030 -9.7130 -13.0977 -0.0087 42.2702 -0.0048
# 6 -0.0007 -0.0067 -0.0082 -4.1561 -0.0048 26.1483
#
#
#
# Elastic Compliance Matrix: (Units=1/GPa)
#
#
# Indices 1 2 3 4 5 6 
#
# 1 0.009387 -0.003723 -0.002220 -0.000003 -0.003076 -0.000002
# 2 -0.003723 0.014174 -0.004276 0.000005 0.002540 0.000003
# 3 -0.002220 -0.004276 0.008834 0.000005 0.002117 0.000003
# 4 -0.000003 0.000005 0.000005 0.053041 0.000015 0.008430
# 5 -0.003076 0.002540 0.002117 0.000015 0.025399 0.000008
# 6 -0.000002 0.000003 0.000003 0.008430 0.000008 0.039583
#
#
# Mechanical properties :
#
#
# Convention : Reuss Voigt Hill
#
# Bulk Modulus (GPa) = 83.63505 87.73501 85.68503
# Shear Modulus (GPa) = 28.59718 33.06339 30.83028
#
# Velocity S-wave (km/s) = 3.63134 3.90462 3.77045
# Velocity P-wave (km/s) = 7.49317 7.79641 7.64629
#
# Compressibility (1/GPa) = 0.01195671
#
# Stress axis : x y z
#
# Youngs Moduli (GPa) = 106.52655 70.55167 113.20331
#
# Poissons Ratio (x) = 0.26265 0.25132
# Poissons Ratio (y) = 0.39657 0.48410
# Poissons Ratio (z) = 0.23649 0.30170
#
# Static dielectric constant tensor:
#      x y z
#    x 3.944690 0.000000 -0.269750 
#    y 0.000000 3.892770 -0.000010 
#    z -0.269750 -0.000010 4.458970 
# 
# 
# High freq. dielectric constant tensor:
#      x y z
#    x 1.849920 0.000000 -0.011630 
#    y 0.000000 1.847420 0.000000 
#    z -0.011630 0.000000 1.870810 
# 
# From -- ./inp_files/316755.got.cif
#   From: 2010.06.25/outbox.cif.g09.slc.cpg/sg12_159_cif.got.tgz:316755.got - 2010.06.28 00:19:55.
