data_PCOD8111747
_publ_section_title
;
Structure prediction by ZEFSAII (Michael W. Deem and Ramdas Pophale) SiO2 
 PCOD8111747
Probable space group: C 2/M
;
_chemical_formula_sum "Si O2"
_cell_formula_units_Z 40
_cell_length_a 20.153056
_cell_length_b 21.709408
_cell_length_c 5.155227
_cell_angle_alpha 90.000000
_cell_angle_beta 53.526534
_cell_angle_gamma 90.000000
_cell_volume 1813.694602
_symmetry_space_group_name_H-M "C 2/M"
_symmetry_group_IT_number 12
_symmetry_cell_setting 'monoclinic'
loop_
_space_group_symop_operation_xyz
x,y,z
-x,y,-z
-x,-y,-z
x,-y,z
1/2+x,1/2+y,z
1/2-x,1/2+y,-z
1/2-x,1/2-y,-z
1/2+x,1/2-y,z
loop_
_atom_site_type_symbol
_atom_site_label
_atom_site_fract_x
_atom_site_fract_y
_atom_site_fract_z
Si Si1 0.677319 0.660185 0.543067
Si Si2 0.327230 0.836188 0.881524
Si Si3 0.903436 0.282010 0.189713
Si Si4 0.747742 0.431769 0.764942
Si Si5 0.080758 0.068201 0.460639
O O1 0.638870 0.716902 0.793110
O O2 0.743762 0.619360 0.548300
O O3 0.600697 0.617219 0.637855
O O4 0.733575 0.686042 0.173630
O O5 0.364668 0.799006 0.555514
O O6 0.315362 0.907875 0.818305
O O7 0.386767 0.829926 0.994335
O O8 0.000000 0.274096 0.000000
O O9 0.774254 0.500000 0.604414
O O10 0.656445 0.435470 0.089655
O O11 0.000000 0.091954 0.500000
O O12 0.065326 0.000000 0.617845
#
# Coordination Sequence:
#
# PCOD8111747 Si02
#       5
#     8   8   8   8   8
#     4  11  23  38  68  94 135 171 223 262 324 387
#     4  11  24  47  66  96 135 172 217 271 322 389
#     4  12  27  42  68  99 133 173 217 269 331 385
#     4  10  22  40  68  97 127 173 222 267 323 388
#     4   9  20  35  55  91 140 180 217 263 317 381
#
# _framework density 22.05443
#
# number of rings (size 3 to 8) (size 9 to 14) (size 15 to 20)
#    0.000    1.400    2.000    2.400    8.400    0.800 
#    0.000    3.000    0.000    3.600    0.000    0.000 
#    0.000    0.000    0.000    0.000    0.000    0.000 
#
# Total GULP energy -247833.638205 kJ/mol
# GULP energy per Si atom -12391.681910 kJ/mol
# Density = 2.200423 g / cm^3
# Si number density = 22.054430 Si / 1000 Ang^3
#
#
#
# Elastic Constant Matrix: (Units=GPa)
#
#
# Indices 1 2 3 4 5 6 
#
# 1 128.1761 64.1352 49.5764 0.0000 3.9069 0.0000
# 2 64.1352 106.8075 59.6047 0.0000 -8.4695 0.0000
# 3 49.5764 59.6047 73.2028 0.0000 10.2420 0.0000
# 4 0.0000 0.0000 0.0000 15.8009 0.0000 8.9470
# 5 3.9069 -8.4695 10.2420 0.0000 29.5850 0.0000
# 6 0.0000 0.0000 0.0000 8.9470 0.0000 37.3671
#
#
#
# Elastic Compliance Matrix: (Units=1/GPa)
#
#
# Indices 1 2 3 4 5 6 
#
# 1 0.011865 -0.005401 -0.003365 0.000000 -0.001948 0.000000
# 2 -0.005401 0.023189 -0.017079 0.000000 0.013264 0.000000
# 3 -0.003365 -0.017079 0.032019 0.000000 -0.015530 0.000000
# 4 0.000000 0.000000 0.000000 0.073214 0.000000 -0.017530
# 5 -0.001948 0.013264 -0.015530 0.000000 0.043232 0.000000
# 6 0.000000 0.000000 0.000000 -0.017530 0.000000 0.030959
#
#
# Mechanical properties :
#
#
# Convention : Reuss Voigt Hill
#
# Bulk Modulus (GPa) = 65.01132 72.75767 68.88450
# Shear Modulus (GPa) = 18.42996 25.54193 21.98594
#
# Velocity S-wave (km/s) = 2.89391 3.40682 3.16079
# Velocity P-wave (km/s) = 6.38028 6.96685 6.68000
#
# Compressibility (1/GPa) = 0.01538194
#
# Stress axis : x y z
#
# Youngs Moduli (GPa) = 84.27827 43.12365 31.23126
#
# Poissons Ratio (x) = 0.23293 0.10510
# Poissons Ratio (y) = 0.45522 0.53341
# Poissons Ratio (z) = 0.28361 0.73652
#
# Static dielectric constant tensor:
#      x y z
#    x 3.944550 0.000000 0.067210 
#    y 0.000000 4.269630 0.000000 
#    z 0.067210 0.000000 3.891610 
# 
# 
# High freq. dielectric constant tensor:
#      x y z
#    x 1.858140 0.000000 0.008480 
#    y 0.000000 1.863350 0.000000 
#    z 0.008480 0.000000 1.858800 
# 
# From -- ./inp_files/15831.got.cif
#   From: 2010.06.25/outbox.cif.g09.slc.cpg/sg12_8_cif.got.tgz:15831.got - 2010.06.28 00:19:55.
