data_PCOD8111764
_publ_section_title
;
Structure prediction by ZEFSAII (Michael W. Deem and Ramdas Pophale) SiO2 
 PCOD8111764
Probable space group: C 2/M
;
_chemical_formula_sum "Si O2"
_cell_formula_units_Z 56
_cell_length_a 14.695981
_cell_length_b 8.779511
_cell_length_c 24.709001
_cell_angle_alpha 90.000000
_cell_angle_beta 116.881240
_cell_angle_gamma 90.000000
_cell_volume 2843.560502
_symmetry_space_group_name_H-M "C 2/M"
_symmetry_group_IT_number 12
_symmetry_cell_setting 'monoclinic'
loop_
_space_group_symop_operation_xyz
x,y,z
-x,y,-z
-x,-y,-z
x,-y,z
1/2+x,1/2+y,z
1/2-x,1/2+y,-z
1/2-x,1/2-y,-z
1/2+x,1/2-y,z
loop_
_atom_site_type_symbol
_atom_site_label
_atom_site_fract_x
_atom_site_fract_y
_atom_site_fract_z
Si Si1 0.826352 0.319159 0.769471
Si Si2 0.112621 0.320651 0.686035
Si Si3 0.850081 0.319654 0.000001
Si Si4 0.314143 0.336474 0.561269
Si Si5 0.070093 0.680107 0.092394
Si Si6 0.471157 0.667793 0.434614
Si Si7 0.579275 0.682609 0.308178
O O1 0.807003 0.500000 0.762885
O O2 0.722168 0.227240 0.736857
O O3 0.877679 0.262487 0.838775
O O4 0.902612 0.270063 0.742534
O O5 0.096263 0.500000 0.687215
O O6 0.104526 0.274517 0.620139
O O7 0.031083 0.232231 0.700441
O O8 0.839161 0.500000 0.000506
O O9 0.862624 0.264438 0.940927
O O10 0.750000 0.250000 0.000000
O O11 0.952649 0.261966 0.058392
O O12 0.260292 0.500000 0.552311
O O13 0.250000 0.250000 0.500000
O O14 0.428258 0.356061 0.572348
O O15 0.329524 0.264408 0.625350
O O16 0.066045 0.500000 0.089380
O O17 0.500000 0.744876 0.500000
O O18 0.420687 0.500000 0.431181
O O19 0.581926 0.500000 0.301600
#
# Coordination Sequence:
#
# PCOD8111764 Si02
#       7
#     8   8   8   8   8   8   8
#     4  11  22  38  61  86 115 157 197 239 292 345
#     4  11  23  39  57  82 113 150 193 239 290 349
#     4   9  17  35  60  86 118 154 190 233 279 331
#     4   9  19  33  51  75 103 133 172 224 283 343
#     4   8  18  36  57  83 117 154 193 230 278 341
#     4   9  19  36  55  77 104 139 181 231 289 349
#     4  10  22  41  58  80 112 149 191 241 292 349
#
# _framework density 19.693619999999999
#
# number of rings (size 3 to 8) (size 9 to 14) (size 15 to 20)
#    0.000    2.429    0.000    3.857    2.000    4.286 
#    0.000    7.143    0.000    0.000    0.000    0.000 
#    0.000    0.000    0.000    0.000    0.000    0.000 
#
# Total GULP energy -346972.883591 kJ/mol
# GULP energy per Si atom -12391.888700 kJ/mol
# Density = 1.964880 g / cm^3
# Si number density = 19.693620 Si / 1000 Ang^3
#
#
#
# Elastic Constant Matrix: (Units=GPa)
#
#
# Indices 1 2 3 4 5 6 
#
# 1 103.7526 17.3158 60.0219 0.0000 -1.4891 0.0000
# 2 17.3158 56.3768 34.7377 0.0000 0.6177 0.0000
# 3 60.0219 34.7377 178.9029 0.0000 -6.8402 0.0000
# 4 0.0000 0.0000 0.0000 13.7884 0.0000 -2.0818
# 5 -1.4891 0.6177 -6.8402 0.0000 27.9810 0.0000
# 6 0.0000 0.0000 0.0000 -2.0818 0.0000 31.7086
#
#
#
# Elastic Compliance Matrix: (Units=1/GPa)
#
#
# Indices 1 2 3 4 5 6 
#
# 1 0.012054 -0.001365 -0.003789 0.000000 -0.000255 0.000000
# 2 -0.001365 0.020359 -0.003548 0.000000 -0.001389 0.000000
# 3 -0.003789 -0.003548 0.007616 0.000000 0.001739 0.000000
# 4 0.000000 0.000000 0.000000 0.073251 0.000000 0.004809
# 5 -0.000255 -0.001389 0.001739 0.000000 0.036181 0.000000
# 6 0.000000 0.000000 0.000000 0.004809 0.000000 0.031853
#
#
# Mechanical properties :
#
#
# Convention : Reuss Voigt Hill
#
# Bulk Modulus (GPa) = 44.19910 62.57589 53.38750
# Shear Modulus (GPa) = 24.24132 29.82608 27.03370
#
# Velocity S-wave (km/s) = 3.51226 3.89589 3.70903
# Velocity P-wave (km/s) = 6.24019 7.21671 6.74614
#
# Compressibility (1/GPa) = 0.02262489
#
# Stress axis : x y z
#
# Youngs Moduli (GPa) = 82.95717 49.11939 131.29840
#
# Poissons Ratio (x) = 0.06705 0.49748
# Poissons Ratio (y) = 0.11324 0.46587
# Poissons Ratio (z) = 0.31432 0.17428
#
# Static dielectric constant tensor:
#      x y z
#    x 3.546350 0.000000 -0.112200 
#    y 0.000000 3.380280 0.000000 
#    z -0.112200 0.000000 4.150480 
# 
# 
# High freq. dielectric constant tensor:
#      x y z
#    x 1.766030 0.000000 -0.004730 
#    y 0.000000 1.750470 0.000000 
#    z -0.004730 0.000000 1.774940 
# 
# From -- ./inp_files/360025.got.cif
#   From: 2010.06.25/outbox.cif.g09.slc.cpg/sg12_181_cif.got.tgz:360025.got - 2010.06.28 00:19:55.
