data_PCOD8111103
_publ_section_title
;
Structure prediction by ZEFSAII (Michael W. Deem and Ramdas Pophale) SiO2 
 PCOD8111103
Probable space group: C 2/M
;
_chemical_formula_sum "Si O2"
_cell_formula_units_Z 56
_cell_length_a 29.283510
_cell_length_b 19.294810
_cell_length_c 8.778996
_cell_angle_alpha 90.000000
_cell_angle_beta 148.510035
_cell_angle_gamma 90.000000
_cell_volume 2591.012099
_symmetry_space_group_name_H-M "C 2/M"
_symmetry_group_IT_number 12
_symmetry_cell_setting 'monoclinic'
loop_
_space_group_symop_operation_xyz
x,y,z
-x,y,-z
-x,-y,-z
x,-y,z
1/2+x,1/2+y,z
1/2-x,1/2+y,-z
1/2-x,1/2-y,-z
1/2+x,1/2-y,z
loop_
_atom_site_type_symbol
_atom_site_label
_atom_site_fract_x
_atom_site_fract_y
_atom_site_fract_z
Si Si1 0.841590 0.329222 0.713171
Si Si2 0.525334 0.819812 0.397754
Si Si3 0.166596 0.204458 0.739771
Si Si4 0.409433 0.922250 0.653760
Si Si5 0.374300 0.575150 0.234906
Si Si6 0.057025 0.923866 0.903808
Si Si7 0.822001 0.174392 0.567674
O O1 0.842215 0.383270 0.574841
O O2 0.814137 0.255908 0.569288
O O3 0.770163 0.357070 0.632713
O O4 0.935283 0.315729 0.052285
O O5 0.500000 0.835322 0.500000
O O6 0.578751 0.747905 0.530497
O O7 0.581487 0.882240 0.482149
O O8 0.186686 0.141239 0.913028
O O9 0.163904 0.165759 0.570630
O O10 0.250000 0.250000 0.000000
O O11 0.374904 0.000000 0.521821
O O12 0.500000 0.925609 0.000000
O O13 0.334901 0.500000 0.171142
O O14 0.392219 0.572905 0.109024
O O15 0.457278 0.592415 0.578999
O O16 0.065206 0.000000 0.006486
O O17 0.096095 0.863623 0.120488
#
# Coordination Sequence:
#
# PCOD8111103 Si02
#       7
#     8   8   8   8   8   8   8
#     4  10  22  39  59  89 123 162 212 256 324 384
#     4  11  23  39  62  91 124 166 210 266 325 388
#     4  12  26  40  61  94 131 168 218 275 334 394
#     4   9  19  39  63  86 117 159 209 256 307 379
#     4   9  21  41  64  92 131 172 214 261 328 401
#     4   9  20  39  66  97 125 168 216 261 325 398
#     4  11  23  38  60  92 129 164 210 271 319 385
#
# _framework density 21.613175999999999
#
# number of rings (size 3 to 8) (size 9 to 14) (size 15 to 20)
#    0.000    1.857    1.429    2.571    8.000    3.143 
#    0.000    3.571    0.000    3.429    0.000    0.000 
#    0.000    0.000    0.000    0.000    0.000    0.000 
#
# Total GULP energy -346993.376202 kJ/mol
# GULP energy per Si atom -12392.620579 kJ/mol
# Density = 2.156398 g / cm^3
# Si number density = 21.613176 Si / 1000 Ang^3
#
#
#
# Elastic Constant Matrix: (Units=GPa)
#
#
# Indices 1 2 3 4 5 6 
#
# 1 133.7190 55.6178 16.3557 0.0000 -7.5478 0.0000
# 2 55.6178 148.1713 9.3605 0.0000 -9.5406 0.0000
# 3 16.3557 9.3605 47.9217 0.0000 -3.9139 0.0000
# 4 0.0000 0.0000 0.0000 16.7357 0.0000 -0.1046
# 5 -7.5478 -9.5406 -3.9139 0.0000 19.4965 0.0000
# 6 0.0000 0.0000 0.0000 -0.1046 0.0000 34.3682
#
#
#
# Elastic Compliance Matrix: (Units=1/GPa)
#
#
# Indices 1 2 3 4 5 6 
#
# 1 0.009187 -0.003200 -0.002387 0.000000 0.001511 0.000000
# 2 -0.003200 0.008141 -0.000278 0.000000 0.002689 0.000000
# 3 -0.002387 -0.000278 0.022011 0.000000 0.003358 0.000000
# 4 0.000000 0.000000 0.000000 0.059754 0.000000 0.000182
# 5 0.001511 0.002689 0.003358 0.000000 0.053866 0.000000
# 6 0.000000 0.000000 0.000000 0.000182 0.000000 0.029097
#
#
# Mechanical properties :
#
#
# Convention : Reuss Voigt Hill
#
# Bulk Modulus (GPa) = 36.22213 54.72000 45.47106
# Shear Modulus (GPa) = 24.63188 30.68527 27.65858
#
# Velocity S-wave (km/s) = 3.37956 3.77204 3.58118
# Velocity P-wave (km/s) = 5.65900 6.65912 6.17933
#
# Compressibility (1/GPa) = 0.02760743
#
# Stress axis : x y z
#
# Youngs Moduli (GPa) = 108.85304 122.83638 45.43247
#
# Poissons Ratio (x) = 0.39310 0.10844
# Poissons Ratio (y) = 0.34836 0.01264
# Poissons Ratio (z) = 0.25982 0.03419
#
# Static dielectric constant tensor:
#      x y z
#    x 4.208180 0.000000 0.018920 
#    y 0.000000 4.194260 0.000000 
#    z 0.018920 0.000000 3.830730 
# 
# 
# High freq. dielectric constant tensor:
#      x y z
#    x 1.850660 0.000000 0.002980 
#    y 0.000000 1.855640 0.000000 
#    z 0.002980 0.000000 1.838350 
# 
# From -- ./inp_files/113402.got.cif
#   From: 2010.06.25/outbox.cif.g09.slc.cpg/sg12_57_cif.got.tgz:113402.got - 2010.06.28 00:19:55.
