data_PCOD8111046
_publ_section_title
;
Structure prediction by ZEFSAII (Michael W. Deem and Ramdas Pophale) SiO2 
 PCOD8111046
Probable space group: C 2/M
;
_chemical_formula_sum "Si O2"
_cell_formula_units_Z 48
_cell_length_a 29.290058
_cell_length_b 11.918332
_cell_length_c 15.898319
_cell_angle_alpha 90.000000
_cell_angle_beta 24.644700
_cell_angle_gamma 90.000000
_cell_volume 2314.262273
_symmetry_space_group_name_H-M "C 2/M"
_symmetry_group_IT_number 12
_symmetry_cell_setting 'monoclinic'
loop_
_space_group_symop_operation_xyz
x,y,z
-x,y,-z
-x,-y,-z
x,-y,z
1/2+x,1/2+y,z
1/2-x,1/2+y,-z
1/2-x,1/2-y,-z
1/2+x,1/2-y,z
loop_
_atom_site_type_symbol
_atom_site_label
_atom_site_fract_x
_atom_site_fract_y
_atom_site_fract_z
Si Si1 0.462944 0.735774 0.292708
Si Si2 0.833137 0.000000 0.258489
Si Si3 0.184295 0.790606 0.992727
Si Si4 0.048726 0.628106 0.009878
Si Si5 0.374399 0.372729 0.731741
Si Si6 0.540442 0.500000 0.792184
Si Si7 0.238865 0.199511 0.722064
O O1 0.466567 0.607632 0.255385
O O2 0.359873 0.750492 0.525292
O O3 0.569160 0.772402 0.169331
O O4 0.455956 0.820103 0.225670
O O5 0.850804 0.000000 0.330179
O O6 0.765448 0.890413 0.345425
O O7 0.944178 0.000000 0.020294
O O8 0.285521 0.705826 0.835628
O O9 0.210825 0.855679 0.860451
O O10 0.159010 0.871517 0.113487
O O11 0.073977 0.500000 0.991162
O O12 0.159654 0.697684 0.833450
O O13 0.000000 0.640563 0.000000
O O14 0.500000 0.333296 0.500000
O O15 0.360818 0.500000 0.722117
#
# Coordination Sequence:
#
# PCOD8111046 Si02
#       7
#     8   4   8   8   8   4   8
#     4  11  24  40  62  92 123 167 211 262 309 375
#     4  11  22  40  62  89 125 169 216 268 314 357
#     4  10  22  41  63  91 130 154 199 251 312 366
#     4  10  22  39  57  83 123 166 208 262 316 361
#     4  10  22  41  69  96 119 159 199 250 305 381
#     4  11  22  40  64  89 121 171 220 266 310 357
#     4  11  24  40  61  91 123 169 211 263 307 376
#
# _framework density 20.740950000000002
#
# number of rings (size 3 to 8) (size 9 to 14) (size 15 to 20)
#    0.000    1.500    3.333    2.000    4.667    5.333 
#    0.000    0.000    0.000    3.000    0.000    0.000 
#    0.000    0.000    0.000    0.000    0.000    0.000 
#
# Total GULP energy -297407.896738 kJ/mol
# GULP energy per Si atom -12391.995697 kJ/mol
# Density = 2.069374 g / cm^3
# Si number density = 20.740950 Si / 1000 Ang^3
#
#
#
# Elastic Constant Matrix: (Units=GPa)
#
#
# Indices 1 2 3 4 5 6 
#
# 1 90.6708 39.3749 36.8213 0.0000 -12.0250 0.0000
# 2 39.3749 97.7575 33.1285 0.0000 -6.7637 0.0000
# 3 36.8213 33.1285 134.0005 0.0000 -18.0820 0.0000
# 4 0.0000 0.0000 0.0000 -12.6872 0.0000 -12.5082
# 5 -12.0250 -6.7637 -18.0820 0.0000 26.5044 0.0000
# 6 0.0000 0.0000 0.0000 -12.5082 0.0000 12.7660
#
#
#
# Elastic Compliance Matrix: (Units=1/GPa)
#
#
# Indices 1 2 3 4 5 6 
#
# 1 0.014561 -0.004824 -0.002294 0.000000 0.003810 0.000000
# 2 -0.004824 0.012790 -0.001863 0.000000 -0.000196 0.000000
# 3 -0.002294 -0.001863 0.009196 0.000000 0.004757 0.000000
# 4 0.000000 0.000000 0.000000 -0.040092 0.000000 -0.039282
# 5 0.003810 -0.000196 0.004757 0.000000 0.042654 0.000000
# 6 0.000000 0.000000 0.000000 -0.039282 0.000000 0.039845
#
#
# Mechanical properties :
#
#
# Convention : Reuss Voigt Hill
#
# Bulk Modulus (GPa) = 53.80873 60.11979 56.96426
# Shear Modulus (GPa) = 48.49215 19.52358 34.00787
#
# Velocity S-wave (km/s) = 4.84052 3.07140 4.05365
# Velocity P-wave (km/s) = 7.56574 6.45190 7.03091
#
# Compressibility (1/GPa) = 0.01858435
#
# Stress axis : x y z
#
# Youngs Moduli (GPa) = 68.67824 78.18577 108.74732
#
# Poissons Ratio (x) = 0.37714 0.24951
# Poissons Ratio (y) = 0.33128 0.20259
# Poissons Ratio (z) = 0.15758 0.14566
#
# Static dielectric constant tensor:
#      x y z
#    x 4.019930 0.000000 0.023870 
#    y 0.000000 3.871860 0.000000 
#    z 0.023870 0.000000 3.943860 
# 
# 
# High freq. dielectric constant tensor:
#      x y z
#    x 1.820580 0.000000 -0.001200 
#    y 0.000000 1.794640 0.000000 
#    z -0.001200 0.000000 1.820210 
# 
# From -- ./inp_files/245869.got.cif
#   From: 2010.06.25/outbox.cif.g09.slc.cpg/sg12_123_cif.got.tgz:245869.got - 2010.06.28 00:19:55.
