data_PCOD8111710
_publ_section_title
;
Structure prediction by ZEFSAII (Michael W. Deem and Ramdas Pophale) SiO2 
 PCOD8111710
Probable space group: C 2/M
;
_chemical_formula_sum "Si O2"
_cell_formula_units_Z 48
_cell_length_a 25.251485
_cell_length_b 14.059554
_cell_length_c 8.187401
_cell_angle_alpha 90.000000
_cell_angle_beta 45.178164
_cell_angle_gamma 90.000000
_cell_volume 2061.749037
_symmetry_space_group_name_H-M "C 2/M"
_symmetry_group_IT_number 12
_symmetry_cell_setting 'monoclinic'
loop_
_space_group_symop_operation_xyz
x,y,z
-x,y,-z
-x,-y,-z
x,-y,z
1/2+x,1/2+y,z
1/2-x,1/2+y,-z
1/2-x,1/2-y,-z
1/2+x,1/2-y,z
loop_
_atom_site_type_symbol
_atom_site_label
_atom_site_fract_x
_atom_site_fract_y
_atom_site_fract_z
Si Si1 0.844286 0.294948 0.951265
Si Si2 0.381098 0.893796 0.555905
Si Si3 0.921324 0.107426 0.132316
Si Si4 0.799234 0.765663 0.549011
Si Si5 0.463344 0.891086 0.907369
Si Si6 0.918008 0.893915 0.752944
O O1 0.852907 0.377039 0.799957
O O2 0.896336 0.319929 0.997249
O O3 0.866412 0.194890 0.811356
O O4 0.757167 0.294351 0.183958
O O5 0.342733 0.829419 0.502253
O O6 0.470500 0.880643 0.367973
O O7 0.359675 0.000000 0.549057
O O8 0.857322 0.152184 0.382396
O O9 0.924139 0.000000 0.189994
O O10 0.910220 0.112832 0.964064
O O11 0.000000 0.158489 0.000000
O O12 0.750000 0.750000 0.500000
O O13 0.433434 0.000000 0.982225
O O14 0.500000 0.860196 0.000000
O O15 0.000000 0.877297 0.500000
O O16 0.890173 0.000000 0.758338
#
# Coordination Sequence:
#
# PCOD8111710 Si02
#       6
#     8   8   8   8   8   8
#     4  12  24  42  69 105 139 184 227 286 353 418
#     4  11  26  46  67  98 140 185 231 283 341 414
#     4  10  24  45  70 100 133 174 231 289 340 410
#     4  12  26  44  70 100 136 182 230 284 357 419
#     4  10  22  41  69 101 133 178 230 280 335 403
#     4  10  22  40  66 100 135 177 226 278 341 406
#
# _framework density 23.281203999999999
#
# number of rings (size 3 to 8) (size 9 to 14) (size 15 to 20)
#    0.000    1.167    1.667    3.500    4.667    4.000 
#    0.000    0.000    0.000    0.000    0.000    0.000 
#    0.000    0.000    0.000    0.000    0.000    0.000 
#
# Total GULP energy -297544.293597 kJ/mol
# GULP energy per Si atom -12397.678900 kJ/mol
# Density = 2.322821 g / cm^3
# Si number density = 23.281204 Si / 1000 Ang^3
#
#
#
# Elastic Constant Matrix: (Units=GPa)
#
#
# Indices 1 2 3 4 5 6 
#
# 1 58.3004 33.7958 3.2689 0.0000 -12.7127 0.0000
# 2 33.7958 133.7204 68.5356 0.0000 -20.7978 0.0000
# 3 3.2689 68.5356 163.3437 0.0000 -21.4175 0.0000
# 4 0.0000 0.0000 0.0000 39.2077 0.0000 29.4688
# 5 -12.7127 -20.7978 -21.4175 0.0000 37.0074 0.0000
# 6 0.0000 0.0000 0.0000 29.4688 0.0000 88.2482
#
#
#
# Elastic Compliance Matrix: (Units=1/GPa)
#
#
# Indices 1 2 3 4 5 6 
#
# 1 0.021763 -0.006079 0.002865 0.000000 0.005717 0.000000
# 2 -0.006079 0.011611 -0.004510 0.000000 0.001826 0.000000
# 3 0.002865 -0.004510 0.008391 0.000000 0.003305 0.000000
# 4 0.000000 0.000000 0.000000 0.034052 0.000000 -0.011371
# 5 0.005717 0.001826 0.003305 0.000000 0.031925 0.000000
# 6 0.000000 0.000000 0.000000 -0.011371 0.000000 0.015129
#
#
# Mechanical properties :
#
#
# Convention : Reuss Voigt Hill
#
# Bulk Modulus (GPa) = 38.00237 62.95169 50.47703
# Shear Modulus (GPa) = 33.99276 49.54358 41.76817
#
# Velocity S-wave (km/s) = 3.82526 4.61808 4.24024
# Velocity P-wave (km/s) = 5.98906 7.45211 6.76028
#
# Compressibility (1/GPa) = 0.02631415
#
# Stress axis : x y z
#
# Youngs Moduli (GPa) = 45.95019 86.12890 119.18129
#
# Poissons Ratio (x) = 0.52360 -0.34144
# Poissons Ratio (y) = 0.27934 0.53755
# Poissons Ratio (z) = -0.13164 0.38848
#
# Static dielectric constant tensor:
#      x y z
#    x 3.980190 0.000000 -0.129700 
#    y 0.000000 4.454140 0.000000 
#    z -0.129700 0.000000 4.582470 
# 
# 
# High freq. dielectric constant tensor:
#      x y z
#    x 1.902640 0.000000 0.007470 
#    y 0.000000 1.931380 0.000000 
#    z 0.007470 0.000000 1.937690 
# 
# From -- ./inp_files/104951.got.cif
#   From: 2010.06.25/outbox.cif.g09.slc.cpg/sg12_53_cif.got.tgz:104951.got - 2010.06.28 00:19:55.
