data_PCOD8111742
_publ_section_title
;
Structure prediction by ZEFSAII (Michael W. Deem and Ramdas Pophale) SiO2 
 PCOD8111742
Probable space group: C 2/M
;
_chemical_formula_sum "Si O2"
_cell_formula_units_Z 48
_cell_length_a 22.147284
_cell_length_b 8.416153
_cell_length_c 23.048732
_cell_angle_alpha 90.000000
_cell_angle_beta 32.197795
_cell_angle_gamma 90.000000
_cell_volume 2289.185460
_symmetry_space_group_name_H-M "C 2/M"
_symmetry_group_IT_number 12
_symmetry_cell_setting 'monoclinic'
loop_
_space_group_symop_operation_xyz
x,y,z
-x,y,-z
-x,-y,-z
x,-y,z
1/2+x,1/2+y,z
1/2-x,1/2+y,-z
1/2-x,1/2-y,-z
1/2+x,1/2-y,z
loop_
_atom_site_type_symbol
_atom_site_label
_atom_site_fract_x
_atom_site_fract_y
_atom_site_fract_z
Si Si1 0.303421 0.322540 0.301757
Si Si2 0.004548 0.189383 0.063072
Si Si3 0.430279 0.816030 0.727272
Si Si4 0.556908 0.187694 0.512717
Si Si5 0.635820 0.678430 0.618359
Si Si6 0.281190 0.815649 0.038742
O O1 0.276671 0.500000 0.300580
O O2 0.388546 0.242033 0.186269
O O3 0.182575 0.233891 0.408682
O O4 0.366458 0.327991 0.311117
O O5 0.006224 0.000000 0.062995
O O6 0.109928 0.243627 0.017021
O O7 0.000000 0.251551 0.000000
O O8 0.477546 0.745150 0.628205
O O9 0.532755 0.795468 0.688611
O O10 0.323446 0.713376 0.833229
O O11 0.393714 0.000000 0.753285
O O12 0.500000 0.237018 0.500000
O O13 0.567580 0.000000 0.514688
O O14 0.618475 0.500000 0.607541
O O15 0.750000 0.750000 0.500000
O O16 0.303837 0.000000 0.012115
O O17 0.250000 0.750000 0.000000
#
# Coordination Sequence:
#
# PCOD8111742 Si02
#       6
#     8   8   8   8   8   8
#     4   9  18  34  56  86 120 155 199 251 301 360
#     4  10  22  40  67  98 128 167 217 267 319 382
#     4  11  22  38  63  93 122 156 205 258 318 383
#     4   9  18  32  56  88 121 157 198 248 302 362
#     4  11  20  34  56  85 122 160 200 251 309 370
#     4  12  26  45  67  92 128 170 217 270 326 386
#
# _framework density 20.968156
#
# number of rings (size 3 to 8) (size 9 to 14) (size 15 to 20)
#    0.000    1.667    1.667    3.500    2.333    1.667 
#    0.000    0.833    0.000    2.000    0.000    0.000 
#    0.000    0.000    0.000    0.000    0.000    0.000 
#
# Total GULP energy -297432.930037 kJ/mol
# GULP energy per Si atom -12393.038752 kJ/mol
# Density = 2.092043 g / cm^3
# Si number density = 20.968156 Si / 1000 Ang^3
#
#
#
# Elastic Constant Matrix: (Units=GPa)
#
#
# Indices 1 2 3 4 5 6 
#
# 1 133.8552 16.1244 62.6001 0.0002 9.7637 0.0002
# 2 16.1244 45.1826 11.7088 0.0000 9.1607 -0.0003
# 3 62.6001 11.7088 172.6118 0.0005 14.6995 -0.0006
# 4 0.0002 0.0000 0.0005 15.9775 -0.0003 -6.1767
# 5 9.7637 9.1607 14.6995 -0.0003 32.7059 0.0001
# 6 0.0002 -0.0003 -0.0006 -6.1767 0.0001 26.7781
#
#
#
# Elastic Compliance Matrix: (Units=1/GPa)
#
#
# Indices 1 2 3 4 5 6 
#
# 1 0.009276 -0.002354 -0.003145 0.000000 -0.000696 0.000000
# 2 -0.002354 0.024255 -0.000284 0.000000 -0.005963 0.000000
# 3 -0.003145 -0.000284 0.007140 0.000000 -0.002191 0.000000
# 4 0.000000 0.000000 0.000000 0.068716 0.000001 0.015850
# 5 -0.000696 -0.005963 -0.002191 0.000001 0.033438 0.000000
# 6 0.000000 0.000000 0.000000 0.015850 0.000000 0.041000
#
#
# Mechanical properties :
#
#
# Convention : Reuss Voigt Hill
#
# Bulk Modulus (GPa) = 34.35835 59.16850 46.76342
# Shear Modulus (GPa) = 24.37927 32.50671 28.44299
#
# Velocity S-wave (km/s) = 3.41351 3.94164 3.68704
# Velocity P-wave (km/s) = 5.65311 6.99964 6.36210
#
# Compressibility (1/GPa) = 0.02910501
#
# Stress axis : x y z
#
# Youngs Moduli (GPa) = 107.80517 41.22835 140.06097
#
# Poissons Ratio (x) = 0.09706 0.44050
# Poissons Ratio (y) = 0.25379 0.03974
# Poissons Ratio (z) = 0.33906 0.01170
#
# Static dielectric constant tensor:
#      x y z
#    x 3.774510 0.000000 0.166290 
#    y 0.000000 3.567180 0.000000 
#    z 0.166290 0.000000 4.065070 
# 
# 
# High freq. dielectric constant tensor:
#      x y z
#    x 1.825990 0.000000 0.001820 
#    y 0.000000 1.781920 0.000000 
#    z 0.001820 0.000000 1.845050 
# 
# From -- ./inp_files/348745.got.cif
#   From: 2010.06.25/outbox.cif.g09.slc.cpg/sg12_175_cif.got.tgz:348745.got - 2010.06.28 00:19:55.
