data_PCOD8111932
_publ_section_title
;
Structure prediction by ZEFSAII (Michael W. Deem and Ramdas Pophale) SiO2 
 PCOD8111932
Probable space group: C 2/M
;
_chemical_formula_sum "Si O2"
_cell_formula_units_Z 48
_cell_length_a 8.943826
_cell_length_b 20.996331
_cell_length_c 12.611480
_cell_angle_alpha 90.000000
_cell_angle_beta 73.633409
_cell_angle_gamma 90.000000
_cell_volume 2272.312355
_symmetry_space_group_name_H-M "C 2/M"
_symmetry_group_IT_number 12
_symmetry_cell_setting 'monoclinic'
loop_
_space_group_symop_operation_xyz
x,y,z
-x,y,-z
-x,-y,-z
x,-y,z
1/2+x,1/2+y,z
1/2-x,1/2+y,-z
1/2-x,1/2-y,-z
1/2+x,1/2-y,z
loop_
_atom_site_type_symbol
_atom_site_label
_atom_site_fract_x
_atom_site_fract_y
_atom_site_fract_z
Si Si1 0.943912 0.569252 0.393776
Si Si2 0.648002 0.765548 0.417535
Si Si3 0.662974 0.074857 0.026056
Si Si4 0.368856 0.375584 0.606322
Si Si5 0.939972 0.072363 0.812953
Si Si6 0.274749 0.869985 0.769148
O O1 0.877134 0.500000 0.374600
O O2 0.804846 0.619750 0.407100
O O3 0.000000 0.570130 0.500000
O O4 0.100061 0.579963 0.296715
O O5 0.500000 0.801749 0.500000
O O6 0.750000 0.750000 0.500000
O O7 0.596899 0.698448 0.375280
O O8 0.713404 0.805744 0.304847
O O9 0.804992 0.092211 0.920376
O O10 0.673730 0.000000 0.060631
O O11 0.500000 0.086969 0.000000
O O12 0.680739 0.128422 0.114926
O O13 0.500000 0.402281 0.500000
O O14 0.373008 0.417723 0.709776
O O15 0.095175 0.112438 0.797174
O O16 0.988349 0.000000 0.820883
#
# Coordination Sequence:
#
# PCOD8111932 Si02
#       6
#     8   8   8   8   8   8
#     4  11  22  35  56  89 124 157 200 257 317 376
#     4  11  23  41  63  88 122 165 211 258 309 371
#     4  10  22  41  64  92 127 166 209 259 317 379
#     4  11  23  40  61  87 121 165 212 258 313 374
#     4  11  23  39  62  93 126 159 200 255 316 377
#     4  12  22  38  63  90 122 164 207 252 312 378
#
# _framework density 21.123857999999998
#
# number of rings (size 3 to 8) (size 9 to 14) (size 15 to 20)
#    0.000    1.000    0.000    9.000    0.000    5.333 
#    0.000    0.833    0.000    2.000    0.000    0.000 
#    0.000    0.000    0.000    0.000    0.000    0.000 
#
# Total GULP energy -297355.963075 kJ/mol
# GULP energy per Si atom -12389.831795 kJ/mol
# Density = 2.107578 g / cm^3
# Si number density = 21.123858 Si / 1000 Ang^3
#
#
#
# Elastic Constant Matrix: (Units=GPa)
#
#
# Indices 1 2 3 4 5 6 
#
# 1 148.3405 35.4678 63.9481 0.0000 -18.2255 0.0000
# 2 35.4678 71.3754 50.8328 0.0000 -4.6200 0.0000
# 3 63.9481 50.8328 165.8802 0.0000 -10.3939 0.0000
# 4 0.0000 0.0000 0.0000 40.9744 0.0000 1.5354
# 5 -18.2255 -4.6200 -10.3939 0.0000 43.8561 0.0000
# 6 0.0000 0.0000 0.0000 1.5354 0.0000 28.9606
#
#
#
# Elastic Compliance Matrix: (Units=1/GPa)
#
#
# Indices 1 2 3 4 5 6 
#
# 1 0.008714 -0.002407 -0.002447 0.000000 0.002788 0.000000
# 2 -0.002407 0.018602 -0.004783 0.000000 -0.000174 0.000000
# 3 -0.002447 -0.004783 0.008468 0.000000 0.000486 0.000000
# 4 0.000000 0.000000 0.000000 0.024454 0.000000 -0.001296
# 5 0.002788 -0.000174 0.000486 0.000000 0.024057 0.000000
# 6 0.000000 0.000000 0.000000 -0.001296 0.000000 0.034598
#
#
# Mechanical properties :
#
#
# Convention : Reuss Voigt Hill
#
# Bulk Modulus (GPa) = 60.57231 76.23261 68.40246
# Shear Modulus (GPa) = 34.80146 38.44805 36.62475
#
# Velocity S-wave (km/s) = 4.06334 4.27092 4.16842
# Velocity P-wave (km/s) = 7.12400 7.77739 7.45785
#
# Compressibility (1/GPa) = 0.01650919
#
# Stress axis : x y z
#
# Youngs Moduli (GPa) = 114.75525 53.75784 118.08989
#
# Poissons Ratio (x) = 0.12940 0.28898
# Poissons Ratio (y) = 0.27622 0.56487
# Poissons Ratio (z) = 0.28082 0.25715
#
# Static dielectric constant tensor:
#      x y z
#    x 3.903560 0.000000 -0.004310 
#    y 0.000000 4.040480 0.000000 
#    z -0.004310 0.000000 3.948980 
# 
# 
# High freq. dielectric constant tensor:
#      x y z
#    x 1.849360 0.000000 -0.006720 
#    y 0.000000 1.812820 0.000000 
#    z -0.006720 0.000000 1.835790 
# 
# From -- ./inp_files/122408.got.cif
#   From: 2010.06.25/outbox.cif.g09.slc.cpg/sg12_62_cif.got.tgz:122408.got - 2010.06.28 00:19:55.
