data_PCOD8111129
_publ_section_title
;
Structure prediction by ZEFSAII (Michael W. Deem and Ramdas Pophale) SiO2 
 PCOD8111129
Probable space group: C 2/M
;
_chemical_formula_sum "Si O2"
_cell_formula_units_Z 64
_cell_length_a 17.594308
_cell_length_b 18.636665
_cell_length_c 14.249637
_cell_angle_alpha 90.000000
_cell_angle_beta 139.266691
_cell_angle_gamma 90.000000
_cell_volume 3048.952703
_symmetry_space_group_name_H-M "C 2/M"
_symmetry_group_IT_number 12
_symmetry_cell_setting 'monoclinic'
loop_
_space_group_symop_operation_xyz
x,y,z
-x,y,-z
-x,-y,-z
x,-y,z
1/2+x,1/2+y,z
1/2-x,1/2+y,-z
1/2-x,1/2-y,-z
1/2+x,1/2-y,z
loop_
_atom_site_type_symbol
_atom_site_label
_atom_site_fract_x
_atom_site_fract_y
_atom_site_fract_z
Si Si1 0.341908 0.079604 0.674257
Si Si2 0.842309 0.835374 0.409916
Si Si3 0.132966 0.682586 0.624724
Si Si4 0.722610 0.415562 0.368287
Si Si5 0.893642 0.578845 0.092689
Si Si6 0.014552 0.852213 0.279466
Si Si7 0.359497 0.779015 0.159312
Si Si8 0.834280 0.919491 0.222311
O O1 0.289187 0.138246 0.695386
O O2 0.312894 0.097459 0.538095
O O3 0.476933 0.081539 0.825761
O O4 0.291788 0.000000 0.649744
O O5 0.855956 0.750114 0.435086
O O6 0.882321 0.864011 0.345416
O O7 0.915584 0.871706 0.560920
O O8 0.219801 0.620074 0.670745
O O9 0.169827 0.718703 0.757931
O O10 0.000000 0.653602 0.500000
O O11 0.701743 0.500000 0.329625
O O12 0.597100 0.376465 0.270138
O O13 0.868493 0.500000 0.113878
O O14 0.884342 0.638215 0.163385
O O15 0.803342 0.592678 0.923380
O O16 0.972353 0.769083 0.235651
O O17 0.898424 0.901187 0.183059
O O18 0.250000 0.750000 0.000000
O O19 0.860784 0.000000 0.279875
#
# Coordination Sequence:
#
# PCOD8111129 Si02
#       8
#     8   8   8   8   8   8   8   8
#     4   9  20  37  59  90 129 170 212 263 328 391
#     4  11  21  36  58  94 128 162 211 269 329 388
#     4  12  23  40  64  96 125 163 219 270 321 381
#     4  10  24  42  64  96 129 169 218 270 328 386
#     4  10  22  39  60  88 125 173 221 263 327 393
#     4  11  22  40  65  92 129 167 213 271 327 394
#     4  12  23  42  66  94 129 172 218 268 327 390
#     4  11  21  37  62  91 126 171 216 269 328 394
#
# _framework density 20.990815999999999
#
# number of rings (size 3 to 8) (size 9 to 14) (size 15 to 20)
#    0.000    1.250    3.750    1.875    1.750    4.250 
#    0.000    2.500    0.000    0.750    0.000    0.000 
#    0.000    0.000    0.000    0.000    0.000    0.000 
#
# Total GULP energy -396631.558265 kJ/mol
# GULP energy per Si atom -12394.736196 kJ/mol
# Density = 2.094304 g / cm^3
# Si number density = 20.990816 Si / 1000 Ang^3
#
#
#
# Elastic Constant Matrix: (Units=GPa)
#
#
# Indices 1 2 3 4 5 6 
#
# 1 116.4219 57.3960 34.1136 0.0000 15.6555 0.0000
# 2 57.3960 136.0845 19.8508 0.0000 8.7717 0.0000
# 3 34.1136 19.8508 73.3703 0.0000 14.7950 0.0000
# 4 0.0000 0.0000 0.0000 28.1232 0.0000 6.7551
# 5 15.6555 8.7717 14.7950 0.0000 27.1519 0.0000
# 6 0.0000 0.0000 0.0000 6.7551 0.0000 40.7028
#
#
#
# Elastic Compliance Matrix: (Units=1/GPa)
#
#
# Indices 1 2 3 4 5 6 
#
# 1 0.012383 -0.004431 -0.003828 0.000000 -0.003622 0.000000
# 2 -0.004431 0.009291 -0.000408 0.000000 -0.000224 0.000000
# 3 -0.003828 -0.000408 0.016906 0.000000 -0.006873 0.000000
# 4 0.000000 0.000000 0.000000 0.037034 0.000000 -0.006146
# 5 -0.003622 -0.000224 -0.006873 0.000000 0.042736 0.000000
# 6 0.000000 0.000000 0.000000 -0.006146 0.000000 0.025588
#
#
# Mechanical properties :
#
#
# Convention : Reuss Voigt Hill
#
# Bulk Modulus (GPa) = 47.07003 60.95530 54.01266
# Shear Modulus (GPa) = 29.69933 33.49668 31.59801
#
# Velocity S-wave (km/s) = 3.76556 3.99905 3.88406
# Velocity P-wave (km/s) = 6.43263 7.10108 6.77510
#
# Compressibility (1/GPa) = 0.02124494
#
# Stress axis : x y z
#
# Youngs Moduli (GPa) = 80.75855 107.62944 59.15140
#
# Poissons Ratio (x) = 0.47687 0.22644
# Poissons Ratio (y) = 0.35781 0.02416
# Poissons Ratio (z) = 0.30915 0.04397
#
# Static dielectric constant tensor:
#      x y z
#    x 3.769680 0.000000 0.262570 
#    y 0.000000 4.006770 0.000000 
#    z 0.262570 0.000000 3.707980 
# 
# 
# High freq. dielectric constant tensor:
#      x y z
#    x 1.805310 0.000000 0.021430 
#    y 0.000000 1.831860 0.000000 
#    z 0.021430 0.000000 1.810810 
# 
# From -- ./inp_files/226862.got.cif
#   From: 2010.06.25/outbox.cif.g09.slc.cpg/sg12_114_cif.got.tgz:226862.got - 2010.06.28 00:19:55.
