data_PCOD8111656
_publ_section_title
;
Structure prediction by ZEFSAII (Michael W. Deem and Ramdas Pophale) SiO2 
 PCOD8111656
Probable space group: C 2/M
;
_chemical_formula_sum "Si O2"
_cell_formula_units_Z 52
_cell_length_a 20.983543
_cell_length_b 21.498285
_cell_length_c 5.148900
_cell_angle_alpha 90.000000
_cell_angle_beta 96.343911
_cell_angle_gamma 90.000000
_cell_volume 2308.498211
_symmetry_space_group_name_H-M "C 2/M"
_symmetry_group_IT_number 12
_symmetry_cell_setting 'monoclinic'
loop_
_space_group_symop_operation_xyz
x,y,z
-x,y,-z
-x,-y,-z
x,-y,z
1/2+x,1/2+y,z
1/2-x,1/2+y,-z
1/2-x,1/2-y,-z
1/2+x,1/2-y,z
loop_
_atom_site_type_symbol
_atom_site_label
_atom_site_fract_x
_atom_site_fract_y
_atom_site_fract_z
Si Si1 0.000000 0.331715 0.000000
Si Si2 0.365624 0.682067 0.257506
Si Si3 0.700783 0.070435 0.710378
Si Si4 0.889878 0.741413 0.769034
Si Si5 0.957684 0.071240 0.227206
Si Si6 0.275664 0.854219 0.760668
Si Si7 0.059777 0.432375 0.713221
O O1 0.959606 0.291606 0.772482
O O2 0.055677 0.375347 0.908225
O O3 0.386316 0.705723 0.549976
O O4 0.394617 0.613745 0.219783
O O5 0.289121 0.681436 0.195553
O O6 0.391275 0.729814 0.056452
O O7 0.740185 0.105533 0.504521
O O8 0.626342 0.073018 0.586931
O O9 0.726471 0.000000 0.743207
O O10 0.705504 0.101730 0.993382
O O11 0.830414 0.694874 0.712587
O O12 0.000000 0.080378 0.500000
O O13 0.934230 0.000000 0.186382
O O14 0.000000 0.091801 0.000000
O O15 0.058655 0.500000 0.856655
O O16 0.000000 0.426993 0.500000
#
# Coordination Sequence:
#
# PCOD8111656 Si02
#       7
#     4   8   8   8   8   8   8
#     4  12  25  40  68  96 137 180 234 286 330 400
#     4  12  27  46  71 100 134 183 226 279 339 424
#     4  11  24  42  69 103 137 178 231 289 334 392
#     4  12  27  43  69 100 140 181 233 280 335 397
#     4  10  23  45  72 101 135 168 215 284 352 412
#     4  12  24  48  68  96 143 185 228 279 342 408
#     4  10  22  40  64  96 137 182 230 281 341 393
#
# _framework density 22.525469000000001
#
# number of rings (size 3 to 8) (size 9 to 14) (size 15 to 20)
#    0.000    0.769    1.538    5.308    5.385    1.231 
#    0.000    1.538    0.000    0.000    0.000    0.000 
#    0.000    0.000    0.000    0.000    0.000    0.000 
#
# Total GULP energy -322467.537014 kJ/mol
# GULP energy per Si atom -12402.597577 kJ/mol
# Density = 2.247420 g / cm^3
# Si number density = 22.525469 Si / 1000 Ang^3
#
#
#
# Elastic Constant Matrix: (Units=GPa)
#
#
# Indices 1 2 3 4 5 6 
#
# 1 91.0189 44.5648 21.1192 0.0000 4.5633 0.0000
# 2 44.5648 119.4397 33.8273 0.0000 -2.3134 0.0000
# 3 21.1192 33.8273 103.6112 0.0000 -13.6000 0.0000
# 4 0.0000 0.0000 0.0000 55.8534 0.0000 -9.5036
# 5 4.5633 -2.3134 -13.6000 0.0000 31.9885 0.0000
# 6 0.0000 0.0000 0.0000 -9.5036 0.0000 27.1012
#
#
#
# Elastic Compliance Matrix: (Units=1/GPa)
#
#
# Indices 1 2 3 4 5 6 
#
# 1 0.013854 -0.004755 -0.001669 0.000000 -0.003030 0.000000
# 2 -0.004755 0.010870 -0.002529 0.000000 0.000389 0.000000
# 3 -0.001669 -0.002529 0.011464 0.000000 0.004929 0.000000
# 4 0.000000 0.000000 0.000000 0.019040 0.000000 0.006677
# 5 -0.003030 0.000389 0.004929 0.000000 0.033817 0.000000
# 6 0.000000 0.000000 0.000000 0.006677 0.000000 0.039240
#
#
# Mechanical properties :
#
#
# Convention : Reuss Voigt Hill
#
# Bulk Modulus (GPa) = 54.69583 57.01029 55.85306
# Shear Modulus (GPa) = 32.83287 37.29251 35.06269
#
# Velocity S-wave (km/s) = 3.82198 4.07328 3.94963
# Velocity P-wave (km/s) = 6.61900 6.89104 6.75639
#
# Compressibility (1/GPa) = 0.01828293
#
# Stress axis : x y z
#
# Youngs Moduli (GPa) = 72.18043 91.99346 87.22761
#
# Poissons Ratio (x) = 0.43744 0.14560
# Poissons Ratio (y) = 0.34323 0.22056
# Poissons Ratio (z) = 0.12048 0.23262
#
# Static dielectric constant tensor:
#      x y z
#    x 3.945450 0.000000 -0.069400 
#    y 0.000000 4.326910 0.000000 
#    z -0.069400 0.000000 4.123080 
# 
# 
# High freq. dielectric constant tensor:
#      x y z
#    x 1.885840 0.000000 -0.001180 
#    y 0.000000 1.904830 0.000000 
#    z -0.001180 0.000000 1.887250 
# 
# From -- ./inp_files/21264.got.cif
#   From: 2010.06.25/outbox.cif.g09.slc.cpg/sg12_11_cif.got.tgz:21264.got - 2010.06.28 00:19:55.
