data_PCOD8111594
_publ_section_title
;
Structure prediction by ZEFSAII (Michael W. Deem and Ramdas Pophale) SiO2 
 PCOD8111594
Probable space group: C 2/M
;
_chemical_formula_sum "Si O2"
_cell_formula_units_Z 44
_cell_length_a 18.874114
_cell_length_b 15.798532
_cell_length_c 7.021022
_cell_angle_alpha 90.000000
_cell_angle_beta 96.095931
_cell_angle_gamma 90.000000
_cell_volume 2081.713456
_symmetry_space_group_name_H-M "C 2/M"
_symmetry_group_IT_number 12
_symmetry_cell_setting 'monoclinic'
loop_
_space_group_symop_operation_xyz
x,y,z
-x,y,-z
-x,-y,-z
x,-y,z
1/2+x,1/2+y,z
1/2-x,1/2+y,-z
1/2-x,1/2-y,-z
1/2+x,1/2-y,z
loop_
_atom_site_type_symbol
_atom_site_label
_atom_site_fract_x
_atom_site_fract_y
_atom_site_fract_z
Si Si1 0.369859 0.713272 0.639634
Si Si2 0.297082 0.820417 0.907229
Si Si3 0.500000 0.192334 0.500000
Si Si4 0.174196 0.093750 0.698825
Si Si5 0.579151 0.403369 0.023167
Si Si6 0.436309 0.099839 0.128070
O O1 0.323022 0.789999 0.706241
O O2 0.446018 0.746405 0.593595
O O3 0.328126 0.665818 0.460570
O O4 0.374715 0.649554 0.817406
O O5 0.245866 0.899226 0.845474
O O6 0.250000 0.750000 0.000000
O O7 0.364476 0.850210 0.050980
O O8 0.458264 0.131618 0.342628
O O9 0.107040 0.107058 0.817308
O O10 0.171602 0.000000 0.606579
O O11 0.580420 0.500000 0.093331
O O12 0.500000 0.366137 0.000000
O O13 0.420449 0.000000 0.129627
O O14 0.500000 0.120755 0.000000
#
# Coordination Sequence:
#
# PCOD8111594 Si02
#       6
#     8   8   4   8   8   8
#     4  12  24  40  68  96 136 168 224 277 334 390
#     4  12  24  45  69  99 136 176 225 275 341 399
#     4  12  25  42  73 106 130 168 230 280 335 394
#     4  11  24  43  64  97 136 179 223 270 334 404
#     4  10  22  40  63  93 133 178 221 265 324 396
#     4  11  25  48  71  99 137 181 227 280 337 403
#
# _framework density 21.136434999999999
#
# number of rings (size 3 to 8) (size 9 to 14) (size 15 to 20)
#    0.000    0.727    3.636    4.091    2.545    0.000 
#    0.000    5.455    0.000    0.000    0.000    0.000 
#    0.000    0.000    0.000    0.000    0.000    0.000 
#
# Total GULP energy -272854.103356 kJ/mol
# GULP energy per Si atom -12402.459243 kJ/mol
# Density = 2.108833 g / cm^3
# Si number density = 21.136435 Si / 1000 Ang^3
#
#
#
# Elastic Constant Matrix: (Units=GPa)
#
#
# Indices 1 2 3 4 5 6 
#
# 1 118.7365 43.1365 39.4524 0.0000 7.9836 0.0000
# 2 43.1365 92.5386 47.5860 0.0000 5.1353 0.0000
# 3 39.4524 47.5860 103.1499 0.0000 10.3965 0.0000
# 4 0.0000 0.0000 0.0000 38.1199 0.0000 -7.6298
# 5 7.9836 5.1353 10.3965 0.0000 38.9722 0.0000
# 6 0.0000 0.0000 0.0000 -7.6298 0.0000 1.6956
#
#
#
# Elastic Compliance Matrix: (Units=1/GPa)
#
#
# Indices 1 2 3 4 5 6 
#
# 1 0.010589 -0.003736 -0.002217 0.000000 -0.001085 0.000000
# 2 -0.003736 0.015486 -0.005741 0.000000 0.000256 0.000000
# 3 -0.002217 -0.005741 0.013430 0.000000 -0.002372 0.000000
# 4 0.000000 0.000000 0.000000 0.264100 0.000000 1.188421
# 5 -0.001085 0.000256 -0.002372 0.000000 0.026481 0.000000
# 6 0.000000 0.000000 0.000000 1.188421 0.000000 5.937535
#
#
# Mechanical properties :
#
#
# Convention : Reuss Voigt Hill
#
# Bulk Modulus (GPa) = 62.04615 63.86388 62.95502
# Shear Modulus (GPa) = 0.79411 28.04087 14.41749
#
# Velocity S-wave (km/s) = 0.61361 3.64629 2.61457
# Velocity P-wave (km/s) = 5.46999 6.92877 6.24214
#
# Compressibility (1/GPa) = 0.01611704
#
# Stress axis : x y z
#
# Youngs Moduli (GPa) = 94.43922 64.57625 74.45867
#
# Poissons Ratio (x) = 0.24123 0.16510
# Poissons Ratio (y) = 0.35278 0.42747
# Poissons Ratio (z) = 0.20940 0.37073
#
# Static dielectric constant tensor:
#      x y z
#    x 3.978170 0.000000 -0.092750 
#    y 0.000000 3.876160 0.000000 
#    z -0.092750 0.000000 3.768850 
# 
# 
# High freq. dielectric constant tensor:
#      x y z
#    x 1.841080 0.000000 -0.003040 
#    y 0.000000 1.835620 0.000000 
#    z -0.003040 0.000000 1.830010 
# 
# From -- ./inp_files/20482.got.cif
#   From: 2010.06.25/outbox.cif.g09.slc.cpg/sg12_11_cif.got.tgz:20482.got - 2010.06.28 00:19:55.
