data_PCOD8111523
_publ_section_title
;
Structure prediction by ZEFSAII (Michael W. Deem and Ramdas Pophale) SiO2 
 PCOD8111523
Probable space group: C 2/M
;
_chemical_formula_sum "Si O2"
_cell_formula_units_Z 48
_cell_length_a 28.914108
_cell_length_b 9.027950
_cell_length_c 14.542043
_cell_angle_alpha 90.000000
_cell_angle_beta 38.543408
_cell_angle_gamma 90.000000
_cell_volume 2365.305587
_symmetry_space_group_name_H-M "C 2/M"
_symmetry_group_IT_number 12
_symmetry_cell_setting 'monoclinic'
loop_
_space_group_symop_operation_xyz
x,y,z
-x,y,-z
-x,-y,-z
x,-y,z
1/2+x,1/2+y,z
1/2-x,1/2+y,-z
1/2-x,1/2-y,-z
1/2+x,1/2-y,z
loop_
_atom_site_type_symbol
_atom_site_label
_atom_site_fract_x
_atom_site_fract_y
_atom_site_fract_z
Si Si1 0.546624 0.174611 0.517004
Si Si2 0.212663 0.167411 0.974740
Si Si3 0.718676 0.829461 0.637587
Si Si4 0.574146 0.672753 0.941000
Si Si5 0.952103 0.167412 0.810795
Si Si6 0.200239 0.170185 0.305037
O O1 0.500000 0.223740 0.500000
O O2 0.508314 0.226116 0.670740
O O3 0.626040 0.250404 0.387617
O O4 0.557291 0.000000 0.503686
O O5 0.231085 0.251466 0.852012
O O6 0.242883 0.000000 0.922957
O O7 0.250000 0.250000 0.000000
O O8 0.124713 0.170058 0.125259
O O9 0.750000 0.750000 0.500000
O O10 0.641673 0.760016 0.790562
O O11 0.783764 0.814025 0.611877
O O12 0.703044 0.000000 0.638794
O O13 0.595406 0.500000 0.907309
O O14 0.500000 0.706081 0.000000
O O15 0.559651 0.726868 0.067604
O O16 0.984694 0.000000 0.762051
O O17 0.195586 0.000000 0.281446
#
# Coordination Sequence:
#
# PCOD8111523 Si02
#       6
#     8   8   8   8   8   8
#     4  11  25  42  62  91 127 168 211 259 312 367
#     4  11  22  38  63  92 124 162 204 253 309 368
#     4  11  25  43  66  95 127 164 208 258 314 374
#     4  10  22  42  67  94 126 162 203 253 313 377
#     4  10  22  40  62  90 125 164 203 252 310 368
#     4  11  24  42  64  91 125 165 209 257 311 372
#
# _framework density 20.293361999999998
#
# number of rings (size 3 to 8) (size 9 to 14) (size 15 to 20)
#    0.000    1.333    1.667    3.000    2.333    8.333 
#    0.000    0.000    0.000    0.000    0.000    0.000 
#    0.000    0.000    0.000    0.000    0.000    0.000 
#
# Total GULP energy -297714.579732 kJ/mol
# GULP energy per Si atom -12404.774156 kJ/mol
# Density = 2.024717 g / cm^3
# Si number density = 20.293362 Si / 1000 Ang^3
#
#
#
# Elastic Constant Matrix: (Units=GPa)
#
#
# Indices 1 2 3 4 5 6 
#
# 1 86.2341 39.9398 18.9702 0.0000 2.7019 0.0000
# 2 39.9398 115.7506 47.9122 -0.0003 1.5614 0.0001
# 3 18.9702 47.9122 92.3268 -0.0001 7.5715 0.0000
# 4 0.0000 -0.0003 -0.0001 42.7773 0.0000 2.1706
# 5 2.7019 1.5614 7.5715 0.0000 36.9844 0.0000
# 6 0.0000 0.0001 0.0000 2.1706 0.0000 32.1463
#
#
#
# Elastic Compliance Matrix: (Units=1/GPa)
#
#
# Indices 1 2 3 4 5 6 
#
# 1 0.013837 -0.004601 -0.000395 0.000000 -0.000736 0.000000
# 2 -0.004601 0.012551 -0.005647 0.000000 0.000962 0.000000
# 3 -0.000395 -0.005647 0.014057 0.000000 -0.002610 0.000000
# 4 0.000000 0.000000 0.000000 0.023457 0.000000 -0.001584
# 5 -0.000736 0.000962 -0.002610 0.000000 0.027586 0.000000
# 6 0.000000 0.000000 0.000000 -0.001584 0.000000 0.031215
#
#
# Mechanical properties :
#
#
# Convention : Reuss Voigt Hill
#
# Bulk Modulus (GPa) = 52.19436 56.43955 54.31695
# Shear Modulus (GPa) = 33.24997 34.88087 34.06542
#
# Velocity S-wave (km/s) = 4.05219 4.15038 4.10158
# Velocity P-wave (km/s) = 6.90430 7.13020 7.01816
#
# Compressibility (1/GPa) = 0.01915916
#
# Stress axis : x y z
#
# Youngs Moduli (GPa) = 72.26820 79.67293 71.14008
#
# Poissons Ratio (x) = 0.36658 0.02811
# Poissons Ratio (y) = 0.33251 0.40172
# Poissons Ratio (z) = 0.02855 0.44991
#
# Static dielectric constant tensor:
#      x y z
#    x 3.774910 0.000000 0.051780 
#    y 0.000000 3.847260 0.000000 
#    z 0.051780 0.000000 3.629520 
# 
# 
# High freq. dielectric constant tensor:
#      x y z
#    x 1.804880 0.000000 0.002250 
#    y 0.000000 1.799120 0.000000 
#    z 0.002250 0.000000 1.798120 
# 
# From -- ./inp_files/244687.got.cif
#   From: 2010.06.25/outbox.cif.g09.slc.cpg/sg12_123_cif.got.tgz:244687.got - 2010.06.28 00:19:55.
