data_PCOD8111573
_publ_section_title
;
Structure prediction by ZEFSAII (Michael W. Deem and Ramdas Pophale) SiO2 
 PCOD8111573
Probable space group: C 2/M
;
_chemical_formula_sum "Si O2"
_cell_formula_units_Z 56
_cell_length_a 29.911560
_cell_length_b 17.152691
_cell_length_c 8.959369
_cell_angle_alpha 90.000000
_cell_angle_beta 143.560238
_cell_angle_gamma 90.000000
_cell_volume 2730.351844
_symmetry_space_group_name_H-M "C 2/M"
_symmetry_group_IT_number 12
_symmetry_cell_setting 'monoclinic'
loop_
_space_group_symop_operation_xyz
x,y,z
-x,y,-z
-x,-y,-z
x,-y,z
1/2+x,1/2+y,z
1/2-x,1/2+y,-z
1/2-x,1/2-y,-z
1/2+x,1/2-y,z
loop_
_atom_site_type_symbol
_atom_site_label
_atom_site_fract_x
_atom_site_fract_y
_atom_site_fract_z
Si Si1 0.295187 0.190616 0.015164
Si Si2 0.523707 0.649446 0.394113
Si Si3 0.826378 0.239460 0.790647
Si Si4 0.343791 0.590029 0.411626
Si Si5 0.393352 0.586439 0.872452
Si Si6 0.022520 0.300277 0.893417
Si Si7 0.057600 0.591266 0.519091
O O1 0.366399 0.143781 0.274641
O O2 0.250000 0.250000 0.000000
O O3 0.325332 0.241880 0.961083
O O4 0.238507 0.126659 0.797709
O O5 0.500000 0.634205 0.500000
O O6 0.611274 0.629138 0.605413
O O7 0.510715 0.738815 0.314864
O O8 0.478794 0.592112 0.160605
O O9 0.750000 0.250000 0.500000
O O10 0.845871 0.148242 0.838886
O O11 0.887083 0.295525 0.872648
O O12 0.332946 0.500000 0.348904
O O13 0.389106 0.606669 0.686030
O O14 0.360959 0.500000 0.814590
O O15 0.988937 0.384063 0.754838
O O16 0.000000 0.278841 0.000000
O O17 0.079409 0.500000 0.567957
O O18 0.000000 0.607265 0.500000
#
# Coordination Sequence:
#
# PCOD8111573 Si02
#       7
#     8   8   8   8   8   8   8
#     4  12  26  42  68  96 133 174 219 279 338 400
#     4  11  23  38  63  95 131 171 221 270 325 393
#     4  11  23  43  65  96 128 170 222 266 329 400
#     4  11  23  41  62  91 130 171 215 262 333 401
#     4  10  22  40  63  90 127 168 211 269 329 395
#     4  11  24  42  71  97 128 172 226 272 328 396
#     4  11  24  46  71 100 136 178 230 288 344 401
#
# _framework density 20.510176999999999
#
# number of rings (size 3 to 8) (size 9 to 14) (size 15 to 20)
#    0.000    1.000    2.857    4.286    8.000    2.571 
#    0.000    1.429    0.000    0.000    0.000    0.000 
#    0.000    0.000    0.000    0.000    0.000    0.000 
#
# Total GULP energy -347166.024450 kJ/mol
# GULP energy per Si atom -12398.786587 kJ/mol
# Density = 2.046349 g / cm^3
# Si number density = 20.510177 Si / 1000 Ang^3
#
#
#
# Elastic Constant Matrix: (Units=GPa)
#
#
# Indices 1 2 3 4 5 6 
#
# 1 138.5402 49.5754 45.7237 0.0000 5.0640 0.0000
# 2 49.5754 106.9041 46.6799 0.0000 10.2921 0.0000
# 3 45.7237 46.6799 108.3284 0.0000 11.2177 0.0000
# 4 0.0000 0.0000 0.0000 31.5542 0.0000 -1.5374
# 5 5.0640 10.2921 11.2177 0.0000 34.1565 0.0000
# 6 0.0000 0.0000 0.0000 -1.5374 0.0000 25.6655
#
#
#
# Elastic Compliance Matrix: (Units=1/GPa)
#
#
# Indices 1 2 3 4 5 6 
#
# 1 0.009184 -0.003189 -0.002548 0.000000 0.000436 0.000000
# 2 -0.003189 0.012750 -0.003933 0.000000 -0.002077 0.000000
# 3 -0.002548 -0.003933 0.012256 0.000000 -0.002462 0.000000
# 4 0.000000 0.000000 0.000000 0.031784 0.000000 0.001904
# 5 0.000436 -0.002077 -0.002462 0.000000 0.030647 0.000000
# 6 0.000000 0.000000 0.000000 0.001904 0.000000 0.039077
#
#
# Mechanical properties :
#
#
# Convention : Reuss Voigt Hill
#
# Bulk Modulus (GPa) = 67.33161 70.85897 69.09529
# Shear Modulus (GPa) = 31.25232 32.39483 31.82357
#
# Velocity S-wave (km/s) = 3.90775 3.97854 3.94331
# Velocity P-wave (km/s) = 7.29797 7.46514 7.38203
#
# Compressibility (1/GPa) = 0.01485186
#
# Stress axis : x y z
#
# Youngs Moduli (GPa) = 108.88542 78.42951 81.59029
#
# Poissons Ratio (x) = 0.25007 0.20786
# Poissons Ratio (y) = 0.34718 0.32092
# Poissons Ratio (z) = 0.27739 0.30849
#
# Static dielectric constant tensor:
#      x y z
#    x 3.783920 0.000000 0.164180 
#    y 0.000000 3.751500 0.000000 
#    z 0.164180 0.000000 3.798710 
# 
# 
# High freq. dielectric constant tensor:
#      x y z
#    x 1.801000 0.000000 0.005000 
#    y 0.000000 1.804430 0.000000 
#    z 0.005000 0.000000 1.809510 
# 
# From -- ./inp_files/106020.got.cif
#   From: 2010.06.25/outbox.cif.g09.slc.cpg/sg12_54_cif.got.tgz:106020.got - 2010.06.28 00:19:55.
