data_PCOD8111099
_publ_section_title
;
Structure prediction by ZEFSAII (Michael W. Deem and Ramdas Pophale) SiO2 
 PCOD8111099
Probable space group: C 2/M
;
_chemical_formula_sum "Si O2"
_cell_formula_units_Z 64
_cell_length_a 32.085414
_cell_length_b 8.874838
_cell_length_c 15.133709
_cell_angle_alpha 90.000000
_cell_angle_beta 47.255838
_cell_angle_gamma 90.000000
_cell_volume 3164.763075
_symmetry_space_group_name_H-M "C 2/M"
_symmetry_group_IT_number 12
_symmetry_cell_setting 'monoclinic'
loop_
_space_group_symop_operation_xyz
x,y,z
-x,y,-z
-x,-y,-z
x,-y,z
1/2+x,1/2+y,z
1/2-x,1/2+y,-z
1/2-x,1/2-y,-z
1/2+x,1/2-y,z
loop_
_atom_site_type_symbol
_atom_site_label
_atom_site_fract_x
_atom_site_fract_y
_atom_site_fract_z
Si Si1 0.063876 0.821900 0.909852
Si Si2 0.280528 0.177103 0.538246
Si Si3 0.584856 0.174475 0.232959
Si Si4 0.125703 0.673650 0.984262
Si Si5 0.750394 0.172570 0.754308
Si Si6 0.602431 0.677929 0.662707
Si Si7 0.130367 0.175765 0.334816
Si Si8 0.455120 0.174508 0.406591
O O1 0.098895 0.761979 0.941575
O O2 0.094117 0.770877 0.775618
O O3 0.061988 0.000000 0.919810
O O4 0.000000 0.756627 0.000000
O O5 0.250000 0.250000 0.500000
O O6 0.246481 0.219212 0.675301
O O7 0.343355 0.241839 0.457305
O O8 0.281676 0.000000 0.523548
O O9 0.621387 0.274462 0.247123
O O10 0.518722 0.198207 0.349902
O O11 0.602374 0.000000 0.218328
O O12 0.598823 0.232081 0.114242
O O13 0.110488 0.500000 0.991254
O O14 0.193356 0.700011 0.892350
O O15 0.804497 0.214115 0.736170
O O16 0.754335 0.000000 0.715705
O O17 0.609525 0.500000 0.644531
O O18 0.550265 0.733084 0.677335
O O19 0.088243 0.267963 0.457647
O O20 0.117055 0.000000 0.365587
O O21 0.442569 0.000000 0.405551
#
# Coordination Sequence:
#
# PCOD8111099 Si02
#       8
#     8   8   8   8   8   8   8   8
#     4  10  22  39  59  87 123 160 199 247 300 355
#     4  12  24  38  59  86 118 157 199 244 298 354
#     4  10  23  41  61  88 122 158 203 255 306 362
#     4  10  22  41  63  87 119 161 204 250 301 356
#     4  10  22  41  62  87 122 158 200 252 301 357
#     4  11  22  37  59  88 121 156 197 246 299 359
#     4  11  23  39  62  90 121 158 203 254 308 362
#     4  11  22  38  61  90 123 159 200 251 307 364
#
# _framework density 20.222681999999999
#
# number of rings (size 3 to 8) (size 9 to 14) (size 15 to 20)
#    0.000    1.375    1.250    4.125    0.000    7.750 
#    0.000    0.000    0.000    0.000    0.000    0.000 
#    0.000    0.000    0.000    0.000    0.000    0.000 
#
# Total GULP energy -396969.864760 kJ/mol
# GULP energy per Si atom -12405.308274 kJ/mol
# Density = 2.017665 g / cm^3
# Si number density = 20.222682 Si / 1000 Ang^3
#
#
#
# Elastic Constant Matrix: (Units=GPa)
#
#
# Indices 1 2 3 4 5 6 
#
# 1 113.5552 28.5546 37.2776 0.0000 6.3341 -0.0004
# 2 28.5546 68.8346 25.7761 -0.0002 0.7935 -0.0008
# 3 37.2776 25.7761 101.7075 0.0000 0.5426 -0.0001
# 4 0.0000 -0.0002 0.0000 25.2331 0.0000 6.8663
# 5 6.3341 0.7935 0.5426 0.0000 38.0059 0.0000
# 6 -0.0004 -0.0008 -0.0001 6.8663 0.0000 38.2746
#
#
#
# Elastic Compliance Matrix: (Units=1/GPa)
#
#
# Indices 1 2 3 4 5 6 
#
# 1 0.010740 -0.003276 -0.003097 0.000000 -0.001677 0.000000
# 2 -0.003276 0.017053 -0.003122 0.000000 0.000235 0.000000
# 3 -0.003097 -0.003122 0.011756 0.000000 0.000414 0.000000
# 4 0.000000 0.000000 0.000000 0.041664 0.000000 -0.007474
# 5 -0.001677 0.000235 0.000414 0.000000 0.026580 0.000000
# 6 0.000000 0.000000 0.000000 -0.007474 0.000000 0.027468
#
#
# Mechanical properties :
#
#
# Convention : Reuss Voigt Hill
#
# Bulk Modulus (GPa) = 48.64214 51.92377 50.28295
# Shear Modulus (GPa) = 31.03521 33.13532 32.08526
#
# Velocity S-wave (km/s) = 3.92174 4.05226 3.98753
# Velocity P-wave (km/s) = 6.67924 6.90117 6.79111
#
# Compressibility (1/GPa) = 0.02055831
#
# Stress axis : x y z
#
# Youngs Moduli (GPa) = 93.10558 58.64016 85.05993
#
# Poissons Ratio (x) = 0.19212 0.26346
# Poissons Ratio (y) = 0.30504 0.26558
# Poissons Ratio (z) = 0.28838 0.18309
#
# Static dielectric constant tensor:
#      x y z
#    x 3.789330 0.000000 -0.067710 
#    y 0.000000 3.700660 0.000000 
#    z -0.067710 0.000000 3.791230 
# 
# 
# High freq. dielectric constant tensor:
#      x y z
#    x 1.801110 0.000000 -0.001060 
#    y 0.000000 1.787590 0.000000 
#    z -0.001060 0.000000 1.795170 
# 
# From -- ./inp_files/249681.got.cif
#   From: 2010.06.25/outbox.cif.g09.slc.cpg/sg12_125_cif.got.tgz:249681.got - 2010.06.28 00:19:55.
