data_PCOD8111473
_publ_section_title
;
Structure prediction by ZEFSAII (Michael W. Deem and Ramdas Pophale) SiO2 
 PCOD8111473
Probable space group: C 2/M
;
_chemical_formula_sum "Si O2"
_cell_formula_units_Z 48
_cell_length_a 24.160138
_cell_length_b 8.812152
_cell_length_c 11.512611
_cell_angle_alpha 90.000000
_cell_angle_beta 110.395591
_cell_angle_gamma 90.000000
_cell_volume 2297.406893
_symmetry_space_group_name_H-M "C 2/M"
_symmetry_group_IT_number 12
_symmetry_cell_setting 'monoclinic'
loop_
_space_group_symop_operation_xyz
x,y,z
-x,y,-z
-x,-y,-z
x,-y,z
1/2+x,1/2+y,z
1/2-x,1/2+y,-z
1/2-x,1/2-y,-z
1/2+x,1/2-y,z
loop_
_atom_site_type_symbol
_atom_site_label
_atom_site_fract_x
_atom_site_fract_y
_atom_site_fract_z
Si Si1 0.590497 0.822153 0.802385
Si Si2 0.633132 0.674023 0.350478
Si Si3 0.362260 0.324586 0.385959
Si Si4 0.194205 0.178255 0.020149
Si Si5 0.512077 0.676414 0.141268
Si Si6 0.225339 0.323348 0.274627
O O1 0.600182 0.776097 0.675595
O O2 0.635093 0.732853 0.916728
O O3 0.525447 0.776760 0.796629
O O4 0.600600 0.000000 0.823307
O O5 0.654258 0.500000 0.357594
O O6 0.612408 0.707847 0.467096
O O7 0.580086 0.707620 0.222619
O O8 0.689612 0.779833 0.364734
O O9 0.369501 0.500000 0.355842
O O10 0.293550 0.276895 0.333317
O O11 0.198464 0.000000 0.010579
O O12 0.250000 0.250000 0.000000
O O13 0.192957 0.225597 0.152585
O O14 0.495675 0.500000 0.145945
O O15 0.500000 0.727851 0.000000
O O16 0.218697 0.500000 0.242390
#
# Coordination Sequence:
#
# PCOD8111473 Si02
#       6
#     8   8   8   8   8   8
#     4  12  25  40  63  93 125 163 205 257 315 368
#     4  10  22  40  63  90 122 168 216 257 309 368
#     4  10  22  40  61  88 126 168 210 256 309 373
#     4  12  23  38  61  90 124 159 201 250 304 366
#     4  10  22  42  66  90 120 162 208 257 313 373
#     4  11  22  37  61  92 127 166 206 256 312 365
#
# _framework density 20.893121000000001
#
# number of rings (size 3 to 8) (size 9 to 14) (size 15 to 20)
#    0.000    1.167    1.667    5.000    0.000    4.333 
#    0.000    3.333    0.000    0.000    0.000    0.000 
#    0.000    0.000    0.000    0.000    0.000    0.000 
#
# Total GULP energy -297732.548992 kJ/mol
# GULP energy per Si atom -12405.522875 kJ/mol
# Density = 2.084557 g / cm^3
# Si number density = 20.893121 Si / 1000 Ang^3
#
#
#
# Elastic Constant Matrix: (Units=GPa)
#
#
# Indices 1 2 3 4 5 6 
#
# 1 100.5901 46.0994 27.7076 0.0000 -19.5407 0.0000
# 2 46.0994 117.9074 34.1229 0.0000 -10.4392 0.0000
# 3 27.7076 34.1229 112.2744 0.0000 -9.5138 0.0000
# 4 0.0000 0.0000 0.0000 29.1379 0.0000 -6.6038
# 5 -19.5407 -10.4392 -9.5138 0.0000 26.9122 0.0000
# 6 0.0000 0.0000 0.0000 -6.6038 0.0000 37.3461
#
#
#
# Elastic Compliance Matrix: (Units=1/GPa)
#
#
# Indices 1 2 3 4 5 6 
#
# 1 0.013836 -0.004295 -0.001442 0.000000 0.007870 0.000000
# 2 -0.004295 0.010825 -0.002205 0.000000 0.000301 0.000000
# 3 -0.001442 -0.002205 0.010073 0.000000 0.001659 0.000000
# 4 0.000000 0.000000 0.000000 0.035752 0.000000 0.006322
# 5 0.007870 0.000301 0.001659 0.000000 0.043575 0.000000
# 6 0.000000 0.000000 0.000000 0.006322 0.000000 0.027894
#
#
# Mechanical properties :
#
#
# Convention : Reuss Voigt Hill
#
# Bulk Modulus (GPa) = 53.04951 60.73686 56.89319
# Shear Modulus (GPa) = 30.46472 33.53539 32.00006
#
# Velocity S-wave (km/s) = 3.82268 4.01071 3.91782
# Velocity P-wave (km/s) = 6.70297 7.11204 6.91053
#
# Compressibility (1/GPa) = 0.01885031
#
# Stress axis : x y z
#
# Youngs Moduli (GPa) = 72.27536 92.37627 99.27324
#
# Poissons Ratio (x) = 0.39680 0.14317
# Poissons Ratio (y) = 0.31045 0.21885
# Poissons Ratio (z) = 0.10423 0.20365
#
# Static dielectric constant tensor:
#      x y z
#    x 6.058800 0.000000 1.352520 
#    y 0.000000 3.639170 0.000000 
#    z 1.352520 0.000000 4.866270 
# 
# 
# High freq. dielectric constant tensor:
#      x y z
#    x 1.820070 0.000000 -0.007760 
#    y 0.000000 1.812600 0.000000 
#    z -0.007760 0.000000 1.828170 
# 
# From -- ./inp_files/173059.got.cif
#   From: 2010.06.25/outbox.cif.g09.slc.cpg/sg12_87_cif.got.tgz:173059.got - 2010.06.28 00:19:55.
