data_PCOD8111200
_publ_section_title
;
Structure prediction by ZEFSAII (Michael W. Deem and Ramdas Pophale) SiO2 
 PCOD8111200
Probable space group: C 2/M
;
_chemical_formula_sum "Si O2"
_cell_formula_units_Z 56
_cell_length_a 11.270867
_cell_length_b 31.214657
_cell_length_c 8.993691
_cell_angle_alpha 90.000000
_cell_angle_beta 59.420914
_cell_angle_gamma 90.000000
_cell_volume 2724.084502
_symmetry_space_group_name_H-M "C 2/M"
_symmetry_group_IT_number 12
_symmetry_cell_setting 'monoclinic'
loop_
_space_group_symop_operation_xyz
x,y,z
-x,y,-z
-x,-y,-z
x,-y,z
1/2+x,1/2+y,z
1/2-x,1/2+y,-z
1/2-x,1/2-y,-z
1/2+x,1/2-y,z
loop_
_atom_site_type_symbol
_atom_site_label
_atom_site_fract_x
_atom_site_fract_y
_atom_site_fract_z
Si Si1 0.834839 0.124998 0.597471
Si Si2 0.783206 0.798160 0.424006
Si Si3 0.873044 0.548633 0.772878
Si Si4 0.176595 0.692414 0.177181
Si Si5 0.947633 0.771292 0.880267
Si Si6 0.857893 0.383241 0.007505
Si Si7 0.192082 0.450402 0.515711
O O1 0.768756 0.166973 0.561955
O O2 0.768199 0.127222 0.803076
O O3 0.793267 0.081229 0.540001
O O4 0.000000 0.127551 0.500000
O O5 0.750000 0.750000 0.500000
O O6 0.686611 0.813067 0.348422
O O7 0.939027 0.801295 0.266358
O O8 0.841360 0.500000 0.831302
O O9 0.799792 0.560728 0.664325
O O10 0.036172 0.557176 0.666155
O O11 0.807417 0.575402 0.948495
O O12 0.083146 0.734119 0.216530
O O13 0.320086 0.698658 0.999920
O O14 0.107777 0.652371 0.139697
O O15 0.000000 0.749405 0.000000
O O16 0.000000 0.392690 0.000000
O O17 0.235252 0.500000 0.517090
#
# Coordination Sequence:
#
# PCOD8111200 Si02
#       7
#     8   8   8   8   8   8   8
#     4  12  27  43  62  95 138 172 213 266 326 395
#     4  11  26  40  59  86 118 168 213 259 323 382
#     4   9  19  39  69  99 131 164 213 268 319 376
#     4  10  22  39  62  83 116 157 206 268 306 381
#     4   9  20  39  61  83 112 156 203 258 321 372
#     4  12  24  39  64  96 127 165 215 266 317 377
#     4   9  19  41  70  99 131 172 212 265 326 383
#
# _framework density 20.557365999999998
#
# number of rings (size 3 to 8) (size 9 to 14) (size 15 to 20)
#    0.000    1.714    1.429    3.000   10.000    1.143 
#    0.000    2.143    0.000    1.714    0.000    0.000 
#    0.000    0.000    0.000    0.000    0.000    0.000 
#
# Total GULP energy -347160.514199 kJ/mol
# GULP energy per Si atom -12398.589793 kJ/mol
# Density = 2.051058 g / cm^3
# Si number density = 20.557366 Si / 1000 Ang^3
#
#
#
# Elastic Constant Matrix: (Units=GPa)
#
#
# Indices 1 2 3 4 5 6 
#
# 1 60.8357 24.6558 27.5430 0.0000 15.8606 0.0000
# 2 24.6558 100.9743 51.8816 0.0000 24.8523 0.0000
# 3 27.5430 51.8816 104.1283 0.0000 26.4344 0.0000
# 4 0.0000 0.0000 0.0000 41.5228 0.0000 17.2678
# 5 15.8606 24.8523 26.4344 0.0000 30.3401 0.0000
# 6 0.0000 0.0000 0.0000 17.2678 0.0000 34.8016
#
#
#
# Elastic Compliance Matrix: (Units=1/GPa)
#
#
# Indices 1 2 3 4 5 6 
#
# 1 0.020160 -0.001904 -0.002702 0.000000 -0.006625 0.000000
# 2 -0.001904 0.014599 -0.005120 0.000000 -0.006503 0.000000
# 3 -0.002702 -0.005120 0.014697 0.000000 -0.007198 0.000000
# 4 0.000000 0.000000 0.000000 0.030345 0.000000 -0.015056
# 5 -0.006625 -0.006503 -0.007198 0.000000 0.048022 0.000000
# 6 0.000000 0.000000 0.000000 -0.015056 0.000000 0.036205
#
#
# Mechanical properties :
#
#
# Convention : Reuss Voigt Hill
#
# Bulk Modulus (GPa) = 33.32782 52.67770 43.00276
# Shear Modulus (GPa) = 25.84253 32.12342 28.98298
#
# Velocity S-wave (km/s) = 3.54940 3.95729 3.75888
# Velocity P-wave (km/s) = 5.74847 6.82353 6.30894
#
# Compressibility (1/GPa) = 0.03000497
#
# Stress axis : x y z
#
# Youngs Moduli (GPa) = 49.60348 68.49573 68.04298
#
# Poissons Ratio (x) = 0.13039 0.18386
# Poissons Ratio (y) = 0.09443 0.34836
# Poissons Ratio (z) = 0.13403 0.35068
#
# Static dielectric constant tensor:
#      x y z
#    x 3.787990 0.000000 0.186460 
#    y 0.000000 3.661080 0.000000 
#    z 0.186460 0.000000 3.767210 
# 
# 
# High freq. dielectric constant tensor:
#      x y z
#    x 1.800140 0.000000 0.016990 
#    y 0.000000 1.802840 0.000000 
#    z 0.016990 0.000000 1.806500 
# 
# From -- ./inp_files/54616.got.cif
#   From: 2010.06.25/outbox.cif.g09.slc.cpg/sg12_28_cif.got.tgz:54616.got - 2010.06.28 00:19:55.
