data_PCOD8111339
_publ_section_title
;
Structure prediction by ZEFSAII (Michael W. Deem and Ramdas Pophale) SiO2 
 PCOD8111339
Probable space group: C 2/M
;
_chemical_formula_sum "Si O2"
_cell_formula_units_Z 48
_cell_length_a 14.578254
_cell_length_b 9.264341
_cell_length_c 20.284879
_cell_angle_alpha 90.000000
_cell_angle_beta 64.776373
_cell_angle_gamma 90.000000
_cell_volume 2478.413264
_symmetry_space_group_name_H-M "C 2/M"
_symmetry_group_IT_number 12
_symmetry_cell_setting 'monoclinic'
loop_
_space_group_symop_operation_xyz
x,y,z
-x,y,-z
-x,-y,-z
x,-y,z
1/2+x,1/2+y,z
1/2-x,1/2+y,-z
1/2-x,1/2-y,-z
1/2+x,1/2-y,z
loop_
_atom_site_type_symbol
_atom_site_label
_atom_site_fract_x
_atom_site_fract_y
_atom_site_fract_z
Si Si1 0.838857 0.333689 0.627711
Si Si2 0.846809 0.167438 0.496290
Si Si3 0.433018 0.169717 0.112875
Si Si4 0.847334 0.329716 0.999802
Si Si5 0.616802 0.664370 0.743659
Si Si6 0.517614 0.664818 0.335283
O O1 0.868738 0.500000 0.607626
O O2 0.881196 0.238666 0.554412
O O3 0.718877 0.314482 0.670740
O O4 0.889900 0.272902 0.678770
O O5 0.750000 0.250000 0.500000
O O6 0.934420 0.186683 0.416811
O O7 0.820397 0.000000 0.515926
O O8 0.550709 0.217400 0.070337
O O9 0.382893 0.238463 0.192100
O O10 0.428452 0.000000 0.121983
O O11 0.365838 0.215676 0.070191
O O12 0.828827 0.500000 0.999356
O O13 0.750000 0.250000 0.000000
O O14 0.606138 0.500000 0.770403
O O15 0.525804 0.707965 0.722803
O O16 0.556235 0.500000 0.322777
#
# Coordination Sequence:
#
# PCOD8111339 Si02
#       6
#     8   8   8   8   8   8
#     4  11  23  39  57  83 113 146 191 239 285 338
#     4  11  21  37  60  82 110 147 189 239 291 338
#     4   9  20  38  58  83 115 149 185 225 272 329
#     4   9  19  37  60  86 116 146 182 228 272 324
#     4  10  22  40  57  79 117 152 184 231 281 332
#     4  10  22  40  57  79 112 149 187 234 289 338
#
# _framework density 19.367229999999999
#
# number of rings (size 3 to 8) (size 9 to 14) (size 15 to 20)
#    0.000    2.000    1.667    2.500    0.000    8.000 
#    0.000    8.333    0.000    0.000    0.000    0.000 
#    0.000    0.000    0.000    0.000    0.000    0.000 
#
# Total GULP energy -297621.539472 kJ/mol
# GULP energy per Si atom -12400.897478 kJ/mol
# Density = 1.932315 g / cm^3
# Si number density = 19.367230 Si / 1000 Ang^3
#
#
#
# Elastic Constant Matrix: (Units=GPa)
#
#
# Indices 1 2 3 4 5 6 
#
# 1 107.7502 45.0540 14.7995 0.0000 19.3853 0.0000
# 2 45.0540 83.3509 35.4663 0.0000 10.9011 0.0000
# 3 14.7995 35.4663 81.5685 0.0000 20.2861 0.0000
# 4 0.0000 0.0000 0.0000 34.4310 0.0000 2.8861
# 5 19.3853 10.9011 20.2861 0.0000 21.3230 0.0000
# 6 0.0000 0.0000 0.0000 2.8861 0.0000 39.5504
#
#
#
# Elastic Compliance Matrix: (Units=1/GPa)
#
#
# Indices 1 2 3 4 5 6 
#
# 1 0.014265 -0.007718 0.003945 0.000000 -0.012776 0.000000
# 2 -0.007718 0.018955 -0.008091 0.000000 0.005024 0.000000
# 3 0.003945 -0.008091 0.019551 0.000000 -0.018050 0.000000
# 4 0.000000 0.000000 0.000000 0.029222 0.000000 -0.002132
# 5 -0.012776 0.005024 -0.018050 0.000000 0.073117 0.000000
# 6 0.000000 0.000000 0.000000 -0.002132 0.000000 0.025440
#
#
# Mechanical properties :
#
#
# Convention : Reuss Voigt Hill
#
# Bulk Modulus (GPa) = 34.43190 51.47878 42.95534
# Shear Modulus (GPa) = 23.36903 30.88420 27.12661
#
# Velocity S-wave (km/s) = 3.47742 3.99766 3.74658
# Velocity P-wave (km/s) = 5.82583 6.92433 6.39870
#
# Compressibility (1/GPa) = 0.02904284
#
# Stress axis : x y z
#
# Youngs Moduli (GPa) = 70.10346 52.75620 51.14860
#
# Poissons Ratio (x) = 0.40719 -0.20179
# Poissons Ratio (y) = 0.54108 0.41383
# Poissons Ratio (z) = -0.27657 0.42684
#
# Static dielectric constant tensor:
#      x y z
#    x 4.397670 0.000000 0.164600 
#    y 0.000000 3.505030 0.000000 
#    z 0.164600 0.000000 3.524550 
# 
# 
# High freq. dielectric constant tensor:
#      x y z
#    x 1.764210 0.000000 0.010890 
#    y 0.000000 1.752050 0.000000 
#    z 0.010890 0.000000 1.745910 
# 
# From -- ./inp_files/308273.got.cif
#   From: 2010.06.25/outbox.cif.g09.slc.cpg/sg12_155_cif.got.tgz:308273.got - 2010.06.28 00:19:55.
