data_PCOD8111270
_publ_section_title
;
Structure prediction by ZEFSAII (Michael W. Deem and Ramdas Pophale) SiO2 
 PCOD8111270
Probable space group: C 2/M
;
_chemical_formula_sum "Si O2"
_cell_formula_units_Z 56
_cell_length_a 9.649679
_cell_length_b 15.680706
_cell_length_c 30.580400
_cell_angle_alpha 90.000000
_cell_angle_beta 36.287363
_cell_angle_gamma 90.000000
_cell_volume 2738.562061
_symmetry_space_group_name_H-M "C 2/M"
_symmetry_group_IT_number 12
_symmetry_cell_setting 'monoclinic'
loop_
_space_group_symop_operation_xyz
x,y,z
-x,y,-z
-x,-y,-z
x,-y,z
1/2+x,1/2+y,z
1/2-x,1/2+y,-z
1/2-x,1/2-y,-z
1/2+x,1/2-y,z
loop_
_atom_site_type_symbol
_atom_site_label
_atom_site_fract_x
_atom_site_fract_y
_atom_site_fract_z
Si Si1 0.255846 0.163218 0.831002
Si Si2 0.381420 0.000000 0.911788
Si Si3 0.505694 0.905062 0.604020
Si Si4 0.880873 0.345127 0.333873
Si Si5 0.528901 0.500000 0.921165
Si Si6 0.091001 0.843273 0.660968
Si Si7 0.385226 0.402742 0.440479
Si Si8 0.910470 0.332627 0.173803
O O1 0.446688 0.126202 0.748641
O O2 0.128229 0.248231 0.845624
O O3 0.378850 0.185621 0.845901
O O4 0.066895 0.086962 0.883942
O O5 0.214674 0.000000 0.912631
O O6 0.535121 0.913476 0.871238
O O7 0.235664 0.000000 0.993778
O O8 0.486386 0.852717 0.653687
O O9 0.252790 0.910495 0.645188
O O10 0.699991 0.864132 0.522157
O O11 0.586754 0.000000 0.595556
O O12 0.817461 0.246443 0.343663
O O13 0.645825 0.400377 0.393892
O O14 0.130757 0.847571 0.599178
O O15 0.819220 0.857941 0.740338
O O16 0.319263 0.500000 0.446008
#
# Coordination Sequence:
#
# PCOD8111270 Si02
#       8
#     8   4   8   8   4   8   8   8
#     4  10  22  39  63  95 124 161 204 250 299 356
#     4   9  20  40  67  97 126 164 203 236 295 369
#     4  11  25  39  55  85 117 154 201 254 310 348
#     4  11  23  38  58  85 115 157 201 249 299 357
#     4   9  20  40  67  97 126 164 203 236 295 369
#     4  11  23  38  58  85 115 157 201 249 299 357
#     4  11  23  39  59  81 115 156 203 252 302 360
#     4  10  22  39  63  95 124 161 204 250 299 356
#
# _framework density 20.448689000000002
#
# number of rings (size 3 to 8) (size 9 to 14) (size 15 to 20)
#    0.000    1.571    1.429    2.571   10.000    6.286 
#    0.000    0.714    0.000    0.857    0.000    0.000 
#    0.000    0.000    0.000    0.000    0.000    0.000 
#
# Total GULP energy -347263.488594 kJ/mol
# GULP energy per Si atom -12402.267450 kJ/mol
# Density = 2.040215 g / cm^3
# Si number density = 20.448689 Si / 1000 Ang^3
#
#
#
# Elastic Constant Matrix: (Units=GPa)
#
#
# Indices 1 2 3 4 5 6 
#
# 1 91.6843 28.5949 25.8365 0.0004 6.7276 0.0001
# 2 28.5949 103.7030 62.5267 0.0040 2.9714 0.0003
# 3 25.8365 62.5267 106.3954 -0.0019 11.7330 0.0008
# 4 0.0004 0.0040 -0.0019 26.1338 0.0027 3.7928
# 5 6.7276 2.9714 11.7330 0.0027 19.4007 -0.0006
# 6 0.0001 0.0003 0.0008 3.7928 -0.0006 30.0527
#
#
#
# Elastic Compliance Matrix: (Units=1/GPa)
#
#
# Indices 1 2 3 4 5 6 
#
# 1 0.012269 -0.002645 -0.001072 0.000000 -0.003201 0.000000
# 2 -0.002645 0.015697 -0.009020 -0.000004 0.003968 0.000001
# 3 -0.001072 -0.009020 0.015822 0.000003 -0.007816 -0.000001
# 4 0.000000 -0.000004 0.000003 0.038978 -0.000007 -0.004919
# 5 -0.003201 0.003968 -0.007816 -0.000007 0.056774 0.000002
# 6 0.000000 0.000001 -0.000001 -0.004919 0.000002 0.033896
#
#
# Mechanical properties :
#
#
# Convention : Reuss Voigt Hill
#
# Bulk Modulus (GPa) = 54.60330 59.52209 57.06269
# Shear Modulus (GPa) = 24.38846 27.43909 25.91377
#
# Velocity S-wave (km/s) = 3.45725 3.66710 3.56372
# Velocity P-wave (km/s) = 6.53432 6.86305 6.70070
#
# Compressibility (1/GPa) = 0.01831391
#
# Stress axis : x y z
#
# Youngs Moduli (GPa) = 81.50708 63.70543 63.20258
#
# Poissons Ratio (x) = 0.16850 0.06775
# Poissons Ratio (y) = 0.21559 0.57011
# Poissons Ratio (z) = 0.08737 0.57464
#
# Static dielectric constant tensor:
#      x y z
#    x 3.450800 0.000000 0.033360 
#    y 0.000000 3.648980 0.000010 
#    z 0.033360 0.000010 3.749200 
# 
# 
# High freq. dielectric constant tensor:
#      x y z
#    x 1.787980 0.000000 0.004300 
#    y 0.000000 1.805380 0.000000 
#    z 0.004300 0.000000 1.793590 
# 
# From -- ./inp_files/356705.got.cif
#   From: 2010.06.25/outbox.cif.g09.slc.cpg/sg12_179_cif.got.tgz:356705.got - 2010.06.28 00:19:55.
