data_PCOD8111210
_publ_section_title
;
Structure prediction by ZEFSAII (Michael W. Deem and Ramdas Pophale) SiO2 
 PCOD8111210
Probable space group: C 2/M
;
_chemical_formula_sum "Si O2"
_cell_formula_units_Z 56
_cell_length_a 8.318187
_cell_length_b 25.926663
_cell_length_c 13.942597
_cell_angle_alpha 90.000000
_cell_angle_beta 65.545421
_cell_angle_gamma 90.000000
_cell_volume 2737.150140
_symmetry_space_group_name_H-M "C 2/M"
_symmetry_group_IT_number 12
_symmetry_cell_setting 'monoclinic'
loop_
_space_group_symop_operation_xyz
x,y,z
-x,y,-z
-x,-y,-z
x,-y,z
1/2+x,1/2+y,z
1/2-x,1/2+y,-z
1/2-x,1/2-y,-z
1/2+x,1/2-y,z
loop_
_atom_site_type_symbol
_atom_site_label
_atom_site_fract_x
_atom_site_fract_y
_atom_site_fract_z
Si Si1 0.073866 0.786757 0.767774
Si Si2 0.335278 0.906724 0.285853
Si Si3 0.314419 0.056770 0.087851
Si Si4 0.524653 0.354335 0.602390
Si Si5 0.403288 0.818309 0.812968
Si Si6 0.653641 0.347392 0.037225
Si Si7 0.186998 0.441270 0.498217
O O1 0.087084 0.807951 0.655724
O O2 0.251808 0.802923 0.776440
O O3 0.055789 0.725044 0.773133
O O4 0.901565 0.807252 0.866873
O O5 0.336746 0.945479 0.196692
O O6 0.509806 0.871315 0.243543
O O7 0.328706 0.940088 0.383433
O O8 0.163446 0.872037 0.313605
O O9 0.174909 0.097998 0.084534
O O10 0.256497 0.000000 0.066555
O O11 0.500000 0.073920 0.000000
O O12 0.500000 0.333448 0.500000
O O13 0.662269 0.402051 0.574382
O O14 0.327082 0.825961 0.939689
O O15 0.500000 0.356334 0.000000
O O16 0.236628 0.500000 0.455215
O O17 0.000000 0.424438 0.500000
#
# Coordination Sequence:
#
# PCOD8111210 Si02
#       7
#     8   8   8   8   8   8   8
#     4  11  22  40  60  92 123 163 208 253 312 363
#     4  11  21  39  62  88 123 161 203 254 304 363
#     4  11  22  37  61  89 124 162 202 252 306 364
#     4  10  22  39  62  89 120 155 203 254 301 361
#     4  11  23  38  63  89 124 165 205 252 309 368
#     4  10  22  40  61  89 125 162 205 255 302 370
#     4  10  22  41  64  90 121 159 205 255 310 365
#
# _framework density 20.459237000000002
#
# number of rings (size 3 to 8) (size 9 to 14) (size 15 to 20)
#    0.000    1.429    2.857    2.571    0.000    3.429 
#    0.000    7.143    0.000    0.000    0.000    0.000 
#    0.000    0.000    0.000    0.000    0.000    0.000 
#
# Total GULP energy -347226.292557 kJ/mol
# GULP energy per Si atom -12400.939020 kJ/mol
# Density = 2.041267 g / cm^3
# Si number density = 20.459237 Si / 1000 Ang^3
#
#
#
# Elastic Constant Matrix: (Units=GPa)
#
#
# Indices 1 2 3 4 5 6 
#
# 1 69.9453 22.0576 26.4907 0.0000 6.1124 0.0000
# 2 22.0576 85.0849 15.2287 0.0000 4.3746 0.0000
# 3 26.4907 15.2287 86.5061 0.0000 6.4338 0.0000
# 4 0.0000 0.0000 0.0000 27.8217 0.0000 -0.0244
# 5 6.1124 4.3746 6.4338 0.0000 35.7680 0.0000
# 6 0.0000 0.0000 0.0000 -0.0244 0.0000 32.1226
#
#
#
# Elastic Compliance Matrix: (Units=1/GPa)
#
#
# Indices 1 2 3 4 5 6 
#
# 1 0.017295 -0.003584 -0.004539 0.000000 -0.001701 0.000000
# 2 -0.003584 0.012922 -0.001120 0.000000 -0.000766 0.000000
# 3 -0.004539 -0.001120 0.013256 0.000000 -0.001472 0.000000
# 4 0.000000 0.000000 0.000000 0.035943 0.000000 0.000027
# 5 -0.001701 -0.000766 -0.001472 0.000000 0.028607 0.000000
# 6 0.000000 0.000000 0.000000 0.000027 0.000000 0.031131
#
#
# Mechanical properties :
#
#
# Convention : Reuss Voigt Hill
#
# Bulk Modulus (GPa) = 40.02011 41.01002 40.51507
# Shear Modulus (GPa) = 30.12613 30.99307 30.55960
#
# Velocity S-wave (km/s) = 3.84147 3.89635 3.86901
# Velocity P-wave (km/s) = 6.26732 6.35062 6.30911
#
# Compressibility (1/GPa) = 0.02498744
#
# Stress axis : x y z
#
# Youngs Moduli (GPa) = 57.82141 77.38771 75.43479
#
# Poissons Ratio (x) = 0.27733 0.34238
# Poissons Ratio (y) = 0.20721 0.08451
# Poissons Ratio (z) = 0.26244 0.08670
#
# Static dielectric constant tensor:
#      x y z
#    x 3.761780 0.000000 0.117260 
#    y 0.000000 3.551710 0.000000 
#    z 0.117260 0.000000 3.974750 
# 
# 
# High freq. dielectric constant tensor:
#      x y z
#    x 1.802040 0.000000 0.004090 
#    y 0.000000 1.795700 0.000000 
#    z 0.004090 0.000000 1.806970 
# 
# From -- ./inp_files/198783.got.cif
#   From: 2010.06.25/outbox.cif.g09.slc.cpg/sg12_100_cif.got.tgz:198783.got - 2010.06.28 00:19:55.
