data_PCOD8111989
_publ_section_title
;
Structure prediction by ZEFSAII (Michael W. Deem and Ramdas Pophale) SiO2 
 PCOD8111989
Probable space group: C 2/M
;
_chemical_formula_sum "Si O2"
_cell_formula_units_Z 56
_cell_length_a 19.003185
_cell_length_b 18.165451
_cell_length_c 18.911900
_cell_angle_alpha 90.000000
_cell_angle_beta 24.777431
_cell_angle_gamma 90.000000
_cell_volume 2736.022582
_symmetry_space_group_name_H-M "C 2/M"
_symmetry_group_IT_number 12
_symmetry_cell_setting 'monoclinic'
loop_
_space_group_symop_operation_xyz
x,y,z
-x,y,-z
-x,-y,-z
x,-y,z
1/2+x,1/2+y,z
1/2-x,1/2+y,-z
1/2-x,1/2-y,-z
1/2+x,1/2-y,z
loop_
_atom_site_type_symbol
_atom_site_label
_atom_site_fract_x
_atom_site_fract_y
_atom_site_fract_z
Si Si1 0.526581 0.204895 0.897127
Si Si2 0.664150 0.080909 0.006853
Si Si3 0.063335 0.659718 0.518687
Si Si4 0.800587 0.585642 0.863957
Si Si5 0.113251 0.171029 0.459234
Si Si6 0.048500 0.918343 0.652110
Si Si7 0.441417 0.647837 0.208090
O O1 0.404918 0.139616 0.985302
O O2 0.707702 0.171192 0.739108
O O3 0.514661 0.267854 0.848806
O O4 0.500000 0.237524 0.000000
O O5 0.650229 0.107783 0.100849
O O6 0.578267 0.000000 0.076747
O O7 0.855388 0.073004 0.810796
O O8 0.054652 0.747687 0.536985
O O9 0.255150 0.628407 0.347900
O O10 0.000000 0.635359 0.500000
O O11 0.931776 0.628300 0.695252
O O12 0.826365 0.500000 0.826824
O O13 0.601145 0.601998 0.031497
O O14 0.134355 0.117482 0.506259
O O15 0.000000 0.138085 0.500000
O O16 0.077466 0.864244 0.691346
O O17 0.125308 0.000000 0.597261
#
# Coordination Sequence:
#
# PCOD8111989 Si02
#       7
#     8   8   8   8   8   8   8
#     4  11  24  38  64  95 123 169 214 258 320 375
#     4   9  21  40  60  92 127 161 208 261 317 385
#     4  10  24  41  63  93 128 165 213 272 314 376
#     4  10  23  41  65  92 125 169 212 260 325 380
#     4  10  23  40  62  94 129 163 209 260 318 381
#     4  10  22  41  65  92 127 169 209 260 320 377
#     4  10  24  40  66  94 129 164 216 262 314 378
#
# _framework density 20.467666999999999
#
# number of rings (size 3 to 8) (size 9 to 14) (size 15 to 20)
#    0.000    2.000    0.000    2.143   12.000    4.857 
#    0.000    0.714    0.000    0.000    0.000    0.000 
#    0.000    0.000    0.000    0.000    0.000    0.000 
#
# Total GULP energy -346993.874450 kJ/mol
# GULP energy per Si atom -12392.638373 kJ/mol
# Density = 2.042108 g / cm^3
# Si number density = 20.467667 Si / 1000 Ang^3
#
#
#
# Elastic Constant Matrix: (Units=GPa)
#
#
# Indices 1 2 3 4 5 6 
#
# 1 109.1611 58.6047 36.4741 0.0020 2.8903 0.0085
# 2 58.6047 80.4708 24.9325 0.0668 3.6824 -0.0215
# 3 36.4741 24.9325 99.9814 0.0568 6.9595 -0.0122
# 4 0.0020 0.0668 0.0568 55.3362 -0.0108 -8.8162
# 5 2.8903 3.6824 6.9595 -0.0108 36.7085 -0.0033
# 6 0.0085 -0.0215 -0.0122 -8.8162 -0.0033 18.2563
#
#
#
# Elastic Compliance Matrix: (Units=1/GPa)
#
#
# Indices 1 2 3 4 5 6 
#
# 1 0.015919 -0.010625 -0.003187 0.000013 0.000417 -0.000016
# 2 -0.010625 0.020578 -0.001186 -0.000021 -0.001003 0.000018
# 3 -0.003187 -0.001186 0.011587 -0.000010 -0.001827 0.000003
# 4 0.000013 -0.000021 -0.000010 0.019578 0.000010 0.009454
# 5 0.000417 -0.001003 -0.001827 0.000010 0.027656 0.000007
# 6 -0.000016 0.000018 0.000003 0.009454 0.000007 0.059341
#
#
# Mechanical properties :
#
#
# Convention : Reuss Voigt Hill
#
# Bulk Modulus (GPa) = 55.28125 58.84841 57.06483
# Shear Modulus (GPa) = 26.22154 33.36699 29.79426
#
# Velocity S-wave (km/s) = 3.58316 4.04199 3.81947
# Velocity P-wave (km/s) = 6.64728 7.11322 6.88419
#
# Compressibility (1/GPa) = 0.01808931
#
# Stress axis : x y z
#
# Youngs Moduli (GPa) = 62.81960 48.59585 86.30168
#
# Poissons Ratio (x) = 0.51632 0.27502
# Poissons Ratio (y) = 0.66745 0.10233
# Poissons Ratio (z) = 0.20019 0.05762
#
# Static dielectric constant tensor:
#      x y z
#    x 3.795960 0.000070 -0.113530 
#    y 0.000070 3.962380 0.000220 
#    z -0.113530 0.000220 3.824570 
# 
# 
# High freq. dielectric constant tensor:
#      x y z
#    x 1.798490 0.000000 -0.000520 
#    y 0.000000 1.793710 0.000010 
#    z -0.000520 0.000010 1.812710 
# 
# From -- ./inp_files/106052.got.cif
#   From: 2010.06.25/outbox.cif.g09.slc.cpg/sg12_54_cif.got.tgz:106052.got - 2010.06.28 00:19:55.
