data_PCOD8111452
_publ_section_title
;
Structure prediction by ZEFSAII (Michael W. Deem and Ramdas Pophale) SiO2 
 PCOD8111452
Probable space group: C 2/M
;
_chemical_formula_sum "Si O2"
_cell_formula_units_Z 56
_cell_length_a 15.903904
_cell_length_b 8.803318
_cell_length_c 22.728072
_cell_angle_alpha 90.000000
_cell_angle_beta 58.464145
_cell_angle_gamma 90.000000
_cell_volume 2712.138458
_symmetry_space_group_name_H-M "C 2/M"
_symmetry_group_IT_number 12
_symmetry_cell_setting 'monoclinic'
loop_
_space_group_symop_operation_xyz
x,y,z
-x,y,-z
-x,-y,-z
x,-y,z
1/2+x,1/2+y,z
1/2-x,1/2+y,-z
1/2-x,1/2-y,-z
1/2+x,1/2-y,z
loop_
_atom_site_type_symbol
_atom_site_label
_atom_site_fract_x
_atom_site_fract_y
_atom_site_fract_z
Si Si1 0.166561 0.822549 0.070138
Si Si2 0.201099 0.675652 0.786774
Si Si3 0.507932 0.825746 0.929226
Si Si4 0.278658 0.676607 0.338195
Si Si5 0.632901 0.177777 0.205161
Si Si6 0.469197 0.324154 0.333877
Si Si7 0.934894 0.820871 0.578936
O O1 0.174312 0.760393 0.132755
O O2 0.060115 0.785524 0.082898
O O3 0.184851 0.000000 0.065435
O O4 0.250000 0.750000 0.000000
O O5 0.231468 0.500000 0.770973
O O6 0.118308 0.700295 0.866418
O O7 0.167833 0.736885 0.735493
O O8 0.296632 0.774761 0.767189
O O9 0.474404 0.000000 0.931641
O O10 0.500000 0.779874 0.000000
O O11 0.269010 0.500000 0.326373
O O12 0.351337 0.701374 0.367935
O O13 0.170701 0.742257 0.389811
O O14 0.523469 0.229928 0.262644
O O15 0.633870 0.000000 0.193031
O O16 0.496583 0.500000 0.315154
O O17 0.505245 0.267800 0.384797
O O18 0.000000 0.769149 0.500000
O O19 0.916990 0.000000 0.586161
#
# Coordination Sequence:
#
# PCOD8111452 Si02
#       7
#     8   8   8   8   8   8   8
#     4  12  25  41  61  86 121 162 207 261 319 379
#     4  11  22  38  62  90 124 165 207 261 323 380
#     4  10  22  40  61  87 120 160 208 260 318 382
#     4  11  23  39  62  94 128 168 217 269 319 379
#     4  12  24  39  63  93 124 162 212 263 316 379
#     4  10  22  41  64  93 132 171 212 263 323 382
#     4  10  22  42  67  94 129 174 218 264 324 391
#
# _framework density 20.647912999999999
#
# number of rings (size 3 to 8) (size 9 to 14) (size 15 to 20)
#    0.000    1.143    1.429    5.143    0.000    6.857 
#    0.000    0.000    0.000    0.000    0.000    0.000 
#    0.000    0.000    0.000    0.000    0.000    0.000 
#
# Total GULP energy -347310.347274 kJ/mol
# GULP energy per Si atom -12403.940974 kJ/mol
# Density = 2.060092 g / cm^3
# Si number density = 20.647913 Si / 1000 Ang^3
#
#
#
# Elastic Constant Matrix: (Units=GPa)
#
#
# Indices 1 2 3 4 5 6 
#
# 1 132.0461 45.0500 50.0977 0.0000 -5.1398 0.0001
# 2 45.0500 116.1985 46.4531 0.0000 -3.5172 0.0002
# 3 50.0977 46.4531 134.2596 0.0000 -1.8006 0.0000
# 4 0.0000 0.0000 0.0000 29.5911 0.0000 -4.1909
# 5 -5.1398 -3.5172 -1.8006 0.0000 27.2716 0.0000
# 6 0.0001 0.0002 0.0000 -4.1909 0.0000 26.4584
#
#
#
# Elastic Compliance Matrix: (Units=1/GPa)
#
#
# Indices 1 2 3 4 5 6 
#
# 1 0.009507 -0.002595 -0.002633 0.000000 0.001283 0.000000
# 2 -0.002595 0.010726 -0.002734 0.000000 0.000714 0.000000
# 3 -0.002633 -0.002734 0.009373 0.000000 -0.000230 0.000000
# 4 0.000000 0.000000 0.000000 0.034569 0.000000 0.005476
# 5 0.001283 0.000714 -0.000230 0.000000 0.036987 0.000000
# 6 0.000000 0.000000 0.000000 0.005476 0.000000 0.038663
#
#
# Mechanical properties :
#
#
# Convention : Reuss Voigt Hill
#
# Bulk Modulus (GPa) = 73.07117 73.96731 73.51924
# Shear Modulus (GPa) = 31.18986 32.72445 31.95715
#
# Velocity S-wave (km/s) = 3.89081 3.98537 3.93837
# Velocity P-wave (km/s) = 7.45992 7.55503 7.50763
#
# Compressibility (1/GPa) = 0.01368529
#
# Stress axis : x y z
#
# Youngs Moduli (GPa) = 105.18529 93.22902 106.68642
#
# Poissons Ratio (x) = 0.24189 0.28086
# Poissons Ratio (y) = 0.27291 0.29163
# Poissons Ratio (z) = 0.27690 0.25484
#
# Static dielectric constant tensor:
#      x y z
#    x 3.874120 0.000000 0.058430 
#    y 0.000000 5.217590 0.000000 
#    z 0.058430 0.000000 3.816110 
# 
# 
# High freq. dielectric constant tensor:
#      x y z
#    x 1.819500 0.000000 0.000540 
#    y 0.000000 1.806850 0.000000 
#    z 0.000540 0.000000 1.809580 
# 
# From -- ./inp_files/338466.got.cif
#   From: 2010.06.25/outbox.cif.g09.slc.cpg/sg12_170_cif.got.tgz:338466.got - 2010.06.28 00:19:55.
