data_PCOD8111517
_publ_section_title
;
Structure prediction by ZEFSAII (Michael W. Deem and Ramdas Pophale) SiO2 
 PCOD8111517
Probable space group: C 2/M
;
_chemical_formula_sum "Si O2"
_cell_formula_units_Z 48
_cell_length_a 9.024577
_cell_length_b 22.823297
_cell_length_c 19.498613
_cell_angle_alpha 90.000000
_cell_angle_beta 39.078305
_cell_angle_gamma 90.000000
_cell_volume 2531.702672
_symmetry_space_group_name_H-M "C 2/M"
_symmetry_group_IT_number 12
_symmetry_cell_setting 'monoclinic'
loop_
_space_group_symop_operation_xyz
x,y,z
-x,y,-z
-x,-y,-z
x,-y,z
1/2+x,1/2+y,z
1/2-x,1/2+y,-z
1/2-x,1/2-y,-z
1/2+x,1/2-y,z
loop_
_atom_site_type_symbol
_atom_site_label
_atom_site_fract_x
_atom_site_fract_y
_atom_site_fract_z
Si Si1 0.741235 0.931893 0.608453
Si Si2 0.063576 0.142868 0.205744
Si Si3 0.210879 0.436428 0.977726
Si Si4 0.060456 0.377241 0.812572
Si Si5 0.881940 0.433316 0.615842
Si Si6 0.729433 0.762849 0.085615
O O1 0.640257 0.902758 0.712377
O O2 0.574133 0.918822 0.604352
O O3 0.000000 0.905817 0.500000
O O4 0.762931 0.000000 0.616574
O O5 0.110787 0.110587 0.116554
O O6 0.222713 0.126330 0.213151
O O7 0.111510 0.211076 0.173229
O O8 0.803599 0.120254 0.317186
O O9 0.332765 0.500000 0.939081
O O10 0.000000 0.438643 0.000000
O O11 0.132190 0.418688 0.082255
O O12 0.944077 0.315715 0.836726
O O13 0.777349 0.500000 0.664633
O O14 0.000000 0.431368 0.500000
O O15 0.750000 0.750000 0.000000
O O16 0.000000 0.777597 0.000000
#
# Coordination Sequence:
#
# PCOD8111517 Si02
#       6
#     8   8   8   8   8   8
#     4  10  22  40  62  90 122 157 197 245 303 356
#     4  11  21  37  58  87 118 159 203 241 297 357
#     4   9  17  30  51  82 116 149 189 235 289 353
#     4  11  22  36  60  87 120 157 200 248 297 352
#     4  10  22  40  63  90 121 158 198 244 299 360
#     4  12  23  41  60  86 122 163 206 246 296 357
#
# _framework density 18.959572999999999
#
# number of rings (size 3 to 8) (size 9 to 14) (size 15 to 20)
#    0.000    1.500    3.333    2.500    2.333    3.333 
#    0.000    0.833    0.000    8.000    0.000    0.000 
#    0.000    0.000    0.000    0.000    0.000    0.000 
#
# Total GULP energy -297364.000164 kJ/mol
# GULP energy per Si atom -12390.166674 kJ/mol
# Density = 1.891642 g / cm^3
# Si number density = 18.959573 Si / 1000 Ang^3
#
#
#
# Elastic Constant Matrix: (Units=GPa)
#
#
# Indices 1 2 3 4 5 6 
#
# 1 115.9493 34.3651 59.9276 -0.0002 10.5726 0.0003
# 2 34.3651 88.9099 48.8179 0.0000 1.5924 -0.0001
# 3 59.9276 48.8179 122.4540 -0.0017 11.9754 -0.0009
# 4 -0.0002 0.0000 -0.0017 11.2893 -0.0005 -10.9356
# 5 10.5726 1.5924 11.9754 -0.0005 42.1318 -0.0004
# 6 0.0003 -0.0001 -0.0009 -10.9356 -0.0004 22.9090
#
#
#
# Elastic Compliance Matrix: (Units=1/GPa)
#
#
# Indices 1 2 3 4 5 6 
#
# 1 0.011851 -0.001856 -0.004912 -0.000002 -0.001508 -0.000001
# 2 -0.001856 0.014741 -0.005101 -0.000002 0.001359 -0.000001
# 3 -0.004912 -0.005101 0.012821 0.000004 -0.002219 0.000003
# 4 -0.000002 -0.000002 0.000004 0.164765 0.000002 0.078650
# 5 -0.001508 0.001359 -0.002219 0.000002 0.024693 0.000001
# 6 -0.000001 -0.000001 0.000003 0.078650 0.000001 0.081194
#
#
# Mechanical properties :
#
#
# Convention : Reuss Voigt Hill
#
# Bulk Modulus (GPa) = 63.80131 68.17048 65.98589
# Shear Modulus (GPa) = 14.74798 27.54622 21.14710
#
# Velocity S-wave (km/s) = 2.79205 3.81582 3.34335
# Velocity P-wave (km/s) = 6.64216 7.44632 7.05571
#
# Compressibility (1/GPa) = 0.01567366
#
# Stress axis : x y z
#
# Youngs Moduli (GPa) = 84.38120 67.83572 77.99721
#
# Poissons Ratio (x) = 0.12593 0.38314
# Poissons Ratio (y) = 0.15665 0.39788
# Poissons Ratio (z) = 0.41450 0.34605
#
# Static dielectric constant tensor:
#      x y z
#    x 3.475710 0.000000 0.041140 
#    y 0.000000 3.507340 0.000000 
#    z 0.041140 0.000000 3.483640 
# 
# 
# High freq. dielectric constant tensor:
#      x y z
#    x 1.742750 0.000000 0.009190 
#    y 0.000000 1.733560 0.000000 
#    z 0.009190 0.000000 1.735940 
# 
# From -- ./inp_files/122565.got.cif
#   From: 2010.06.25/outbox.cif.g09.slc.cpg/sg12_62_cif.got.tgz:122565.got - 2010.06.28 00:19:55.
