data_PCOD8111877
_publ_section_title
;
Structure prediction by ZEFSAII (Michael W. Deem and Ramdas Pophale) SiO2 
 PCOD8111877
Probable space group: C 2/M
;
_chemical_formula_sum "Si O2"
_cell_formula_units_Z 64
_cell_length_a 30.267290
_cell_length_b 14.844078
_cell_length_c 9.769985
_cell_angle_alpha 90.000000
_cell_angle_beta 46.698870
_cell_angle_gamma 90.000000
_cell_volume 3194.540407
_symmetry_space_group_name_H-M "C 2/M"
_symmetry_group_IT_number 12
_symmetry_cell_setting 'monoclinic'
loop_
_space_group_symop_operation_xyz
x,y,z
-x,y,-z
-x,-y,-z
x,-y,z
1/2+x,1/2+y,z
1/2-x,1/2+y,-z
1/2-x,1/2-y,-z
1/2+x,1/2-y,z
loop_
_atom_site_type_symbol
_atom_site_label
_atom_site_fract_x
_atom_site_fract_y
_atom_site_fract_z
Si Si1 0.931114 0.760557 0.658593
Si Si2 0.672004 0.398030 0.171900
Si Si3 0.929376 0.396479 0.165540
Si Si4 0.735656 0.338582 0.295007
Si Si5 0.132603 0.273391 0.926992
Si Si6 0.771045 0.357951 0.746205
Si Si7 0.398328 0.099640 0.537200
Si Si8 0.691936 0.400770 0.679637
O O1 0.888023 0.837193 0.684735
O O2 0.926481 0.667319 0.586079
O O3 0.000000 0.795829 0.500000
O O4 0.915316 0.740515 0.849758
O O5 0.652935 0.500000 0.175146
O O6 0.713341 0.401941 0.219746
O O7 0.710976 0.354958 0.967033
O O8 0.911227 0.500000 0.176184
O O9 0.895168 0.334387 0.131279
O O10 0.911664 0.366498 0.355737
O O11 0.000000 0.380524 0.000000
O O12 0.808154 0.324900 0.141949
O O13 0.704754 0.242139 0.335125
O O14 0.712014 0.380781 0.484136
O O15 0.147177 0.175461 0.832117
O O16 0.825218 0.409004 0.707887
O O17 0.753360 0.403939 0.640044
O O18 0.426239 0.000000 0.504089
O O19 0.660782 0.500000 0.751359
#
# Coordination Sequence:
#
# PCOD8111877 Si02
#       8
#     8   8   8   8   8   8   8   8
#     4  12  26  43  63  88 125 172 220 265 305 366
#     4  12  24  41  64  91 125 165 209 262 318 374
#     4  10  22  41  63  90 127 169 214 261 308 370
#     4  11  21  38  63  93 127 159 196 261 323 376
#     4  11  23  39  65  93 127 169 209 256 317 370
#     4  11  20  38  63  91 126 162 200 250 320 383
#     4  11  22  38  64  94 124 162 207 259 318 376
#     4  11  22  37  60  96 134 163 198 248 313 381
#
# _framework density 20.034179999999999
#
# number of rings (size 3 to 8) (size 9 to 14) (size 15 to 20)
#    0.000    0.875    3.750    6.375    0.000    3.000 
#    0.000    0.000    0.000    0.375    0.000    0.000 
#    0.000    0.000    0.000    0.000    0.000    0.000 
#
# Total GULP energy -396833.785561 kJ/mol
# GULP energy per Si atom -12401.055799 kJ/mol
# Density = 1.998858 g / cm^3
# Si number density = 20.034180 Si / 1000 Ang^3
#
#
#
# Elastic Constant Matrix: (Units=GPa)
#
#
# Indices 1 2 3 4 5 6 
#
# 1 76.4013 49.0156 43.1176 0.0000 2.4311 0.0000
# 2 49.0156 121.9012 40.5648 0.0000 1.6025 0.0000
# 3 43.1176 40.5648 104.2187 0.0000 1.2887 0.0000
# 4 0.0000 0.0000 0.0000 25.4856 0.0000 8.0790
# 5 2.4311 1.6025 1.2887 0.0000 33.9442 0.0000
# 6 0.0000 0.0000 0.0000 8.0790 0.0000 59.9253
#
#
#
# Elastic Compliance Matrix: (Units=1/GPa)
#
#
# Indices 1 2 3 4 5 6 
#
# 1 0.020534 -0.006228 -0.006060 0.000000 -0.000947 0.000000
# 2 -0.006228 0.011316 -0.001828 0.000000 -0.000019 0.000000
# 3 -0.006060 -0.001828 0.012813 0.000000 0.000034 0.000000
# 4 0.000000 0.000000 0.000000 0.040990 0.000000 -0.005526
# 5 -0.000947 -0.000019 0.000034 0.000000 0.029528 0.000000
# 6 0.000000 0.000000 0.000000 -0.005526 0.000000 0.017432
#
#
# Mechanical properties :
#
#
# Convention : Reuss Voigt Hill
#
# Bulk Modulus (GPa) = 60.85307 63.10193 61.97750
# Shear Modulus (GPa) = 30.06234 35.19254 32.62744
#
# Velocity S-wave (km/s) = 3.87790 4.19576 4.03996
# Velocity P-wave (km/s) = 7.10573 7.41876 7.26393
#
# Compressibility (1/GPa) = 0.01643303
#
# Stress axis : x y z
#
# Youngs Moduli (GPa) = 48.69922 88.37093 78.04428
#
# Poissons Ratio (x) = 0.55035 0.47293
# Poissons Ratio (y) = 0.30329 0.14264
# Poissons Ratio (z) = 0.29511 0.16152
#
# Static dielectric constant tensor:
#      x y z
#    x 3.577010 0.000000 0.103710 
#    y 0.000000 3.694790 0.000000 
#    z 0.103710 0.000000 3.688890 
# 
# 
# High freq. dielectric constant tensor:
#      x y z
#    x 1.774100 0.000000 0.016250 
#    y 0.000000 1.788480 0.000000 
#    z 0.016250 0.000000 1.783870 
# 
# From -- ./inp_files/111938.got.cif
#   From: 2010.06.25/outbox.cif.g09.slc.cpg/sg12_56_cif.got.tgz:111938.got - 2010.06.28 00:19:55.
