data_PCOD8111574
_publ_section_title
;
Structure prediction by ZEFSAII (Michael W. Deem and Ramdas Pophale) SiO2 
 PCOD8111574
Probable space group: C 2/M
;
_chemical_formula_sum "Si O2"
_cell_formula_units_Z 56
_cell_length_a 17.726953
_cell_length_b 8.640484
_cell_length_c 28.465225
_cell_angle_alpha 90.000000
_cell_angle_beta 141.048244
_cell_angle_gamma 90.000000
_cell_volume 2740.984744
_symmetry_space_group_name_H-M "C 2/M"
_symmetry_group_IT_number 12
_symmetry_cell_setting 'monoclinic'
loop_
_space_group_symop_operation_xyz
x,y,z
-x,y,-z
-x,-y,-z
x,-y,z
1/2+x,1/2+y,z
1/2-x,1/2+y,-z
1/2-x,1/2-y,-z
1/2+x,1/2-y,z
loop_
_atom_site_type_symbol
_atom_site_label
_atom_site_fract_x
_atom_site_fract_y
_atom_site_fract_z
Si Si1 0.297605 0.819774 0.570923
Si Si2 0.134916 0.680714 0.572293
Si Si3 0.224856 0.821613 0.709624
Si Si4 0.948690 0.178991 0.289066
Si Si5 0.919988 0.179236 0.005807
Si Si6 0.832873 0.179896 0.134651
Si Si7 0.999763 0.679307 0.860176
O O1 0.250000 0.750000 0.500000
O O2 0.222908 0.763312 0.579077
O O3 0.436362 0.781795 0.644832
O O4 0.280497 0.000000 0.558648
O O5 0.141313 0.500000 0.564994
O O6 0.175634 0.713771 0.644781
O O7 0.000000 0.743542 0.500000
O O8 0.151572 0.784707 0.720991
O O9 0.361544 0.778254 0.785957
O O10 0.210778 0.000000 0.687667
O O11 0.896161 0.228246 0.213570
O O12 0.987446 0.000000 0.308224
O O13 0.782876 0.214410 0.927537
O O14 0.933068 0.000000 0.026288
O O15 0.000000 0.221996 0.000000
O O16 0.964528 0.287265 0.069261
O O17 0.923668 0.211540 0.136403
O O18 0.796002 0.000000 0.116878
O O19 0.025463 0.500000 0.861328
#
# Coordination Sequence:
#
# PCOD8111574 Si02
#       7
#     8   8   8   8   8   8   8
#     4  12  25  41  63  90 122 160 201 247 299 354
#     4  11  24  41  62  90 122 158 201 247 298 355
#     4  10  22  40  63  91 121 157 199 245 299 355
#     4  10  22  41  64  91 123 158 199 246 298 356
#     4  11  24  41  62  89 120 156 200 249 301 356
#     4  11  23  40  63  90 122 160 200 245 298 354
#     4  11  23  40  62  89 122 158 200 247 297 356
#
# _framework density 20.430613000000001
#
# number of rings (size 3 to 8) (size 9 to 14) (size 15 to 20)
#    0.000    1.143    0.000    6.000    0.000   10.857 
#    0.000    0.000    0.000    0.000    0.000    0.000 
#    0.000    0.000    0.000    0.000    0.000    0.000 
#
# Total GULP energy -347429.477761 kJ/mol
# GULP energy per Si atom -12408.195634 kJ/mol
# Density = 2.038411 g / cm^3
# Si number density = 20.430613 Si / 1000 Ang^3
#
#
#
# Elastic Constant Matrix: (Units=GPa)
#
#
# Indices 1 2 3 4 5 6 
#
# 1 131.6485 27.2042 50.1848 0.0000 5.1333 0.0000
# 2 27.2042 61.3343 26.6751 0.0001 0.2424 0.0000
# 3 50.1848 26.6751 134.5366 0.0000 -2.0819 0.0000
# 4 0.0000 0.0001 0.0000 28.5799 0.0000 15.5430
# 5 5.1333 0.2424 -2.0819 0.0000 43.5999 0.0000
# 6 0.0000 0.0000 0.0000 15.5430 0.0000 51.9438
#
#
#
# Elastic Compliance Matrix: (Units=1/GPa)
#
#
# Indices 1 2 3 4 5 6 
#
# 1 0.009357 -0.002866 -0.002941 0.000000 -0.001226 0.000000
# 2 -0.002866 0.018724 -0.002642 0.000000 0.000107 0.000000
# 3 -0.002941 -0.002642 0.009066 0.000000 0.000794 0.000000
# 4 0.000000 0.000000 0.000000 0.041790 0.000000 -0.012505
# 5 -0.001226 0.000107 0.000794 0.000000 0.023117 0.000000
# 6 0.000000 0.000000 0.000000 -0.012505 0.000000 0.022993
#
#
# Mechanical properties :
#
#
# Convention : Reuss Voigt Hill
#
# Bulk Modulus (GPa) = 49.38487 59.51639 54.45063
# Shear Modulus (GPa) = 33.62566 39.72176 36.67371
#
# Velocity S-wave (km/s) = 4.06131 4.41412 4.24138
# Velocity P-wave (km/s) = 6.79829 7.42789 7.12005
#
# Compressibility (1/GPa) = 0.02024912
#
# Stress axis : x y z
#
# Youngs Moduli (GPa) = 106.86883 53.40775 110.30165
#
# Poissons Ratio (x) = 0.15309 0.32441
# Poissons Ratio (y) = 0.30632 0.29137
# Poissons Ratio (z) = 0.31431 0.14108
#
# Static dielectric constant tensor:
#      x y z
#    x 3.868290 0.000000 0.032710 
#    y 0.000000 3.690000 0.000000 
#    z 0.032710 0.000000 3.739400 
# 
# 
# High freq. dielectric constant tensor:
#      x y z
#    x 1.817550 0.000000 0.000200 
#    y 0.000000 1.802040 0.000000 
#    z 0.000200 0.000000 1.815420 
# 
# From -- ./inp_files/363162.got.cif
#   From: 2010.06.25/outbox.cif.g09.slc.cpg/sg12_182_cif.got.tgz:363162.got - 2010.06.28 00:19:55.
