data_PCOD8111714
_publ_section_title
;
Structure prediction by ZEFSAII (Michael W. Deem and Ramdas Pophale) SiO2 
 PCOD8111714
Probable space group: C 2/M
;
_chemical_formula_sum "Si O2"
_cell_formula_units_Z 56
_cell_length_a 17.701734
_cell_length_b 12.772899
_cell_length_c 18.683252
_cell_angle_alpha 90.000000
_cell_angle_beta 42.566843
_cell_angle_gamma 90.000000
_cell_volume 2857.547003
_symmetry_space_group_name_H-M "C 2/M"
_symmetry_group_IT_number 12
_symmetry_cell_setting 'monoclinic'
loop_
_space_group_symop_operation_xyz
x,y,z
-x,y,-z
-x,-y,-z
x,-y,z
1/2+x,1/2+y,z
1/2-x,1/2+y,-z
1/2-x,1/2-y,-z
1/2+x,1/2-y,z
loop_
_atom_site_type_symbol
_atom_site_label
_atom_site_fract_x
_atom_site_fract_y
_atom_site_fract_z
Si Si1 0.231342 0.622030 0.434140
Si Si2 0.512685 0.785706 0.069847
Si Si3 0.921171 0.381766 0.836710
Si Si4 0.232347 0.217407 0.739859
Si Si5 0.566607 0.739871 0.634648
Si Si6 0.198803 0.879961 0.912315
Si Si7 0.422325 0.620904 0.622649
O O1 0.222446 0.500000 0.456615
O O2 0.231085 0.641565 0.349639
O O3 0.342711 0.664811 0.393141
O O4 0.122556 0.677136 0.542468
O O5 0.568935 0.867716 0.084575
O O6 0.394467 0.751330 0.183829
O O7 0.500000 0.838270 0.000000
O O8 0.588606 0.682796 0.010002
O O9 0.955049 0.500000 0.792275
O O10 0.793103 0.359958 0.905870
O O11 0.002845 0.301401 0.741093
O O12 0.250060 0.154429 0.800660
O O13 0.305697 0.322353 0.688763
O O14 0.480293 0.668274 0.652048
O O15 0.162198 0.000000 0.934158
O O16 0.500000 0.635426 0.500000
O O17 0.395354 0.500000 0.656279
#
# Coordination Sequence:
#
# PCOD8111714 Si02
#       7
#     8   8   8   8   8   8   8
#     4  11  23  38  62  94 125 164 204 252 307 365
#     4  10  23  41  63  87 125 159 205 263 306 373
#     4  11  22  40  65  90 122 163 204 259 319 367
#     4  11  21  40  62  93 127 159 206 254 297 375
#     4  11  22  42  61  90 129 160 209 255 301 378
#     4  10  22  40  66  91 121 163 204 258 320 366
#     4  11  23  41  65  92 128 171 208 248 306 367
#
# _framework density 19.597228999999999
#
# number of rings (size 3 to 8) (size 9 to 14) (size 15 to 20)
#    0.000    1.286    4.286    1.714    0.000    4.000 
#    0.000    2.857    0.000    0.000    0.000    0.000 
#    0.000    0.000    0.000    0.000    0.000    0.000 
#
# Total GULP energy -347334.360775 kJ/mol
# GULP energy per Si atom -12404.798599 kJ/mol
# Density = 1.955262 g / cm^3
# Si number density = 19.597229 Si / 1000 Ang^3
#
#
#
# Elastic Constant Matrix: (Units=GPa)
#
#
# Indices 1 2 3 4 5 6 
#
# 1 114.1442 52.3816 47.6005 0.0000 10.9800 0.0000
# 2 52.3816 109.1888 47.2509 0.0000 -3.4664 0.0000
# 3 47.6005 47.2509 93.8738 0.0000 -2.7213 0.0000
# 4 0.0000 0.0000 0.0000 24.8653 0.0000 -5.3364
# 5 10.9800 -3.4664 -2.7213 0.0000 34.2123 0.0000
# 6 0.0000 0.0000 0.0000 -5.3364 0.0000 15.4638
#
#
#
# Elastic Compliance Matrix: (Units=1/GPa)
#
#
# Indices 1 2 3 4 5 6 
#
# 1 0.013237 -0.004530 -0.004579 0.000000 -0.005071 0.000000
# 2 -0.004530 0.013277 -0.004315 0.000000 0.002456 0.000000
# 3 -0.004579 -0.004315 0.015211 0.000000 0.002242 0.000000
# 4 0.000000 0.000000 0.000000 0.043433 0.000000 0.014989
# 5 -0.005071 0.002456 0.002242 0.000000 0.031284 0.000000
# 6 0.000000 0.000000 0.000000 0.014989 0.000000 0.069840
#
#
# Mechanical properties :
#
#
# Convention : Reuss Voigt Hill
#
# Bulk Modulus (GPa) = 67.21326 67.96364 67.58845
# Shear Modulus (GPa) = 22.92650 26.23984 24.58317
#
# Velocity S-wave (km/s) = 3.42407 3.66315 3.54562
# Velocity P-wave (km/s) = 7.07136 7.25583 7.16419
#
# Compressibility (1/GPa) = 0.01487802
#
# Stress axis : x y z
#
# Youngs Moduli (GPa) = 75.54613 75.32054 65.74065
#
# Poissons Ratio (x) = 0.34118 0.30103
# Poissons Ratio (y) = 0.34220 0.28365
# Poissons Ratio (z) = 0.34593 0.32498
#
# Static dielectric constant tensor:
#      x y z
#    x 3.757100 0.000000 0.105700 
#    y 0.000000 3.473540 0.000000 
#    z 0.105700 0.000000 3.577930 
# 
# 
# High freq. dielectric constant tensor:
#      x y z
#    x 1.782220 0.000000 0.003270 
#    y 0.000000 1.760550 0.000000 
#    z 0.003270 0.000000 1.766610 
# 
# From -- ./inp_files/276935.got.cif
#   From: 2010.06.25/outbox.cif.g09.slc.cpg/sg12_139_cif.got.tgz:276935.got - 2010.06.28 00:19:55.
