data_PCOD8111111
_publ_section_title
;
Structure prediction by ZEFSAII (Michael W. Deem and Ramdas Pophale) SiO2 
 PCOD8111111
Probable space group: C 2/M
;
_chemical_formula_sum "Si O2"
_cell_formula_units_Z 64
_cell_length_a 17.198954
_cell_length_b 19.025475
_cell_length_c 9.824252
_cell_angle_alpha 90.000000
_cell_angle_beta 89.466024
_cell_angle_gamma 90.000000
_cell_volume 3214.535132
_symmetry_space_group_name_H-M "C 2/M"
_symmetry_group_IT_number 12
_symmetry_cell_setting 'monoclinic'
loop_
_space_group_symop_operation_xyz
x,y,z
-x,y,-z
-x,-y,-z
x,-y,z
1/2+x,1/2+y,z
1/2-x,1/2+y,-z
1/2-x,1/2-y,-z
1/2+x,1/2-y,z
loop_
_atom_site_type_symbol
_atom_site_label
_atom_site_fract_x
_atom_site_fract_y
_atom_site_fract_z
Si Si1 0.054105 0.839695 0.376835
Si Si2 0.302313 0.578562 0.035291
Si Si3 0.798639 0.422751 0.706524
Si Si4 0.954069 0.144600 0.130821
Si Si5 0.727179 0.837400 0.796397
Si Si6 0.705987 0.420437 0.441047
Si Si7 0.153188 0.275994 0.232341
Si Si8 0.579695 0.202453 0.948627
O O1 0.118291 0.893819 0.428371
O O2 0.094406 0.770438 0.318857
O O3 0.000000 0.814832 0.500000
O O4 0.001491 0.878178 0.263914
O O5 0.322039 0.500000 0.983934
O O6 0.229770 0.577299 0.137658
O O7 0.370439 0.609258 0.127788
O O8 0.284914 0.626304 0.904620
O O9 0.839451 0.500000 0.680025
O O10 0.730234 0.412844 0.597976
O O11 0.852720 0.353535 0.698789
O O12 0.948512 0.229048 0.131857
O O13 0.000000 0.116100 0.000000
O O14 0.732752 0.878447 0.654059
O O15 0.759476 0.757944 0.769436
O O16 0.637108 0.840580 0.846847
O O17 0.708766 0.500000 0.391143
O O18 0.130385 0.275811 0.075967
O O19 0.500000 0.161705 0.000000
#
# Coordination Sequence:
#
# PCOD8111111 Si02
#       8
#     8   8   8   8   8   8   8   8
#     4  11  23  36  59  94 125 159 204 243 291 366
#     4  11  21  34  57  86 116 157 205 246 288 361
#     4  10  22  39  60  82 112 155 205 249 298 354
#     4  11  20  35  53  83 121 158 194 235 307 360
#     4  11  21  35  64  90 115 155 209 250 301 354
#     4  10  23  42  59  86 128 166 198 246 300 351
#     4  11  20  39  63  88 120 158 200 257 300 352
#     4  11  20  36  60  89 118 154 188 253 313 353
#
# _framework density 19.909566000000002
#
# number of rings (size 3 to 8) (size 9 to 14) (size 15 to 20)
#    0.000    1.250    5.000    3.000    0.000    4.000 
#    0.000    0.000    0.000    3.750    0.000    0.000 
#    0.000    0.000    0.000    0.000    0.000    0.000 
#
# Total GULP energy -396660.198423 kJ/mol
# GULP energy per Si atom -12395.631201 kJ/mol
# Density = 1.986425 g / cm^3
# Si number density = 19.909566 Si / 1000 Ang^3
#
#
#
# Elastic Constant Matrix: (Units=GPa)
#
#
# Indices 1 2 3 4 5 6 
#
# 1 73.9412 23.8617 4.6351 0.0000 -19.5547 0.0000
# 2 23.8617 96.4485 18.3767 0.0000 -1.7639 0.0000
# 3 4.6351 18.3767 78.2149 0.0000 -6.9366 0.0000
# 4 0.0000 0.0000 0.0000 20.9596 0.0000 5.6836
# 5 -19.5547 -1.7639 -6.9366 0.0000 34.9597 0.0000
# 6 0.0000 0.0000 0.0000 5.6836 0.0000 9.6232
#
#
#
# Elastic Compliance Matrix: (Units=1/GPa)
#
#
# Indices 1 2 3 4 5 6 
#
# 1 0.017420 -0.004292 0.000836 0.000000 0.009693 0.000000
# 2 -0.004292 0.011912 -0.002752 0.000000 -0.002346 0.000000
# 3 0.000836 -0.002752 0.013652 0.000000 0.003037 0.000000
# 4 0.000000 0.000000 0.000000 0.056809 0.000000 -0.033552
# 5 0.009693 -0.002346 0.003037 0.000000 0.034511 0.000000
# 6 0.000000 0.000000 0.000000 -0.033552 0.000000 0.123731
#
#
# Mechanical properties :
#
#
# Convention : Reuss Voigt Hill
#
# Bulk Modulus (GPa) = 32.71520 38.03906 35.37713
# Shear Modulus (GPa) = 17.81639 26.55725 22.18682
#
# Velocity S-wave (km/s) = 2.99468 3.65621 3.34185
# Velocity P-wave (km/s) = 5.33151 6.08040 5.71823
#
# Compressibility (1/GPa) = 0.03056683
#
# Stress axis : x y z
#
# Youngs Moduli (GPa) = 57.40381 83.95209 73.25044
#
# Poissons Ratio (x) = 0.36031 -0.06121
# Poissons Ratio (y) = 0.24637 0.20161
# Poissons Ratio (z) = -0.04797 0.23106
#
# Static dielectric constant tensor:
#      x y z
#    x 3.613960 0.000000 -0.035390 
#    y 0.000000 3.787710 0.000000 
#    z -0.035390 0.000000 3.633490 
# 
# 
# High freq. dielectric constant tensor:
#      x y z
#    x 1.757960 0.000000 0.000130 
#    y 0.000000 1.765270 0.000000 
#    z 0.000130 0.000000 1.783380 
# 
# From -- ./inp_files/77505.got.cif
#   From: 2010.06.25/outbox.cif.g09.slc.cpg/sg12_39_cif.got.tgz:77505.got - 2010.06.28 00:19:55.
