data_PCOD8111694
_publ_section_title
;
Structure prediction by ZEFSAII (Michael W. Deem and Ramdas Pophale) SiO2 
 PCOD8111694
Probable space group: C 2/M
;
_chemical_formula_sum "Si O2"
_cell_formula_units_Z 32
_cell_length_a 17.354385
_cell_length_b 18.745499
_cell_length_c 9.859109
_cell_angle_alpha 90.000000
_cell_angle_beta 30.355533
_cell_angle_gamma 90.000000
_cell_volume 1620.870772
_symmetry_space_group_name_H-M "C 2/M"
_symmetry_group_IT_number 12
_symmetry_cell_setting 'monoclinic'
loop_
_space_group_symop_operation_xyz
x,y,z
-x,y,-z
-x,-y,-z
x,-y,z
1/2+x,1/2+y,z
1/2-x,1/2+y,-z
1/2-x,1/2-y,-z
1/2+x,1/2-y,z
loop_
_atom_site_type_symbol
_atom_site_label
_atom_site_fract_x
_atom_site_fract_y
_atom_site_fract_z
Si Si1 0.646452 0.081532 0.370496
Si Si2 0.820068 0.205447 0.513457
Si Si3 0.359000 0.918197 0.306807
Si Si4 0.677324 0.718408 0.976957
O O1 0.500000 0.094107 0.500000
O O2 0.603592 0.097706 0.592141
O O3 0.774400 0.136827 0.126873
O O4 0.706762 0.000000 0.263120
O O5 0.750000 0.250000 0.500000
O O6 0.790330 0.123121 0.519628
O O7 0.728898 0.226841 0.784800
O O8 0.996719 0.219980 0.265871
O O9 0.320093 0.000000 0.341845
O O10 0.500000 0.893335 0.000000
O O11 0.750000 0.750000 0.000000
#
# Coordination Sequence:
#
# PCOD8111694 Si02
#       4
#     8   8   8   8
#     4  10  22  41  65  93 129 171 211 256 318 384
#     4  12  24  41  65  93 127 164 211 266 315 368
#     4  10  22  40  65  96 129 167 210 261 320 377
#     4  12  26  43  63  94 129 169 212 261 316 378
#
# _framework density 19.742473
#
# number of rings (size 3 to 8) (size 9 to 14) (size 15 to 20)
#    0.000    1.000    2.500    4.500    3.500    1.000 
#    0.000    2.500    0.000    3.000    0.000    0.000 
#    0.000    0.000    0.000    0.000    0.000    0.000 
#
# Total GULP energy -198411.157925 kJ/mol
# GULP energy per Si atom -12400.697370 kJ/mol
# Density = 1.969754 g / cm^3
# Si number density = 19.742473 Si / 1000 Ang^3
#
#
#
# Elastic Constant Matrix: (Units=GPa)
#
#
# Indices 1 2 3 4 5 6 
#
# 1 145.0714 57.1306 48.1310 0.0008 3.7898 -0.0008
# 2 57.1306 112.7868 40.2049 -0.0007 -0.0553 0.0005
# 3 48.1310 40.2049 65.5049 0.0034 1.2447 -0.0009
# 4 0.0008 -0.0007 0.0034 36.0528 -0.0013 -2.3416
# 5 3.7898 -0.0553 1.2447 -0.0013 45.2177 0.0009
# 6 -0.0008 0.0005 -0.0009 -2.3416 0.0009 40.0731
#
#
#
# Elastic Compliance Matrix: (Units=1/GPa)
#
#
# Indices 1 2 3 4 5 6 
#
# 1 0.009916 -0.003111 -0.005363 0.000000 -0.000687 0.000000
# 2 -0.003111 0.012328 -0.005288 0.000001 0.000421 0.000000
# 3 -0.005363 -0.005288 0.022456 -0.000002 -0.000175 0.000000
# 4 0.000000 0.000001 -0.000002 0.027843 0.000001 0.001627
# 5 -0.000687 0.000421 -0.000175 0.000001 0.022178 0.000000
# 6 0.000000 0.000000 0.000000 0.001627 0.000000 0.025049
#
#
# Mechanical properties :
#
#
# Convention : Reuss Voigt Hill
#
# Bulk Modulus (GPa) = 58.22808 68.25510 63.24159
# Shear Modulus (GPa) = 32.67567 36.12850 34.40209
#
# Velocity S-wave (km/s) = 4.07270 4.28248 4.17891
# Velocity P-wave (km/s) = 7.18844 7.68769 7.44225
#
# Compressibility (1/GPa) = 0.01717384
#
# Stress axis : x y z
#
# Youngs Moduli (GPa) = 100.85036 81.11935 44.53203
#
# Poissons Ratio (x) = 0.25238 0.23883
# Poissons Ratio (y) = 0.31377 0.23550
# Poissons Ratio (z) = 0.54087 0.42898
#
# Static dielectric constant tensor:
#      x y z
#    x 3.617140 0.000000 0.284880 
#    y 0.000000 3.917100 0.000000 
#    z 0.284880 0.000000 3.491410 
# 
# 
# High freq. dielectric constant tensor:
#      x y z
#    x 1.782000 0.000000 0.015310 
#    y 0.000000 1.789510 0.000000 
#    z 0.015310 0.000000 1.765060 
# 
# From -- ./inp_files/38568.got.cif
#   From: 2010.06.25/outbox.cif.g09.slc.cpg/sg12_20_cif.got.tgz:38568.got - 2010.06.28 00:19:55.
