data_PCOD8111767
_publ_section_title
;
Structure prediction by ZEFSAII (Michael W. Deem and Ramdas Pophale) SiO2 
 PCOD8111767
Probable space group: C 2/M
;
_chemical_formula_sum "Si O2"
_cell_formula_units_Z 56
_cell_length_a 14.645515
_cell_length_b 8.859740
_cell_length_c 24.469964
_cell_angle_alpha 90.000000
_cell_angle_beta 63.179044
_cell_angle_gamma 90.000000
_cell_volume 2833.535537
_symmetry_space_group_name_H-M "C 2/M"
_symmetry_group_IT_number 12
_symmetry_cell_setting 'monoclinic'
loop_
_space_group_symop_operation_xyz
x,y,z
-x,y,-z
-x,-y,-z
x,-y,z
1/2+x,1/2+y,z
1/2-x,1/2+y,-z
1/2-x,1/2-y,-z
1/2+x,1/2-y,z
loop_
_atom_site_type_symbol
_atom_site_label
_atom_site_fract_x
_atom_site_fract_y
_atom_site_fract_z
Si Si1 0.629311 0.681168 0.693207
Si Si2 0.417857 0.822918 0.769089
Si Si3 0.570643 0.166349 0.433898
Si Si4 0.677496 0.824731 0.088983
Si Si5 0.099081 0.178255 0.005810
Si Si6 0.779361 0.837893 0.438560
Si Si7 0.830167 0.178046 0.686944
O O1 0.618980 0.500000 0.700118
O O2 0.533293 0.765746 0.744859
O O3 0.637556 0.731757 0.626258
O O4 0.726357 0.734728 0.701542
O O5 0.359364 0.787213 0.840588
O O6 0.361650 0.724370 0.738860
O O7 0.415446 0.000000 0.754988
O O8 0.500000 0.241946 0.500000
O O9 0.682379 0.142906 0.426662
O O10 0.577520 0.273654 0.379180
O O11 0.525577 0.000000 0.430111
O O12 0.603089 0.740383 0.066475
O O13 0.668772 0.000000 0.077528
O O14 0.795847 0.771182 0.052637
O O15 0.089289 0.000000 0.011843
O O16 0.000000 0.243690 0.000000
O O17 0.750000 0.750000 0.500000
O O18 0.818406 0.000000 0.448741
O O19 0.813219 0.000000 0.687182
#
# Coordination Sequence:
#
# PCOD8111767 Si02
#       7
#     8   8   8   8   8   8   8
#     4  10  22  41  59  81 112 149 195 246 297 354
#     4  11  23  39  60  85 119 162 200 243 296 349
#     4   9  19  36  55  77 105 142 185 234 293 353
#     4   9  20  37  56  86 121 152 195 241 283 338
#     4   9  18  35  60  88 120 157 194 234 283 335
#     4   9  19  33  51  76 104 134 173 228 290 351
#     4  11  23  39  58  84 115 151 195 242 296 359
#
# _framework density 19.763297000000001
#
# number of rings (size 3 to 8) (size 9 to 14) (size 15 to 20)
#    0.000    2.286    0.000    3.000    2.000    5.714 
#    0.000    1.429    0.000    0.000    0.000    0.000 
#    0.000    0.000    0.000    0.000    0.000    0.000 
#
# Total GULP energy -347045.369444 kJ/mol
# GULP energy per Si atom -12394.477480 kJ/mol
# Density = 1.971831 g / cm^3
# Si number density = 19.763297 Si / 1000 Ang^3
#
#
#
# Elastic Constant Matrix: (Units=GPa)
#
#
# Indices 1 2 3 4 5 6 
#
# 1 96.0860 19.3367 43.3126 0.0000 5.3673 0.0000
# 2 19.3367 58.2670 39.0943 0.0000 3.5655 0.0000
# 3 43.3126 39.0943 128.8593 0.0000 2.8945 0.0000
# 4 0.0000 0.0000 0.0000 22.7862 0.0000 -0.0306
# 5 5.3673 3.5655 2.8945 0.0000 26.8681 0.0000
# 6 0.0000 0.0000 0.0000 -0.0306 0.0000 28.7131
#
#
#
# Elastic Compliance Matrix: (Units=1/GPa)
#
#
# Indices 1 2 3 4 5 6 
#
# 1 0.012486 -0.001558 -0.003682 0.000000 -0.001891 0.000000
# 2 -0.001558 0.021869 -0.006068 0.000000 -0.001937 0.000000
# 3 -0.003682 -0.006068 0.010830 0.000000 0.000374 0.000000
# 4 0.000000 0.000000 0.000000 0.043886 0.000000 0.000047
# 5 -0.001891 -0.001937 0.000374 0.000000 0.037813 0.000000
# 6 0.000000 0.000000 0.000000 0.000047 0.000000 0.034827
#
#
# Mechanical properties :
#
#
# Convention : Reuss Voigt Hill
#
# Bulk Modulus (GPa) = 44.30436 54.07771 49.19103
# Shear Modulus (GPa) = 26.06196 27.77140 26.91668
#
# Velocity S-wave (km/s) = 3.63534 3.75267 3.69447
# Velocity P-wave (km/s) = 6.33143 6.79697 6.56833
#
# Compressibility (1/GPa) = 0.02257114
#
# Stress axis : x y z
#
# Youngs Moduli (GPa) = 80.08912 45.72694 92.33274
#
# Poissons Ratio (x) = 0.07123 0.33995
# Poissons Ratio (y) = 0.12475 0.56024
# Poissons Ratio (z) = 0.29487 0.27746
#
# Static dielectric constant tensor:
#      x y z
#    x 3.579940 0.000000 -0.146970 
#    y 0.000000 3.871000 0.000000 
#    z -0.146970 0.000000 3.862850 
# 
# 
# High freq. dielectric constant tensor:
#      x y z
#    x 1.767220 0.000000 -0.004150 
#    y 0.000000 1.765740 0.000000 
#    z -0.004150 0.000000 1.774510 
# 
# From -- ./inp_files/338581.got.cif
#   From: 2010.06.25/outbox.cif.g09.slc.cpg/sg12_170_cif.got.tgz:338581.got - 2010.06.28 00:19:55.
