data_PCOD8111360
_publ_section_title
;
Structure prediction by ZEFSAII (Michael W. Deem and Ramdas Pophale) SiO2 
 PCOD8111360
Probable space group: C 2/M
;
_chemical_formula_sum "Si O2"
_cell_formula_units_Z 48
_cell_length_a 19.101660
_cell_length_b 8.829231
_cell_length_c 15.595275
_cell_angle_alpha 90.000000
_cell_angle_beta 103.433180
_cell_angle_gamma 90.000000
_cell_volume 2558.231414
_symmetry_space_group_name_H-M "C 2/M"
_symmetry_group_IT_number 12
_symmetry_cell_setting 'monoclinic'
loop_
_space_group_symop_operation_xyz
x,y,z
-x,y,-z
-x,-y,-z
x,-y,z
1/2+x,1/2+y,z
1/2-x,1/2+y,-z
1/2-x,1/2-y,-z
1/2+x,1/2-y,z
loop_
_atom_site_type_symbol
_atom_site_label
_atom_site_fract_x
_atom_site_fract_y
_atom_site_fract_z
Si Si1 0.199356 0.675505 0.731729
Si Si2 0.929341 0.324110 0.033989
Si Si3 0.067990 0.824431 0.782097
Si Si4 0.405310 0.674608 0.714029
Si Si5 0.775617 0.678163 0.594838
Si Si6 0.661779 0.326093 0.126964
O O1 0.197075 0.500000 0.705516
O O2 0.121278 0.729171 0.738348
O O3 0.223546 0.767962 0.655805
O O4 0.254795 0.702333 0.825964
O O5 0.925869 0.500000 0.057339
O O6 0.929108 0.227011 0.119395
O O7 0.859204 0.280190 0.958511
O O8 0.000000 0.282718 0.000000
O O9 0.989020 0.795823 0.720214
O O10 0.089083 0.000000 0.784226
O O11 0.383439 0.500000 0.694019
O O12 0.358228 0.774055 0.635591
O O13 0.387569 0.721216 0.806458
O O14 0.770881 0.500000 0.585786
O O15 0.750000 0.750000 0.500000
O O16 0.647767 0.500000 0.097392
#
# Coordination Sequence:
#
# PCOD8111360 Si02
#       6
#     8   8   8   8   8   8
#     4  10  22  40  59  84 118 149 186 236 287 338
#     4  11  22  33  51  81 114 149 196 245 282 327
#     4  11  22  37  58  83 115 155 192 233 287 338
#     4   9  19  36  58  84 114 148 189 233 281 337
#     4  11  22  39  65  91 115 146 185 227 277 339
#     4   9  18  35  56  77 107 152 194 235 283 334
#
# _framework density 18.762962000000002
#
# number of rings (size 3 to 8) (size 9 to 14) (size 15 to 20)
#    0.000    1.833    1.667    4.000    0.000    6.000 
#    0.000    0.833    0.000    5.000    0.000    0.000 
#    0.000    0.000    0.000    0.000    0.000    0.000 
#
# Total GULP energy -297695.309054 kJ/mol
# GULP energy per Si atom -12403.971211 kJ/mol
# Density = 1.872026 g / cm^3
# Si number density = 18.762962 Si / 1000 Ang^3
#
#
#
# Elastic Constant Matrix: (Units=GPa)
#
#
# Indices 1 2 3 4 5 6 
#
# 1 105.9687 46.4017 39.2200 0.0000 3.0248 0.0000
# 2 46.4017 104.3841 48.2920 0.0000 11.2815 0.0000
# 3 39.2200 48.2920 96.7088 0.0000 18.3583 0.0000
# 4 0.0000 0.0000 0.0000 33.5571 0.0000 0.4079
# 5 3.0248 11.2815 18.3583 0.0000 19.1240 0.0000
# 6 0.0000 0.0000 0.0000 0.4079 0.0000 33.6088
#
#
#
# Elastic Compliance Matrix: (Units=1/GPa)
#
#
# Indices 1 2 3 4 5 6 
#
# 1 0.012592 -0.004316 -0.003738 0.000000 0.004143 0.000000
# 2 -0.004316 0.013982 -0.004641 0.000000 -0.003110 0.000000
# 3 -0.003738 -0.004641 0.016559 0.000000 -0.012567 0.000000
# 4 0.000000 0.000000 0.000000 0.029804 0.000000 -0.000362
# 5 0.004143 -0.003110 -0.012567 0.000000 0.065534 0.000000
# 6 0.000000 0.000000 0.000000 -0.000362 0.000000 0.029759
#
#
# Mechanical properties :
#
#
# Convention : Reuss Voigt Hill
#
# Bulk Modulus (GPa) = 56.35932 63.87656 60.11794
# Shear Modulus (GPa) = 25.05841 28.80118 26.92980
#
# Velocity S-wave (km/s) = 3.65845 3.92216 3.79260
# Velocity P-wave (km/s) = 6.92448 7.39114 7.16161
#
# Compressibility (1/GPa) = 0.01774329
#
# Stress axis : x y z
#
# Youngs Moduli (GPa) = 79.41727 71.52123 60.38854
#
# Poissons Ratio (x) = 0.30868 0.22572
# Poissons Ratio (y) = 0.34275 0.28028
# Poissons Ratio (z) = 0.29684 0.33195
#
# Static dielectric constant tensor:
#      x y z
#    x 3.612940 0.000000 0.087570 
#    y 0.000000 3.470130 0.000000 
#    z 0.087570 0.000000 3.283600 
# 
# 
# High freq. dielectric constant tensor:
#      x y z
#    x 1.730950 0.000000 0.008700 
#    y 0.000000 1.737190 0.000000 
#    z 0.008700 0.000000 1.713210 
# 
# From -- ./inp_files/221620.got.cif
#   From: 2010.06.25/outbox.cif.g09.slc.cpg/sg12_111_cif.got.tgz:221620.got - 2010.06.28 00:19:55.
