data_PCOD8111162
_publ_section_title
;
Structure prediction by ZEFSAII (Michael W. Deem and Ramdas Pophale) SiO2 
 PCOD8111162
Probable space group: C 2/M
;
_chemical_formula_sum "Si O2"
_cell_formula_units_Z 48
_cell_length_a 14.903237
_cell_length_b 8.758272
_cell_length_c 18.953313
_cell_angle_alpha 90.000000
_cell_angle_beta 90.469801
_cell_angle_gamma 90.000000
_cell_volume 2473.828404
_symmetry_space_group_name_H-M "C 2/M"
_symmetry_group_IT_number 12
_symmetry_cell_setting 'monoclinic'
loop_
_space_group_symop_operation_xyz
x,y,z
-x,y,-z
-x,-y,-z
x,-y,z
1/2+x,1/2+y,z
1/2-x,1/2+y,-z
1/2-x,1/2-y,-z
1/2+x,1/2-y,z
loop_
_atom_site_type_symbol
_atom_site_label
_atom_site_fract_x
_atom_site_fract_y
_atom_site_fract_z
Si Si1 0.677152 0.821853 0.171120
Si Si2 0.269350 0.820465 0.425012
Si Si3 0.413787 0.677370 0.332909
Si Si4 0.636975 0.819794 0.815195
Si Si5 0.510606 0.820267 0.078025
Si Si6 0.118131 0.823045 0.313068
O O1 0.764813 0.722398 0.156050
O O2 0.608612 0.780366 0.108070
O O3 0.631207 0.780457 0.244723
O O4 0.701451 0.000000 0.171640
O O5 0.250000 0.750000 0.500000
O O6 0.363990 0.758528 0.397246
O O7 0.189458 0.771977 0.372029
O O8 0.275587 0.000000 0.432914
O O9 0.390507 0.500000 0.334717
O O10 0.377132 0.743001 0.259903
O O11 0.519352 0.707706 0.343065
O O12 0.564961 0.752820 0.870139
O O13 0.627745 0.000000 0.805368
O O14 0.495108 0.000000 0.073848
O O15 0.500000 0.747418 0.000000
O O16 0.131217 0.000000 0.291970
#
# Coordination Sequence:
#
# PCOD8111162 Si02
#       6
#     8   8   8   8   8   8
#     4  11  21  35  60  89 116 154 203 246 290 352
#     4  11  24  42  62  88 123 161 195 244 300 351
#     4  11  22  38  62  90 118 154 199 247 294 354
#     4  11  21  36  59  87 118 156 198 245 299 353
#     4   9  20  38  58  84 121 160 197 244 300 354
#     4  10  22  39  61  87 120 156 195 243 298 349
#
# _framework density 19.403123999999998
#
# number of rings (size 3 to 8) (size 9 to 14) (size 15 to 20)
#    0.000    1.500    3.333    2.000    0.000    2.667 
#    0.000    3.333    0.000    7.000    0.000    0.000 
#    0.000    0.000    0.000    0.000    0.000    0.000 
#
# Total GULP energy -297710.383320 kJ/mol
# GULP energy per Si atom -12404.599305 kJ/mol
# Density = 1.935896 g / cm^3
# Si number density = 19.403124 Si / 1000 Ang^3
#
#
#
# Elastic Constant Matrix: (Units=GPa)
#
#
# Indices 1 2 3 4 5 6 
#
# 1 84.1882 13.8176 9.3068 0.0000 -6.7751 0.0000
# 2 13.8176 49.4680 19.0201 0.0000 2.1290 0.0000
# 3 9.3068 19.0201 87.4553 0.0000 -5.9603 0.0000
# 4 0.0000 0.0000 0.0000 20.9933 0.0000 1.1439
# 5 -6.7751 2.1290 -5.9603 0.0000 34.0433 0.0000
# 6 0.0000 0.0000 0.0000 1.1439 0.0000 30.6472
#
#
#
# Elastic Compliance Matrix: (Units=1/GPa)
#
#
# Indices 1 2 3 4 5 6 
#
# 1 0.012715 -0.003510 -0.000407 0.000000 0.002679 0.000000
# 2 -0.003510 0.023200 -0.004877 0.000000 -0.003003 0.000000
# 3 -0.000407 -0.004877 0.012705 0.000000 0.002448 0.000000
# 4 0.000000 0.000000 0.000000 0.047731 0.000000 -0.001782
# 5 0.002679 -0.003003 0.002448 0.000000 0.030524 0.000000
# 6 0.000000 0.000000 0.000000 -0.001782 0.000000 0.032696
#
#
# Mechanical properties :
#
#
# Convention : Reuss Voigt Hill
#
# Bulk Modulus (GPa) = 32.22509 33.93338 33.07923
# Shear Modulus (GPa) = 26.66621 29.06792 27.86706
#
# Velocity S-wave (km/s) = 3.71121 3.87474 3.79385
# Velocity P-wave (km/s) = 5.91679 6.12737 6.02300
#
# Compressibility (1/GPa) = 0.03103173
#
# Stress axis : x y z
#
# Youngs Moduli (GPa) = 78.64815 43.10355 78.70786
#
# Poissons Ratio (x) = 0.15131 0.03204
# Poissons Ratio (y) = 0.27608 0.38384
# Poissons Ratio (z) = 0.03202 0.21020
#
# Static dielectric constant tensor:
#      x y z
#    x 3.867190 0.000000 -0.038250 
#    y 0.000000 3.466480 0.000000 
#    z -0.038250 0.000000 3.604180 
# 
# 
# High freq. dielectric constant tensor:
#      x y z
#    x 1.772640 0.000000 -0.001840 
#    y 0.000000 1.748410 0.000000 
#    z -0.001840 0.000000 1.752440 
# 
# From -- ./inp_files/267700.got.cif
#   From: 2010.06.25/outbox.cif.g09.slc.cpg/sg12_134_cif.got.tgz:267700.got - 2010.06.28 00:19:55.
