data_PCOD8111745
_publ_section_title
;
Structure prediction by ZEFSAII (Michael W. Deem and Ramdas Pophale) SiO2 
 PCOD8111745
Probable space group: C 2/M
;
_chemical_formula_sum "Si O2"
_cell_formula_units_Z 40
_cell_length_a 11.407362
_cell_length_b 14.602420
_cell_length_c 17.538051
_cell_angle_alpha 90.000000
_cell_angle_beta 139.547358
_cell_angle_gamma 90.000000
_cell_volume 1895.462318
_symmetry_space_group_name_H-M "C 2/M"
_symmetry_group_IT_number 12
_symmetry_cell_setting 'monoclinic'
loop_
_space_group_symop_operation_xyz
x,y,z
-x,y,-z
-x,-y,-z
x,-y,z
1/2+x,1/2+y,z
1/2-x,1/2+y,-z
1/2-x,1/2-y,-z
1/2+x,1/2-y,z
loop_
_atom_site_type_symbol
_atom_site_label
_atom_site_fract_x
_atom_site_fract_y
_atom_site_fract_z
Si Si1 0.365720 0.193008 0.119175
Si Si2 0.385084 0.192826 0.513122
Si Si3 0.206242 0.000000 0.836354
Si Si4 0.303447 0.102314 0.234816
Si Si5 0.977621 0.500000 0.107663
Si Si6 0.582990 0.639952 0.263240
O O1 0.251672 0.170284 0.139347
O O2 0.538435 0.252969 0.229467
O O3 0.438109 0.094453 0.130562
O O4 0.250000 0.250000 0.000000
O O5 0.500000 0.243259 0.500000
O O6 0.250000 0.250000 0.500000
O O7 0.520419 0.138687 0.634192
O O8 0.252320 0.123488 0.402831
O O9 0.088908 0.091222 0.785354
O O10 0.308739 0.000000 0.806279
O O11 0.356549 0.000000 0.974010
O O12 0.129778 0.097956 0.203928
O O13 0.343534 0.000000 0.224269
#
# Coordination Sequence:
#
# PCOD8111745 Si02
#       6
#     8   8   4   8   4   8
#     4  12  25  43  66  97 132 177 224 276 334 398
#     4  10  22  40  68 100 135 178 228 276 342 408
#     4  11  24  43  63  94 134 171 227 279 336 401
#     4  11  24  43  69  98 136 174 227 283 331 405
#     4  11  26  43  64  94 135 179 223 276 338 399
#     4  11  24  42  69  98 132 179 224 275 341 399
#
# _framework density 21.103031000000001
#
# number of rings (size 3 to 8) (size 9 to 14) (size 15 to 20)
#    0.000    1.000    6.000    0.000    4.200    2.000 
#    0.000    2.000    0.000    1.800    0.000    0.000 
#    0.000    0.000    0.000    0.000    0.000    0.000 
#
# Total GULP energy -247764.445922 kJ/mol
# GULP energy per Si atom -12388.222296 kJ/mol
# Density = 2.105500 g / cm^3
# Si number density = 21.103031 Si / 1000 Ang^3
#
#
#
# Elastic Constant Matrix: (Units=GPa)
#
#
# Indices 1 2 3 4 5 6 
#
# 1 152.4745 53.5241 40.5789 0.0000 0.3845 0.0000
# 2 53.5241 140.6741 35.1534 0.0000 -5.0017 0.0000
# 3 40.5789 35.1534 79.1562 0.0001 -8.8124 0.0001
# 4 0.0000 0.0000 0.0001 25.6665 0.0001 3.6059
# 5 0.3845 -5.0017 -8.8124 0.0001 34.7505 0.0000
# 6 0.0000 0.0000 0.0001 3.6059 0.0000 40.0964
#
#
#
# Elastic Compliance Matrix: (Units=1/GPa)
#
#
# Indices 1 2 3 4 5 6 
#
# 1 0.008279 -0.002361 -0.003338 0.000000 -0.001278 0.000000
# 2 -0.002361 0.008672 -0.002571 0.000000 0.000622 0.000000
# 3 -0.003338 -0.002571 0.015898 0.000000 0.003698 0.000000
# 4 0.000000 0.000000 0.000000 0.039460 0.000000 -0.003549
# 5 -0.001278 0.000622 0.003698 0.000000 0.029818 0.000000
# 6 0.000000 0.000000 0.000000 -0.003549 0.000000 0.025259
#
#
# Mechanical properties :
#
#
# Convention : Reuss Voigt Hill
#
# Bulk Modulus (GPa) = 61.32020 70.09084 65.70552
# Shear Modulus (GPa) = 33.47563 36.30591 34.89077
#
# Velocity S-wave (km/s) = 3.98715 4.15228 4.07056
# Velocity P-wave (km/s) = 7.09346 7.50162 7.30039
#
# Compressibility (1/GPa) = 0.01630784
#
# Stress axis : x y z
#
# Youngs Moduli (GPa) = 120.78909 115.31674 62.90111
#
# Poissons Ratio (x) = 0.27230 0.20995
# Poissons Ratio (y) = 0.28523 0.16174
# Poissons Ratio (z) = 0.40316 0.29652
#
# Static dielectric constant tensor:
#      x y z
#    x 4.422320 0.000000 -0.098480 
#    y 0.000000 3.708180 0.000000 
#    z -0.098480 0.000000 3.916080 
# 
# 
# High freq. dielectric constant tensor:
#      x y z
#    x 1.844290 0.000000 -0.005650 
#    y 0.000000 1.817840 0.000000 
#    z -0.005650 0.000000 1.828860 
# 
# From -- ./inp_files/263120.got.cif
#   From: 2010.06.25/outbox.cif.g09.slc.cpg/sg12_132_cif.got.tgz:263120.got - 2010.06.28 00:19:55.
