data_PCOD8111256
_publ_section_title
;
Structure prediction by ZEFSAII (Michael W. Deem and Ramdas Pophale) SiO2 
 PCOD8111256
Probable space group: C 2/M
;
_chemical_formula_sum "Si O2"
_cell_formula_units_Z 56
_cell_length_a 14.991115
_cell_length_b 17.565590
_cell_length_c 20.922539
_cell_angle_alpha 90.000000
_cell_angle_beta 150.167937
_cell_angle_gamma 90.000000
_cell_volume 2740.745962
_symmetry_space_group_name_H-M "C 2/M"
_symmetry_group_IT_number 12
_symmetry_cell_setting 'monoclinic'
loop_
_space_group_symop_operation_xyz
x,y,z
-x,y,-z
-x,-y,-z
x,-y,z
1/2+x,1/2+y,z
1/2-x,1/2+y,-z
1/2-x,1/2-y,-z
1/2+x,1/2-y,z
loop_
_atom_site_type_symbol
_atom_site_label
_atom_site_fract_x
_atom_site_fract_y
_atom_site_fract_z
Si Si1 0.692454 0.321195 0.152489
Si Si2 0.984464 0.587398 0.258957
Si Si3 0.833666 0.836665 0.271055
Si Si4 0.287103 0.291288 0.456953
Si Si5 0.522503 0.147334 0.879573
Si Si6 0.346376 0.587864 0.152424
Si Si7 0.096498 0.197398 0.232902
O O1 0.766131 0.235893 0.187558
O O2 0.687653 0.336165 0.225799
O O3 0.827042 0.381784 0.206060
O O4 0.500000 0.330742 0.000000
O O5 0.018495 0.500000 0.297890
O O6 0.167612 0.633158 0.381848
O O7 0.925788 0.595149 0.148604
O O8 0.682645 0.866556 0.225860
O O9 0.883252 0.901518 0.250642
O O10 0.006156 0.815422 0.420467
O O11 0.250000 0.250000 0.500000
O O12 0.243225 0.234778 0.371140
O O13 0.545267 0.236731 0.875868
O O14 0.652648 0.124111 0.017657
O O15 0.351249 0.500000 0.137473
O O16 0.498945 0.628413 0.206405
#
# Coordination Sequence:
#
# PCOD8111256 Si02
#       7
#     8   8   8   8   8   8   8
#     4  11  22  39  66  94 121 159 211 263 312 370
#     4  11  24  41  62  90 126 166 204 258 318 370
#     4  11  22  40  63  91 119 162 214 259 305 367
#     4  11  21  44  67  86 122 163 216 259 300 369
#     4  10  22  39  63  89 124 165 210 256 308 377
#     4  12  23  37  60  94 134 165 197 257 327 379
#     4  10  22  39  66  92 119 168 216 259 306 370
#
# _framework density 20.432393000000001
#
# number of rings (size 3 to 8) (size 9 to 14) (size 15 to 20)
#    0.000    1.143    2.857    4.714    0.000    8.286 
#    0.000    0.714    0.000    0.857    0.000    0.000 
#    0.000    0.000    0.000    0.000    0.000    0.000 
#
# Total GULP energy -347274.557415 kJ/mol
# GULP energy per Si atom -12402.662765 kJ/mol
# Density = 2.038589 g / cm^3
# Si number density = 20.432393 Si / 1000 Ang^3
#
#
#
# Elastic Constant Matrix: (Units=GPa)
#
#
# Indices 1 2 3 4 5 6 
#
# 1 141.0915 52.0742 57.6838 0.0026 -3.4624 0.0004
# 2 52.0742 91.6602 27.6510 0.0039 -1.9831 -0.0012
# 3 57.6838 27.6510 126.4248 -0.0394 5.1661 -0.0130
# 4 0.0026 0.0039 -0.0394 17.1413 -0.0034 0.2624
# 5 -3.4624 -1.9831 5.1661 -0.0034 31.9689 0.0016
# 6 0.0004 -0.0012 -0.0130 0.2624 0.0016 11.9761
#
#
#
# Elastic Compliance Matrix: (Units=1/GPa)
#
#
# Indices 1 2 3 4 5 6 
#
# 1 0.010419 -0.004749 -0.003774 -0.000009 0.001444 -0.000005
# 2 -0.004749 0.013887 -0.000890 -0.000004 0.000491 0.000001
# 3 -0.003774 -0.000890 0.009911 0.000023 -0.002066 0.000011
# 4 -0.000009 -0.000004 0.000023 0.058358 0.000001 -0.001279
# 5 0.001444 0.000491 -0.002066 0.000001 0.031801 -0.000007
# 6 -0.000005 0.000001 0.000011 -0.001279 -0.000007 0.083528
#
#
# Mechanical properties :
#
#
# Convention : Reuss Voigt Hill
#
# Bulk Modulus (GPa) = 64.97968 70.44384 67.71176
# Shear Modulus (GPa) = 21.56456 27.00176 24.28316
#
# Velocity S-wave (km/s) = 3.25223 3.63921 3.45115
# Velocity P-wave (km/s) = 6.78041 7.22564 7.00656
#
# Compressibility (1/GPa) = 0.01538943
#
# Stress axis : x y z
#
# Youngs Moduli (GPa) = 95.97878 72.00786 100.89810
#
# Poissons Ratio (x) = 0.34200 0.38080
# Poissons Ratio (y) = 0.45585 0.08984
# Poissons Ratio (z) = 0.36223 0.06411
#
# Static dielectric constant tensor:
#      x y z
#    x 3.862040 0.000020 -0.230110 
#    y 0.000020 3.523050 -0.000050 
#    z -0.230110 -0.000050 4.102040 
# 
# 
# High freq. dielectric constant tensor:
#      x y z
#    x 1.814730 0.000000 -0.005630 
#    y 0.000000 1.777110 0.000000 
#    z -0.005630 0.000000 1.799690 
# 
# From -- ./inp_files/311726.got.cif
#   From: 2010.06.25/outbox.cif.g09.slc.cpg/sg12_156_cif.got.tgz:311726.got - 2010.06.28 00:19:55.
