data_PCOD8111731
_publ_section_title
;
Structure prediction by ZEFSAII (Michael W. Deem and Ramdas Pophale) SiO2 
 PCOD8111731
Probable space group: C 2/M
;
_chemical_formula_sum "Si O2"
_cell_formula_units_Z 48
_cell_length_a 8.637904
_cell_length_b 21.585704
_cell_length_c 11.439003
_cell_angle_alpha 90.000000
_cell_angle_beta 79.428344
_cell_angle_gamma 90.000000
_cell_volume 2096.659325
_symmetry_space_group_name_H-M "C 2/M"
_symmetry_group_IT_number 12
_symmetry_cell_setting 'monoclinic'
loop_
_space_group_symop_operation_xyz
x,y,z
-x,y,-z
-x,-y,-z
x,-y,z
1/2+x,1/2+y,z
1/2-x,1/2+y,-z
1/2-x,1/2-y,-z
1/2+x,1/2-y,z
loop_
_atom_site_type_symbol
_atom_site_label
_atom_site_fract_x
_atom_site_fract_y
_atom_site_fract_z
Si Si1 0.375562 0.753423 0.726138
Si Si2 0.829986 0.071890 0.472148
Si Si3 0.646429 0.841197 0.659091
Si Si4 0.586661 0.690679 0.875566
Si Si5 0.193357 0.067743 0.795308
Si Si6 0.469279 0.069776 0.137851
O O1 0.477070 0.809306 0.653710
O O2 0.277557 0.713311 0.646379
O O3 0.495217 0.707339 0.771402
O O4 0.262405 0.782482 0.840909
O O5 0.691999 0.111504 0.551215
O O6 0.820991 0.087669 0.337386
O O7 0.000000 0.090677 0.500000
O O8 0.793844 0.000000 0.501936
O O9 0.642693 0.879392 0.783539
O O10 0.594395 0.616243 0.885372
O O11 0.500000 0.718691 0.000000
O O12 0.373536 0.067885 0.808134
O O13 0.118065 0.000000 0.825314
O O14 0.394032 0.000000 0.147861
O O15 0.500000 0.091203 0.000000
#
# Coordination Sequence:
#
# PCOD8111731 Si02
#       6
#     8   8   8   8   8   8
#     4  10  24  40  61  96 129 171 228 265 318 389
#     4  10  22  43  71  99 130 169 218 273 330 395
#     4  11  22  43  68  94 130 178 217 271 330 387
#     4  11  22  40  63  91 129 175 216 268 325 387
#     4  10  22  42  65  98 132 164 215 270 328 395
#     4  10  22  40  66  98 130 166 219 275 326 390
#
# _framework density 22.893561999999999
#
# number of rings (size 3 to 8) (size 9 to 14) (size 15 to 20)
#    0.000    1.667    1.667    2.000    2.333    3.667 
#    0.000   12.500    0.000    0.000    0.000    0.000 
#    0.000    0.000    0.000    0.000    0.000    0.000 
#
# Total GULP energy -297565.956656 kJ/mol
# GULP energy per Si atom -12398.581527 kJ/mol
# Density = 2.284146 g / cm^3
# Si number density = 22.893562 Si / 1000 Ang^3
#
#
#
# Elastic Constant Matrix: (Units=GPa)
#
#
# Indices 1 2 3 4 5 6 
#
# 1 89.0316 28.2871 21.9376 0.0000 -6.0624 0.0000
# 2 28.2871 113.5632 22.5171 0.0000 -18.9319 0.0000
# 3 21.9376 22.5171 48.8173 0.0000 1.4371 0.0000
# 4 0.0000 0.0000 0.0000 21.1948 0.0000 -5.0473
# 5 -6.0624 -18.9319 1.4371 0.0000 37.4843 0.0000
# 6 0.0000 0.0000 0.0000 -5.0473 0.0000 -10.9552
#
#
#
# Elastic Compliance Matrix: (Units=1/GPa)
#
#
# Indices 1 2 3 4 5 6 
#
# 1 0.013217 -0.002085 -0.005015 0.000000 0.001277 0.000000
# 2 -0.002085 0.011091 -0.004338 0.000000 0.005431 0.000000
# 3 -0.005015 -0.004338 0.024856 0.000000 -0.003955 0.000000
# 4 0.000000 0.000000 0.000000 0.042517 0.000000 -0.019588
# 5 0.001277 0.005431 -0.003955 0.000000 0.029779 0.000000
# 6 0.000000 0.000000 0.000000 -0.019588 0.000000 -0.082256
#
#
# Mechanical properties :
#
#
# Convention : Reuss Voigt Hill
#
# Bulk Modulus (GPa) = 38.04312 44.09952 41.07132
# Shear Modulus (GPa) = 70.57872 21.45614 46.01743
#
# Velocity S-wave (km/s) = 5.55842 3.06471 4.48823
# Velocity P-wave (km/s) = 7.60580 5.64163 6.69612
#
# Compressibility (1/GPa) = 0.02628596
#
# Stress axis : x y z
#
# Youngs Moduli (GPa) = 75.65932 90.16707 40.23178
#
# Poissons Ratio (x) = 0.18799 0.20178
# Poissons Ratio (y) = 0.15774 0.17454
# Poissons Ratio (z) = 0.37947 0.39119
#
# Static dielectric constant tensor:
#      x y z
#    x 4.045730 0.000000 -0.056130 
#    y 0.000000 4.552510 0.000000 
#    z -0.056130 0.000000 3.789300 
# 
# 
# High freq. dielectric constant tensor:
#      x y z
#    x 1.896010 0.000000 0.001640 
#    y 0.000000 1.925050 0.000000 
#    z 0.001640 0.000000 1.884830 
# 
# From -- ./inp_files/122413.got.cif
#   From: 2010.06.25/outbox.cif.g09.slc.cpg/sg12_62_cif.got.tgz:122413.got - 2010.06.28 00:19:55.
