data_PCOD8111673
_publ_section_title
;
Structure prediction by ZEFSAII (Michael W. Deem and Ramdas Pophale) SiO2 
 PCOD8111673
Probable space group: C 2/M
;
_chemical_formula_sum "Si O2"
_cell_formula_units_Z 48
_cell_length_a 21.633457
_cell_length_b 13.473672
_cell_length_c 11.975662
_cell_angle_alpha 90.000000
_cell_angle_beta 138.365152
_cell_angle_gamma 90.000000
_cell_volume 2319.148565
_symmetry_space_group_name_H-M "C 2/M"
_symmetry_group_IT_number 12
_symmetry_cell_setting 'monoclinic'
loop_
_space_group_symop_operation_xyz
x,y,z
-x,y,-z
-x,-y,-z
x,-y,z
1/2+x,1/2+y,z
1/2-x,1/2+y,-z
1/2-x,1/2-y,-z
1/2+x,1/2-y,z
loop_
_atom_site_type_symbol
_atom_site_label
_atom_site_fract_x
_atom_site_fract_y
_atom_site_fract_z
Si Si1 0.222932 0.617001 0.488304
Si Si2 0.395409 0.748644 0.342678
Si Si3 0.515411 0.114516 0.151099
Si Si4 0.261078 0.383426 0.788918
Si Si5 0.070382 0.203661 0.855534
Si Si6 0.620661 0.382706 0.465356
O O1 0.231065 0.500000 0.490593
O O2 0.118626 0.650808 0.320975
O O3 0.251414 0.653539 0.649126
O O4 0.294652 0.662544 0.494564
O O5 0.500000 0.790984 0.500000
O O6 0.322943 0.837889 0.253124
O O7 0.384170 0.700820 0.205612
O O8 0.374362 0.664057 0.405115
O O9 0.444895 0.182394 0.126533
O O10 0.497673 0.000000 0.160960
O O11 0.500000 0.131054 0.000000
O O12 0.251603 0.500000 0.787696
O O13 0.361164 0.349340 0.966535
O O14 0.974502 0.142801 0.726943
O O15 0.629523 0.500000 0.492409
#
# Coordination Sequence:
#
# PCOD8111673 Si02
#       6
#     8   8   8   8   8   8
#     4   9  20  39  62  91 118 157 208 245 304 365
#     4  10  23  41  61  90 118 163 218 248 300 368
#     4  10  23  42  64  93 125 160 207 259 305 359
#     4  11  24  41  62  90 128 162 199 256 314 370
#     4  11  24  39  61  95 125 162 208 247 307 376
#     4  10  22  40  65  92 126 165 206 257 301 358
#
# _framework density 20.697251999999999
#
# number of rings (size 3 to 8) (size 9 to 14) (size 15 to 20)
#    0.000    1.833    0.000    3.000    4.667    6.000 
#    0.000    2.500    0.000    0.000    0.000    0.000 
#    0.000    0.000    0.000    0.000    0.000    0.000 
#
# Total GULP energy -297702.296496 kJ/mol
# GULP energy per Si atom -12404.262354 kJ/mol
# Density = 2.065014 g / cm^3
# Si number density = 20.697252 Si / 1000 Ang^3
#
#
#
# Elastic Constant Matrix: (Units=GPa)
#
#
# Indices 1 2 3 4 5 6 
#
# 1 91.5024 13.1237 30.8404 0.0000 -2.5183 0.0000
# 2 13.1237 62.0795 26.3441 0.0000 3.0182 0.0000
# 3 30.8404 26.3441 132.7290 0.0000 -12.5829 0.0000
# 4 0.0000 0.0000 0.0000 27.3677 0.0000 5.2496
# 5 -2.5183 3.0182 -12.5829 0.0000 29.2465 0.0000
# 6 0.0000 0.0000 0.0000 5.2496 0.0000 34.0695
#
#
#
# Elastic Compliance Matrix: (Units=1/GPa)
#
#
# Indices 1 2 3 4 5 6 
#
# 1 0.011980 -0.001487 -0.002477 0.000000 0.000119 0.000000
# 2 -0.001487 0.018117 -0.003586 0.000000 -0.003540 0.000000
# 3 -0.002477 -0.003586 0.009212 0.000000 0.004120 0.000000
# 4 0.000000 0.000000 0.000000 0.037652 0.000000 -0.005802
# 5 0.000119 -0.003540 0.004120 0.000000 0.036340 0.000000
# 6 0.000000 0.000000 0.000000 -0.005802 0.000000 0.030246
#
#
# Mechanical properties :
#
#
# Convention : Reuss Voigt Hill
#
# Bulk Modulus (GPa) = 41.30809 47.43636 44.37222
# Shear Modulus (GPa) = 29.99091 32.53692 31.26391
#
# Velocity S-wave (km/s) = 3.81074 3.96920 3.89078
# Velocity P-wave (km/s) = 6.27407 6.63136 6.45519
#
# Compressibility (1/GPa) = 0.02420834
#
# Stress axis : x y z
#
# Youngs Moduli (GPa) = 83.47118 55.19796 108.55342
#
# Poissons Ratio (x) = 0.08209 0.26891
# Poissons Ratio (y) = 0.12414 0.38926
# Poissons Ratio (z) = 0.20677 0.19793
#
# Static dielectric constant tensor:
#      x y z
#    x 3.892710 0.000000 -0.005310 
#    y 0.000000 3.686760 0.000000 
#    z -0.005310 0.000000 3.867770 
# 
# 
# High freq. dielectric constant tensor:
#      x y z
#    x 1.814580 0.000000 -0.001560 
#    y 0.000000 1.815970 0.000000 
#    z -0.001560 0.000000 1.819360 
# 
# From -- ./inp_files/155471.got.cif
#   From: 2010.06.25/outbox.cif.g09.slc.cpg/sg12_78_cif.got.tgz:155471.got - 2010.06.28 00:19:55.
