data_PCOD8111113
_publ_section_title
;
Structure prediction by ZEFSAII (Michael W. Deem and Ramdas Pophale) SiO2 
 PCOD8111113
Probable space group: C 2/M
;
_chemical_formula_sum "Si O2"
_cell_formula_units_Z 64
_cell_length_a 11.994345
_cell_length_b 14.953654
_cell_length_c 25.932873
_cell_angle_alpha 90.000000
_cell_angle_beta 42.720953
_cell_angle_gamma 90.000000
_cell_volume 3155.574992
_symmetry_space_group_name_H-M "C 2/M"
_symmetry_group_IT_number 12
_symmetry_cell_setting 'monoclinic'
loop_
_space_group_symop_operation_xyz
x,y,z
-x,y,-z
-x,-y,-z
x,-y,z
1/2+x,1/2+y,z
1/2-x,1/2+y,-z
1/2-x,1/2-y,-z
1/2+x,1/2-y,z
loop_
_atom_site_type_symbol
_atom_site_label
_atom_site_fract_x
_atom_site_fract_y
_atom_site_fract_z
Si Si1 0.332412 0.897964 0.083343
Si Si2 0.525524 0.098899 0.225016
Si Si3 0.730284 0.398875 0.595338
Si Si4 0.485709 0.898828 0.420210
Si Si5 0.981643 0.736717 0.683357
Si Si6 0.597450 0.397212 0.917698
Si Si7 0.616077 0.287322 0.084407
Si Si8 0.346762 0.840962 0.195140
O O1 0.187347 0.841121 0.108373
O O2 0.328315 0.889091 0.146413
O O3 0.303883 0.000000 0.077570
O O4 0.500000 0.863138 0.000000
O O5 0.476556 0.175534 0.281951
O O6 0.708868 0.119690 0.140882
O O7 0.378398 0.091777 0.232127
O O8 0.531250 0.000000 0.249128
O O9 0.656561 0.500000 0.622965
O O10 0.852278 0.383661 0.601227
O O11 0.586468 0.327212 0.648249
O O12 0.824527 0.385819 0.509643
O O13 0.479804 0.823622 0.378982
O O14 0.487406 0.000000 0.396649
O O15 0.794314 0.768894 0.746617
O O16 0.552437 0.500000 0.924967
O O17 0.527222 0.345506 0.892769
O O18 0.500000 0.358550 0.000000
O O19 0.524699 0.203930 0.139279
O O20 0.750000 0.250000 0.000000
#
# Coordination Sequence:
#
# PCOD8111113 Si02
#       8
#     8   8   8   8   8   8   8   8
#     4  11  25  43  61  84 113 156 207 262 318 374
#     4  11  24  42  60  86 124 165 207 260 315 376
#     4   9  20  39  65  94 129 164 205 250 303 363
#     4   9  19  39  66  97 125 163 207 252 299 364
#     4  12  22  39  62  94 129 164 207 252 315 372
#     4  10  22  39  60  83 111 154 205 258 314 367
#     4  12  23  38  62  84 116 148 204 261 314 361
#     4  12  25  40  60  89 122 162 207 256 319 373
#
# _framework density 20.281563999999999
#
# number of rings (size 3 to 8) (size 9 to 14) (size 15 to 20)
#    0.000    1.250    2.500    4.500    1.750    1.000 
#    0.000    1.250    0.000    0.000    0.000    7.875 
#    0.000    0.000    0.000    0.000    0.000    0.000 
#
# Total GULP energy -396696.337368 kJ/mol
# GULP energy per Si atom -12396.760543 kJ/mol
# Density = 2.023540 g / cm^3
# Si number density = 20.281564 Si / 1000 Ang^3
#
#
#
# Elastic Constant Matrix: (Units=GPa)
#
#
# Indices 1 2 3 4 5 6 
#
# 1 109.4061 46.3703 32.8414 -0.0001 6.0265 0.0000
# 2 46.3703 117.2302 48.8270 0.0000 -0.5755 0.0000
# 3 32.8414 48.8270 83.1270 -0.0014 4.4035 0.0003
# 4 -0.0001 0.0000 -0.0014 39.2671 0.0002 -6.9375
# 5 6.0265 -0.5755 4.4035 0.0002 27.5797 0.0000
# 6 0.0000 0.0000 0.0003 -6.9375 0.0000 43.1034
#
#
#
# Elastic Compliance Matrix: (Units=1/GPa)
#
#
# Indices 1 2 3 4 5 6 
#
# 1 0.011476 -0.003589 -0.002309 0.000000 -0.002214 0.000000
# 2 -0.003589 0.012462 -0.006008 0.000000 0.002004 0.000000
# 3 -0.002309 -0.006008 0.016591 0.000001 -0.002270 0.000000
# 4 0.000000 0.000000 0.000001 0.026212 0.000000 0.004219
# 5 -0.002214 0.002004 -0.002270 0.000000 0.037147 0.000000
# 6 0.000000 0.000000 0.000000 0.004219 0.000000 0.023879
#
#
# Mechanical properties :
#
#
# Convention : Reuss Voigt Hill
#
# Bulk Modulus (GPa) = 59.81530 62.87121 61.34325
# Shear Modulus (GPa) = 31.81644 34.10501 32.96073
#
# Velocity S-wave (km/s) = 3.96503 4.10515 4.03570
# Velocity P-wave (km/s) = 7.10763 7.31684 7.21299
#
# Compressibility (1/GPa) = 0.01671813
#
# Stress axis : x y z
#
# Youngs Moduli (GPa) = 87.13630 80.24378 60.27250
#
# Poissons Ratio (x) = 0.28797 0.13916
# Poissons Ratio (y) = 0.31270 0.36213
# Poissons Ratio (z) = 0.20118 0.48213
#
# Static dielectric constant tensor:
#      x y z
#    x 3.602100 0.000000 -0.014520 
#    y 0.000000 3.637200 0.000000 
#    z -0.014520 0.000000 3.550860 
# 
# 
# High freq. dielectric constant tensor:
#      x y z
#    x 1.795560 0.000000 0.001890 
#    y 0.000000 1.810060 0.000000 
#    z 0.001890 0.000000 1.780510 
# 
# From -- ./inp_files/358389.got.cif
#   From: 2010.06.25/outbox.cif.g09.slc.cpg/sg12_180_cif.got.tgz:358389.got - 2010.06.28 00:19:55.
