data_PCOD8111329
_publ_section_title
;
Structure prediction by ZEFSAII (Michael W. Deem and Ramdas Pophale) SiO2 
 PCOD8111329
Probable space group: C 2/M
;
_chemical_formula_sum "Si O2"
_cell_formula_units_Z 44
_cell_length_a 10.621360
_cell_length_b 27.705974
_cell_length_c 8.541960
_cell_angle_alpha 90.000000
_cell_angle_beta 64.955613
_cell_angle_gamma 90.000000
_cell_volume 2277.349833
_symmetry_space_group_name_H-M "C 2/M"
_symmetry_group_IT_number 12
_symmetry_cell_setting 'monoclinic'
loop_
_space_group_symop_operation_xyz
x,y,z
-x,y,-z
-x,-y,-z
x,-y,z
1/2+x,1/2+y,z
1/2-x,1/2+y,-z
1/2-x,1/2-y,-z
1/2+x,1/2-y,z
loop_
_atom_site_type_symbol
_atom_site_label
_atom_site_fract_x
_atom_site_fract_y
_atom_site_fract_z
Si Si1 0.047611 0.644893 0.729825
Si Si2 0.772423 0.803346 0.426677
Si Si3 0.908894 0.552717 0.894869
Si Si4 0.732821 0.199035 0.090184
Si Si5 0.500000 0.357225 0.500000
Si Si6 0.280364 0.380631 0.846428
O O1 0.140364 0.661771 0.533210
O O2 0.144106 0.640935 0.832082
O O3 0.977172 0.591795 0.739237
O O4 0.929556 0.684608 0.822045
O O5 0.750000 0.750000 0.500000
O O6 0.795933 0.800739 0.230092
O O7 0.909562 0.823319 0.436708
O O8 0.892185 0.500000 0.821435
O O9 0.758155 0.571474 0.034935
O O10 0.000000 0.546310 0.000000
O O11 0.750000 0.250000 0.000000
O O12 0.825235 0.160988 0.943782
O O13 0.403513 0.391591 0.658632
#
# Coordination Sequence:
#
# PCOD8111329 Si02
#       6
#     8   8   8   8   4   8
#     4   9  19  36  54  79 112 141 179 225 276 319
#     4  11  24  36  53  74 110 150 183 226 266 326
#     4   8  14  29  57  86 108 135 177 227 275 321
#     4  11  21  34  54  78 104 143 187 225 269 322
#     4  10  22  40  49  74 110 148 183 220 276 314
#     4   9  19  35  53  78 110 144 176 225 269 327
#
# _framework density 19.320705
#
# number of rings (size 3 to 8) (size 9 to 14) (size 15 to 20)
#    0.000    2.364    0.000    4.364    5.091    0.727 
#    0.000    0.455    0.000    9.818    0.000    5.091 
#    0.000    0.000    0.000    0.000    0.000    0.000 
#
# Total GULP energy -272661.969043 kJ/mol
# GULP energy per Si atom -12393.725866 kJ/mol
# Density = 1.927673 g / cm^3
# Si number density = 19.320705 Si / 1000 Ang^3
#
#
#
# Elastic Constant Matrix: (Units=GPa)
#
#
# Indices 1 2 3 4 5 6 
#
# 1 70.2920 31.2618 40.3689 0.0000 -12.9073 0.0000
# 2 31.2618 155.4392 61.8703 0.0000 -10.8678 0.0000
# 3 40.3689 61.8703 122.6149 0.0000 -5.9356 0.0000
# 4 0.0000 0.0000 0.0000 23.2432 0.0000 -3.2275
# 5 -12.9073 -10.8678 -5.9356 0.0000 31.3542 0.0000
# 6 0.0000 0.0000 0.0000 -3.2275 0.0000 12.4576
#
#
#
# Elastic Compliance Matrix: (Units=1/GPa)
#
#
# Indices 1 2 3 4 5 6 
#
# 1 0.019011 -0.001262 -0.005313 0.000000 0.006383 0.000000
# 2 -0.001262 0.008265 -0.003675 0.000000 0.001649 0.000000
# 3 -0.005313 -0.003675 0.011699 0.000000 -0.001246 0.000000
# 4 0.000000 0.000000 0.000000 0.044629 0.000000 0.011563
# 5 0.006383 0.001649 -0.001246 0.000000 0.034857 0.000000
# 6 0.000000 0.000000 0.000000 0.011563 0.000000 0.083268
#
#
# Mechanical properties :
#
#
# Convention : Reuss Voigt Hill
#
# Bulk Modulus (GPa) = 54.12967 68.37202 61.25085
# Shear Modulus (GPa) = 21.89248 27.73402 24.81325
#
# Velocity S-wave (km/s) = 3.36982 3.79285 3.58758
# Velocity P-wave (km/s) = 6.57405 7.39228 6.99514
#
# Compressibility (1/GPa) = 0.01847416
#
# Stress axis : x y z
#
# Youngs Moduli (GPa) = 52.60056 120.98531 85.47737
#
# Poissons Ratio (x) = 0.15274 0.45415
# Poissons Ratio (y) = 0.06641 0.31415
# Poissons Ratio (z) = 0.27947 0.44464
#
# Static dielectric constant tensor:
#      x y z
#    x 3.342730 0.000000 -0.089670 
#    y 0.000000 3.737320 0.000000 
#    z -0.089670 0.000000 3.678340 
# 
# 
# High freq. dielectric constant tensor:
#      x y z
#    x 1.732940 0.000000 -0.008040 
#    y 0.000000 1.734290 0.000000 
#    z -0.008040 0.000000 1.755690 
# 
# From -- ./inp_files/53707.got.cif
#   From: 2010.06.25/outbox.cif.g09.slc.cpg/sg12_27_cif.got.tgz:53707.got - 2010.06.28 00:19:55.
