data_PCOD8111685
_publ_section_title
;
Structure prediction by ZEFSAII (Michael W. Deem and Ramdas Pophale) SiO2 
 PCOD8111685
Probable space group: C 2/M
;
_chemical_formula_sum "Si O2"
_cell_formula_units_Z 36
_cell_length_a 16.046877
_cell_length_b 9.567432
_cell_length_c 10.793660
_cell_angle_alpha 90.000000
_cell_angle_beta 99.400439
_cell_angle_gamma 90.000000
_cell_volume 1634.868957
_symmetry_space_group_name_H-M "C 2/M"
_symmetry_group_IT_number 12
_symmetry_cell_setting 'monoclinic'
loop_
_space_group_symop_operation_xyz
x,y,z
-x,y,-z
-x,-y,-z
x,-y,z
1/2+x,1/2+y,z
1/2-x,1/2+y,-z
1/2-x,1/2-y,-z
1/2+x,1/2-y,z
loop_
_atom_site_type_symbol
_atom_site_label
_atom_site_fract_x
_atom_site_fract_y
_atom_site_fract_z
Si Si1 0.825841 0.658043 0.063756
Si Si2 0.083887 0.345434 0.169192
Si Si3 0.000000 0.238339 0.500000
Si Si4 0.826420 0.655851 0.566914
Si Si5 0.056890 0.156042 0.769849
O O1 0.799162 0.500000 0.095495
O O2 0.864619 0.738686 0.191541
O O3 0.750000 0.750000 0.000000
O O4 0.891608 0.653763 0.967670
O O5 0.044538 0.500000 0.191458
O O6 0.162753 0.319944 0.282109
O O7 0.019548 0.219333 0.170240
O O8 0.918880 0.326617 0.526090
O O9 0.966764 0.143292 0.379966
O O10 0.795503 0.500000 0.531462
O O11 0.750000 0.750000 0.500000
O O12 0.077726 0.000000 0.823567
#
# Coordination Sequence:
#
# PCOD8111685 Si02
#       5
#     8   8   4   8   8
#     4  11  24  41  62  91 126 166 207 257 316 380
#     4   9  21  42  62  86 123 164 204 254 320 383
#     4  10  24  44  64  94 132 178 214 262 326 392
#     4  10  22  40  65  94 128 169 216 266 322 386
#     4  11  23  40  65  93 123 163 211 264 313 376
#
# _framework density 22.020114
#
# number of rings (size 3 to 8) (size 9 to 14) (size 15 to 20)
#    0.000    1.778    0.000    2.667    3.111   11.556 
#    0.000    0.000    0.000    0.000    0.000    0.000 
#    0.000    0.000    0.000    0.000    0.000    0.000 
#
# Total GULP energy -223071.839989 kJ/mol
# GULP energy per Si atom -12392.879999 kJ/mol
# Density = 2.197000 g / cm^3
# Si number density = 22.020114 Si / 1000 Ang^3
#
#
#
# Elastic Constant Matrix: (Units=GPa)
#
#
# Indices 1 2 3 4 5 6 
#
# 1 73.7326 47.6905 24.3978 0.0000 21.2054 0.0000
# 2 47.6905 196.2404 48.5140 0.0000 31.2596 0.0000
# 3 24.3978 48.5140 99.4062 0.0000 20.7936 0.0000
# 4 0.0000 0.0000 0.0000 27.7206 0.0000 11.2478
# 5 21.2054 31.2596 20.7936 0.0000 36.8753 0.0000
# 6 0.0000 0.0000 0.0000 11.2478 0.0000 34.4860
#
#
#
# Elastic Compliance Matrix: (Units=1/GPa)
#
#
# Indices 1 2 3 4 5 6 
#
# 1 0.017942 -0.002861 -0.001538 0.000000 -0.007025 0.000000
# 2 -0.002861 0.006751 -0.001972 0.000000 -0.002966 0.000000
# 3 -0.001538 -0.001972 0.012318 0.000000 -0.004390 0.000000
# 4 0.000000 0.000000 0.000000 0.041577 0.000000 -0.013560
# 5 -0.007025 -0.002966 -0.004390 0.000000 0.036148 0.000000
# 6 0.000000 0.000000 0.000000 -0.013560 0.000000 0.033420
#
#
# Mechanical properties :
#
#
# Convention : Reuss Voigt Hill
#
# Bulk Modulus (GPa) = 41.20471 67.84264 54.52367
# Shear Modulus (GPa) = 29.58794 36.40151 32.99473
#
# Velocity S-wave (km/s) = 3.66960 4.07025 3.87510
# Velocity P-wave (km/s) = 6.05867 7.27774 6.69601
#
# Compressibility (1/GPa) = 0.02426907
#
# Stress axis : x y z
#
# Youngs Moduli (GPa) = 55.73380 148.12498 81.18251
#
# Poissons Ratio (x) = 0.42380 0.12484
# Poissons Ratio (y) = 0.15946 0.16011
# Poissons Ratio (z) = 0.08571 0.29214
#
# Static dielectric constant tensor:
#      x y z
#    x 3.890380 0.000000 0.044030 
#    y 0.000000 3.947550 0.000000 
#    z 0.044030 0.000000 4.451250 
# 
# 
# High freq. dielectric constant tensor:
#      x y z
#    x 1.846600 0.000000 0.014940 
#    y 0.000000 1.871360 0.000000 
#    z 0.014940 0.000000 1.881020 
# 
# From -- ./inp_files/152069.got.cif
#   From: 2010.06.25/outbox.cif.g09.slc.cpg/sg12_77_cif.got.tgz:152069.got - 2010.06.28 00:19:55.
