data_PCOD8111593
_publ_section_title
;
Structure prediction by ZEFSAII (Michael W. Deem and Ramdas Pophale) SiO2 
 PCOD8111593
Probable space group: C 2/M
;
_chemical_formula_sum "Si O2"
_cell_formula_units_Z 64
_cell_length_a 16.065446
_cell_length_b 8.611399
_cell_length_c 27.128932
_cell_angle_alpha 90.000000
_cell_angle_beta 53.562832
_cell_angle_gamma 90.000000
_cell_volume 3019.464496
_symmetry_space_group_name_H-M "C 2/M"
_symmetry_group_IT_number 12
_symmetry_cell_setting 'monoclinic'
loop_
_space_group_symop_operation_xyz
x,y,z
-x,y,-z
-x,-y,-z
x,-y,z
1/2+x,1/2+y,z
1/2-x,1/2+y,-z
1/2-x,1/2-y,-z
1/2+x,1/2-y,z
loop_
_atom_site_type_symbol
_atom_site_label
_atom_site_fract_x
_atom_site_fract_y
_atom_site_fract_z
Si Si1 0.646627 0.820213 0.262411
Si Si2 0.072436 0.816895 0.930008
Si Si3 0.486606 0.680925 0.854865
Si Si4 0.800240 0.180775 0.855523
Si Si5 0.101167 0.321226 0.495246
Si Si6 0.294798 0.178256 0.377144
Si Si7 0.461123 0.321279 0.381945
Si Si8 0.676296 0.821336 0.744660
O O1 0.635177 0.764506 0.210455
O O2 0.575737 0.724658 0.325182
O O3 0.764182 0.788129 0.237505
O O4 0.617738 0.000000 0.276163
O O5 0.184122 0.742477 0.900049
O O6 0.014810 0.761503 0.900187
O O7 0.088972 0.000000 0.923948
O O8 0.000000 0.761809 0.000000
O O9 0.511705 0.500000 0.840447
O O10 0.365969 0.712499 0.882828
O O11 0.556208 0.775628 0.791300
O O12 0.795545 0.000000 0.844802
O O13 0.135374 0.500000 0.478185
O O14 0.190332 0.211668 0.443272
O O15 0.079443 0.284330 0.559459
O O16 0.000000 0.283382 0.500000
O O17 0.385475 0.291417 0.362897
O O18 0.279267 0.212299 0.325129
O O19 0.327503 0.000000 0.374432
O O20 0.460059 0.500000 0.398536
O O21 0.692276 0.000000 0.753695
#
# Coordination Sequence:
#
# PCOD8111593 Si02
#       8
#     8   8   8   8   8   8   8   8
#     4  12  24  40  63  91 126 165 207 259 321 379
#     4  10  22  42  66  94 131 176 220 263 318 380
#     4  10  22  40  63  93 131 173 213 265 322 378
#     4  11  23  40  64  96 131 169 219 268 320 378
#     4  11  24  42  63  87 117 157 204 254 314 378
#     4  11  24  41  61  88 122 159 204 255 313 377
#     4  12  25  41  62  88 121 160 205 258 314 373
#     4  11  23  39  63  94 125 162 209 261 314 376
#
# _framework density 21.195812
#
# number of rings (size 3 to 8) (size 9 to 14) (size 15 to 20)
#    0.000    1.000    1.250    5.625    0.000    8.750 
#    0.000    0.000    0.000    0.000    0.000    0.000 
#    0.000    0.000    0.000    0.000    0.000    0.000 
#
# Total GULP energy -396955.670289 kJ/mol
# GULP energy per Si atom -12404.864697 kJ/mol
# Density = 2.114757 g / cm^3
# Si number density = 21.195812 Si / 1000 Ang^3
#
#
#
# Elastic Constant Matrix: (Units=GPa)
#
#
# Indices 1 2 3 4 5 6 
#
# 1 134.2930 35.9433 48.4704 0.0000 -2.7817 0.0002
# 2 35.9433 64.4447 26.3800 0.0000 -2.7169 0.0006
# 3 48.4704 26.3800 116.3941 0.0000 0.6858 0.0000
# 4 0.0000 0.0000 0.0000 31.8014 0.0000 -6.5408
# 5 -2.7817 -2.7169 0.6858 0.0000 25.8530 0.0000
# 6 0.0002 0.0006 0.0000 -6.5408 0.0000 33.0457
#
#
#
# Elastic Compliance Matrix: (Units=1/GPa)
#
#
# Indices 1 2 3 4 5 6 
#
# 1 0.009678 -0.004097 -0.003106 0.000000 0.000693 0.000000
# 2 -0.004097 0.018933 -0.002594 0.000000 0.001618 0.000000
# 3 -0.003106 -0.002594 0.010478 0.000000 -0.000885 0.000000
# 4 0.000000 0.000000 0.000000 0.032780 0.000000 0.006488
# 5 0.000693 0.001618 -0.000885 0.000000 0.038948 0.000000
# 6 0.000000 0.000000 0.000000 0.006488 0.000000 0.031545
#
#
# Mechanical properties :
#
#
# Convention : Reuss Voigt Hill
#
# Bulk Modulus (GPa) = 51.29753 59.63548 55.46650
# Shear Modulus (GPa) = 29.68147 31.76256 30.72202
#
# Velocity S-wave (km/s) = 3.74618 3.87528 3.81128
# Velocity P-wave (km/s) = 6.55485 6.94409 6.75227
#
# Compressibility (1/GPa) = 0.01949412
#
# Stress axis : x y z
#
# Youngs Moduli (GPa) = 103.32254 52.81903 95.43766
#
# Poissons Ratio (x) = 0.21642 0.29641
# Poissons Ratio (y) = 0.42336 0.24758
# Poissons Ratio (z) = 0.32090 0.13702
#
# Static dielectric constant tensor:
#      x y z
#    x 3.979990 0.000000 0.022790 
#    y 0.000000 3.747660 0.000000 
#    z 0.022790 0.000000 3.962440 
# 
# 
# High freq. dielectric constant tensor:
#      x y z
#    x 1.844090 0.000000 -0.001100 
#    y 0.000000 1.832750 0.000000 
#    z -0.001100 0.000000 1.829260 
# 
# From -- ./inp_files/375400.got.cif
#   From: 2010.06.25/outbox.cif.g09.slc.cpg/sg12_188_cif.got.tgz:375400.got - 2010.06.28 00:19:55.
