data_PCOD8111153
_publ_section_title
;
Structure prediction by ZEFSAII (Michael W. Deem and Ramdas Pophale) SiO2 
 PCOD8111153
Probable space group: C 2/M
;
_chemical_formula_sum "Si O2"
_cell_formula_units_Z 56
_cell_length_a 9.829778
_cell_length_b 23.934844
_cell_length_c 15.123103
_cell_angle_alpha 90.000000
_cell_angle_beta 125.682770
_cell_angle_gamma 90.000000
_cell_volume 2890.079161
_symmetry_space_group_name_H-M "C 2/M"
_symmetry_group_IT_number 12
_symmetry_cell_setting 'monoclinic'
loop_
_space_group_symop_operation_xyz
x,y,z
-x,y,-z
-x,-y,-z
x,-y,z
1/2+x,1/2+y,z
1/2-x,1/2+y,-z
1/2-x,1/2-y,-z
1/2+x,1/2-y,z
loop_
_atom_site_type_symbol
_atom_site_label
_atom_site_fract_x
_atom_site_fract_y
_atom_site_fract_z
Si Si1 0.802104 0.311924 0.925661
Si Si2 0.693956 0.566359 0.395991
Si Si3 0.852715 0.437133 0.641511
Si Si4 0.015527 0.000000 0.108291
Si Si5 0.690231 0.000000 0.101860
Si Si6 0.803721 0.185214 0.925779
Si Si7 0.812803 0.898339 0.255335
Si Si8 0.778729 0.593479 0.244135
O O1 0.735352 0.248415 0.892771
O O2 0.714348 0.341648 0.809414
O O3 0.750292 0.340074 0.999626
O O4 0.000000 0.316065 0.000000
O O5 0.695615 0.500000 0.373574
O O6 0.797997 0.580279 0.522767
O O7 0.505967 0.586891 0.337927
O O8 0.784072 0.602135 0.352317
O O9 0.789574 0.500000 0.638604
O O10 0.766789 0.393815 0.676776
O O11 0.053284 0.436464 0.725061
O O12 0.113560 0.944208 0.171248
O O13 0.828698 0.000000 0.076960
O O14 0.000000 0.000000 0.000000
O O15 0.708859 0.945565 0.167149
O O16 0.500000 0.000000 0.000000
O O17 0.735364 0.150550 0.816457
O O18 0.000000 0.184469 0.000000
#
# Coordination Sequence:
#
# PCOD8111153 Si02
#       8
#     8   8   8   4   4   8   8   8
#     4  10  22  40  59  84 115 153 201 237 280 356
#     4  11  21  40  58  84 117 153 199 242 288 358
#     4  11  23  36  60  85 116 156 197 238 291 353
#     4  12  26  36  55  89 126 156 187 239 298 360
#     4  12  26  38  55  89 126 158 189 235 298 359
#     4  10  22  39  61  84 112 157 197 234 289 352
#     4  12  21  39  58  84 118 153 194 241 290 347
#     4  12  21  39  59  86 118 150 195 241 295 346
#
# _framework density 19.376632000000001
#
# number of rings (size 3 to 8) (size 9 to 14) (size 15 to 20)
#    0.000    0.857    4.286    3.429    4.000    2.286 
#    0.000    0.000    0.000    5.143    0.000    0.000 
#    0.000    0.000    0.000    0.000    0.000    0.000 
#
# Total GULP energy -347203.053981 kJ/mol
# GULP energy per Si atom -12400.109071 kJ/mol
# Density = 1.933253 g / cm^3
# Si number density = 19.376632 Si / 1000 Ang^3
#
#
#
# Elastic Constant Matrix: (Units=GPa)
#
#
# Indices 1 2 3 4 5 6 
#
# 1 131.6575 27.3605 47.0095 0.0001 -20.8040 0.0000
# 2 27.3605 77.1649 53.4477 0.0000 -13.3829 0.0000
# 3 47.0095 53.4477 110.1605 0.0001 -20.7348 0.0000
# 4 0.0001 0.0000 0.0001 94.5790 0.0001 6.1159
# 5 -20.8040 -13.3829 -20.7348 0.0001 46.8784 0.0000
# 6 0.0000 0.0000 0.0000 6.1159 0.0000 28.0987
#
#
#
# Elastic Compliance Matrix: (Units=1/GPa)
#
#
# Indices 1 2 3 4 5 6 
#
# 1 0.009258 -0.000659 -0.003156 0.000000 0.002525 0.000000
# 2 -0.000659 0.019664 -0.009008 0.000000 0.001337 0.000000
# 3 -0.003156 -0.009008 0.015323 0.000000 0.002805 0.000000
# 4 0.000000 0.000000 0.000000 0.010724 0.000000 -0.002334
# 5 0.002525 0.001337 0.002805 0.000000 0.024075 0.000000
# 6 0.000000 0.000000 0.000000 -0.002334 0.000000 0.036097
#
#
# Mechanical properties :
#
#
# Convention : Reuss Voigt Hill
#
# Bulk Modulus (GPa) = 53.76389 63.84649 58.80519
# Shear Modulus (GPa) = 34.01694 46.65556 40.33625
#
# Velocity S-wave (km/s) = 4.19449 4.91228 4.56751
# Velocity P-wave (km/s) = 7.15998 8.07439 7.63090
#
# Compressibility (1/GPa) = 0.01859985
#
# Stress axis : x y z
#
# Youngs Moduli (GPa) = 108.01255 50.85467 65.26222
#
# Poissons Ratio (x) = 0.03351 0.20596
# Poissons Ratio (y) = 0.07117 0.58786
# Poissons Ratio (z) = 0.34088 0.45808
#
# Static dielectric constant tensor:
#      x y z
#    x 3.726920 0.000000 -0.279460 
#    y 0.000000 3.611260 0.000000 
#    z -0.279460 0.000000 3.342170 
# 
# 
# High freq. dielectric constant tensor:
#      x y z
#    x 1.779280 0.000000 -0.008220 
#    y 0.000000 1.722540 0.000000 
#    z -0.008220 0.000000 1.758470 
# 
# From -- ./inp_files/198822.got.cif
#   From: 2010.06.25/outbox.cif.g09.slc.cpg/sg12_100_cif.got.tgz:198822.got - 2010.06.28 00:19:55.
