data_PCOD8111141
_publ_section_title
;
Structure prediction by ZEFSAII (Michael W. Deem and Ramdas Pophale) SiO2 
 PCOD8111141
Probable space group: C 2/M
;
_chemical_formula_sum "Si O2"
_cell_formula_units_Z 64
_cell_length_a 29.326460
_cell_length_b 17.783150
_cell_length_c 8.462399
_cell_angle_alpha 90.000000
_cell_angle_beta 41.273922
_cell_angle_gamma 90.000000
_cell_volume 2911.265151
_symmetry_space_group_name_H-M "C 2/M"
_symmetry_group_IT_number 12
_symmetry_cell_setting 'monoclinic'
loop_
_space_group_symop_operation_xyz
x,y,z
-x,y,-z
-x,-y,-z
x,-y,z
1/2+x,1/2+y,z
1/2-x,1/2+y,-z
1/2-x,1/2-y,-z
1/2+x,1/2-y,z
loop_
_atom_site_type_symbol
_atom_site_label
_atom_site_fract_x
_atom_site_fract_y
_atom_site_fract_z
Si Si1 0.156897 0.326022 0.439125
Si Si2 0.943970 0.187433 0.770188
Si Si3 0.807262 0.182434 0.503162
Si Si4 0.108668 0.582260 0.032608
Si Si5 0.233664 0.583139 0.467959
Si Si6 0.573867 0.412682 0.883033
Si Si7 0.829786 0.707073 0.938800
Si Si8 0.003493 0.679481 0.814648
O O1 0.157462 0.265388 0.584917
O O2 0.201586 0.397128 0.380434
O O3 0.189725 0.289824 0.195756
O O4 0.080692 0.350995 0.587935
O O5 0.871513 0.217443 0.881907
O O6 0.986124 0.254748 0.739910
O O7 0.000000 0.153359 0.500000
O O8 0.922973 0.124444 0.951394
O O9 0.784725 0.151510 0.387963
O O10 0.868711 0.123526 0.386682
O O11 0.742329 0.190463 0.786936
O O12 0.090208 0.500000 0.147635
O O13 0.119758 0.636940 0.152864
O O14 0.047171 0.609555 0.078944
O O15 0.176207 0.578266 0.750712
O O16 0.269313 0.500000 0.362012
O O17 0.590681 0.500000 0.857810
O O18 0.500000 0.398019 0.000000
O O19 0.000000 0.712093 0.000000
#
# Coordination Sequence:
#
# PCOD8111141 Si02
#       8
#     8   8   8   8   8   8   8   8
#     4  12  22  37  62  95 128 167 219 269 316 386
#     4  11  22  40  67  97 141 171 209 277 332 387
#     4  11  24  44  67  92 126 169 215 277 321 392
#     4   9  20  37  58  86 129 176 211 253 316 384
#     4  10  22  39  60  90 125 168 214 260 317 382
#     4  11  26  46  71  99 124 168 226 276 339 399
#     4  10  24  40  64  99 133 170 220 258 331 391
#     4  11  20  35  59  94 128 173 220 269 316 376
#
# _framework density 21.983568000000002
#
# number of rings (size 3 to 8) (size 9 to 14) (size 15 to 20)
#    0.000    1.375    2.500    3.000    5.250    2.000 
#    0.000    0.625    0.000    0.000    0.000    0.000 
#    0.000    0.000    0.000    0.000    0.000    0.000 
#
# Total GULP energy -396499.668171 kJ/mol
# GULP energy per Si atom -12390.614630 kJ/mol
# Density = 2.193353 g / cm^3
# Si number density = 21.983568 Si / 1000 Ang^3
#
#
#
# Elastic Constant Matrix: (Units=GPa)
#
#
# Indices 1 2 3 4 5 6 
#
# 1 94.0407 32.4218 22.6633 0.0000 -0.9952 0.0000
# 2 32.4218 94.3880 15.2738 0.0000 -0.4850 0.0000
# 3 22.6633 15.2738 94.1912 0.0000 -11.8951 0.0000
# 4 0.0000 0.0000 0.0000 14.1985 0.0000 0.3534
# 5 -0.9952 -0.4850 -11.8951 0.0000 36.7973 0.0000
# 6 0.0000 0.0000 0.0000 0.3534 0.0000 19.5736
#
#
#
# Elastic Compliance Matrix: (Units=1/GPa)
#
#
# Indices 1 2 3 4 5 6 
#
# 1 0.012572 -0.003924 -0.002452 0.000000 -0.000504 0.000000
# 2 -0.003924 0.012112 -0.001056 0.000000 -0.000288 0.000000
# 3 -0.002452 -0.001056 0.011852 0.000000 0.003751 0.000000
# 4 0.000000 0.000000 0.000000 0.070462 0.000000 -0.001272
# 5 -0.000504 -0.000288 0.003751 0.000000 0.028371 0.000000
# 6 0.000000 0.000000 0.000000 -0.001272 0.000000 0.051112
#
#
# Mechanical properties :
#
#
# Convention : Reuss Voigt Hill
#
# Bulk Modulus (GPa) = 46.14602 47.03752 46.59177
# Shear Modulus (GPa) = 23.97275 28.26461 26.11868
#
# Velocity S-wave (km/s) = 3.30583 3.58958 3.45062
# Velocity P-wave (km/s) = 5.96725 6.21476 6.09226
#
# Compressibility (1/GPa) = 0.02167034
#
# Stress axis : x y z
#
# Youngs Moduli (GPa) = 79.53989 82.56296 84.37590
#
# Poissons Ratio (x) = 0.32400 0.20692
# Poissons Ratio (y) = 0.31214 0.08912
# Poissons Ratio (z) = 0.19506 0.08720
#
# Static dielectric constant tensor:
#      x y z
#    x 4.291750 0.000000 -0.225310 
#    y 0.000000 4.113920 0.000000 
#    z -0.225310 0.000000 4.017170 
# 
# 
# High freq. dielectric constant tensor:
#      x y z
#    x 1.875190 0.000000 -0.022290 
#    y 0.000000 1.849170 0.000000 
#    z -0.022290 0.000000 1.858710 
# 
# From -- ./inp_files/112809.got.cif
#   From: 2010.06.25/outbox.cif.g09.slc.cpg/sg12_57_cif.got.tgz:112809.got - 2010.06.28 00:19:55.
