data_PCOD8111728
_publ_section_title
;
Structure prediction by ZEFSAII (Michael W. Deem and Ramdas Pophale) SiO2 
 PCOD8111728
Probable space group: C 2/M
;
_chemical_formula_sum "Si O2"
_cell_formula_units_Z 48
_cell_length_a 9.545150
_cell_length_b 28.792753
_cell_length_c 13.623773
_cell_angle_alpha 90.000000
_cell_angle_beta 141.137750
_cell_angle_gamma 90.000000
_cell_volume 2349.322224
_symmetry_space_group_name_H-M "C 2/M"
_symmetry_group_IT_number 12
_symmetry_cell_setting 'monoclinic'
loop_
_space_group_symop_operation_xyz
x,y,z
-x,y,-z
-x,-y,-z
x,-y,z
1/2+x,1/2+y,z
1/2-x,1/2+y,-z
1/2-x,1/2-y,-z
1/2+x,1/2-y,z
loop_
_atom_site_type_symbol
_atom_site_label
_atom_site_fract_x
_atom_site_fract_y
_atom_site_fract_z
Si Si1 0.214277 0.711270 0.682872
Si Si2 0.078186 0.446716 0.647256
Si Si3 0.460943 0.376493 0.871382
Si Si4 0.742460 0.946407 0.349694
Si Si5 0.559046 0.874989 0.923252
Si Si6 0.585818 0.777567 0.836737
O O1 0.357667 0.664239 0.749269
O O2 0.345452 0.753869 0.706946
O O3 0.170102 0.723652 0.771685
O O4 0.000000 0.703090 0.500000
O O5 0.150396 0.500000 0.680327
O O6 0.296359 0.419417 0.799502
O O7 0.000000 0.427483 0.500000
O O8 0.873321 0.438761 0.608779
O O9 0.500000 0.354338 0.000000
O O10 0.688605 0.395084 0.945217
O O11 0.618502 0.914405 0.203023
O O12 0.000000 0.931157 0.500000
O O13 0.724731 0.000000 0.305452
O O14 0.550566 0.830721 0.847924
O O15 0.500000 0.858638 0.000000
O O16 0.750000 0.750000 0.000000
#
# Coordination Sequence:
#
# PCOD8111728 Si02
#       6
#     8   8   8   8   8   8
#     4  12  25  42  66  97 130 170 215 268 327 389
#     4  10  22  40  66  96 126 168 216 266 325 391
#     4  12  22  43  65  92 129 170 216 272 328 382
#     4  10  23  44  65  92 134 172 210 269 331 388
#     4  12  26  42  65  96 126 172 222 265 328 390
#     4  12  23  45  67  93 131 172 214 268 325 389
#
# _framework density 20.431424
#
# number of rings (size 3 to 8) (size 9 to 14) (size 15 to 20)
#    0.000    0.667    5.000    2.500    2.333    2.000 
#    0.000    0.000    0.000    0.000    0.000    0.000 
#    0.000    0.000    0.000    0.000    0.000    0.000 
#
# Total GULP energy -297694.533415 kJ/mol
# GULP energy per Si atom -12403.938892 kJ/mol
# Density = 2.038492 g / cm^3
# Si number density = 20.431424 Si / 1000 Ang^3
#
#
#
# Elastic Constant Matrix: (Units=GPa)
#
#
# Indices 1 2 3 4 5 6 
#
# 1 105.3269 27.1863 39.0696 0.0000 18.8440 0.0000
# 2 27.1863 97.5817 53.0237 0.0000 17.5845 0.0000
# 3 39.0696 53.0237 135.3248 0.0000 21.9997 0.0000
# 4 0.0000 0.0000 0.0000 36.7972 0.0000 8.4362
# 5 18.8440 17.5845 21.9997 0.0000 43.3839 0.0000
# 6 0.0000 0.0000 0.0000 8.4362 0.0000 29.3117
#
#
#
# Elastic Compliance Matrix: (Units=1/GPa)
#
#
# Indices 1 2 3 4 5 6 
#
# 1 0.011232 -0.001361 -0.002186 0.000000 -0.003218 0.000000
# 2 -0.001361 0.013536 -0.004485 0.000000 -0.002621 0.000000
# 3 -0.002186 -0.004485 0.010166 0.000000 -0.002388 0.000000
# 4 0.000000 0.000000 0.000000 0.029096 0.000000 -0.008374
# 5 -0.003218 -0.002621 -0.002388 0.000000 0.026721 0.000000
# 6 0.000000 0.000000 0.000000 -0.008374 0.000000 0.036526
#
#
# Mechanical properties :
#
#
# Convention : Reuss Voigt Hill
#
# Bulk Modulus (GPa) = 52.99364 64.08809 58.54086
# Shear Modulus (GPa) = 33.41506 36.49548 34.95527
#
# Velocity S-wave (km/s) = 4.04849 4.23098 4.14074
# Velocity P-wave (km/s) = 6.91717 7.43665 7.18161
#
# Compressibility (1/GPa) = 0.01887019
#
# Stress axis : x y z
#
# Youngs Moduli (GPa) = 89.02806 73.87522 98.36476
#
# Poissons Ratio (x) = 0.10058 0.21505
# Poissons Ratio (y) = 0.12120 0.44114
# Poissons Ratio (z) = 0.19464 0.33131
#
# Static dielectric constant tensor:
#      x y z
#    x 3.880320 0.000000 0.145340 
#    y 0.000000 3.716950 0.000000 
#    z 0.145340 0.000000 3.806800 
# 
# 
# High freq. dielectric constant tensor:
#      x y z
#    x 1.810350 0.000000 0.008720 
#    y 0.000000 1.802790 0.000000 
#    z 0.008720 0.000000 1.801380 
# 
# From -- ./inp_files/200200.got.cif
#   From: 2010.06.25/outbox.cif.g09.slc.cpg/sg12_101_cif.got.tgz:200200.got - 2010.06.28 00:19:55.
