data_PCOD8111313
_publ_section_title
;
Structure prediction by ZEFSAII (Michael W. Deem and Ramdas Pophale) SiO2 
 PCOD8111313
Probable space group: C 2/M
;
_chemical_formula_sum "Si O2"
_cell_formula_units_Z 32
_cell_length_a 18.278350
_cell_length_b 7.944443
_cell_length_c 23.430642
_cell_angle_alpha 90.000000
_cell_angle_beta 153.951188
_cell_angle_gamma 90.000000
_cell_volume 1494.116157
_symmetry_space_group_name_H-M "C 2/M"
_symmetry_group_IT_number 12
_symmetry_cell_setting 'monoclinic'
loop_
_space_group_symop_operation_xyz
x,y,z
-x,y,-z
-x,-y,-z
x,-y,z
1/2+x,1/2+y,z
1/2-x,1/2+y,-z
1/2-x,1/2-y,-z
1/2+x,1/2-y,z
loop_
_atom_site_type_symbol
_atom_site_label
_atom_site_fract_x
_atom_site_fract_y
_atom_site_fract_z
Si Si1 0.629390 0.681869 0.539535
Si Si2 0.025689 0.500000 0.586658
Si Si3 0.995120 0.692904 0.176366
Si Si4 0.303043 0.500000 0.864743
Si Si5 0.751237 0.690114 0.907069
O O1 0.500000 0.665882 0.500000
O O2 0.637421 0.500000 0.512985
O O3 0.567137 0.831914 0.454238
O O4 0.809291 0.730397 0.690992
O O5 0.000000 0.500000 0.500000
O O6 0.217010 0.500000 0.741722
O O7 0.956477 0.500000 0.164868
O O8 0.912357 0.805258 0.167705
O O9 0.914855 0.736191 0.058904
O O10 0.238847 0.329104 0.849293
O O11 0.500000 0.500000 0.000000
O O12 0.765135 0.500000 0.891219
#
# Coordination Sequence:
#
# PCOD8111313 Si02
#       5
#     8   4   8   4   8
#     4   9  19  35  61  92 125 162 213 264 307 380
#     4  10  24  42  62  94 120 171 218 254 327 386
#     4   9  18  37  66 100 129 170 217 258 316 392
#     4  12  28  44  64  98 135 163 216 281 314 383
#     4  10  22  39  65  97 132 170 211 264 327 380
#
# _framework density 21.417345999999998
#
# number of rings (size 3 to 8) (size 9 to 14) (size 15 to 20)
#    0.000    2.250    1.250    0.000   10.500    1.500 
#    0.000    1.250    0.000    0.000    0.000    0.000 
#    0.000    0.000    0.000    0.000    0.000    0.000 
#
# Total GULP energy -198262.674086 kJ/mol
# GULP energy per Si atom -12391.417130 kJ/mol
# Density = 2.136860 g / cm^3
# Si number density = 21.417346 Si / 1000 Ang^3
#
#
#
# Elastic Constant Matrix: (Units=GPa)
#
#
# Indices 1 2 3 4 5 6 
#
# 1 48.9715 28.5250 42.9053 0.0002 -1.8247 0.0001
# 2 28.5250 161.1770 51.3751 -0.0013 -10.8424 0.0004
# 3 42.9053 51.3751 175.8462 -0.0131 13.1684 -0.0025
# 4 0.0002 -0.0013 -0.0131 29.6202 0.0002 5.4062
# 5 -1.8247 -10.8424 13.1684 0.0002 32.6821 0.0004
# 6 0.0001 0.0004 -0.0025 5.4062 0.0004 9.9990
#
#
#
# Elastic Compliance Matrix: (Units=1/GPa)
#
#
# Indices 1 2 3 4 5 6 
#
# 1 0.027500 -0.002695 -0.006156 -0.000003 0.003122 0.000000
# 2 -0.002695 0.007440 -0.001742 0.000000 0.003020 -0.000001
# 3 -0.006156 -0.001742 0.008009 0.000003 -0.004149 0.000000
# 4 -0.000003 0.000000 0.000003 0.037457 -0.000002 -0.020252
# 5 0.003122 0.003020 -0.004149 -0.000002 0.033445 -0.000001
# 6 0.000000 -0.000001 0.000000 -0.020252 -0.000001 0.110959
#
#
# Mechanical properties :
#
#
# Convention : Reuss Voigt Hill
#
# Bulk Modulus (GPa) = 45.95232 70.17841 58.06536
# Shear Modulus (GPa) = 19.74336 32.00622 25.87479
#
# Velocity S-wave (km/s) = 3.03948 3.86995 3.47958
# Velocity P-wave (km/s) = 5.81551 7.26684 6.58130
#
# Compressibility (1/GPa) = 0.02176169
#
# Stress axis : x y z
#
# Youngs Moduli (GPa) = 36.36424 134.41368 124.86635
#
# Poissons Ratio (x) = 0.36218 0.76871
# Poissons Ratio (y) = 0.09798 0.21755
# Poissons Ratio (z) = 0.22387 0.23418
#
# Static dielectric constant tensor:
#      x y z
#    x 3.266990 0.000010 0.120030 
#    y 0.000010 5.960700 0.000020 
#    z 0.120030 0.000020 3.891240 
# 
# 
# High freq. dielectric constant tensor:
#      x y z
#    x 1.780940 0.000000 0.018140 
#    y 0.000000 1.871670 0.000000 
#    z 0.018140 0.000000 1.844480 
# 
# From -- ./inp_files/92224.got.cif
#   From: 2010.06.25/outbox.cif.g09.slc.cpg/sg12_47_cif.got.tgz:92224.got - 2010.06.28 00:19:55.
