data_PCOD8111503
_publ_section_title
;
Structure prediction by ZEFSAII (Michael W. Deem and Ramdas Pophale) SiO2 
 PCOD8111503
Probable space group: C 2/M
;
_chemical_formula_sum "Si O2"
_cell_formula_units_Z 64
_cell_length_a 29.596641
_cell_length_b 8.923378
_cell_length_c 25.411303
_cell_angle_alpha 90.000000
_cell_angle_beta 150.386217
_cell_angle_gamma 90.000000
_cell_volume 3316.334608
_symmetry_space_group_name_H-M "C 2/M"
_symmetry_group_IT_number 12
_symmetry_cell_setting 'monoclinic'
loop_
_space_group_symop_operation_xyz
x,y,z
-x,y,-z
-x,-y,-z
x,-y,z
1/2+x,1/2+y,z
1/2-x,1/2+y,-z
1/2-x,1/2-y,-z
1/2+x,1/2-y,z
loop_
_atom_site_type_symbol
_atom_site_label
_atom_site_fract_x
_atom_site_fract_y
_atom_site_fract_z
Si Si1 0.402637 0.828767 0.546223
Si Si2 0.894157 0.672295 0.273159
Si Si3 0.152908 0.327040 0.394286
Si Si4 0.586593 0.674495 0.223695
Si Si5 0.736480 0.829140 0.765319
Si Si6 0.253807 0.175369 0.674763
Si Si7 0.250955 0.675772 0.057082
Si Si8 0.621310 0.672243 0.003430
O O1 0.499558 0.783626 0.619214
O O2 0.406803 0.808588 0.613383
O O3 0.327188 0.719092 0.446511
O O4 0.376958 0.000000 0.505778
O O5 0.880666 0.500000 0.241886
O O6 0.853261 0.697354 0.289855
O O7 0.842763 0.776862 0.179929
O O8 0.169667 0.500000 0.397195
O O9 0.250000 0.250000 0.500000
O O10 0.096813 0.251695 0.290553
O O11 0.607884 0.500000 0.252549
O O12 0.654102 0.741323 0.248809
O O13 0.485719 0.703685 0.098880
O O14 0.728019 0.718913 0.707817
O O15 0.739943 0.000000 0.748505
O O16 0.828311 0.789398 0.890771
O O17 0.270519 0.000000 0.687832
O O18 0.249587 0.500000 0.048688
O O19 0.250000 0.750000 0.000000
O O20 0.160797 0.725484 0.997198
O O21 0.641789 0.500000 0.009122
#
# Coordination Sequence:
#
# PCOD8111503 Si02
#       8
#     8   8   8   8   8   8   8   8
#     4  10  22  40  62  87 118 157 200 242 292 352
#     4   9  20  40  63  88 116 152 199 245 293 352
#     4  11  22  37  59  87 121 158 196 240 294 350
#     4  11  23  40  62  88 120 155 199 246 295 353
#     4   9  19  40  65  85 116 154 194 244 297 352
#     4  12  25  39  59  87 120 155 200 247 296 355
#     4  11  22  36  57  85 120 158 196 241 290 347
#     4   9  21  41  63  88 116 153 198 243 293 353
#
# _framework density 19.298414000000001
#
# number of rings (size 3 to 8) (size 9 to 14) (size 15 to 20)
#    0.000    1.750    1.250    3.750    1.750    5.000 
#    0.000    5.000    0.000    0.000    0.000    0.000 
#    0.000    0.000    0.000    0.000    0.000    0.000 
#
# Total GULP energy -396947.638930 kJ/mol
# GULP energy per Si atom -12404.613717 kJ/mol
# Density = 1.925449 g / cm^3
# Si number density = 19.298414 Si / 1000 Ang^3
#
#
#
# Elastic Constant Matrix: (Units=GPa)
#
#
# Indices 1 2 3 4 5 6 
#
# 1 105.4011 46.6126 39.2209 0.0000 4.5761 0.0000
# 2 46.6126 116.8612 26.8172 0.0000 1.0986 0.0000
# 3 39.2209 26.8172 47.5710 0.0000 15.5396 0.0000
# 4 0.0000 0.0000 0.0000 29.3211 0.0000 -5.3581
# 5 4.5761 1.0986 15.5396 0.0000 37.4581 0.0000
# 6 0.0000 0.0000 0.0000 -5.3581 0.0000 31.7743
#
#
#
# Elastic Compliance Matrix: (Units=1/GPa)
#
#
# Indices 1 2 3 4 5 6 
#
# 1 0.015179 -0.003426 -0.011580 0.000000 0.003050 0.000000
# 2 -0.003426 0.010780 -0.003801 0.000000 0.001679 0.000000
# 3 -0.011580 -0.003801 0.037262 0.000000 -0.013932 0.000000
# 4 0.000000 0.000000 0.000000 0.035189 0.000000 0.005934
# 5 0.003050 0.001679 -0.013932 0.000000 0.032054 0.000000
# 6 0.000000 0.000000 0.000000 0.005934 0.000000 0.032473
#
#
# Mechanical properties :
#
#
# Convention : Reuss Voigt Hill
#
# Bulk Modulus (GPa) = 39.05020 55.01497 47.03259
# Shear Modulus (GPa) = 23.91338 30.18955 27.05146
#
# Velocity S-wave (km/s) = 3.52396 3.95948 3.74805
# Velocity P-wave (km/s) = 6.06931 7.03369 6.56922
#
# Compressibility (1/GPa) = 0.02560806
#
# Stress axis : x y z
#
# Youngs Moduli (GPa) = 65.87963 92.76317 26.83671
#
# Poissons Ratio (x) = 0.31780 0.31077
# Poissons Ratio (y) = 0.22570 0.10201
# Poissons Ratio (z) = 0.76288 0.35260
#
# Static dielectric constant tensor:
#      x y z
#    x 3.441700 0.000000 -0.162270 
#    y 0.000000 3.614510 0.000000 
#    z -0.162270 0.000000 3.435090 
# 
# 
# High freq. dielectric constant tensor:
#      x y z
#    x 1.758730 0.000000 0.002710 
#    y 0.000000 1.751790 0.000000 
#    z 0.002710 0.000000 1.750520 
# 
# From -- ./inp_files/353550.got.cif
#   From: 2010.06.25/outbox.cif.g09.slc.cpg/sg12_177_cif.got.tgz:353550.got - 2010.06.28 00:19:55.
