data_PCOD8111866
_publ_section_title
;
Structure prediction by ZEFSAII (Michael W. Deem and Ramdas Pophale) SiO2 
 PCOD8111866
Probable space group: C 2/M
;
_chemical_formula_sum "Si O2"
_cell_formula_units_Z 48
_cell_length_a 18.545631
_cell_length_b 14.014585
_cell_length_c 16.733765
_cell_angle_alpha 90.000000
_cell_angle_beta 146.922640
_cell_angle_gamma 90.000000
_cell_volume 2373.700372
_symmetry_space_group_name_H-M "C 2/M"
_symmetry_group_IT_number 12
_symmetry_cell_setting 'monoclinic'
loop_
_space_group_symop_operation_xyz
x,y,z
-x,y,-z
-x,-y,-z
x,-y,z
1/2+x,1/2+y,z
1/2-x,1/2+y,-z
1/2-x,1/2-y,-z
1/2+x,1/2-y,z
loop_
_atom_site_type_symbol
_atom_site_label
_atom_site_fract_x
_atom_site_fract_y
_atom_site_fract_z
Si Si1 0.044503 0.717772 0.325717
Si Si2 0.509403 0.890313 0.879142
Si Si3 0.806159 0.110986 0.605250
Si Si4 0.638598 0.389648 0.159496
Si Si5 0.215646 0.608208 0.207876
Si Si6 0.114177 0.277540 0.664231
O O1 0.103974 0.823757 0.368803
O O2 0.154736 0.642012 0.455277
O O3 0.975248 0.679311 0.181519
O O4 0.932557 0.724598 0.288296
O O5 0.376950 0.861417 0.804075
O O6 0.498722 0.000000 0.841182
O O7 0.637130 0.876860 0.052662
O O8 0.850004 0.129572 0.736256
O O9 0.822544 0.000000 0.596084
O O10 0.644444 0.500000 0.143437
O O11 0.757257 0.343183 0.220671
O O12 0.500000 0.345322 0.000000
O O13 0.262082 0.500000 0.260845
O O14 0.346516 0.672067 0.329497
O O15 0.000000 0.317347 0.500000
#
# Coordination Sequence:
#
# PCOD8111866 Si02
#       6
#     8   8   8   8   8   8
#     4  11  23  38  61  95 125 163 209 251 316 370
#     4   9  19  39  66  90 117 162 210 252 303 369
#     4  10  22  41  63  89 126 165 207 256 305 373
#     4  10  23  44  68  91 120 169 216 253 307 368
#     4   9  21  40  63  90 122 161 206 254 307 371
#     4  12  25  40  62  94 129 163 202 260 315 369
#
# _framework density 20.221592999999999
#
# number of rings (size 3 to 8) (size 9 to 14) (size 15 to 20)
#    0.000    1.833    1.667    2.500    7.000    3.333 
#    0.000    0.000    0.000    0.000    0.000    0.000 
#    0.000    0.000    0.000    0.000    0.000    0.000 
#
# Total GULP energy -297691.613695 kJ/mol
# GULP energy per Si atom -12403.817237 kJ/mol
# Density = 2.017557 g / cm^3
# Si number density = 20.221593 Si / 1000 Ang^3
#
#
#
# Elastic Constant Matrix: (Units=GPa)
#
#
# Indices 1 2 3 4 5 6 
#
# 1 130.4250 49.9787 37.1801 0.0001 13.0595 0.0001
# 2 49.9787 93.9181 31.7367 0.0001 5.0900 0.0000
# 3 37.1801 31.7367 75.3434 0.0001 13.4402 0.0001
# 4 0.0001 0.0001 0.0001 20.4402 0.0000 -10.3731
# 5 13.0595 5.0900 13.4402 0.0000 29.5856 0.0000
# 6 0.0001 0.0000 0.0001 -10.3731 0.0000 17.6664
#
#
#
# Elastic Compliance Matrix: (Units=1/GPa)
#
#
# Indices 1 2 3 4 5 6 
#
# 1 0.010436 -0.004464 -0.002813 0.000000 -0.002561 0.000000
# 2 -0.004464 0.014326 -0.004074 0.000000 0.001356 0.000000
# 3 -0.002813 -0.004074 0.017443 0.000000 -0.005982 0.000000
# 4 0.000000 0.000000 0.000000 0.069689 0.000000 0.040919
# 5 -0.002561 0.001356 -0.005982 0.000000 0.037415 0.000000
# 6 0.000000 0.000000 0.000000 0.040919 0.000000 0.080631
#
#
# Mechanical properties :
#
#
# Convention : Reuss Voigt Hill
#
# Bulk Modulus (GPa) = 51.26930 59.71971 55.49450
# Shear Modulus (GPa) = 19.29433 25.59118 22.44276
#
# Velocity S-wave (km/s) = 3.09227 3.56130 3.33504
# Velocity P-wave (km/s) = 6.17724 6.81962 6.50636
#
# Compressibility (1/GPa) = 0.01950485
#
# Stress axis : x y z
#
# Youngs Moduli (GPa) = 95.82008 69.80158 57.32798
#
# Poissons Ratio (x) = 0.31162 0.16124
# Poissons Ratio (y) = 0.42778 0.23353
# Poissons Ratio (z) = 0.26951 0.28434
#
# Static dielectric constant tensor:
#      x y z
#    x 3.526280 0.000000 -0.073360 
#    y 0.000000 3.775650 0.000000 
#    z -0.073360 0.000000 3.625160 
# 
# 
# High freq. dielectric constant tensor:
#      x y z
#    x 1.780660 0.000000 -0.009720 
#    y 0.000000 1.801180 0.000000 
#    z -0.009720 0.000000 1.788740 
# 
# From -- ./inp_files/278230.got.cif
#   From: 2010.06.25/outbox.cif.g09.slc.cpg/sg12_140_cif.got.tgz:278230.got - 2010.06.28 00:19:55.
