data_PCOD8111409
_publ_section_title
;
Structure prediction by ZEFSAII (Michael W. Deem and Ramdas Pophale) SiO2 
 PCOD8111409
Probable space group: C 2/M
;
_chemical_formula_sum "Si O2"
_cell_formula_units_Z 56
_cell_length_a 19.575897
_cell_length_b 8.872097
_cell_length_c 21.596614
_cell_angle_alpha 90.000000
_cell_angle_beta 132.313820
_cell_angle_gamma 90.000000
_cell_volume 2773.661372
_symmetry_space_group_name_H-M "C 2/M"
_symmetry_group_IT_number 12
_symmetry_cell_setting 'monoclinic'
loop_
_space_group_symop_operation_xyz
x,y,z
-x,y,-z
-x,-y,-z
x,-y,z
1/2+x,1/2+y,z
1/2-x,1/2+y,-z
1/2-x,1/2-y,-z
1/2+x,1/2-y,z
loop_
_atom_site_type_symbol
_atom_site_label
_atom_site_fract_x
_atom_site_fract_y
_atom_site_fract_z
Si Si1 0.714950 0.677836 0.857333
Si Si2 0.563882 0.326619 0.436749
Si Si3 0.077142 0.677532 0.861200
Si Si4 0.412401 0.326897 0.691173
Si Si5 0.422222 0.821127 0.998611
Si Si6 0.875715 0.672141 0.313980
Si Si7 0.288556 0.172019 0.389836
O O1 0.709375 0.500000 0.861128
O O2 0.670518 0.748931 0.891709
O O3 0.820681 0.733418 0.915068
O O4 0.657026 0.724743 0.762149
O O5 0.538053 0.500000 0.432649
O O6 0.597032 0.298094 0.387335
O O7 0.475403 0.225481 0.398592
O O8 0.646302 0.281917 0.532165
O O9 0.091291 0.500000 0.868861
O O10 0.990869 0.720543 0.766200
O O11 0.059703 0.735906 0.920452
O O12 0.438171 0.500000 0.721319
O O13 0.316480 0.279010 0.663500
O O14 0.427747 0.000000 0.999544
O O15 0.500000 0.751723 0.000000
O O16 0.881600 0.500000 0.294669
O O17 0.804800 0.690121 0.326864
O O18 0.305734 0.000000 0.422160
#
# Coordination Sequence:
#
# PCOD8111409 Si02
#       7
#     8   8   8   8   8   8   8
#     4  11  22  39  64  88 120 160 198 247 296 350
#     4  11  22  38  61  88 118 157 205 251 296 354
#     4  11  22  38  64  91 119 159 202 243 291 355
#     4  10  22  40  60  86 122 160 199 246 299 351
#     4   9  21  40  62  92 125 155 193 243 297 351
#     4  11  23  39  60  87 121 159 202 248 298 356
#     4  10  23  40  59  84 121 162 199 250 304 350
#
# _framework density 20.189919
#
# number of rings (size 3 to 8) (size 9 to 14) (size 15 to 20)
#    0.000    1.571    1.429    3.000    2.000    4.000 
#    0.000    2.143    0.000    3.429    0.000    0.000 
#    0.000    0.000    0.000    0.000    0.000    0.000 
#
# Total GULP energy -347347.394511 kJ/mol
# GULP energy per Si atom -12405.264090 kJ/mol
# Density = 2.014397 g / cm^3
# Si number density = 20.189919 Si / 1000 Ang^3
#
#
#
# Elastic Constant Matrix: (Units=GPa)
#
#
# Indices 1 2 3 4 5 6 
#
# 1 152.1870 39.4527 42.4888 0.0000 11.4559 0.0000
# 2 39.4527 68.0689 30.2117 0.0000 -1.1207 0.0000
# 3 42.4888 30.2117 84.6026 0.0000 2.1218 0.0000
# 4 0.0000 0.0000 0.0000 13.9921 0.0000 2.9289
# 5 11.4559 -1.1207 2.1218 0.0000 34.6033 0.0000
# 6 0.0000 0.0000 0.0000 2.9289 0.0000 25.3904
#
#
#
# Elastic Compliance Matrix: (Units=1/GPa)
#
#
# Indices 1 2 3 4 5 6 
#
# 1 0.008552 -0.003716 -0.002898 0.000000 -0.002774 0.000000
# 2 -0.003716 0.019104 -0.005010 0.000000 0.002156 0.000000
# 3 -0.002898 -0.005010 0.015068 0.000000 -0.000127 0.000000
# 4 0.000000 0.000000 0.000000 0.073237 0.000000 -0.008448
# 5 -0.002774 0.002156 -0.000127 0.000000 0.029895 0.000000
# 6 0.000000 0.000000 0.000000 -0.008448 0.000000 0.040360
#
#
# Mechanical properties :
#
#
# Convention : Reuss Voigt Hill
#
# Bulk Modulus (GPa) = 51.34741 58.79610 55.07176
# Shear Modulus (GPa) = 23.15283 27.64418 25.39850
#
# Velocity S-wave (km/s) = 3.39005 3.70429 3.55065
# Velocity P-wave (km/s) = 6.38832 6.89061 6.64421
#
# Compressibility (1/GPa) = 0.01947518
#
# Stress axis : x y z
#
# Youngs Moduli (GPa) = 116.92827 52.34536 66.36659
#
# Poissons Ratio (x) = 0.19452 0.19236
# Poissons Ratio (y) = 0.43451 0.33248
# Poissons Ratio (z) = 0.33892 0.26224
#
# Static dielectric constant tensor:
#      x y z
#    x 4.057940 0.000000 0.043980 
#    y 0.000000 3.543350 0.000000 
#    z 0.043980 0.000000 3.577950 
# 
# 
# High freq. dielectric constant tensor:
#      x y z
#    x 1.806680 0.000000 0.000370 
#    y 0.000000 1.777460 0.000000 
#    z 0.000370 0.000000 1.790300 
# 
# From -- ./inp_files/342551.got.cif
#   From: 2010.06.25/outbox.cif.g09.slc.cpg/sg12_172_cif.got.tgz:342551.got - 2010.06.28 00:19:55.
