data_PCOD8111893
_publ_section_title
;
Structure prediction by ZEFSAII (Michael W. Deem and Ramdas Pophale) SiO2 
 PCOD8111893
Probable space group: C 2/M
;
_chemical_formula_sum "Si O2"
_cell_formula_units_Z 64
_cell_length_a 19.112389
_cell_length_b 8.891666
_cell_length_c 30.238160
_cell_angle_alpha 90.000000
_cell_angle_beta 38.602372
_cell_angle_gamma 90.000000
_cell_volume 3206.097917
_symmetry_space_group_name_H-M "C 2/M"
_symmetry_group_IT_number 12
_symmetry_cell_setting 'monoclinic'
loop_
_space_group_symop_operation_xyz
x,y,z
-x,y,-z
-x,-y,-z
x,-y,z
1/2+x,1/2+y,z
1/2-x,1/2+y,-z
1/2-x,1/2-y,-z
1/2+x,1/2-y,z
loop_
_atom_site_type_symbol
_atom_site_label
_atom_site_fract_x
_atom_site_fract_y
_atom_site_fract_z
Si Si1 0.744934 0.677284 0.716738
Si Si2 0.780027 0.177627 0.439130
Si Si3 0.627007 0.178745 0.434350
Si Si4 0.298430 0.325872 0.781178
Si Si5 0.872482 0.326065 0.059923
Si Si6 0.777655 0.677900 0.939836
Si Si7 0.014926 0.669680 0.701939
Si Si8 0.471476 0.169238 0.203826
O O1 0.756082 0.500000 0.717408
O O2 0.813853 0.735170 0.639891
O O3 0.796393 0.759324 0.733322
O O4 0.614217 0.720229 0.778272
O O5 0.750000 0.250000 0.500000
O O6 0.695968 0.238765 0.442667
O O7 0.906351 0.225934 0.366431
O O8 0.773037 0.000000 0.446504
O O9 0.500000 0.241719 0.500000
O O10 0.626797 0.000000 0.434825
O O11 0.330910 0.500000 0.762335
O O12 0.182005 0.301860 0.864800
O O13 0.391100 0.237282 0.763187
O O14 0.867659 0.500000 0.047973
O O15 0.808987 0.231909 0.054221
O O16 0.000000 0.268507 0.000000
O O17 0.769028 0.500000 0.947387
O O18 0.903024 0.729471 0.865257
O O19 0.750000 0.750000 0.000000
O O20 0.013785 0.500000 0.683484
O O21 0.059891 0.670682 0.729367
O O22 0.458150 0.000000 0.191214
#
# Coordination Sequence:
#
# PCOD8111893 Si02
#       8
#     8   8   8   8   8   8   8   8
#     4  11  23  39  64  93 123 162 208 252 305 369
#     4  11  23  40  63  93 126 164 209 257 313 371
#     4   9  20  39  60  85 121 162 201 246 300 360
#     4  11  24  41  63  92 127 163 205 258 312 370
#     4  10  23  43  64  88 124 167 205 251 313 373
#     4  11  24  42  64  93 124 162 208 257 311 370
#     4  11  22  41  66  90 121 163 210 262 314 367
#     4  10  22  41  64  88 123 161 204 258 311 364
#
# _framework density 19.961960000000001
#
# number of rings (size 3 to 8) (size 9 to 14) (size 15 to 20)
#    0.000    1.500    2.500    1.875    3.500    2.250 
#    0.000    0.000    0.000    3.000    0.000    0.000 
#    0.000    0.000    0.000    0.000    0.000    0.000 
#
# Total GULP energy -396922.368622 kJ/mol
# GULP energy per Si atom -12403.824019 kJ/mol
# Density = 1.991653 g / cm^3
# Si number density = 19.961960 Si / 1000 Ang^3
#
#
#
# Elastic Constant Matrix: (Units=GPa)
#
#
# Indices 1 2 3 4 5 6 
#
# 1 94.8422 38.8126 38.3456 0.0016 2.5768 0.0088
# 2 38.8126 74.2870 30.7076 0.0032 2.5283 0.0095
# 3 38.3456 30.7076 117.6050 0.0005 -1.6558 0.0006
# 4 0.0016 0.0032 0.0005 30.8965 -0.0004 0.7026
# 5 2.5768 2.5283 -1.6558 -0.0004 41.9380 0.0008
# 6 0.0088 0.0095 0.0006 0.7026 0.0008 37.9955
#
#
#
# Elastic Compliance Matrix: (Units=1/GPa)
#
#
# Indices 1 2 3 4 5 6 
#
# 1 0.014338 -0.006203 -0.003064 0.000000 -0.000628 -0.000002
# 2 -0.006203 0.017822 -0.002642 -0.000001 -0.000798 -0.000003
# 3 -0.003064 -0.002642 0.010203 0.000000 0.000750 0.000001
# 4 0.000000 -0.000001 0.000000 0.032380 0.000000 -0.000599
# 5 -0.000628 -0.000798 0.000750 0.000000 0.023961 0.000000
# 6 -0.000002 -0.000003 0.000001 -0.000599 0.000000 0.026330
#
#
# Mechanical properties :
#
#
# Convention : Reuss Voigt Hill
#
# Bulk Modulus (GPa) = 53.92721 55.82953 54.87837
# Shear Modulus (GPa) = 32.25112 34.09057 33.17084
#
# Velocity S-wave (km/s) = 4.02385 4.13701 4.08082
# Velocity P-wave (km/s) = 6.97582 7.13081 7.05374
#
# Compressibility (1/GPa) = 0.01854351
#
# Stress axis : x y z
#
# Youngs Moduli (GPa) = 69.74290 56.11175 98.01490
#
# Poissons Ratio (x) = 0.34808 0.30034
# Poissons Ratio (y) = 0.43264 0.25895
# Poissons Ratio (z) = 0.21371 0.14825
#
# Static dielectric constant tensor:
#      x y z
#    x 3.618830 -0.000020 0.071310 
#    y -0.000020 3.571810 -0.000040 
#    z 0.071310 -0.000040 3.678500 
# 
# 
# High freq. dielectric constant tensor:
#      x y z
#    x 1.784490 0.000000 -0.000710 
#    y 0.000000 1.771660 0.000000 
#    z -0.000710 0.000000 1.790450 
# 
# From -- ./inp_files/377974.got.cif
#   From: 2010.06.25/outbox.cif.g09.slc.cpg/sg12_189_cif.got.tgz:377974.got - 2010.06.28 00:19:55.
