data_PCOD8111071
_publ_section_title
;
Structure prediction by ZEFSAII (Michael W. Deem and Ramdas Pophale) SiO2 
 PCOD8111071
Probable space group: C 2/M
;
_chemical_formula_sum "Si O2"
_cell_formula_units_Z 64
_cell_length_a 28.810358
_cell_length_b 8.832724
_cell_length_c 24.709531
_cell_angle_alpha 90.000000
_cell_angle_beta 31.256044
_cell_angle_gamma 90.000000
_cell_volume 3262.577871
_symmetry_space_group_name_H-M "C 2/M"
_symmetry_group_IT_number 12
_symmetry_cell_setting 'monoclinic'
loop_
_space_group_symop_operation_xyz
x,y,z
-x,y,-z
-x,-y,-z
x,-y,z
1/2+x,1/2+y,z
1/2-x,1/2+y,-z
1/2-x,1/2-y,-z
1/2+x,1/2-y,z
loop_
_atom_site_type_symbol
_atom_site_label
_atom_site_fract_x
_atom_site_fract_y
_atom_site_fract_z
Si Si1 0.690045 0.322449 0.685823
Si Si2 0.206644 0.180211 0.096419
Si Si3 0.338791 0.178274 0.057127
Si Si4 0.917839 0.325268 0.545624
Si Si5 0.626639 0.321653 0.520155
Si Si6 0.277937 0.327212 0.224876
Si Si7 0.477924 0.173722 0.736276
Si Si8 0.986193 0.673225 0.175300
O O1 0.709068 0.500000 0.661706
O O2 0.772042 0.236786 0.575753
O O3 0.683232 0.275929 0.755729
O O4 0.599783 0.278638 0.745453
O O5 0.262256 0.239755 0.092988
O O6 0.105705 0.236805 0.205436
O O7 0.208520 0.000000 0.089423
O O8 0.250000 0.250000 0.000000
O O9 0.322742 0.226681 0.134427
O O10 0.338240 0.000000 0.054094
O O11 0.436602 0.235952 0.941351
O O12 0.927536 0.500000 0.517832
O O13 0.916968 0.222327 0.493552
O O14 0.828565 0.302312 0.669678
O O15 0.000000 0.270538 0.500000
O O16 0.625547 0.500000 0.528575
O O17 0.569893 0.246790 0.624484
O O18 0.302855 0.500000 0.187848
O O19 0.474402 0.187018 0.804167
O O20 0.472595 0.000000 0.722674
O O21 0.959586 0.500000 0.188614
#
# Coordination Sequence:
#
# PCOD8111071 Si02
#       8
#     8   8   8   8   8   8   8   8
#     4  10  22  42  64  87 117 154 197 248 300 354
#     4  11  22  39  60  87 122 161 200 246 297 351
#     4  10  22  39  58  86 122 156 196 242 292 349
#     4   9  19  37  58  83 117 157 199 242 293 353
#     4  11  23  39  60  89 120 154 198 245 297 357
#     4   9  20  37  57  85 117 153 197 240 290 351
#     4  11  23  41  62  87 122 161 200 246 297 354
#     4  10  22  41  62  86 116 155 200 246 298 353
#
# _framework density 19.616391
#
# number of rings (size 3 to 8) (size 9 to 14) (size 15 to 20)
#    0.000    1.875    1.250    3.000    1.750    6.250 
#    0.000    2.500    0.000    0.000    0.000    0.000 
#    0.000    0.000    0.000    0.000    0.000    0.000 
#
# Total GULP energy -396936.101232 kJ/mol
# GULP energy per Si atom -12404.253164 kJ/mol
# Density = 1.957174 g / cm^3
# Si number density = 19.616391 Si / 1000 Ang^3
#
#
#
# Elastic Constant Matrix: (Units=GPa)
#
#
# Indices 1 2 3 4 5 6 
#
# 1 51.1215 21.7172 22.6996 0.0059 -19.1616 -0.0059
# 2 21.7172 79.5344 34.0993 0.0010 -2.2780 -0.0038
# 3 22.6996 34.0993 107.7815 0.0054 -1.2847 -0.0056
# 4 0.0059 0.0010 0.0054 36.1863 -0.0029 1.1401
# 5 -19.1616 -2.2780 -1.2847 -0.0029 33.1893 0.0041
# 6 -0.0059 -0.0038 -0.0056 1.1401 0.0041 31.3942
#
#
#
# Elastic Compliance Matrix: (Units=1/GPa)
#
#
# Indices 1 2 3 4 5 6 
#
# 1 0.030358 -0.005957 -0.004307 -0.000003 0.016952 0.000002
# 2 -0.005957 0.015738 -0.003754 0.000001 -0.002505 0.000000
# 3 -0.004307 -0.003754 0.011345 -0.000001 -0.002305 0.000001
# 4 -0.000003 0.000001 -0.000001 0.027666 0.000001 -0.001005
# 5 0.016952 -0.002505 -0.002305 0.000001 0.039656 -0.000003
# 6 0.000002 0.000000 0.000001 -0.001005 -0.000003 0.031890
#
#
# Mechanical properties :
#
#
# Convention : Reuss Voigt Hill
#
# Bulk Modulus (GPa) = 34.00850 43.94107 38.97479
# Shear Modulus (GPa) = 25.70802 30.81536 28.26169
#
# Velocity S-wave (km/s) = 3.62406 3.96776 3.79980
# Velocity P-wave (km/s) = 5.90645 6.59087 6.25803
#
# Compressibility (1/GPa) = 0.02940441
#
# Stress axis : x y z
#
# Youngs Moduli (GPa) = 32.93983 63.54166 88.14194
#
# Poissons Ratio (x) = 0.37855 0.37962
# Poissons Ratio (y) = 0.19624 0.33090
# Poissons Ratio (z) = 0.14187 0.23855
#
# Static dielectric constant tensor:
#      x y z
#    x 3.564570 -0.000030 -0.094570 
#    y -0.000030 3.508610 0.000030 
#    z -0.094570 0.000030 3.652590 
# 
# 
# High freq. dielectric constant tensor:
#      x y z
#    x 1.762590 0.000000 -0.004610 
#    y 0.000000 1.761860 0.000000 
#    z -0.004610 0.000000 1.773360 
# 
# From -- ./inp_files/353390.got.cif
#   From: 2010.06.25/outbox.cif.g09.slc.cpg/sg12_177_cif.got.tgz:353390.got - 2010.06.28 00:19:55.
