data_PCOD8111064
_publ_section_title
;
Structure prediction by ZEFSAII (Michael W. Deem and Ramdas Pophale) SiO2 
 PCOD8111064
Probable space group: C 2/M
;
_chemical_formula_sum "Si O2"
_cell_formula_units_Z 64
_cell_length_a 17.703619
_cell_length_b 8.847477
_cell_length_c 30.188065
_cell_angle_alpha 90.000000
_cell_angle_beta 137.287663
_cell_angle_gamma 90.000000
_cell_volume 3207.377284
_symmetry_space_group_name_H-M "C 2/M"
_symmetry_group_IT_number 12
_symmetry_cell_setting 'monoclinic'
loop_
_space_group_symop_operation_xyz
x,y,z
-x,y,-z
-x,-y,-z
x,-y,z
1/2+x,1/2+y,z
1/2-x,1/2+y,-z
1/2-x,1/2-y,-z
1/2+x,1/2-y,z
loop_
_atom_site_type_symbol
_atom_site_label
_atom_site_fract_x
_atom_site_fract_y
_atom_site_fract_z
Si Si1 0.363382 0.826860 0.063117
Si Si2 0.272058 0.174965 0.180139
Si Si3 0.832524 0.676347 0.306064
Si Si4 0.454613 0.172122 0.933319
Si Si5 0.920258 0.321533 0.567568
Si Si6 0.753936 0.177647 0.434684
Si Si7 0.831177 0.321820 0.696924
Si Si8 0.436830 0.678478 0.184286
O O1 0.445508 0.814021 0.057616
O O2 0.418973 0.741825 0.127801
O O3 0.340593 0.000000 0.066532
O O4 0.250000 0.750000 0.000000
O O5 0.322666 0.208976 0.249936
O O6 0.142861 0.217933 0.124477
O O7 0.334451 0.276075 0.171128
O O8 0.286519 0.000000 0.173818
O O9 0.815362 0.500000 0.309290
O O10 0.738756 0.770457 0.290888
O O11 0.953445 0.735824 0.373324
O O12 0.410154 0.000000 0.917138
O O13 0.500000 0.227978 0.000000
O O14 0.918071 0.500000 0.563506
O O15 0.868209 0.254196 0.500238
O O16 0.849181 0.265945 0.579442
O O17 0.733201 0.227097 0.375343
O O18 0.768874 0.000000 0.445409
O O19 0.850695 0.500000 0.707392
O O20 0.950377 0.243614 0.746837
O O21 0.445232 0.500000 0.185052
#
# Coordination Sequence:
#
# PCOD8111064 Si02
#       8
#     8   8   8   8   8   8   8   8
#     4  11  23  40  64  93 126 161 198 241 290 344
#     4  11  23  40  63  88 116 151 194 244 295 348
#     4  10  22  39  58  84 118 153 191 239 295 352
#     4  10  22  40  61  88 122 156 192 237 287 341
#     4   9  18  35  58  81 110 149 191 236 288 349
#     4   9  19  36  57  82 112 147 190 240 291 343
#     4  11  23  39  59  84 117 154 194 242 294 348
#     4  12  25  41  62  87 118 155 198 245 292 348
#
# _framework density 19.953997999999999
#
# number of rings (size 3 to 8) (size 9 to 14) (size 15 to 20)
#    0.000    1.625    0.000    4.500    0.000    9.250 
#    0.000    5.000    0.000    0.000    0.000    0.000 
#    0.000    0.000    0.000    0.000    0.000    0.000 
#
# Total GULP energy -396993.738596 kJ/mol
# GULP energy per Si atom -12406.054331 kJ/mol
# Density = 1.990858 g / cm^3
# Si number density = 19.953998 Si / 1000 Ang^3
#
#
#
# Elastic Constant Matrix: (Units=GPa)
#
#
# Indices 1 2 3 4 5 6 
#
# 1 74.6627 35.0818 31.4604 0.0000 -0.9205 0.0000
# 2 35.0818 89.8173 52.9872 0.0000 -4.8418 0.0000
# 3 31.4604 52.9872 125.5915 0.0000 3.0267 0.0000
# 4 0.0000 0.0000 0.0000 36.0418 0.0000 1.4814
# 5 -0.9205 -4.8418 3.0267 0.0000 36.8897 0.0000
# 6 0.0000 0.0000 0.0000 1.4814 0.0000 31.4099
#
#
#
# Elastic Compliance Matrix: (Units=1/GPa)
#
#
# Indices 1 2 3 4 5 6 
#
# 1 0.016742 -0.005425 -0.001902 0.000000 -0.000138 0.000000
# 2 -0.005425 0.016808 -0.005794 0.000000 0.002546 0.000000
# 3 -0.001902 -0.005794 0.010924 0.000000 -0.001704 0.000000
# 4 0.000000 0.000000 0.000000 0.027799 0.000000 -0.001311
# 5 -0.000138 0.002546 -0.001704 0.000000 0.027578 0.000000
# 6 0.000000 0.000000 0.000000 -0.001311 0.000000 0.031899
#
#
# Mechanical properties :
#
#
# Convention : Reuss Voigt Hill
#
# Bulk Modulus (GPa) = 54.84409 58.79224 56.81816
# Shear Modulus (GPa) = 30.47490 32.23775 31.35632
#
# Velocity S-wave (km/s) = 3.91225 4.02382 3.96843
# Velocity P-wave (km/s) = 6.92478 7.14954 7.03806
#
# Compressibility (1/GPa) = 0.01823351
#
# Stress axis : x y z
#
# Youngs Moduli (GPa) = 59.72931 59.49615 91.54026
#
# Poissons Ratio (x) = 0.32276 0.17409
# Poissons Ratio (y) = 0.32402 0.53036
# Poissons Ratio (z) = 0.11359 0.34470
#
# Static dielectric constant tensor:
#      x y z
#    x 3.561670 0.000000 0.067580 
#    y 0.000000 3.634280 0.000000 
#    z 0.067580 0.000000 3.585320 
# 
# 
# High freq. dielectric constant tensor:
#      x y z
#    x 1.784090 0.000000 -0.001010 
#    y 0.000000 1.778160 0.000000 
#    z -0.001010 0.000000 1.795070 
# 
# From -- ./inp_files/378306.got.cif
#   From: 2010.06.25/outbox.cif.g09.slc.cpg/sg12_190_cif.got.tgz:378306.got - 2010.06.28 00:19:55.
