data_PCOD8111898
_publ_section_title
;
Structure prediction by ZEFSAII (Michael W. Deem and Ramdas Pophale) SiO2 
 PCOD8111898
Probable space group: C 2/M
;
_chemical_formula_sum "Si O2"
_cell_formula_units_Z 56
_cell_length_a 9.519100
_cell_length_b 14.143945
_cell_length_c 23.878681
_cell_angle_alpha 90.000000
_cell_angle_beta 120.147964
_cell_angle_gamma 90.000000
_cell_volume 2780.084234
_symmetry_space_group_name_H-M "C 2/M"
_symmetry_group_IT_number 12
_symmetry_cell_setting 'monoclinic'
loop_
_space_group_symop_operation_xyz
x,y,z
-x,y,-z
-x,-y,-z
x,-y,z
1/2+x,1/2+y,z
1/2-x,1/2+y,-z
1/2-x,1/2-y,-z
1/2+x,1/2-y,z
loop_
_atom_site_type_symbol
_atom_site_label
_atom_site_fract_x
_atom_site_fract_y
_atom_site_fract_z
Si Si1 0.841816 0.897233 0.940217
Si Si2 0.780571 0.608351 0.363145
Si Si3 0.098765 0.322900 0.964074
Si Si4 0.531727 0.280761 0.249389
Si Si5 0.322430 0.727252 0.455029
Si Si6 0.070670 0.609498 0.335469
Si Si7 0.320086 0.739505 0.837509
O O1 0.696102 0.910470 0.955979
O O2 0.780793 0.844857 0.872703
O O3 0.904293 0.000000 0.934002
O O4 0.000000 0.842368 0.000000
O O5 0.767690 0.500000 0.380984
O O6 0.602313 0.644745 0.308357
O O7 0.839112 0.673446 0.425676
O O8 0.905899 0.619302 0.337447
O O9 0.970238 0.297344 0.891034
O O10 0.250000 0.250000 0.000000
O O11 0.000000 0.350995 0.000000
O O12 0.552640 0.172671 0.275729
O O13 0.632333 0.299451 0.213340
O O14 0.342045 0.303010 0.200705
O O15 0.500000 0.683215 0.500000
O O16 0.250000 0.750000 0.500000
O O17 0.220396 0.648549 0.401681
O O18 0.103221 0.500000 0.325561
#
# Coordination Sequence:
#
# PCOD8111898 Si02
#       7
#     8   8   8   8   8   8   8
#     4  11  24  40  60  90 122 155 201 257 314 372
#     4  10  22  41  64  89 124 168 206 249 304 364
#     4  12  20  38  65  89 118 159 200 249 315 384
#     4  11  23  39  62  92 120 161 210 259 302 363
#     4  11  22  39  64  98 128 158 205 256 300 359
#     4  10  22  41  64  90 127 168 202 250 310 361
#     4  12  21  38  63  88 116 160 205 249 306 370
#
# _framework density 20.143274999999999
#
# number of rings (size 3 to 8) (size 9 to 14) (size 15 to 20)
#    0.000    1.000    7.143    0.000    0.000    2.571 
#    0.000    2.857    0.000    0.000    0.000    0.000 
#    0.000    0.000    0.000    0.000    0.000    0.000 
#
# Total GULP energy -347051.168057 kJ/mol
# GULP energy per Si atom -12394.684573 kJ/mol
# Density = 2.009743 g / cm^3
# Si number density = 20.143275 Si / 1000 Ang^3
#
#
#
# Elastic Constant Matrix: (Units=GPa)
#
#
# Indices 1 2 3 4 5 6 
#
# 1 124.9861 20.7019 39.0010 0.0000 6.7712 0.0000
# 2 20.7019 92.3887 28.9883 0.0000 7.6066 0.0000
# 3 39.0010 28.9883 104.0516 0.0000 17.4277 0.0000
# 4 0.0000 0.0000 0.0000 16.6265 0.0000 1.1392
# 5 6.7712 7.6066 17.4277 0.0000 52.6743 0.0000
# 6 0.0000 0.0000 0.0000 1.1392 0.0000 21.0036
#
#
#
# Elastic Compliance Matrix: (Units=1/GPa)
#
#
# Indices 1 2 3 4 5 6 
#
# 1 0.009156 -0.001069 -0.003137 0.000000 0.000015 0.000000
# 2 -0.001069 0.012007 -0.002834 0.000000 -0.000659 0.000000
# 3 -0.003137 -0.002834 0.012111 0.000000 -0.003195 0.000000
# 4 0.000000 0.000000 0.000000 0.060369 0.000000 -0.003274
# 5 0.000015 -0.000659 -0.003195 0.000000 0.020135 0.000000
# 6 0.000000 0.000000 0.000000 -0.003274 0.000000 0.047789
#
#
# Mechanical properties :
#
#
# Convention : Reuss Voigt Hill
#
# Bulk Modulus (GPa) = 52.09774 55.42319 53.76046
# Shear Modulus (GPa) = 27.46602 33.57657 30.52129
#
# Velocity S-wave (km/s) = 3.69661 4.08718 3.89679
# Velocity P-wave (km/s) = 6.64377 7.06029 6.85519
#
# Compressibility (1/GPa) = 0.01919469
#
# Stress axis : x y z
#
# Youngs Moduli (GPa) = 109.21994 83.28621 82.57000
#
# Poissons Ratio (x) = 0.08900 0.25899
# Poissons Ratio (y) = 0.11672 0.23401
# Poissons Ratio (z) = 0.34258 0.23604
#
# Static dielectric constant tensor:
#      x y z
#    x 3.947840 0.000000 0.151350 
#    y 0.000000 3.504610 0.000000 
#    z 0.151350 0.000000 3.845080 
# 
# 
# High freq. dielectric constant tensor:
#      x y z
#    x 1.799300 0.000000 0.008850 
#    y 0.000000 1.760440 0.000000 
#    z 0.008850 0.000000 1.801280 
# 
# From -- ./inp_files/332689.got.cif
#   From: 2010.06.25/outbox.cif.g09.slc.cpg/sg12_167_cif.got.tgz:332689.got - 2010.06.28 00:19:55.
