data_PCOD8111434
_publ_section_title
;
Structure prediction by ZEFSAII (Michael W. Deem and Ramdas Pophale) SiO2 
 PCOD8111434
Probable space group: C 2/M
;
_chemical_formula_sum "Si O2"
_cell_formula_units_Z 32
_cell_length_a 18.402101
_cell_length_b 8.573444
_cell_length_c 11.078985
_cell_angle_alpha 90.000000
_cell_angle_beta 114.214582
_cell_angle_gamma 90.000000
_cell_volume 1594.134801
_symmetry_space_group_name_H-M "C 2/M"
_symmetry_group_IT_number 12
_symmetry_cell_setting 'monoclinic'
loop_
_space_group_symop_operation_xyz
x,y,z
-x,y,-z
-x,-y,-z
x,-y,z
1/2+x,1/2+y,z
1/2-x,1/2+y,-z
1/2-x,1/2-y,-z
1/2+x,1/2-y,z
loop_
_atom_site_type_symbol
_atom_site_label
_atom_site_fract_x
_atom_site_fract_y
_atom_site_fract_z
Si Si1 0.426319 0.319450 0.868892
Si Si2 0.955314 0.318509 0.635919
Si Si3 0.258183 0.318646 0.873579
Si Si4 0.611114 0.682523 0.645289
O O1 0.435896 0.500000 0.839435
O O2 0.422805 0.217876 0.745944
O O3 0.347253 0.287443 0.890459
O O4 0.500000 0.262748 0.000000
O O5 0.946150 0.500000 0.601472
O O6 0.902358 0.224401 0.503556
O O7 0.047666 0.269836 0.687610
O O8 0.236976 0.500000 0.861114
O O9 0.199436 0.232166 0.741917
O O10 0.250000 0.250000 0.000000
O O11 0.599584 0.500000 0.657223
#
# Coordination Sequence:
#
# PCOD8111434 Si02
#       4
#     8   8   8   8
#     4  10  22  40  61  86 118 156 195 238 293 353
#     4  11  22  38  62  90 119 151 195 246 294 348
#     4  11  23  39  61  89 121 155 196 244 293 348
#     4  11  22  39  62  86 119 159 197 238 291 352
#
# _framework density 20.073584
#
# number of rings (size 3 to 8) (size 9 to 14) (size 15 to 20)
#    0.000    1.250    0.000    8.250    0.000    5.500 
#    0.000    0.000    0.000    0.000    0.000    0.000 
#    0.000    0.000    0.000    0.000    0.000    0.000 
#
# Total GULP energy -198521.891768 kJ/mol
# GULP energy per Si atom -12407.618235 kJ/mol
# Density = 2.002790 g / cm^3
# Si number density = 20.073584 Si / 1000 Ang^3
#
#
#
# Elastic Constant Matrix: (Units=GPa)
#
#
# Indices 1 2 3 4 5 6 
#
# 1 96.4518 36.2587 64.7083 0.0000 1.5197 0.0000
# 2 36.2587 92.1764 29.4300 0.0000 -4.2196 0.0000
# 3 64.7083 29.4300 114.5106 0.0000 3.8066 0.0000
# 4 0.0000 0.0000 0.0000 35.6445 0.0000 0.9719
# 5 1.5197 -4.2196 3.8066 0.0000 44.1335 0.0000
# 6 0.0000 0.0000 0.0000 0.9719 0.0000 29.8401
#
#
#
# Elastic Compliance Matrix: (Units=1/GPa)
#
#
# Indices 1 2 3 4 5 6 
#
# 1 0.018075 -0.004208 -0.009125 0.000000 -0.000238 0.000000
# 2 -0.004208 0.012884 -0.000982 0.000000 0.001461 0.000000
# 3 -0.009125 -0.000982 0.014175 0.000000 -0.001002 0.000000
# 4 0.000000 0.000000 0.000000 0.028080 0.000000 -0.000915
# 5 -0.000238 0.001461 -0.001002 0.000000 0.022893 0.000000
# 6 0.000000 0.000000 0.000000 -0.000915 0.000000 0.033542
#
#
# Mechanical properties :
#
#
# Convention : Reuss Voigt Hill
#
# Bulk Modulus (GPa) = 60.58729 62.65919 61.62324
# Shear Modulus (GPa) = 30.52891 33.43974 31.98432
#
# Velocity S-wave (km/s) = 3.90404 4.08592 3.99601
# Velocity P-wave (km/s) = 7.11127 7.31725 7.21500
#
# Compressibility (1/GPa) = 0.01650511
#
# Stress axis : x y z
#
# Youngs Moduli (GPa) = 55.32527 77.61320 70.54787
#
# Poissons Ratio (x) = 0.32656 0.64372
# Poissons Ratio (y) = 0.23279 0.06930
# Poissons Ratio (z) = 0.50482 0.07624
#
# Static dielectric constant tensor:
#      x y z
#    x 3.644850 0.000000 0.132540 
#    y 0.000000 3.775950 0.000000 
#    z 0.132540 0.000000 3.730410 
# 
# 
# High freq. dielectric constant tensor:
#      x y z
#    x 1.783890 0.000000 0.001870 
#    y 0.000000 1.794120 0.000000 
#    z 0.001870 0.000000 1.795120 
# 
# From -- ./inp_files/138648.got.cif
#   From: 2010.06.25/outbox.cif.g09.slc.cpg/sg12_70_cif.got.tgz:138648.got - 2010.06.28 00:19:55.
