data_PCOD8111663
_publ_section_title
;
Structure prediction by ZEFSAII (Michael W. Deem and Ramdas Pophale) SiO2 
 PCOD8111663
Probable space group: C 2/M
;
_chemical_formula_sum "Si O2"
_cell_formula_units_Z 48
_cell_length_a 17.238134
_cell_length_b 29.998551
_cell_length_c 8.896949
_cell_angle_alpha 90.000000
_cell_angle_beta 147.313000
_cell_angle_gamma 90.000000
_cell_volume 2484.649300
_symmetry_space_group_name_H-M "C 2/M"
_symmetry_group_IT_number 12
_symmetry_cell_setting 'monoclinic'
loop_
_space_group_symop_operation_xyz
x,y,z
-x,y,-z
-x,-y,-z
x,-y,z
1/2+x,1/2+y,z
1/2-x,1/2+y,-z
1/2-x,1/2-y,-z
1/2+x,1/2-y,z
loop_
_atom_site_type_symbol
_atom_site_label
_atom_site_fract_x
_atom_site_fract_y
_atom_site_fract_z
Si Si1 0.356323 0.124254 0.345722
Si Si2 0.137391 0.550740 0.419808
Si Si3 0.208810 0.289968 0.232711
Si Si4 0.193557 0.449263 0.175196
Si Si5 0.102181 0.710134 0.387296
Si Si6 0.667333 0.369377 0.755692
O O1 0.500000 0.106513 0.500000
O O2 0.294291 0.084271 0.347538
O O3 0.398440 0.166558 0.512999
O O4 0.235151 0.137698 0.029922
O O5 0.157259 0.500000 0.507899
O O6 0.217810 0.557662 0.392637
O O7 0.970021 0.562828 0.130286
O O8 0.186724 0.300830 0.372164
O O9 0.321588 0.249847 0.397140
O O10 0.269503 0.334200 0.257726
O O11 0.060629 0.275171 0.912632
O O12 0.227741 0.500000 0.185719
O O13 0.300299 0.418498 0.254715
O O14 0.500000 0.362012 0.500000
#
# Coordination Sequence:
#
# PCOD8111663 Si02
#       6
#     8   8   8   8   8   8
#     4  12  22  37  58  89 119 151 192 239 288 340
#     4   9  18  35  64  91 111 147 198 244 279 334
#     4  10  22  42  62  86 114 153 194 239 284 341
#     4   9  18  37  62  87 116 152 194 236 285 340
#     4  10  22  40  65  86 113 150 196 240 286 337
#     4  12  26  39  55  86 124 158 187 233 296 346
#
# _framework density 19.318622000000001
#
# number of rings (size 3 to 8) (size 9 to 14) (size 15 to 20)
#    0.000    1.667    3.333    2.000    2.333    5.333 
#    0.000    2.500    0.000    2.000    0.000    0.000 
#    0.000    0.000    0.000    0.000    0.000    0.000 
#
# Total GULP energy -297700.749080 kJ/mol
# GULP energy per Si atom -12404.197878 kJ/mol
# Density = 1.927465 g / cm^3
# Si number density = 19.318622 Si / 1000 Ang^3
#
#
#
# Elastic Constant Matrix: (Units=GPa)
#
#
# Indices 1 2 3 4 5 6 
#
# 1 57.5064 36.3749 31.4168 0.0000 -4.8948 0.0000
# 2 36.3749 105.8079 35.9085 0.0000 -13.9388 0.0000
# 3 31.4168 35.9085 101.3519 0.0000 -4.4453 0.0000
# 4 0.0000 0.0000 0.0000 15.6790 0.0000 6.1879
# 5 -4.8948 -13.9388 -4.4453 0.0000 31.3629 0.0000
# 6 0.0000 0.0000 0.0000 6.1879 0.0000 12.0148
#
#
#
# Elastic Compliance Matrix: (Units=1/GPa)
#
#
# Indices 1 2 3 4 5 6 
#
# 1 0.024437 -0.006609 -0.005227 0.000000 0.000136 0.000000
# 2 -0.006609 0.013128 -0.002407 0.000000 0.004462 0.000000
# 3 -0.005227 -0.002407 0.012334 0.000000 -0.000137 0.000000
# 4 0.000000 0.000000 0.000000 0.080051 0.000000 -0.041228
# 5 0.000136 0.004462 -0.000137 0.000000 0.033870 0.000000
# 6 0.000000 0.000000 0.000000 -0.041228 0.000000 0.104464
#
#
# Mechanical properties :
#
#
# Convention : Reuss Voigt Hill
#
# Bulk Modulus (GPa) = 46.70266 52.45183 49.57724
# Shear Modulus (GPa) = 16.45239 22.54240 19.49740
#
# Velocity S-wave (km/s) = 2.92144 3.41966 3.18032
# Velocity P-wave (km/s) = 5.96718 6.54232 6.26136
#
# Compressibility (1/GPa) = 0.02141206
#
# Stress axis : x y z
#
# Youngs Moduli (GPa) = 40.92099 76.17436 81.07889
#
# Poissons Ratio (x) = 0.50345 0.42384
# Poissons Ratio (y) = 0.27045 0.19513
# Poissons Ratio (z) = 0.21391 0.18333
#
# Static dielectric constant tensor:
#      x y z
#    x 3.656440 0.000000 -0.174810 
#    y 0.000000 3.564060 0.000000 
#    z -0.174810 0.000000 3.479330 
# 
# 
# High freq. dielectric constant tensor:
#      x y z
#    x 1.751340 0.000000 -0.016590 
#    y 0.000000 1.760440 0.000000 
#    z -0.016590 0.000000 1.736220 
# 
# From -- ./inp_files/80820.got.cif
#   From: 2010.06.25/outbox.cif.g09.slc.cpg/sg12_41_cif.got.tgz:80820.got - 2010.06.28 00:19:55.
