data_PCOD8111582
_publ_section_title
;
Structure prediction by ZEFSAII (Michael W. Deem and Ramdas Pophale) SiO2 
 PCOD8111582
Probable space group: C 2/M
;
_chemical_formula_sum "Si O2"
_cell_formula_units_Z 48
_cell_length_a 15.797335
_cell_length_b 8.808899
_cell_length_c 16.841077
_cell_angle_alpha 90.000000
_cell_angle_beta 89.971044
_cell_angle_gamma 90.000000
_cell_volume 2343.555617
_symmetry_space_group_name_H-M "C 2/M"
_symmetry_group_IT_number 12
_symmetry_cell_setting 'monoclinic'
loop_
_space_group_symop_operation_xyz
x,y,z
-x,y,-z
-x,-y,-z
x,-y,z
1/2+x,1/2+y,z
1/2-x,1/2+y,-z
1/2-x,1/2-y,-z
1/2+x,1/2-y,z
loop_
_atom_site_type_symbol
_atom_site_label
_atom_site_fract_x
_atom_site_fract_y
_atom_site_fract_z
Si Si1 0.503572 0.178816 0.409486
Si Si2 0.841036 0.177642 0.996445
Si Si3 0.591452 0.821609 0.159897
Si Si4 0.153938 0.175686 0.311440
Si Si5 0.582333 0.323498 0.834211
Si Si6 0.342383 0.175397 0.308375
O O1 0.500000 0.234051 0.500000
O O2 0.584982 0.254400 0.369828
O O3 0.415116 0.229582 0.369365
O O4 0.516639 0.000000 0.402899
O O5 0.894829 0.247102 0.925435
O O6 0.831702 0.000000 0.982827
O O7 0.750000 0.250000 0.000000
O O8 0.888519 0.216130 0.077530
O O9 0.654948 0.755921 0.225451
O O10 0.497540 0.780062 0.188691
O O11 0.604810 0.000000 0.153181
O O12 0.248925 0.198796 0.346638
O O13 0.132174 0.000000 0.299480
O O14 0.559153 0.500000 0.826154
O O15 0.654069 0.277084 0.771252
O O16 0.355484 0.000000 0.285005
#
# Coordination Sequence:
#
# PCOD8111582 Si02
#       6
#     8   8   8   8   8   8
#     4  10  22  42  66  93 127 166 207 255 313 376
#     4  11  24  40  58  86 123 162 210 260 310 365
#     4  12  24  39  61  88 121 164 210 257 316 370
#     4  11  23  40  64  94 127 165 212 260 311 370
#     4  11  23  39  61  89 121 161 209 260 309 365
#     4  10  22  40  63  92 127 167 207 254 311 372
#
# _framework density 20.481698000000002
#
# number of rings (size 3 to 8) (size 9 to 14) (size 15 to 20)
#    0.000    1.167    1.667    4.500    0.000    9.667 
#    0.000    0.000    0.000    0.000    0.000    0.000 
#    0.000    0.000    0.000    0.000    0.000    0.000 
#
# Total GULP energy -297697.887741 kJ/mol
# GULP energy per Si atom -12404.078656 kJ/mol
# Density = 2.043508 g / cm^3
# Si number density = 20.481698 Si / 1000 Ang^3
#
#
#
# Elastic Constant Matrix: (Units=GPa)
#
#
# Indices 1 2 3 4 5 6 
#
# 1 140.2458 40.9844 58.7380 0.0000 -0.7620 0.0000
# 2 40.9844 79.7620 57.8867 0.0000 4.1049 0.0000
# 3 58.7380 57.8867 143.2488 0.0000 -1.4651 0.0000
# 4 0.0000 0.0000 0.0000 29.5453 0.0000 -5.4518
# 5 -0.7620 4.1049 -1.4651 0.0000 19.4407 0.0000
# 6 0.0000 0.0000 0.0000 -5.4518 0.0000 34.2584
#
#
#
# Elastic Compliance Matrix: (Units=1/GPa)
#
#
# Indices 1 2 3 4 5 6 
#
# 1 0.009029 -0.002826 -0.002553 0.000000 0.000758 0.000000
# 2 -0.002826 0.018989 -0.006562 0.000000 -0.004615 0.000000
# 3 -0.002553 -0.006562 0.010701 0.000000 0.002092 0.000000
# 4 0.000000 0.000000 0.000000 0.034870 0.000000 0.005549
# 5 0.000758 -0.004615 0.002092 0.000000 0.052600 0.000000
# 6 0.000000 0.000000 0.000000 0.005549 0.000000 0.030073
#
#
# Mechanical properties :
#
#
# Convention : Reuss Voigt Hill
#
# Bulk Modulus (GPa) = 67.39482 75.38612 71.39047
# Shear Modulus (GPa) = 27.01387 30.35872 28.68629
#
# Velocity S-wave (km/s) = 3.63564 3.85416 3.74649
# Velocity P-wave (km/s) = 7.11338 7.52944 7.32437
#
# Compressibility (1/GPa) = 0.01483794
#
# Stress axis : x y z
#
# Youngs Moduli (GPa) = 110.74872 52.66156 93.45244
#
# Poissons Ratio (x) = 0.14882 0.23855
# Poissons Ratio (y) = 0.31298 0.61323
# Poissons Ratio (z) = 0.28271 0.34556
#
# Static dielectric constant tensor:
#      x y z
#    x 3.796550 0.000000 0.008580 
#    y 0.000000 3.683640 0.000000 
#    z 0.008580 0.000000 3.574740 
# 
# 
# High freq. dielectric constant tensor:
#      x y z
#    x 1.815390 0.000000 0.000330 
#    y 0.000000 1.804330 0.000000 
#    z 0.000330 0.000000 1.798810 
# 
# From -- ./inp_files/267670.got.cif
#   From: 2010.06.25/outbox.cif.g09.slc.cpg/sg12_134_cif.got.tgz:267670.got - 2010.06.28 00:19:55.
