data_PCOD8111654
_publ_section_title
;
Structure prediction by ZEFSAII (Michael W. Deem and Ramdas Pophale) SiO2 
 PCOD8111654
Probable space group: C 2/M
;
_chemical_formula_sum "Si O2"
_cell_formula_units_Z 64
_cell_length_a 17.597784
_cell_length_b 15.423178
_cell_length_c 14.838593
_cell_angle_alpha 90.000000
_cell_angle_beta 48.828049
_cell_angle_gamma 90.000000
_cell_volume 3031.572795
_symmetry_space_group_name_H-M "C 2/M"
_symmetry_group_IT_number 12
_symmetry_cell_setting 'monoclinic'
loop_
_space_group_symop_operation_xyz
x,y,z
-x,y,-z
-x,-y,-z
x,-y,z
1/2+x,1/2+y,z
1/2-x,1/2+y,-z
1/2-x,1/2-y,-z
1/2+x,1/2-y,z
loop_
_atom_site_type_symbol
_atom_site_label
_atom_site_fract_x
_atom_site_fract_y
_atom_site_fract_z
Si Si1 0.744465 0.330648 0.816970
Si Si2 0.001230 0.898223 0.268731
Si Si3 0.135763 0.671596 0.949152
Si Si4 0.715671 0.403140 0.028072
Si Si5 0.565646 0.902449 0.831128
Si Si6 0.704929 0.400404 0.655881
Si Si7 0.603895 0.101952 0.600836
Si Si8 0.461667 0.757301 0.630886
O O1 0.646889 0.269843 0.906955
O O2 0.755701 0.390850 0.895627
O O3 0.723234 0.389209 0.747130
O O4 0.842015 0.270961 0.725525
O O5 0.012408 0.835931 0.346160
O O6 0.902945 0.863404 0.291646
O O7 0.993057 0.000000 0.304908
O O8 0.096165 0.885002 0.127985
O O9 0.142212 0.610719 0.855030
O O10 0.226911 0.658134 0.947144
O O11 0.029697 0.661127 0.083125
O O12 0.742398 0.500000 0.036870
O O13 0.622161 0.883975 0.693316
O O14 0.523157 0.000000 0.865865
O O15 0.704079 0.500000 0.632148
O O16 0.797197 0.360142 0.526364
O O17 0.509338 0.159621 0.644265
O O18 0.582404 0.000000 0.595282
O O19 0.500000 0.754486 0.500000
#
# Coordination Sequence:
#
# PCOD8111654 Si02
#       8
#     8   8   8   8   8   8   8   8
#     4  12  25  40  63 101 126 169 215 267 330 394
#     4  10  25  45  67  93 131 179 227 269 315 387
#     4  11  22  37  62  93 131 164 208 266 321 386
#     4  11  23  42  65  90 130 175 212 268 327 387
#     4  10  22  40  64  96 128 167 212 262 331 392
#     4  10  23  46  68  94 130 171 222 273 321 389
#     4  10  23  42  69  99 131 169 213 272 335 391
#     4  12  25  43  67  98 133 171 218 269 333 395
#
# _framework density 21.111153000000002
#
# number of rings (size 3 to 8) (size 9 to 14) (size 15 to 20)
#    0.000    1.250    2.500    3.000    3.500    5.500 
#    0.000    1.875    0.000    0.000    0.000    0.000 
#    0.000    0.000    0.000    0.000    0.000    0.000 
#
# Total GULP energy -396804.438764 kJ/mol
# GULP energy per Si atom -12400.138711 kJ/mol
# Density = 2.106310 g / cm^3
# Si number density = 21.111153 Si / 1000 Ang^3
#
#
#
# Elastic Constant Matrix: (Units=GPa)
#
#
# Indices 1 2 3 4 5 6 
#
# 1 100.0070 19.5979 37.2968 0.0000 7.9181 0.0000
# 2 19.5979 53.2420 26.4560 0.0000 0.3426 0.0000
# 3 37.2968 26.4560 116.7226 0.0000 18.2411 0.0000
# 4 0.0000 0.0000 0.0000 25.4875 0.0000 6.9216
# 5 7.9181 0.3426 18.2411 0.0000 39.9488 0.0000
# 6 0.0000 0.0000 0.0000 6.9216 0.0000 31.1770
#
#
#
# Elastic Compliance Matrix: (Units=1/GPa)
#
#
# Indices 1 2 3 4 5 6 
#
# 1 0.011735 -0.002844 -0.002956 0.000000 -0.000952 0.000000
# 2 -0.002844 0.022031 -0.004461 0.000000 0.002412 0.000000
# 3 -0.002956 -0.004461 0.011227 0.000000 -0.004502 0.000000
# 4 0.000000 0.000000 0.000000 0.041752 0.000000 -0.009269
# 5 -0.000952 0.002412 -0.004502 0.000000 0.027256 0.000000
# 6 0.000000 0.000000 0.000000 -0.009269 0.000000 0.034133
#
#
# Mechanical properties :
#
#
# Convention : Reuss Voigt Hill
#
# Bulk Modulus (GPa) = 40.86995 48.51921 44.69458
# Shear Modulus (GPa) = 28.27860 31.76406 30.02133
#
# Velocity S-wave (km/s) = 3.66390 3.88314 3.77511
# Velocity P-wave (km/s) = 6.10740 6.56793 6.34185
#
# Compressibility (1/GPa) = 0.02446786
#
# Stress axis : x y z
#
# Youngs Moduli (GPa) = 85.21876 45.39160 89.07333
#
# Poissons Ratio (x) = 0.12911 0.26332
# Poissons Ratio (y) = 0.24239 0.39740
# Poissons Ratio (z) = 0.25192 0.20251
#
# Static dielectric constant tensor:
#      x y z
#    x 3.843000 0.000000 -0.042630 
#    y 0.000000 3.809670 0.000000 
#    z -0.042630 0.000000 3.925930 
# 
# 
# High freq. dielectric constant tensor:
#      x y z
#    x 1.826110 0.000000 0.002990 
#    y 0.000000 1.827370 0.000000 
#    z 0.002990 0.000000 1.835840 
# 
# From -- ./inp_files/225663.got.cif
#   From: 2010.06.25/outbox.cif.g09.slc.cpg/sg12_113_cif.got.tgz:225663.got - 2010.06.28 00:19:55.
