data_PCOD8111688
_publ_section_title
;
Structure prediction by ZEFSAII (Michael W. Deem and Ramdas Pophale) SiO2 
 PCOD8111688
Probable space group: C 2/M
;
_chemical_formula_sum "Si O2"
_cell_formula_units_Z 40
_cell_length_a 15.275257
_cell_length_b 12.747056
_cell_length_c 20.836945
_cell_angle_alpha 90.000000
_cell_angle_beta 26.879675
_cell_angle_gamma 90.000000
_cell_volume 1834.360019
_symmetry_space_group_name_H-M "C 2/M"
_symmetry_group_IT_number 12
_symmetry_cell_setting 'monoclinic'
loop_
_space_group_symop_operation_xyz
x,y,z
-x,y,-z
-x,-y,-z
x,-y,z
1/2+x,1/2+y,z
1/2-x,1/2+y,-z
1/2-x,1/2-y,-z
1/2+x,1/2-y,z
loop_
_atom_site_type_symbol
_atom_site_label
_atom_site_fract_x
_atom_site_fract_y
_atom_site_fract_z
Si Si1 0.513676 0.114818 0.923145
Si Si2 0.672254 0.500000 0.711951
Si Si3 0.789623 0.119603 0.636596
Si Si4 0.408822 0.816431 0.360326
Si Si5 0.866376 0.172331 0.878094
Si Si6 0.508207 0.000000 0.388465
O O1 0.649174 0.174662 0.781670
O O2 0.605472 0.000000 0.876245
O O3 0.500000 0.177710 0.000000
O O4 0.298303 0.093681 0.038052
O O5 0.539930 0.605284 0.797076
O O6 0.799237 0.500000 0.693695
O O7 0.812658 0.500000 0.558527
O O8 0.695012 0.121481 0.628994
O O9 0.000000 0.176917 0.500000
O O10 0.817828 0.000000 0.638938
O O11 0.250000 0.750000 0.500000
O O12 0.563487 0.737108 0.229565
O O13 0.512135 0.897220 0.341030
O O14 0.750000 0.250000 0.000000
#
# Coordination Sequence:
#
# PCOD8111688 Si02
#       6
#     8   4   8   8   8   4
#     4  10  22  40  65  95 132 173 219 278 348 415
#     4  11  26  49  74 105 150 197 236 307 364 433
#     4  10  22  40  65  95 132 169 221 286 341 404
#     4  12  25  42  72 105 138 189 239 293 353 437
#     4  12  25  44  72 103 144 189 238 294 364 433
#     4  11  26  49  74 107 146 191 252 299 364 429
#
# _framework density 21.805969999999999
#
# number of rings (size 3 to 8) (size 9 to 14) (size 15 to 20)
#    0.000    1.000    6.000    0.000    2.800    4.000 
#    0.000    1.000    0.000    0.000    0.000    0.000 
#    0.000    0.000    0.000    0.000    0.000    0.000 
#
# Total GULP energy -247815.608328 kJ/mol
# GULP energy per Si atom -12390.780416 kJ/mol
# Density = 2.175634 g / cm^3
# Si number density = 21.805970 Si / 1000 Ang^3
#
#
#
# Elastic Constant Matrix: (Units=GPa)
#
#
# Indices 1 2 3 4 5 6 
#
# 1 162.7297 39.5667 83.2523 0.0001 2.0644 0.0015
# 2 39.5667 94.4165 54.8600 -0.0023 6.4583 0.0043
# 3 83.2523 54.8600 195.5729 -0.0210 8.0231 0.0081
# 4 0.0001 -0.0023 -0.0210 26.3059 0.0054 -0.7189
# 5 2.0644 6.4583 8.0231 0.0054 43.9688 -0.0019
# 6 0.0015 0.0043 0.0081 -0.7189 -0.0019 16.9734
#
#
#
# Elastic Compliance Matrix: (Units=1/GPa)
#
#
# Indices 1 2 3 4 5 6 
#
# 1 0.008074 -0.001678 -0.002983 -0.000003 0.000412 0.000001
# 2 -0.001678 0.013068 -0.002897 -0.000001 -0.001312 -0.000002
# 3 -0.002983 -0.002897 0.007227 0.000006 -0.000753 -0.000002
# 4 -0.000003 -0.000001 0.000006 0.038058 -0.000005 0.001612
# 5 0.000412 -0.001312 -0.000753 -0.000005 0.023054 0.000003
# 6 0.000001 -0.000002 -0.000002 0.001612 0.000003 0.058984
#
#
# Mechanical properties :
#
#
# Convention : Reuss Voigt Hill
#
# Bulk Modulus (GPa) = 75.46627 89.78633 82.62630
# Shear Modulus (GPa) = 29.76189 35.78566 32.77377
#
# Velocity S-wave (km/s) = 3.69840 4.05544 3.88102
# Velocity P-wave (km/s) = 7.27466 7.94942 7.61951
#
# Compressibility (1/GPa) = 0.01325095
#
# Stress axis : x y z
#
# Youngs Moduli (GPa) = 123.85116 76.52284 138.37600
#
# Poissons Ratio (x) = 0.12844 0.41279
# Poissons Ratio (y) = 0.20788 0.40093
# Poissons Ratio (z) = 0.36946 0.22172
#
# Static dielectric constant tensor:
#      x y z
#    x 4.144880 0.006190 0.124990 
#    y 0.006190 -0.847380 0.002830 
#    z 0.124990 0.002830 4.605720 
# 
# 
# High freq. dielectric constant tensor:
#      x y z
#    x 1.858740 0.000000 0.003840 
#    y 0.000000 1.839380 0.000000 
#    z 0.003840 0.000000 1.878370 
# 
# From -- ./inp_files/270521.got.cif
#   From: 2010.06.25/outbox.cif.g09.slc.cpg/sg12_136_cif.got.tgz:270521.got - 2010.06.28 00:19:55.
