data_PCOD8111498
_publ_section_title
;
Structure prediction by ZEFSAII (Michael W. Deem and Ramdas Pophale) SiO2 
 PCOD8111498
Probable space group: C 2/M
;
_chemical_formula_sum "Si O2"
_cell_formula_units_Z 56
_cell_length_a 10.191431
_cell_length_b 22.441383
_cell_length_c 13.583556
_cell_angle_alpha 90.000000
_cell_angle_beta 79.340769
_cell_angle_gamma 90.000000
_cell_volume 3053.085426
_symmetry_space_group_name_H-M "C 2/M"
_symmetry_group_IT_number 12
_symmetry_cell_setting 'monoclinic'
loop_
_space_group_symop_operation_xyz
x,y,z
-x,y,-z
-x,-y,-z
x,-y,z
1/2+x,1/2+y,z
1/2-x,1/2+y,-z
1/2-x,1/2-y,-z
1/2+x,1/2-y,z
loop_
_atom_site_type_symbol
_atom_site_label
_atom_site_fract_x
_atom_site_fract_y
_atom_site_fract_z
Si Si1 0.484598 0.375183 0.118436
Si Si2 0.195753 0.664372 0.220053
Si Si3 0.637739 0.684278 0.436556
Si Si4 0.305749 0.305686 0.790863
Si Si5 0.358028 0.825994 0.553266
Si Si6 0.878290 0.500000 0.091321
Si Si7 0.046123 0.374322 0.880837
Si Si8 0.924300 0.000000 0.907984
O O1 0.332155 0.364487 0.165687
O O2 0.578721 0.324601 0.150435
O O3 0.530776 0.439783 0.154650
O O4 0.500000 0.372612 0.000000
O O5 0.197472 0.734910 0.208428
O O6 0.177372 0.646435 0.336304
O O7 0.077512 0.636522 0.173156
O O8 0.500000 0.659417 0.500000
O O9 0.658470 0.666210 0.320309
O O10 0.641019 0.755066 0.442358
O O11 0.752169 0.653645 0.486036
O O12 0.160275 0.325977 0.845793
O O13 0.500000 0.851444 0.500000
O O14 0.892627 0.439609 0.152912
O O15 0.735905 0.500000 0.055060
O O16 0.000000 0.500000 0.000000
O O17 0.000000 0.369120 0.000000
O O18 0.000000 0.000000 0.000000
#
# Coordination Sequence:
#
# PCOD8111498 Si02
#       8
#     8   8   8   8   8   4   8   4
#     4  11  23  37  56  80 115 149 186 230 270 325
#     4  11  23  34  54  87 117 149 182 220 282 346
#     4   9  17  30  52  75 104 144 184 227 267 315
#     4  11  21  36  54  83 119 150 183 220 278 346
#     4   9  17  32  50  75 108 141 183 228 268 315
#     4  10  22  40  62  80 102 143 202 244 268 307
#     4  11  23  37  56  80 113 150 191 228 268 325
#     4  10  22  40  62  80 102 144 198 246 272 302
#
# _framework density 18.342099999999999
#
# number of rings (size 3 to 8) (size 9 to 14) (size 15 to 20)
#    0.000    1.714    1.429    3.429    6.000    8.000 
#    0.000    0.000    0.000    0.000    0.000   20.000 
#    0.000    0.000    0.000    0.000    0.000    0.000 
#
# Total GULP energy -347178.756187 kJ/mol
# GULP energy per Si atom -12399.241292 kJ/mol
# Density = 1.830035 g / cm^3
# Si number density = 18.342100 Si / 1000 Ang^3
#
#
#
# Elastic Constant Matrix: (Units=GPa)
#
#
# Indices 1 2 3 4 5 6 
#
# 1 172.8802 37.0720 60.7205 0.0000 10.8171 0.0000
# 2 37.0720 74.9368 30.6925 0.0000 1.6148 0.0000
# 3 60.7205 30.6925 126.4974 0.0000 -0.2120 0.0000
# 4 0.0000 0.0000 0.0000 3.4797 0.0000 4.4226
# 5 10.8171 1.6148 -0.2120 0.0000 29.2731 0.0000
# 6 0.0000 0.0000 0.0000 4.4226 0.0000 30.2656
#
#
#
# Elastic Compliance Matrix: (Units=1/GPa)
#
#
# Indices 1 2 3 4 5 6 
#
# 1 0.007538 -0.002429 -0.003033 0.000000 -0.002673 0.000000
# 2 -0.002429 0.015621 -0.002624 0.000000 0.000017 0.000000
# 3 -0.003033 -0.002624 0.010000 0.000000 0.001338 0.000000
# 4 0.000000 0.000000 0.000000 0.352925 0.000000 -0.051571
# 5 -0.002673 0.000017 0.001338 0.000000 0.035158 0.000000
# 6 0.000000 0.000000 0.000000 -0.051571 0.000000 0.040577
#
#
# Mechanical properties :
#
#
# Convention : Reuss Voigt Hill
#
# Bulk Modulus (GPa) = 58.87277 70.14272 64.50774
# Shear Modulus (GPa) = 10.33798 28.99229 19.66514
#
# Velocity S-wave (km/s) = 2.37664 3.98004 3.27789
# Velocity P-wave (km/s) = 6.30064 7.71008 7.04072
#
# Compressibility (1/GPa) = 0.01698578
#
# Stress axis : x y z
#
# Youngs Moduli (GPa) = 132.66235 64.01774 99.99679
#
# Poissons Ratio (x) = 0.15550 0.30333
# Poissons Ratio (y) = 0.32224 0.26240
# Poissons Ratio (z) = 0.40242 0.16799
#
# Static dielectric constant tensor:
#      x y z
#    x 3.583230 0.000000 -0.001780 
#    y 0.000000 3.562520 0.000000 
#    z -0.001780 0.000000 3.471940 
# 
# 
# High freq. dielectric constant tensor:
#      x y z
#    x 1.737530 0.000000 0.002370 
#    y 0.000000 1.682520 0.000000 
#    z 0.002370 0.000000 1.706220 
# 
# From -- ./inp_files/197579.got.cif
#   From: 2010.06.25/outbox.cif.g09.slc.cpg/sg12_99_cif.got.tgz:197579.got - 2010.06.28 00:19:55.
