data_PCOD8111190
_publ_section_title
;
Structure prediction by ZEFSAII (Michael W. Deem and Ramdas Pophale) SiO2 
 PCOD8111190
Probable space group: C 2/M
;
_chemical_formula_sum "Si O2"
_cell_formula_units_Z 56
_cell_length_a 30.282167
_cell_length_b 8.797970
_cell_length_c 12.252935
_cell_angle_alpha 90.000000
_cell_angle_beta 128.217546
_cell_angle_gamma 90.000000
_cell_volume 2564.769454
_symmetry_space_group_name_H-M "C 2/M"
_symmetry_group_IT_number 12
_symmetry_cell_setting 'monoclinic'
loop_
_space_group_symop_operation_xyz
x,y,z
-x,y,-z
-x,-y,-z
x,-y,z
1/2+x,1/2+y,z
1/2-x,1/2+y,-z
1/2-x,1/2-y,-z
1/2+x,1/2-y,z
loop_
_atom_site_type_symbol
_atom_site_label
_atom_site_fract_x
_atom_site_fract_y
_atom_site_fract_z
Si Si1 0.544862 0.322267 0.323752
Si Si2 0.146466 0.322082 0.056032
Si Si3 0.926075 0.179455 0.234515
Si Si4 0.264888 0.167030 0.241751
Si Si5 0.115584 0.679832 0.616328
Si Si6 0.400119 0.674607 0.804568
Si Si7 0.803928 0.331755 0.540809
O O1 0.553700 0.500000 0.361125
O O2 0.484293 0.264358 0.270595
O O3 0.593451 0.232546 0.463483
O O4 0.546060 0.293823 0.192393
O O5 0.142318 0.500000 0.035418
O O6 0.212123 0.278830 0.171423
O O7 0.106861 0.274079 0.097277
O O8 0.125372 0.244490 0.913986
O O9 0.923384 0.240669 0.353155
O O10 0.922020 0.000000 0.229429
O O11 0.318744 0.226759 0.254269
O O12 0.298341 0.145909 0.404840
O O13 0.243389 0.000000 0.169758
O O14 0.109065 0.500000 0.614859
O O15 0.396961 0.500000 0.837805
O O16 0.351708 0.713624 0.645145
O O17 0.813059 0.500000 0.609067
O O18 0.750000 0.250000 0.500000
#
# Coordination Sequence:
#
# PCOD8111190 Si02
#       7
#     8   8   8   8   8   8   8
#     4  10  23  42  67  95 123 163 210 254 307 369
#     4  12  26  42  63  92 126 166 210 254 309 373
#     4  11  25  46  66  87 123 168 213 257 305 368
#     4  10  22  39  61  91 128 165 202 248 308 372
#     4  11  23  41  67  98 127 158 204 261 314 361
#     4  11  22  38  62  92 127 163 204 253 308 368
#     4  11  20  33  56  89 125 163 202 249 307 366
#
# _framework density 21.834323000000001
#
# number of rings (size 3 to 8) (size 9 to 14) (size 15 to 20)
#    0.000    1.143    2.857    3.429    0.000    6.286 
#    0.000    2.857    0.000    0.000    0.000    0.000 
#    0.000    0.000    0.000    0.000    0.000    0.000 
#
# Total GULP energy -347011.752375 kJ/mol
# GULP energy per Si atom -12393.276871 kJ/mol
# Density = 2.178463 g / cm^3
# Si number density = 21.834323 Si / 1000 Ang^3
#
#
#
# Elastic Constant Matrix: (Units=GPa)
#
#
# Indices 1 2 3 4 5 6 
#
# 1 102.0047 36.4269 -1.8814 0.0000 -6.3523 0.0000
# 2 36.4269 84.6992 11.9055 0.0000 -2.6518 0.0000
# 3 -1.8814 11.9055 52.1230 0.0000 -7.2582 0.0000
# 4 0.0000 0.0000 0.0000 32.3958 0.0000 -3.4996
# 5 -6.3523 -2.6518 -7.2582 0.0000 26.2334 0.0000
# 6 0.0000 0.0000 0.0000 -3.4996 0.0000 23.9785
#
#
#
# Elastic Compliance Matrix: (Units=1/GPa)
#
#
# Indices 1 2 3 4 5 6 
#
# 1 0.011925 -0.005326 0.002053 0.000000 0.002917 0.000000
# 2 -0.005326 0.014583 -0.003638 0.000000 -0.000822 0.000000
# 3 0.002053 -0.003638 0.020914 0.000000 0.005916 0.000000
# 4 0.000000 0.000000 0.000000 0.031363 0.000000 0.004577
# 5 0.002917 -0.000822 0.005916 0.000000 0.040380 0.000000
# 6 0.000000 0.000000 0.000000 0.004577 0.000000 0.042372
#
#
# Mechanical properties :
#
#
# Convention : Reuss Voigt Hill
#
# Bulk Modulus (GPa) = 29.76085 36.85876 33.30980
# Shear Modulus (GPa) = 26.80151 29.34660 28.07406
#
# Velocity S-wave (km/s) = 3.50736 3.67012 3.58966
# Velocity P-wave (km/s) = 5.48288 5.90571 5.69822
#
# Compressibility (1/GPa) = 0.03360119
#
# Stress axis : x y z
#
# Youngs Moduli (GPa) = 83.85804 68.57507 47.81448
#
# Poissons Ratio (x) = 0.36522 -0.09817
# Poissons Ratio (y) = 0.44662 0.17393
# Poissons Ratio (z) = -0.17217 0.24944
#
# Static dielectric constant tensor:
#      x y z
#    x 4.273900 0.000000 -0.059080 
#    y 0.000000 3.751930 0.000000 
#    z -0.059080 0.000000 3.700830 
# 
# 
# High freq. dielectric constant tensor:
#      x y z
#    x 1.878690 0.000000 -0.005410 
#    y 0.000000 1.857320 0.000000 
#    z -0.005410 0.000000 1.841920 
# 
# From -- ./inp_files/187751.got.cif
#   From: 2010.06.25/outbox.cif.g09.slc.cpg/sg12_94_cif.got.tgz:187751.got - 2010.06.28 00:19:55.
