data_PCOD8111157
_publ_section_title
;
Structure prediction by ZEFSAII (Michael W. Deem and Ramdas Pophale) SiO2 
 PCOD8111157
Probable space group: C 2/M
;
_chemical_formula_sum "Si O2"
_cell_formula_units_Z 40
_cell_length_a 13.521549
_cell_length_b 9.915323
_cell_length_c 12.713462
_cell_angle_alpha 90.000000
_cell_angle_beta 103.360222
_cell_angle_gamma 90.000000
_cell_volume 1658.370847
_symmetry_space_group_name_H-M "C 2/M"
_symmetry_group_IT_number 12
_symmetry_cell_setting 'monoclinic'
loop_
_space_group_symop_operation_xyz
x,y,z
-x,y,-z
-x,-y,-z
x,-y,z
1/2+x,1/2+y,z
1/2-x,1/2+y,-z
1/2-x,1/2-y,-z
1/2+x,1/2-y,z
loop_
_atom_site_type_symbol
_atom_site_label
_atom_site_fract_x
_atom_site_fract_y
_atom_site_fract_z
Si Si1 0.387484 0.846635 0.600524
Si Si2 0.589401 0.347577 0.211319
Si Si3 0.150353 0.644261 0.051952
Si Si4 0.372500 0.850389 0.366481
Si Si5 0.135977 0.782120 0.843476
O O1 0.355239 0.738420 0.681777
O O2 0.348802 0.790560 0.477206
O O3 0.508311 0.853911 0.627353
O O4 0.346883 0.000000 0.613963
O O5 0.633782 0.500000 0.219020
O O6 0.608465 0.270824 0.106826
O O7 0.468312 0.362835 0.199856
O O8 0.105519 0.500000 0.080060
O O9 0.272965 0.629524 0.086455
O O10 0.115566 0.661861 0.922089
O O11 0.320465 0.768801 0.258835
O O12 0.327736 0.000000 0.353888
#
# Coordination Sequence:
#
# PCOD8111157 Si02
#       5
#     8   8   8   8   8
#     4   8  15  31  56  85 115 147 189 235 283 344
#     4  11  23  39  60  87 120 154 191 239 292 340
#     4  11  24  40  60  87 118 155 198 238 283 346
#     4   8  14  29  56  86 113 147 189 235 287 342
#     4  10  22  39  61  86 118 152 191 241 293 340
#
# _framework density 24.120056999999999
#
# number of rings (size 3 to 8) (size 9 to 14) (size 15 to 20)
#    0.000    2.400    0.000    3.600    0.000    8.800 
#    0.000   10.000    0.000    0.000    0.000    0.000 
#    0.000    0.000    0.000    0.000    0.000    0.000 
#
# Total GULP energy -247828.520579 kJ/mol
# GULP energy per Si atom -12391.426029 kJ/mol
# Density = 2.406516 g / cm^3
# Si number density = 24.120057 Si / 1000 Ang^3
#
#
#
# Elastic Constant Matrix: (Units=GPa)
#
#
# Indices 1 2 3 4 5 6 
#
# 1 34.3539 5.6490 17.5958 0.0000 -7.5851 0.0000
# 2 5.6490 172.0859 73.4294 0.0000 -21.8736 0.0000
# 3 17.5958 73.4294 176.2462 0.0000 -2.9789 0.0000
# 4 0.0000 0.0000 0.0000 26.0289 0.0000 -19.3807
# 5 -7.5851 -21.8736 -2.9789 0.0000 33.2278 0.0000
# 6 0.0000 0.0000 0.0000 -19.3807 0.0000 7.8458
#
#
#
# Elastic Compliance Matrix: (Units=1/GPa)
#
#
# Indices 1 2 3 4 5 6 
#
# 1 0.032577 0.001573 -0.003770 0.000000 0.008134 0.000000
# 2 0.001573 0.007848 -0.003339 0.000000 0.005226 0.000000
# 3 -0.003770 -0.003339 0.007401 0.000000 -0.002395 0.000000
# 4 0.000000 0.000000 0.000000 -0.045776 0.000000 -0.113077
# 5 0.008134 0.005226 -0.002395 0.000000 0.035178 0.000000
# 6 0.000000 0.000000 0.000000 -0.113077 0.000000 -0.151866
#
#
# Mechanical properties :
#
#
# Convention : Reuss Voigt Hill
#
# Bulk Modulus (GPa) = 27.20711 64.00383 45.60547
# Shear Modulus (GPa) = -54.75569 32.48793 -11.13388
#
# Velocity S-wave (km/s) = -4.76976 3.67403 -2.15082
# Velocity P-wave (km/s) = 4.36231 6.67766 3.57501
#
# Compressibility (1/GPa) = 0.03675510
#
# Stress axis : x y z
#
# Youngs Moduli (GPa) = 30.69627 127.41616 135.12091
#
# Poissons Ratio (x) = -0.20048 0.50946
# Poissons Ratio (y) = -0.04830 0.45111
# Poissons Ratio (z) = 0.11574 0.42539
#
# Static dielectric constant tensor:
#      x y z
#    x 4.038800 0.000000 0.113690 
#    y 0.000000 4.088090 0.000000 
#    z 0.113690 0.000000 4.696580 
# 
# 
# High freq. dielectric constant tensor:
#      x y z
#    x 1.953380 0.000000 0.008150 
#    y 0.000000 1.930790 0.000000 
#    z 0.008150 0.000000 1.968930 
# 
# From -- ./inp_files/140490.got.cif
#   From: 2010.06.25/outbox.cif.g09.slc.cpg/sg12_71_cif.got.tgz:140490.got - 2010.06.28 00:19:55.
