data_PCOD8111510
_publ_section_title
;
Structure prediction by ZEFSAII (Michael W. Deem and Ramdas Pophale) SiO2 
 PCOD8111510
Probable space group: C 2/M
;
_chemical_formula_sum "Si O2"
_cell_formula_units_Z 48
_cell_length_a 22.877014
_cell_length_b 8.972170
_cell_length_c 12.181222
_cell_angle_alpha 90.000000
_cell_angle_beta 110.041238
_cell_angle_gamma 90.000000
_cell_volume 2348.873399
_symmetry_space_group_name_H-M "C 2/M"
_symmetry_group_IT_number 12
_symmetry_cell_setting 'monoclinic'
loop_
_space_group_symop_operation_xyz
x,y,z
-x,y,-z
-x,-y,-z
x,-y,z
1/2+x,1/2+y,z
1/2-x,1/2+y,-z
1/2-x,1/2-y,-z
1/2+x,1/2-y,z
loop_
_atom_site_type_symbol
_atom_site_label
_atom_site_fract_x
_atom_site_fract_y
_atom_site_fract_z
Si Si1 0.609296 0.328276 0.041476
Si Si2 0.569445 0.329434 0.254825
Si Si3 0.856523 0.829466 0.315978
Si Si4 0.945990 0.675626 0.208489
Si Si5 0.266847 0.828889 0.898976
Si Si6 0.816224 0.174233 0.527543
O O1 0.620881 0.500000 0.017523
O O2 0.566189 0.313048 0.120907
O O3 0.674028 0.251904 0.115248
O O4 0.578544 0.250260 0.918060
O O5 0.555747 0.500000 0.280163
O O6 0.516966 0.225174 0.274255
O O7 0.637111 0.281195 0.343857
O O8 0.905714 0.724690 0.286946
O O9 0.788761 0.811058 0.221117
O O10 0.850425 0.776003 0.437430
O O11 0.879674 0.000000 0.321719
O O12 0.941913 0.500000 0.192558
O O13 0.283119 0.000000 0.933680
O O14 0.250000 0.750000 0.000000
O O15 0.750000 0.250000 0.500000
O O16 0.802448 0.000000 0.515527
#
# Coordination Sequence:
#
# PCOD8111510 Si02
#       6
#     8   8   8   8   8   8
#     4  11  22  38  61  88 122 161 200 249 305 361
#     4  10  23  42  63  87 120 162 202 243 301 363
#     4  10  22  40  62  88 123 162 200 243 298 360
#     4  12  25  39  60  89 121 158 203 254 303 355
#     4  11  21  34  57  88 121 158 198 245 297 350
#     4  10  22  42  67  93 120 157 199 245 298 356
#
# _framework density 20.435327999999998
#
# number of rings (size 3 to 8) (size 9 to 14) (size 15 to 20)
#    0.000    1.333    1.667    4.000    0.000    6.000 
#    0.000    3.333    0.000    0.000    0.000    0.000 
#    0.000    0.000    0.000    0.000    0.000    0.000 
#
# Total GULP energy -297701.072425 kJ/mol
# GULP energy per Si atom -12404.211351 kJ/mol
# Density = 2.038882 g / cm^3
# Si number density = 20.435328 Si / 1000 Ang^3
#
#
#
# Elastic Constant Matrix: (Units=GPa)
#
#
# Indices 1 2 3 4 5 6 
#
# 1 131.2444 71.2949 41.3744 0.0000 2.2096 0.0000
# 2 71.2949 134.3228 42.9208 0.0000 -2.6067 0.0000
# 3 41.3744 42.9208 103.9792 0.0000 -10.9667 0.0000
# 4 0.0000 0.0000 0.0000 22.1678 0.0000 4.1681
# 5 2.2096 -2.6067 -10.9667 0.0000 23.6710 0.0000
# 6 0.0000 0.0000 0.0000 4.1681 0.0000 40.6045
#
#
#
# Elastic Compliance Matrix: (Units=1/GPa)
#
#
# Indices 1 2 3 4 5 6 
#
# 1 0.011346 -0.005228 -0.002659 0.000000 -0.002867 0.000000
# 2 -0.005228 0.010997 -0.002397 0.000000 0.000589 0.000000
# 3 -0.002659 -0.002397 0.012262 0.000000 0.005665 0.000000
# 4 0.000000 0.000000 0.000000 0.045998 0.000000 -0.004722
# 5 -0.002867 0.000589 0.005665 0.000000 0.045203 0.000000
# 6 0.000000 0.000000 0.000000 -0.004722 0.000000 0.025112
#
#
# Mechanical properties :
#
#
# Convention : Reuss Voigt Hill
#
# Bulk Modulus (GPa) = 71.23953 75.63628 73.43791
# Shear Modulus (GPa) = 28.38234 31.55243 29.96738
#
# Velocity S-wave (km/s) = 3.73082 3.93366 3.83358
# Velocity P-wave (km/s) = 7.31405 7.59766 7.45720
#
# Compressibility (1/GPa) = 0.01403715
#
# Stress axis : x y z
#
# Youngs Moduli (GPa) = 88.13782 90.93364 81.55086
#
# Poissons Ratio (x) = 0.47541 0.21684
# Poissons Ratio (y) = 0.46079 0.19548
# Poissons Ratio (z) = 0.23435 0.21797
#
# Static dielectric constant tensor:
#      x y z
#    x 3.575600 0.000000 -0.209660 
#    y 0.000000 3.712160 0.000000 
#    z -0.209660 0.000000 3.447800 
# 
# 
# High freq. dielectric constant tensor:
#      x y z
#    x 1.808350 0.000000 -0.000450 
#    y 0.000000 1.795800 0.000000 
#    z -0.000450 0.000000 1.802960 
# 
# From -- ./inp_files/172950.got.cif
#   From: 2010.06.25/outbox.cif.g09.slc.cpg/sg12_87_cif.got.tgz:172950.got - 2010.06.28 00:19:55.
