data_PCOD8111282
_publ_section_title
;
Structure prediction by ZEFSAII (Michael W. Deem and Ramdas Pophale) SiO2 
 PCOD8111282
Probable space group: C 2/M
;
_chemical_formula_sum "Si O2"
_cell_formula_units_Z 40
_cell_length_a 27.214606
_cell_length_b 8.974381
_cell_length_c 21.751208
_cell_angle_alpha 90.000000
_cell_angle_beta 20.913894
_cell_angle_gamma 90.000000
_cell_volume 1896.334734
_symmetry_space_group_name_H-M "C 2/M"
_symmetry_group_IT_number 12
_symmetry_cell_setting 'monoclinic'
loop_
_space_group_symop_operation_xyz
x,y,z
-x,y,-z
-x,-y,-z
x,-y,z
1/2+x,1/2+y,z
1/2-x,1/2+y,-z
1/2-x,1/2-y,-z
1/2+x,1/2-y,z
loop_
_atom_site_type_symbol
_atom_site_label
_atom_site_fract_x
_atom_site_fract_y
_atom_site_fract_z
Si Si1 0.891865 0.169379 0.077530
Si Si2 0.106725 0.326191 0.595142
Si Si3 0.658604 0.177793 0.160688
Si Si4 0.651268 0.324635 0.299686
Si Si5 0.094996 0.167044 0.731840
O O1 0.754989 0.268558 0.232063
O O2 0.851917 0.000000 0.143752
O O3 0.000000 0.237333 0.000000
O O4 0.964583 0.172907 0.927203
O O5 0.094417 0.500000 0.615590
O O6 0.055443 0.264112 0.719954
O O7 0.264802 0.275034 0.397620
O O8 0.001002 0.275762 0.665699
O O9 0.691510 0.243118 0.189225
O O10 0.683262 0.000000 0.132732
O O11 0.750000 0.250000 0.000000
O O12 0.500000 0.280990 0.500000
O O13 0.667510 0.500000 0.271072
O O14 0.123896 0.000000 0.674857
#
# Coordination Sequence:
#
# PCOD8111282 Si02
#       5
#     8   8   8   8   8
#     4  10  22  39  64  91 118 157 206 259 312 373
#     4   9  19  34  55  84 115 152 193 242 301 362
#     4  11  23  39  64  92 124 165 211 261 317 379
#     4  11  26  45  63  90 130 171 215 265 316 375
#     4   9  18  34  55  84 118 149 192 245 300 360
#
# _framework density 21.093322000000001
#
# number of rings (size 3 to 8) (size 9 to 14) (size 15 to 20)
#    0.000    2.000    0.000    2.400    2.800    7.600 
#    0.000    0.000    0.000    0.000    0.000    0.000 
#    0.000    0.000    0.000    0.000    0.000    0.000 
#
# Total GULP energy -247925.725744 kJ/mol
# GULP energy per Si atom -12396.286287 kJ/mol
# Density = 2.104531 g / cm^3
# Si number density = 21.093322 Si / 1000 Ang^3
#
#
#
# Elastic Constant Matrix: (Units=GPa)
#
#
# Indices 1 2 3 4 5 6 
#
# 1 107.6157 35.2816 43.6322 0.0048 -31.1663 0.0002
# 2 35.2816 51.3252 46.3733 0.0142 -17.4260 -0.0009
# 3 43.6322 46.3733 93.2269 0.0232 -14.9302 0.0012
# 4 0.0048 0.0142 0.0232 27.5183 -0.0035 -2.7079
# 5 -31.1663 -17.4260 -14.9302 -0.0035 33.2468 -0.0019
# 6 0.0002 -0.0009 0.0012 -2.7079 -0.0019 28.9535
#
#
#
# Elastic Compliance Matrix: (Units=1/GPa)
#
#
# Indices 1 2 3 4 5 6 
#
# 1 0.014941 -0.003429 -0.003590 0.000004 0.010596 0.000001
# 2 -0.003429 0.040759 -0.016985 -0.000005 0.010521 0.000002
# 3 -0.003590 -0.016985 0.020354 -0.000008 -0.003127 -0.000002
# 4 0.000004 -0.000005 -0.000008 0.036677 0.000001 0.003430
# 5 0.010596 0.010521 -0.003127 0.000001 0.044122 0.000003
# 6 0.000001 0.000002 -0.000002 0.003430 0.000003 0.034859
#
#
# Mechanical properties :
#
#
# Convention : Reuss Voigt Hill
#
# Bulk Modulus (GPa) = 35.65451 55.86022 45.75736
# Shear Modulus (GPa) = 20.07476 26.40242 23.23859
#
# Velocity S-wave (km/s) = 3.08833 3.54177 3.32279
# Velocity P-wave (km/s) = 5.44582 6.57764 6.03831
#
# Compressibility (1/GPa) = 0.02804695
#
# Stress axis : x y z
#
# Youngs Moduli (GPa) = 66.93029 24.53434 49.12951
#
# Poissons Ratio (x) = 0.08414 0.17636
# Poissons Ratio (y) = 0.22953 0.83444
# Poissons Ratio (z) = 0.24027 0.41670
#
# Static dielectric constant tensor:
#      x y z
#    x 3.960300 0.000000 -0.452520 
#    y 0.000000 3.768200 0.000000 
#    z -0.452520 0.000000 3.868550 
# 
# 
# High freq. dielectric constant tensor:
#      x y z
#    x 1.830780 0.000000 -0.019570 
#    y 0.000000 1.813770 0.000000 
#    z -0.019570 0.000000 1.835180 
# 
# From -- ./inp_files/352965.got.cif
#   From: 2010.06.25/outbox.cif.g09.slc.cpg/sg12_177_cif.got.tgz:352965.got - 2010.06.28 00:19:55.
