data_PCOD8111458
_publ_section_title
;
Structure prediction by ZEFSAII (Michael W. Deem and Ramdas Pophale) SiO2 
 PCOD8111458
Probable space group: C 2/M
;
_chemical_formula_sum "Si O2"
_cell_formula_units_Z 48
_cell_length_a 9.066467
_cell_length_b 19.764060
_cell_length_c 21.432579
_cell_angle_alpha 90.000000
_cell_angle_beta 40.611955
_cell_angle_gamma 90.000000
_cell_volume 2499.912011
_symmetry_space_group_name_H-M "C 2/M"
_symmetry_group_IT_number 12
_symmetry_cell_setting 'monoclinic'
loop_
_space_group_symop_operation_xyz
x,y,z
-x,y,-z
-x,-y,-z
x,-y,z
1/2+x,1/2+y,z
1/2-x,1/2+y,-z
1/2-x,1/2-y,-z
1/2+x,1/2-y,z
loop_
_atom_site_type_symbol
_atom_site_label
_atom_site_fract_x
_atom_site_fract_y
_atom_site_fract_z
Si Si1 0.768659 0.814214 0.038050
Si Si2 0.246684 0.924337 0.058668
Si Si3 0.577295 0.312513 0.545656
Si Si4 0.301267 0.780361 0.237021
Si Si5 0.762129 0.924707 0.423415
Si Si6 0.013121 0.157380 0.759299
O O1 0.547214 0.817006 0.153867
O O2 0.750000 0.750000 0.000000
O O3 0.787884 0.882258 0.992660
O O4 0.000000 0.804961 0.000000
O O5 0.099395 0.900320 0.163971
O O6 0.172788 0.000000 0.065556
O O7 0.500000 0.919386 0.000000
O O8 0.500000 0.314365 0.500000
O O9 0.750000 0.250000 0.500000
O O10 0.346941 0.310020 0.659391
O O11 0.695275 0.383324 0.526334
O O12 0.331994 0.700972 0.243063
O O13 0.170128 0.791595 0.213577
O O14 0.500000 0.935771 0.500000
O O15 0.844715 0.879529 0.339345
O O16 0.876898 0.000000 0.388990
#
# Coordination Sequence:
#
# PCOD8111458 Si02
#       6
#     8   8   8   8   8   8
#     4  12  23  39  61  89 122 156 203 253 301 354
#     4  11  23  40  61  85 121 163 203 249 305 365
#     4  11  22  39  62  91 123 156 203 255 311 353
#     4  11  22  35  60  92 117 155 198 254 303 349
#     4  10  22  40  61  87 123 163 201 248 303 365
#     4  11  21  37  61  90 119 155 206 247 308 355
#
# _framework density 19.200673999999999
#
# number of rings (size 3 to 8) (size 9 to 14) (size 15 to 20)
#    0.000    1.000    3.333    5.500    0.000    0.667 
#    0.000    0.000    0.000    0.000    0.000    0.000 
#    0.000    0.000    0.000    0.000    0.000    0.000 
#
# Total GULP energy -297545.614311 kJ/mol
# GULP energy per Si atom -12397.733930 kJ/mol
# Density = 1.915697 g / cm^3
# Si number density = 19.200674 Si / 1000 Ang^3
#
#
#
# Elastic Constant Matrix: (Units=GPa)
#
#
# Indices 1 2 3 4 5 6 
#
# 1 113.8048 76.6183 50.5074 -0.0166 3.2898 0.0132
# 2 76.6183 152.4141 33.1720 -0.0222 3.6588 0.0217
# 3 50.5074 33.1720 110.3214 -0.0517 -1.5603 0.0260
# 4 -0.0166 -0.0222 -0.0517 37.7317 0.0163 1.7151
# 5 3.2898 3.6588 -1.5603 0.0163 27.7106 -0.0175
# 6 0.0132 0.0217 0.0260 1.7151 -0.0175 30.0854
#
#
#
# Elastic Compliance Matrix: (Units=1/GPa)
#
#
# Indices 1 2 3 4 5 6 
#
# 1 0.015623 -0.006701 -0.005155 -0.000004 -0.001260 0.000002
# 2 -0.006701 0.009925 0.000076 0.000003 -0.000511 -0.000005
# 3 -0.005155 0.000076 0.011419 0.000013 0.001245 -0.000008
# 4 -0.000004 0.000003 0.000013 0.026572 -0.000016 -0.001515
# 5 -0.001260 -0.000511 0.001245 -0.000016 0.036374 0.000022
# 6 0.000002 -0.000005 -0.000008 -0.001515 0.000022 0.033325
#
#
# Mechanical properties :
#
#
# Convention : Reuss Voigt Hill
#
# Bulk Modulus (GPa) = 74.58753 77.45951 76.02352
# Shear Modulus (GPa) = 31.00410 33.52171 32.26291
#
# Velocity S-wave (km/s) = 4.02274 4.18288 4.10359
# Velocity P-wave (km/s) = 7.77864 7.98488 7.88244
#
# Compressibility (1/GPa) = 0.01340707
#
# Stress axis : x y z
#
# Youngs Moduli (GPa) = 64.00794 100.75067 87.57099
#
# Poissons Ratio (x) = 0.67517 0.45146
# Poissons Ratio (y) = 0.42894 -0.00669
# Poissons Ratio (z) = 0.32998 -0.00769
#
# Static dielectric constant tensor:
#      x y z
#    x 3.754780 -0.000090 -0.160160 
#    y -0.000090 3.916280 0.000100 
#    z -0.160160 0.000100 3.804780 
# 
# 
# High freq. dielectric constant tensor:
#      x y z
#    x 1.743140 0.000000 -0.001120 
#    y 0.000000 1.745960 0.000000 
#    z -0.001120 0.000000 1.765140 
# 
# From -- ./inp_files/197176.got.cif
#   From: 2010.06.25/outbox.cif.g09.slc.cpg/sg12_99_cif.got.tgz:197176.got - 2010.06.28 00:19:55.
