data_PCOD8111851
_publ_section_title
;
Structure prediction by ZEFSAII (Michael W. Deem and Ramdas Pophale) SiO2 
 PCOD8111851
Probable space group: C 2/M
;
_chemical_formula_sum "Si O2"
_cell_formula_units_Z 56
_cell_length_a 7.881415
_cell_length_b 14.967000
_cell_length_c 25.106730
_cell_angle_alpha 90.000000
_cell_angle_beta 60.413275
_cell_angle_gamma 90.000000
_cell_volume 2575.451092
_symmetry_space_group_name_H-M "C 2/M"
_symmetry_group_IT_number 12
_symmetry_cell_setting 'monoclinic'
loop_
_space_group_symop_operation_xyz
x,y,z
-x,y,-z
-x,-y,-z
x,-y,z
1/2+x,1/2+y,z
1/2-x,1/2+y,-z
1/2-x,1/2-y,-z
1/2+x,1/2-y,z
loop_
_atom_site_type_symbol
_atom_site_label
_atom_site_fract_x
_atom_site_fract_y
_atom_site_fract_z
Si Si1 0.179769 0.257228 0.750478
Si Si2 0.884165 0.899384 0.437215
Si Si3 0.924613 0.396340 0.848626
Si Si4 0.955749 0.103741 0.154379
Si Si5 0.077641 0.242413 0.656321
Si Si6 0.698482 0.100751 0.573622
Si Si7 0.601548 0.105688 0.931912
O O1 0.107493 0.163855 0.786179
O O2 0.238585 0.256746 0.677554
O O3 0.407831 0.273338 0.729118
O O4 0.051139 0.341823 0.786745
O O5 0.855619 0.840069 0.389608
O O6 0.723860 0.874911 0.507231
O O7 0.095659 0.887953 0.429380
O O8 0.850026 0.000000 0.423208
O O9 0.981676 0.500000 0.833568
O O10 0.694049 0.381839 0.872093
O O11 0.982134 0.360308 0.898491
O O12 0.172118 0.135389 0.103775
O O13 0.955492 0.000000 0.172356
O O14 0.050015 0.330804 0.624258
O O15 0.618924 0.000000 0.592521
O O16 0.586922 0.000000 0.936658
O O17 0.500000 0.147779 0.000000
#
# Coordination Sequence:
#
# PCOD8111851 Si02
#       7
#     8   8   8   8   8   8   8
#     4  12  24  38  59  85 124 157 201 252 293 361
#     4   9  19  37  59  83 113 151 195 246 305 363
#     4  10  22  41  64  88 124 169 203 248 310 362
#     4  10  22  41  63  88 125 167 203 250 308 362
#     4  12  22  36  58  87 113 153 199 250 298 355
#     4   9  19  37  59  82 114 152 193 245 303 369
#     4   9  19  38  66  97 123 156 207 257 303 360
#
# _framework density 21.743765
#
# number of rings (size 3 to 8) (size 9 to 14) (size 15 to 20)
#    0.000    1.857    2.857    2.143    0.000    2.857 
#    0.000    3.571    0.000    1.714    0.000    0.000 
#    0.000    0.000    0.000    0.000    0.000    0.000 
#
# Total GULP energy -346966.150733 kJ/mol
# GULP energy per Si atom -12391.648240 kJ/mol
# Density = 2.169428 g / cm^3
# Si number density = 21.743765 Si / 1000 Ang^3
#
#
#
# Elastic Constant Matrix: (Units=GPa)
#
#
# Indices 1 2 3 4 5 6 
#
# 1 82.8911 41.7251 63.1906 -0.0003 5.9890 0.0005
# 2 41.7251 93.5936 64.6524 -0.0002 10.1256 0.0003
# 3 63.1906 64.6524 144.6263 -0.0003 17.5135 0.0005
# 4 -0.0003 -0.0002 -0.0003 29.7503 0.0002 -0.3962
# 5 5.9890 10.1256 17.5135 0.0002 36.0209 -0.0003
# 6 0.0005 0.0003 0.0005 -0.3962 -0.0003 25.5477
#
#
#
# Elastic Compliance Matrix: (Units=1/GPa)
#
#
# Indices 1 2 3 4 5 6 
#
# 1 0.019106 -0.004023 -0.006696 0.000000 0.001210 0.000000
# 2 -0.004023 0.016342 -0.005390 0.000000 -0.001304 0.000000
# 3 -0.006696 -0.005390 0.012678 0.000000 -0.003535 0.000000
# 4 0.000000 0.000000 0.000000 0.033620 0.000000 0.000521
# 5 0.001210 -0.001304 -0.003535 0.000000 0.029646 0.000000
# 6 0.000000 0.000000 0.000000 0.000521 0.000000 0.039151
#
#
# Mechanical properties :
#
#
# Convention : Reuss Voigt Hill
#
# Bulk Modulus (GPa) = 62.86040 73.36080 68.11060
# Shear Modulus (GPa) = 26.58672 28.36663 27.47668
#
# Velocity S-wave (km/s) = 3.50055 3.61582 3.55865
# Velocity P-wave (km/s) = 6.73133 7.15851 6.94820
#
# Compressibility (1/GPa) = 0.01590827
#
# Stress axis : x y z
#
# Youngs Moduli (GPa) = 52.33841 61.19079 78.87982
#
# Poissons Ratio (x) = 0.24619 0.52818
# Poissons Ratio (y) = 0.21057 0.42514
# Poissons Ratio (z) = 0.35046 0.32980
#
# Static dielectric constant tensor:
#      x y z
#    x 4.099370 0.000000 0.042720 
#    y 0.000000 3.793860 0.000000 
#    z 0.042720 0.000000 3.930250 
# 
# 
# High freq. dielectric constant tensor:
#      x y z
#    x 1.872380 0.000000 0.003230 
#    y 0.000000 1.844710 0.000000 
#    z 0.003230 0.000000 1.848610 
# 
# From -- ./inp_files/332830.got.cif
#   From: 2010.06.25/outbox.cif.g09.slc.cpg/sg12_167_cif.got.tgz:332830.got - 2010.06.28 00:19:55.
