data_PCOD8111263
_publ_section_title
;
Structure prediction by ZEFSAII (Michael W. Deem and Ramdas Pophale) SiO2 
 PCOD8111263
Probable space group: C 2/M
;
_chemical_formula_sum "Si O2"
_cell_formula_units_Z 60
_cell_length_a 19.319127
_cell_length_b 14.612180
_cell_length_c 24.570213
_cell_angle_alpha 90.000000
_cell_angle_beta 23.608362
_cell_angle_gamma 90.000000
_cell_volume 2777.763484
_symmetry_space_group_name_H-M "C 2/M"
_symmetry_group_IT_number 12
_symmetry_cell_setting 'monoclinic'
loop_
_space_group_symop_operation_xyz
x,y,z
-x,y,-z
-x,-y,-z
x,-y,z
1/2+x,1/2+y,z
1/2-x,1/2+y,-z
1/2-x,1/2-y,-z
1/2+x,1/2-y,z
loop_
_atom_site_type_symbol
_atom_site_label
_atom_site_fract_x
_atom_site_fract_y
_atom_site_fract_z
Si Si1 0.000000 0.826067 0.500000
Si Si2 0.893611 0.606767 0.907557
Si Si3 0.657795 0.743938 0.753239
Si Si4 0.497210 0.393003 0.790572
Si Si5 0.597318 0.891056 0.226110
Si Si6 0.931560 0.898626 0.662433
Si Si7 0.305165 0.739239 0.149712
Si Si8 0.226794 0.895354 0.526500
O O1 0.840595 0.765416 0.591931
O O2 0.926084 0.888906 0.601436
O O3 0.944841 0.500000 0.876371
O O4 0.890487 0.636017 0.846184
O O5 0.032510 0.667420 0.840114
O O6 0.706798 0.626960 0.069049
O O7 0.565628 0.656230 0.794868
O O8 0.713089 0.714076 0.773971
O O9 0.527832 0.500000 0.776953
O O10 0.606548 0.352510 0.660791
O O11 0.750795 0.844438 0.149743
O O12 0.416815 0.851708 0.381628
O O13 0.614342 0.000000 0.220178
O O14 0.808738 0.828058 0.782146
O O15 0.128143 0.884007 0.540486
O O16 0.867469 0.000000 0.724983
O O17 0.500000 0.767512 0.000000
O O18 0.256156 0.000000 0.520775
#
# Coordination Sequence:
#
# PCOD8111263 Si02
#       8
#     4   8   8   8   8   8   8   8
#     4  10  23  40  57  90 122 168 211 242 301 374
#     4  10  22  41  67  94 119 163 216 264 310 361
#     4  11  24  39  62  90 128 164 207 254 308 371
#     4  10  22  39  63  92 124 160 204 256 317 370
#     4  10  22  42  67  93 123 161 213 265 309 361
#     4  10  22  40  62  87 123 162 203 255 306 364
#     4  11  26  40  58  93 128 168 208 245 309 380
#     4   9  20  37  62  93 116 150 204 260 313 359
#
# _framework density 21.600110999999998
#
# number of rings (size 3 to 8) (size 9 to 14) (size 15 to 20)
#    0.000    1.867    0.000    2.200    7.467    5.333 
#    0.000    0.333    0.000    0.000    0.000    0.000 
#    0.000    0.000    0.000    0.000    0.000    0.000 
#
# Total GULP energy -371956.168769 kJ/mol
# GULP energy per Si atom -12398.538959 kJ/mol
# Density = 2.155095 g / cm^3
# Si number density = 21.600111 Si / 1000 Ang^3
#
#
#
# Elastic Constant Matrix: (Units=GPa)
#
#
# Indices 1 2 3 4 5 6 
#
# 1 72.4086 19.7916 4.5256 -0.0108 -3.9887 0.0202
# 2 19.7916 60.6188 23.1071 -0.0566 -10.0300 -0.0046
# 3 4.5256 23.1071 100.5332 -0.0525 -5.1954 0.0766
# 4 -0.0108 -0.0566 -0.0525 16.6158 -0.0259 -4.2579
# 5 -3.9887 -10.0300 -5.1954 -0.0259 38.4054 -0.0104
# 6 0.0202 -0.0046 0.0766 -4.2579 -0.0104 24.4350
#
#
#
# Elastic Compliance Matrix: (Units=1/GPa)
#
#
# Indices 1 2 3 4 5 6 
#
# 1 0.015190 -0.005100 0.000505 -0.000010 0.000314 -0.000017
# 2 -0.005100 0.020488 -0.004260 0.000069 0.004245 0.000035
# 3 0.000505 -0.004260 0.010925 0.000013 0.000418 -0.000033
# 4 -0.000010 0.000069 0.000013 0.062997 0.000064 0.010978
# 5 0.000314 0.004245 0.000418 0.000064 0.027236 0.000022
# 6 -0.000017 0.000035 -0.000033 0.010978 0.000022 0.042838
#
#
# Mechanical properties :
#
#
# Convention : Reuss Voigt Hill
#
# Bulk Modulus (GPa) = 34.61121 36.48992 35.55056
# Shear Modulus (GPa) = 24.15279 28.30034 26.22656
#
# Velocity S-wave (km/s) = 3.34755 3.62359 3.48830
# Velocity P-wave (km/s) = 5.56775 5.86833 5.72001
#
# Compressibility (1/GPa) = 0.02889238
#
# Stress axis : x y z
#
# Youngs Moduli (GPa) = 65.83174 48.80932 91.53295
#
# Poissons Ratio (x) = 0.24892 -0.04619
# Poissons Ratio (y) = 0.33574 0.38994
# Poissons Ratio (z) = -0.03322 0.20793
#
# Static dielectric constant tensor:
#      x y z
#    x 3.828260 0.000050 0.059400 
#    y 0.000050 3.729380 0.000200 
#    z 0.059400 0.000200 4.244580 
# 
# 
# High freq. dielectric constant tensor:
#      x y z
#    x 1.845770 0.000000 -0.001570 
#    y 0.000000 1.839290 0.000020 
#    z -0.001570 0.000020 1.859750 
# 
# From -- ./inp_files/366542.got.cif
#   From: 2010.06.25/outbox.cif.g09.slc.cpg/sg12_184_cif.got.tgz:366542.got - 2010.06.28 00:19:55.
