data_PCOD8111973
_publ_section_title
;
Structure prediction by ZEFSAII (Michael W. Deem and Ramdas Pophale) SiO2 
 PCOD8111973
Probable space group: C 2/M
;
_chemical_formula_sum "Si O2"
_cell_formula_units_Z 64
_cell_length_a 11.533190
_cell_length_b 24.038544
_cell_length_c 11.874077
_cell_angle_alpha 90.000000
_cell_angle_beta 96.189276
_cell_angle_gamma 90.000000
_cell_volume 3272.793678
_symmetry_space_group_name_H-M "C 2/M"
_symmetry_group_IT_number 12
_symmetry_cell_setting 'monoclinic'
loop_
_space_group_symop_operation_xyz
x,y,z
-x,y,-z
-x,-y,-z
x,-y,z
1/2+x,1/2+y,z
1/2-x,1/2+y,-z
1/2-x,1/2-y,-z
1/2+x,1/2-y,z
loop_
_atom_site_type_symbol
_atom_site_label
_atom_site_fract_x
_atom_site_fract_y
_atom_site_fract_z
Si Si1 0.770275 0.163248 0.587416
Si Si2 0.569021 0.843576 0.209936
Si Si3 0.766848 0.777041 0.119521
Si Si4 0.634116 0.438039 0.542374
Si Si5 0.810966 0.660270 0.183194
Si Si6 0.630938 0.623763 0.971535
Si Si7 0.255642 0.436841 0.212650
Si Si8 0.904969 0.731870 0.579876
O O1 0.806466 0.107843 0.527591
O O2 0.710468 0.137869 0.693302
O O3 0.870041 0.208396 0.631660
O O4 0.695289 0.198625 0.493318
O O5 0.642341 0.802507 0.138754
O O6 0.439034 0.856570 0.149170
O O7 0.639967 0.900847 0.225199
O O8 0.546637 0.811817 0.324505
O O9 0.807014 0.727488 0.204778
O O10 0.866545 0.824229 0.116330
O O11 0.750000 0.750000 0.000000
O O12 0.500000 0.436194 0.500000
O O13 0.684138 0.500000 0.520144
O O14 0.653188 0.424894 0.676880
O O15 0.714908 0.636058 0.086932
O O16 0.681611 0.573419 0.901802
O O17 0.500000 0.611389 0.000000
O O18 0.212493 0.500000 0.207549
O O19 0.000000 0.748945 0.500000
#
# Coordination Sequence:
#
# PCOD8111973 Si02
#       8
#     8   8   8   8   8   8   8   8
#     4  11  22  36  59  92 126 161 203 247 311 366
#     4  11  21  40  61  88 128 160 211 252 307 375
#     4   9  21  36  55  84 120 166 200 243 300 365
#     4  10  22  41  65  91 121 162 208 254 308 374
#     4  11  23  37  61  90 127 171 199 255 311 366
#     4  10  24  40  61  92 122 158 211 260 312 366
#     4  10  23  45  68  87 118 166 211 259 313 367
#     4  11  21  35  56  91 127 164 196 252 305 371
#
# _framework density 19.555159
#
# number of rings (size 3 to 8) (size 9 to 14) (size 15 to 20)
#    0.000    1.625    3.750    0.375    5.250    4.250 
#    2.250    2.500    0.000    2.250    0.000    0.000 
#    0.000    0.000    0.000    0.000    0.000    0.000 
#
# Total GULP energy -396497.626407 kJ/mol
# GULP energy per Si atom -12390.550825 kJ/mol
# Density = 1.951065 g / cm^3
# Si number density = 19.555159 Si / 1000 Ang^3
#
#
#
# Elastic Constant Matrix: (Units=GPa)
#
#
# Indices 1 2 3 4 5 6 
#
# 1 129.9419 53.4848 40.2782 0.0000 -4.4617 0.0000
# 2 53.4848 112.2758 46.3544 0.0000 -3.6441 0.0000
# 3 40.2782 46.3544 88.4128 0.0000 -7.8389 0.0000
# 4 0.0000 0.0000 0.0000 25.9232 0.0000 -6.1043
# 5 -4.4617 -3.6441 -7.8389 0.0000 33.9134 0.0000
# 6 0.0000 0.0000 0.0000 -6.1043 0.0000 28.9011
#
#
#
# Elastic Compliance Matrix: (Units=1/GPa)
#
#
# Indices 1 2 3 4 5 6 
#
# 1 0.010035 -0.003694 -0.002607 0.000000 0.000321 0.000000
# 2 -0.003694 0.012728 -0.005015 0.000000 -0.000278 0.000000
# 3 -0.002607 -0.005015 0.015364 0.000000 0.002670 0.000000
# 4 0.000000 0.000000 0.000000 0.040594 0.000000 0.008574
# 5 0.000321 -0.000278 0.002670 0.000000 0.030116 0.000000
# 6 0.000000 0.000000 0.000000 0.008574 0.000000 0.036412
#
#
# Mechanical properties :
#
#
# Convention : Reuss Voigt Hill
#
# Bulk Modulus (GPa) = 64.53179 67.87392 66.20286
# Shear Modulus (GPa) = 28.89412 30.44841 29.67126
#
# Velocity S-wave (km/s) = 3.84809 3.95023 3.89949
# Velocity P-wave (km/s) = 7.26741 7.45588 7.36224
#
# Compressibility (1/GPa) = 0.01549624
#
# Stress axis : x y z
#
# Youngs Moduli (GPa) = 99.64982 78.56858 65.08706
#
# Poissons Ratio (x) = 0.29022 0.16966
# Poissons Ratio (y) = 0.36809 0.32640
# Poissons Ratio (z) = 0.25975 0.39401
#
# Static dielectric constant tensor:
#      x y z
#    x 3.525990 0.000000 -0.165780 
#    y 0.000000 -42.452420 0.000000 
#    z -0.165780 0.000000 3.680040 
# 
# 
# High freq. dielectric constant tensor:
#      x y z
#    x 1.755510 0.000000 -0.006970 
#    y 0.000000 1.753810 0.000000 
#    z -0.006970 0.000000 1.769690 
# 
# From -- ./inp_files/135406.got.cif
#   From: 2010.06.25/outbox.cif.g09.slc.cpg/sg12_68_cif.got.tgz:135406.got - 2010.06.28 00:19:55.
