data_PCOD8111372
_publ_section_title
;
Structure prediction by ZEFSAII (Michael W. Deem and Ramdas Pophale) SiO2 
 PCOD8111372
Probable space group: C 2/M
;
_chemical_formula_sum "Si O2"
_cell_formula_units_Z 48
_cell_length_a 30.315224
_cell_length_b 9.145678
_cell_length_c 8.921213
_cell_angle_alpha 90.000000
_cell_angle_beta 92.052105
_cell_angle_gamma 90.000000
_cell_volume 2471.849267
_symmetry_space_group_name_H-M "C 2/M"
_symmetry_group_IT_number 12
_symmetry_cell_setting 'monoclinic'
loop_
_space_group_symop_operation_xyz
x,y,z
-x,y,-z
-x,-y,-z
x,-y,z
1/2+x,1/2+y,z
1/2-x,1/2+y,-z
1/2-x,1/2-y,-z
1/2+x,1/2-y,z
loop_
_atom_site_type_symbol
_atom_site_label
_atom_site_fract_x
_atom_site_fract_y
_atom_site_fract_z
Si Si1 0.740035 0.831579 0.346534
Si Si2 0.843363 0.829624 0.649163
Si Si3 0.429890 0.672664 0.838789
Si Si4 0.663783 0.666883 0.698825
Si Si5 0.409151 0.832035 0.140300
Si Si6 0.004093 0.332339 0.670854
O O1 0.750000 0.750000 0.500000
O O2 0.696388 0.756724 0.270582
O O3 0.784286 0.816492 0.251227
O O4 0.729700 0.000000 0.378906
O O5 0.888957 0.781181 0.729643
O O6 0.845043 0.787007 0.474360
O O7 0.833740 0.000000 0.669225
O O8 0.433486 0.500000 0.856864
O O9 0.474501 0.730974 0.771410
O O10 0.424922 0.741942 0.000145
O O11 0.648217 0.500000 0.721465
O O12 0.637157 0.771648 0.805512
O O13 0.445226 0.814262 0.275115
O O14 0.402891 0.000000 0.092736
O O15 0.988251 0.500000 0.685630
O O16 0.000000 0.278052 0.500000
#
# Coordination Sequence:
#
# PCOD8111372 Si02
#       6
#     8   8   8   8   8   8
#     4   9  17  30  52  81 111 143 180 225 273 319
#     4   9  19  35  55  81 110 141 182 229 272 319
#     4  11  23  38  57  81 111 146 181 221 271 324
#     4   9  18  34  55  80 109 139 178 226 270 316
#     4  11  23  37  55  80 110 145 182 220 268 326
#     4  10  22  40  60  83 110 139 177 225 271 320
#
# _framework density 19.418661
#
# number of rings (size 3 to 8) (size 9 to 14) (size 15 to 20)
#    0.000    2.167    0.000    4.000    0.000    8.333 
#    0.000    0.833    0.000    0.000    0.000    0.000 
#    0.000    0.000    0.000    0.000    0.000    0.000 
#
# Total GULP energy -297616.003882 kJ/mol
# GULP energy per Si atom -12400.666828 kJ/mol
# Density = 1.937446 g / cm^3
# Si number density = 19.418661 Si / 1000 Ang^3
#
#
#
# Elastic Constant Matrix: (Units=GPa)
#
#
# Indices 1 2 3 4 5 6 
#
# 1 92.6954 47.7446 16.7843 0.0000 -23.0857 0.0000
# 2 47.7446 87.1510 28.1988 0.0000 -15.9183 0.0000
# 3 16.7843 28.1988 67.0085 0.0000 -21.0294 0.0000
# 4 0.0000 0.0000 0.0000 28.3433 0.0000 -4.5773
# 5 -23.0857 -15.9183 -21.0294 0.0000 21.7758 0.0000
# 6 0.0000 0.0000 0.0000 -4.5773 0.0000 40.5217
#
#
#
# Elastic Compliance Matrix: (Units=1/GPa)
#
#
# Indices 1 2 3 4 5 6 
#
# 1 0.018866 -0.008486 0.004557 0.000000 0.018198 0.000000
# 2 -0.008486 0.017707 -0.005865 0.000000 -0.001716 0.000000
# 3 0.004557 -0.005865 0.023562 0.000000 0.023298 0.000000
# 4 0.000000 0.000000 0.000000 0.035937 0.000000 0.004059
# 5 0.018198 -0.001716 0.023298 0.000000 0.086460 0.000000
# 6 0.000000 0.000000 0.000000 0.004059 0.000000 0.025137
#
#
# Mechanical properties :
#
#
# Convention : Reuss Voigt Hill
#
# Bulk Modulus (GPa) = 24.66255 48.03449 36.34852
# Shear Modulus (GPa) = 20.76644 28.40330 24.58487
#
# Velocity S-wave (km/s) = 3.27373 3.82865 3.56201
# Velocity P-wave (km/s) = 5.19786 6.65843 5.97296
#
# Compressibility (1/GPa) = 0.04054731
#
# Stress axis : x y z
#
# Youngs Moduli (GPa) = 53.00518 56.47328 42.44186
#
# Poissons Ratio (x) = 0.47923 -0.19339
# Poissons Ratio (y) = 0.44980 0.24891
# Poissons Ratio (z) = -0.24153 0.33119
#
# Static dielectric constant tensor:
#      x y z
#    x 4.115200 0.000000 0.053560 
#    y 0.000000 3.649460 0.000000 
#    z 0.053560 0.000000 3.410880 
# 
# 
# High freq. dielectric constant tensor:
#      x y z
#    x 1.770980 0.000000 -0.000230 
#    y 0.000000 1.762270 0.000000 
#    z -0.000230 0.000000 1.731540 
# 
# From -- ./inp_files/108709.got.cif
#   From: 2010.06.25/outbox.cif.g09.slc.cpg/sg12_55_cif.got.tgz:108709.got - 2010.06.28 00:19:55.
