data_PCOD8111401
_publ_section_title
;
Structure prediction by ZEFSAII (Michael W. Deem and Ramdas Pophale) SiO2 
 PCOD8111401
Probable space group: C 2/M
;
_chemical_formula_sum "Si O2"
_cell_formula_units_Z 56
_cell_length_a 20.237413
_cell_length_b 8.775637
_cell_length_c 29.886551
_cell_angle_alpha 90.000000
_cell_angle_beta 33.708032
_cell_angle_gamma 90.000000
_cell_volume 2945.587628
_symmetry_space_group_name_H-M "C 2/M"
_symmetry_group_IT_number 12
_symmetry_cell_setting 'monoclinic'
loop_
_space_group_symop_operation_xyz
x,y,z
-x,y,-z
-x,-y,-z
x,-y,z
1/2+x,1/2+y,z
1/2-x,1/2+y,-z
1/2-x,1/2-y,-z
1/2+x,1/2-y,z
loop_
_atom_site_type_symbol
_atom_site_label
_atom_site_fract_x
_atom_site_fract_y
_atom_site_fract_z
Si Si1 0.813577 0.677657 0.242334
Si Si2 0.801301 0.179027 0.904354
Si Si3 0.410657 0.821765 0.671753
Si Si4 0.067060 0.822915 0.508276
Si Si5 0.801376 0.176917 0.345817
Si Si6 0.077386 0.323493 0.081525
Si Si7 0.542788 0.323041 0.262553
O O1 0.795562 0.500000 0.263651
O O2 0.712895 0.732306 0.265003
O O3 0.805491 0.770436 0.292476
O O4 0.940089 0.708571 0.146575
O O5 0.892739 0.241394 0.889287
O O6 0.842972 0.230571 0.831482
O O7 0.814928 0.000000 0.899223
O O8 0.665546 0.232624 0.991770
O O9 0.506208 0.774855 0.581050
O O10 0.463156 0.780256 0.690409
O O11 0.386175 0.000000 0.682237
O O12 0.203387 0.772243 0.428019
O O13 0.000000 0.787987 0.500000
O O14 0.059735 0.000000 0.525191
O O15 0.926265 0.208841 0.298931
O O16 0.766508 0.000000 0.366500
O O17 0.100379 0.500000 0.077299
O O18 0.551811 0.500000 0.271339
#
# Coordination Sequence:
#
# PCOD8111401 Si02
#       7
#     8   8   8   8   8   8   8
#     4  11  21  36  58  87 120 155 194 240 290 345
#     4   9  17  33  56  85 118 154 192 237 288 338
#     4  12  26  41  61  85 115 155 197 243 292 348
#     4  11  23  40  63  89 117 152 190 238 292 346
#     4  11  22  37  62  91 117 152 195 240 285 341
#     4   9  18  31  55  88 118 150 194 240 285 339
#     4  10  22  40  60  85 121 158 193 237 292 348
#
# _framework density 19.011486999999999
#
# number of rings (size 3 to 8) (size 9 to 14) (size 15 to 20)
#    0.000    1.571    2.857    2.571    0.000    3.429 
#    0.000    0.714    0.000    4.286    0.000    0.000 
#    0.000    0.000    0.000    0.000    0.000    0.000 
#
# Total GULP energy -347233.410834 kJ/mol
# GULP energy per Si atom -12401.193244 kJ/mol
# Density = 1.896822 g / cm^3
# Si number density = 19.011487 Si / 1000 Ang^3
#
#
#
# Elastic Constant Matrix: (Units=GPa)
#
#
# Indices 1 2 3 4 5 6 
#
# 1 62.9104 21.5746 28.0957 0.0005 0.4760 -0.0043
# 2 21.5746 35.4783 27.1189 0.0060 2.4313 -0.0212
# 3 28.0957 27.1189 116.8770 0.0005 -5.7823 0.0066
# 4 0.0005 0.0060 0.0005 24.9612 0.0003 1.1722
# 5 0.4760 2.4313 -5.7823 0.0003 26.9183 0.0061
# 6 -0.0043 -0.0212 0.0066 1.1722 0.0061 26.6833
#
#
#
# Elastic Compliance Matrix: (Units=1/GPa)
#
#
# Indices 1 2 3 4 5 6 
#
# 1 0.020665 -0.010669 -0.002489 0.000002 0.000064 -0.000005
# 2 -0.010669 0.040410 -0.007058 -0.000011 -0.004977 0.000034
# 3 -0.002489 -0.007058 0.010942 0.000002 0.003032 -0.000009
# 4 0.000002 -0.000011 0.000002 0.040145 0.000001 -0.001764
# 5 0.000064 -0.004977 0.003032 0.000001 0.038249 -0.000014
# 6 -0.000005 0.000034 -0.000009 -0.001764 -0.000014 0.037554
#
#
# Mechanical properties :
#
#
# Convention : Reuss Voigt Hill
#
# Bulk Modulus (GPa) = 31.65945 40.98271 36.32108
# Shear Modulus (GPa) = 20.92698 24.94433 22.93566
#
# Velocity S-wave (km/s) = 3.32136 3.62617 3.47711
# Velocity P-wave (km/s) = 5.60335 6.25586 5.93858
#
# Compressibility (1/GPa) = 0.03158615
#
# Stress axis : x y z
#
# Youngs Moduli (GPa) = 48.38987 24.74632 91.39077
#
# Poissons Ratio (x) = 0.26401 0.22749
# Poissons Ratio (y) = 0.51625 0.64504
# Poissons Ratio (z) = 0.12045 0.17466
#
# Static dielectric constant tensor:
#      x y z
#    x 3.286740 -0.000010 -0.108460 
#    y -0.000010 3.513470 0.000010 
#    z -0.108460 0.000010 3.904380 
# 
# 
# High freq. dielectric constant tensor:
#      x y z
#    x 1.717510 0.000000 -0.008530 
#    y 0.000000 1.742630 0.000000 
#    z -0.008530 0.000000 1.757970 
# 
# From -- ./inp_files/362911.got.cif
#   From: 2010.06.25/outbox.cif.g09.slc.cpg/sg12_182_cif.got.tgz:362911.got - 2010.06.28 00:19:55.
