data_PCOD8111502
_publ_section_title
;
Structure prediction by ZEFSAII (Michael W. Deem and Ramdas Pophale) SiO2 
 PCOD8111502
Probable space group: C 2/M
;
_chemical_formula_sum "Si O2"
_cell_formula_units_Z 64
_cell_length_a 20.328024
_cell_length_b 8.664879
_cell_length_c 18.497911
_cell_angle_alpha 90.000000
_cell_angle_beta 96.458002
_cell_angle_gamma 90.000000
_cell_volume 3237.544793
_symmetry_space_group_name_H-M "C 2/M"
_symmetry_group_IT_number 12
_symmetry_cell_setting 'monoclinic'
loop_
_space_group_symop_operation_xyz
x,y,z
-x,y,-z
-x,-y,-z
x,-y,z
1/2+x,1/2+y,z
1/2-x,1/2+y,-z
1/2-x,1/2-y,-z
1/2+x,1/2-y,z
loop_
_atom_site_type_symbol
_atom_site_label
_atom_site_fract_x
_atom_site_fract_y
_atom_site_fract_z
Si Si1 0.245300 0.819675 0.347246
Si Si2 0.436228 0.316505 0.032496
Si Si3 0.090675 0.816634 0.811483
Si Si4 0.008246 0.181428 0.664809
Si Si5 0.612525 0.821071 0.573195
Si Si6 0.261613 0.318250 0.197505
Si Si7 0.622641 0.820706 0.407418
Si Si8 0.799862 0.817950 0.948540
O O1 0.314713 0.771958 0.391658
O O2 0.234343 0.725613 0.272479
O O3 0.187303 0.776189 0.395081
O O4 0.242807 0.000000 0.329713
O O5 0.440350 0.500000 0.036349
O O6 0.432747 0.251324 0.113911
O O7 0.500000 0.246588 0.000000
O O8 0.372850 0.262098 0.979475
O O9 0.040299 0.759180 0.743766
O O10 0.163991 0.752749 0.803080
O O11 0.093621 0.000000 0.812359
O O12 0.058108 0.218025 0.605956
O O13 0.939334 0.270346 0.648735
O O14 0.994123 0.000000 0.664344
O O15 0.605524 0.784838 0.488038
O O16 0.598174 0.000000 0.588110
O O17 0.259448 0.500000 0.186089
O O18 0.213799 0.241491 0.133215
O O19 0.637852 0.000000 0.396890
O O20 0.793744 0.000000 0.950217
O O21 0.750000 0.750000 0.000000
#
# Coordination Sequence:
#
# PCOD8111502 Si02
#       8
#     8   8   8   8   8   8   8   8
#     4  11  23  40  62  90 118 152 204 254 298 359
#     4   9  18  34  57  85 116 151 193 238 288 345
#     4   9  18  34  56  84 116 154 195 241 294 353
#     4  11  22  37  61  89 119 158 206 251 296 358
#     4  10  22  40  62  87 118 156 201 251 303 363
#     4  11  21  38  61  87 121 157 196 245 303 363
#     4  11  24  41  59  85 124 162 194 244 312 365
#     4  11  21  35  59  90 118 153 199 247 296 350
#
# _framework density 19.768066999999999
#
# number of rings (size 3 to 8) (size 9 to 14) (size 15 to 20)
#    0.000    1.625    2.500    2.625    0.000    4.000 
#    0.000    2.500    0.000    1.500    0.000    0.000 
#    0.000    0.000    0.000    0.000    0.000    0.000 
#
# Total GULP energy -396951.346369 kJ/mol
# GULP energy per Si atom -12404.729574 kJ/mol
# Density = 1.972307 g / cm^3
# Si number density = 19.768067 Si / 1000 Ang^3
#
#
#
# Elastic Constant Matrix: (Units=GPa)
#
#
# Indices 1 2 3 4 5 6 
#
# 1 107.2012 27.5978 28.7057 0.0000 6.1019 0.0000
# 2 27.5978 38.8146 25.0649 0.0000 4.5618 0.0000
# 3 28.7057 25.0649 108.5176 0.0000 15.4957 0.0000
# 4 0.0000 0.0000 0.0000 30.3381 0.0000 0.0834
# 5 6.1019 4.5618 15.4957 0.0000 34.7122 0.0000
# 6 0.0000 0.0000 0.0000 0.0834 0.0000 30.0271
#
#
#
# Elastic Compliance Matrix: (Units=1/GPa)
#
#
# Indices 1 2 3 4 5 6 
#
# 1 0.011596 -0.007348 -0.001300 0.000000 -0.000492 0.000000
# 2 -0.007348 0.034963 -0.006046 0.000000 -0.000604 0.000000
# 3 -0.001300 -0.006046 0.011545 0.000000 -0.004131 0.000000
# 4 0.000000 0.000000 0.000000 0.032962 0.000000 -0.000092
# 5 -0.000492 -0.000604 -0.004131 0.000000 0.030818 0.000000
# 6 0.000000 0.000000 0.000000 -0.000092 0.000000 0.033303
#
#
# Mechanical properties :
#
#
# Convention : Reuss Voigt Hill
#
# Bulk Modulus (GPa) = 34.82188 46.36338 40.59263
# Shear Modulus (GPa) = 25.75371 30.55981 28.15676
#
# Velocity S-wave (km/s) = 3.61334 3.93608 3.77816
# Velocity P-wave (km/s) = 5.92130 6.64542 6.29378
#
# Compressibility (1/GPa) = 0.02871758
#
# Stress axis : x y z
#
# Youngs Moduli (GPa) = 86.23714 28.60186 86.61579
#
# Poissons Ratio (x) = 0.21015 0.11260
# Poissons Ratio (y) = 0.63363 0.52365
# Poissons Ratio (z) = 0.11211 0.17292
#
# Static dielectric constant tensor:
#      x y z
#    x 3.634310 0.000000 0.023610 
#    y 0.000000 3.405600 0.000000 
#    z 0.023610 0.000000 3.670150 
# 
# 
# High freq. dielectric constant tensor:
#      x y z
#    x 1.776830 0.000000 0.006040 
#    y 0.000000 1.752150 0.000000 
#    z 0.006040 0.000000 1.784160 
# 
# From -- ./inp_files/281304.got.cif
#   From: 2010.06.25/outbox.cif.g09.slc.cpg/sg12_141_cif.got.tgz:281304.got - 2010.06.28 00:19:55.
