data_PCOD8111680
_publ_section_title
;
Structure prediction by ZEFSAII (Michael W. Deem and Ramdas Pophale) SiO2 
 PCOD8111680
Probable space group: C 2/M
;
_chemical_formula_sum "Si O2"
_cell_formula_units_Z 64
_cell_length_a 27.627221
_cell_length_b 13.133945
_cell_length_c 9.294973
_cell_angle_alpha 90.000000
_cell_angle_beta 104.610852
_cell_angle_gamma 90.000000
_cell_volume 3263.652793
_symmetry_space_group_name_H-M "C 2/M"
_symmetry_group_IT_number 12
_symmetry_cell_setting 'monoclinic'
loop_
_space_group_symop_operation_xyz
x,y,z
-x,y,-z
-x,-y,-z
x,-y,z
1/2+x,1/2+y,z
1/2-x,1/2+y,-z
1/2-x,1/2-y,-z
1/2+x,1/2-y,z
loop_
_atom_site_type_symbol
_atom_site_label
_atom_site_fract_x
_atom_site_fract_y
_atom_site_fract_z
Si Si1 0.975490 0.315708 0.325911
Si Si2 0.814463 0.743503 0.438457
Si Si3 0.367058 0.882403 0.922858
Si Si4 0.369685 0.112715 0.247134
Si Si5 0.448411 0.392805 0.379762
Si Si6 0.543282 0.755456 0.139185
Si Si7 0.774008 0.618819 0.653702
Si Si8 0.109510 0.116035 0.377864
O O1 0.930282 0.394956 0.284996
O O2 0.950372 0.203936 0.276034
O O3 0.000000 0.322056 0.500000
O O4 0.018126 0.332668 0.237529
O O5 0.851222 0.696109 0.346904
O O6 0.787390 0.650659 0.500422
O O7 0.773990 0.816151 0.329788
O O8 0.842518 0.809697 0.583795
O O9 0.415076 0.816387 0.916868
O O10 0.320108 0.853735 0.790406
O O11 0.382157 0.000000 0.915367
O O12 0.350454 0.858334 0.073767
O O13 0.350614 0.000000 0.276996
O O14 0.500000 0.401939 0.500000
O O15 0.438867 0.500000 0.287551
O O16 0.406331 0.379259 0.468220
O O17 0.567124 0.658627 0.238575
O O18 0.500000 0.715747 0.000000
O O19 0.760374 0.500000 0.648243
O O20 0.122475 0.000000 0.340847
#
# Coordination Sequence:
#
# PCOD8111680 Si02
#       8
#     8   8   8   8   8   8   8   8
#     4  11  20  35  54  84 118 154 202 249 296 344
#     4  11  21  39  66  92 119 152 197 257 301 355
#     4  10  23  42  61  85 124 165 199 241 303 365
#     4  11  23  39  59  87 121 160 200 246 301 356
#     4   9  16  29  51  75 105 146 188 231 288 347
#     4  12  22  36  59  85 123 167 207 245 290 355
#     4  10  22  40  65  94 119 154 197 244 308 368
#     4  11  21  35  57  86 119 155 197 248 303 350
#
# _framework density 19.609929000000001
#
# number of rings (size 3 to 8) (size 9 to 14) (size 15 to 20)
#    0.000    1.375    6.250    0.750    0.000    1.750 
#    0.000    0.000    0.000    1.500    0.000    0.000 
#    0.000    0.000    0.000    0.000    0.000    0.000 
#
# Total GULP energy -396641.980834 kJ/mol
# GULP energy per Si atom -12395.061901 kJ/mol
# Density = 1.956530 g / cm^3
# Si number density = 19.609929 Si / 1000 Ang^3
#
#
#
# Elastic Constant Matrix: (Units=GPa)
#
#
# Indices 1 2 3 4 5 6 
#
# 1 81.8955 42.9200 32.9068 0.0000 8.6213 0.0000
# 2 42.9200 101.4671 42.9438 0.0000 5.7787 0.0000
# 3 32.9068 42.9438 83.8794 0.0000 9.7507 0.0000
# 4 0.0000 0.0000 0.0000 22.0553 0.0000 4.8569
# 5 8.6213 5.7787 9.7507 0.0000 29.5433 0.0000
# 6 0.0000 0.0000 0.0000 4.8569 0.0000 22.8964
#
#
#
# Elastic Compliance Matrix: (Units=1/GPa)
#
#
# Indices 1 2 3 4 5 6 
#
# 1 0.016748 -0.005468 -0.003460 0.000000 -0.002676 0.000000
# 2 -0.005468 0.014370 -0.005273 0.000000 0.000525 0.000000
# 3 -0.003460 -0.005273 0.016370 0.000000 -0.003362 0.000000
# 4 0.000000 0.000000 0.000000 0.047562 0.000000 -0.010089
# 5 -0.002676 0.000525 -0.003362 0.000000 0.035636 0.000000
# 6 0.000000 0.000000 0.000000 -0.010089 0.000000 0.045815
#
#
# Mechanical properties :
#
#
# Convention : Reuss Voigt Hill
#
# Bulk Modulus (GPa) = 52.39358 56.08704 54.24031
# Shear Modulus (GPa) = 23.66690 24.79708 24.23199
#
# Velocity S-wave (km/s) = 3.47779 3.55986 3.51907
# Velocity P-wave (km/s) = 6.55001 6.74983 6.65067
#
# Compressibility (1/GPa) = 0.01908631
#
# Stress axis : x y z
#
# Youngs Moduli (GPa) = 59.70795 69.58959 61.08812
#
# Poissons Ratio (x) = 0.38048 0.21138
# Poissons Ratio (y) = 0.32646 0.32212
# Poissons Ratio (z) = 0.20660 0.36695
#
# Static dielectric constant tensor:
#      x y z
#    x 3.336370 0.000000 0.158200 
#    y 0.000000 4.028950 0.000000 
#    z 0.158200 0.000000 3.345060 
# 
# 
# High freq. dielectric constant tensor:
#      x y z
#    x 1.761540 0.000000 0.002200 
#    y 0.000000 1.767520 0.000000 
#    z 0.002200 0.000000 1.743490 
# 
# From -- ./inp_files/104633.got.cif
#   From: 2010.06.25/outbox.cif.g09.slc.cpg/sg12_53_cif.got.tgz:104633.got - 2010.06.28 00:19:55.
