data_PCOD8111909
_publ_section_title
;
Structure prediction by ZEFSAII (Michael W. Deem and Ramdas Pophale) SiO2 
 PCOD8111909
Probable space group: C 2/M
;
_chemical_formula_sum "Si O2"
_cell_formula_units_Z 64
_cell_length_a 13.795916
_cell_length_b 19.740483
_cell_length_c 14.644126
_cell_angle_alpha 90.000000
_cell_angle_beta 132.510721
_cell_angle_gamma 90.000000
_cell_volume 2939.870353
_symmetry_space_group_name_H-M "C 2/M"
_symmetry_group_IT_number 12
_symmetry_cell_setting 'monoclinic'
loop_
_space_group_symop_operation_xyz
x,y,z
-x,y,-z
-x,-y,-z
x,-y,z
1/2+x,1/2+y,z
1/2-x,1/2+y,-z
1/2-x,1/2-y,-z
1/2+x,1/2-y,z
loop_
_atom_site_type_symbol
_atom_site_label
_atom_site_fract_x
_atom_site_fract_y
_atom_site_fract_z
Si Si1 0.392745 0.815566 0.143338
Si Si2 0.079083 0.076632 0.135075
Si Si3 0.464547 0.924070 0.329220
Si Si4 0.745566 0.887546 0.486635
Si Si5 0.690791 0.162302 0.644786
Si Si6 0.816293 0.301129 0.723846
Si Si7 0.765400 0.815467 0.138431
Si Si8 0.977538 0.073856 0.268431
O O1 0.404464 0.887179 0.202265
O O2 0.536422 0.782207 0.214658
O O3 0.316319 0.761631 0.157547
O O4 0.315183 0.835261 0.002711
O O5 0.209833 0.118777 0.230731
O O6 0.991353 0.080740 0.168909
O O7 0.120014 0.000000 0.137677
O O8 0.000000 0.109060 0.000000
O O9 0.619880 0.937049 0.410431
O O10 0.444738 0.872271 0.403757
O O11 0.404613 0.000000 0.306592
O O12 0.719428 0.837906 0.555182
O O13 0.751770 0.849772 0.393421
O O14 0.882878 0.925145 0.589896
O O15 0.712200 0.240926 0.677676
O O16 0.829394 0.329390 0.835159
O O17 0.886549 0.864677 0.239451
O O18 0.915403 0.000000 0.251733
#
# Coordination Sequence:
#
# PCOD8111909 Si02
#       8
#     8   8   8   8   8   8   8   8
#     4  10  23  42  65  98 133 172 216 268 327 395
#     4   9  19  33  55  88 125 162 199 253 328 397
#     4  11  23  40  65  98 135 173 217 272 335 396
#     4  10  23  42  62  90 129 173 215 269 324 391
#     4  11  21  37  61  94 126 166 217 266 326 389
#     4  11  23  42  65  91 127 173 220 270 323 388
#     4  11  23  42  66  96 127 170 222 269 327 387
#     4  10  22  41  64  90 124 165 216 274 324 380
#
# _framework density 21.769666999999998
#
# number of rings (size 3 to 8) (size 9 to 14) (size 15 to 20)
#    0.000    1.625    1.250    3.375    1.750    5.000 
#    2.250    3.750    0.000    3.750    0.000    0.000 
#    0.000    0.000    0.000    0.000    0.000    0.000 
#
# Total GULP energy -396459.577302 kJ/mol
# GULP energy per Si atom -12389.361791 kJ/mol
# Density = 2.172012 g / cm^3
# Si number density = 21.769667 Si / 1000 Ang^3
#
#
#
# Elastic Constant Matrix: (Units=GPa)
#
#
# Indices 1 2 3 4 5 6 
#
# 1 81.8753 27.4632 34.0976 -0.0001 -21.1090 0.0000
# 2 27.4632 86.5697 17.7391 0.0000 -1.3235 0.0000
# 3 34.0976 17.7391 118.9793 -0.0001 -19.0559 0.0000
# 4 -0.0001 0.0000 -0.0001 37.8449 -0.0001 -20.7391
# 5 -21.1090 -1.3235 -19.0559 -0.0001 31.9179 0.0000
# 6 0.0000 0.0000 0.0000 -20.7391 0.0000 33.7107
#
#
#
# Elastic Compliance Matrix: (Units=1/GPa)
#
#
# Indices 1 2 3 4 5 6 
#
# 1 0.017482 -0.004838 -0.002730 0.000000 0.009731 0.000000
# 2 -0.004838 0.013266 -0.001123 0.000000 -0.003320 0.000000
# 3 -0.002730 -0.001123 0.010016 0.000000 0.004127 0.000000
# 4 0.000000 0.000000 0.000000 0.039863 0.000000 0.024524
# 5 0.009731 -0.003320 0.004127 0.000000 0.040093 0.000000
# 6 0.000000 0.000000 0.000000 0.024524 0.000000 0.044751
#
#
# Mechanical properties :
#
#
# Convention : Reuss Voigt Hill
#
# Bulk Modulus (GPa) = 42.76935 49.55826 46.16381
# Shear Modulus (GPa) = 26.22650 34.56968 30.39809
#
# Velocity S-wave (km/s) = 3.47468 3.98926 3.74083
# Velocity P-wave (km/s) = 5.98221 6.63575 6.31744
#
# Compressibility (1/GPa) = 0.02338123
#
# Stress axis : x y z
#
# Youngs Moduli (GPa) = 57.20030 75.38349 99.84241
#
# Poissons Ratio (x) = 0.36469 0.27260
# Poissons Ratio (y) = 0.27673 0.11213
# Poissons Ratio (z) = 0.15617 0.08466
#
# Static dielectric constant tensor:
#      x y z
#    x 4.018390 0.000000 -0.041140 
#    y 0.000000 3.717420 0.000000 
#    z -0.041140 0.000000 4.051530 
# 
# 
# High freq. dielectric constant tensor:
#      x y z
#    x 1.849040 0.000000 -0.004840 
#    y 0.000000 1.837370 0.000000 
#    z -0.004840 0.000000 1.872070 
# 
# From -- ./inp_files/216814.got.cif
#   From: 2010.06.25/outbox.cif.g09.slc.cpg/sg12_109_cif.got.tgz:216814.got - 2010.06.28 00:19:55.
