data_PCOD8111899
_publ_section_title
;
Structure prediction by ZEFSAII (Michael W. Deem and Ramdas Pophale) SiO2 
 PCOD8111899
Probable space group: C 2/M
;
_chemical_formula_sum "Si O2"
_cell_formula_units_Z 64
_cell_length_a 19.672107
_cell_length_b 8.727618
_cell_length_c 29.344204
_cell_angle_alpha 90.000000
_cell_angle_beta 138.779402
_cell_angle_gamma 90.000000
_cell_volume 3319.922426
_symmetry_space_group_name_H-M "C 2/M"
_symmetry_group_IT_number 12
_symmetry_cell_setting 'monoclinic'
loop_
_space_group_symop_operation_xyz
x,y,z
-x,y,-z
-x,-y,-z
x,-y,z
1/2+x,1/2+y,z
1/2-x,1/2+y,-z
1/2-x,1/2-y,-z
1/2+x,1/2-y,z
loop_
_atom_site_type_symbol
_atom_site_label
_atom_site_fract_x
_atom_site_fract_y
_atom_site_fract_z
Si Si1 0.466514 0.321021 0.193488
Si Si2 0.245993 0.320688 0.047155
Si Si3 0.185311 0.676264 0.711968
Si Si4 0.362200 0.319138 0.554607
Si Si5 0.039653 0.174828 0.969249
Si Si6 0.594117 0.179448 0.177303
Si Si7 0.998871 0.677942 0.446360
Si Si8 0.018979 0.678170 0.702492
O O1 0.484578 0.500000 0.194815
O O2 0.348992 0.272106 0.125293
O O3 0.542629 0.233061 0.198161
O O4 0.489082 0.277991 0.256463
O O5 0.235029 0.500000 0.036680
O O6 0.250000 0.250000 0.000000
O O7 0.148815 0.258343 0.025375
O O8 0.220798 0.500000 0.727633
O O9 0.285119 0.782303 0.760703
O O10 0.125029 0.709634 0.728696
O O11 0.112314 0.716231 0.631994
O O12 0.361633 0.500000 0.563400
O O13 0.250000 0.250000 0.500000
O O14 0.412960 0.283097 0.531297
O O15 0.424161 0.229891 0.624299
O O16 0.959385 0.245306 0.893325
O O17 0.056272 0.000000 0.962947
O O18 0.000000 0.191438 0.000000
O O19 0.579399 0.000000 0.165164
O O20 0.025329 0.500000 0.450455
O O21 0.000000 0.717547 0.500000
O O22 0.008252 0.500000 0.709307
#
# Coordination Sequence:
#
# PCOD8111899 Si02
#       8
#     8   8   8   8   8   8   8   8
#     4  11  24  41  62  89 122 159 199 244 300 361
#     4  11  23  40  64  90 120 157 198 246 300 357
#     4   9  20  39  61  86 121 159 195 244 300 356
#     4  11  22  38  61  89 125 162 201 249 297 352
#     4  11  25  43  63  88 119 155 198 248 303 360
#     4  12  25  40  61  87 120 158 201 250 296 353
#     4   9  19  38  63  90 120 158 201 245 299 357
#     4  10  22  41  64  90 120 157 202 247 299 358
#
# _framework density 19.277559
#
# number of rings (size 3 to 8) (size 9 to 14) (size 15 to 20)
#    0.000    1.500    1.250    4.500    1.750    6.250 
#    0.000    3.750    0.000    0.000    0.000    0.000 
#    0.000    0.000    0.000    0.000    0.000    0.000 
#
# Total GULP energy -396923.729276 kJ/mol
# GULP energy per Si atom -12403.866540 kJ/mol
# Density = 1.923368 g / cm^3
# Si number density = 19.277559 Si / 1000 Ang^3
#
#
#
# Elastic Constant Matrix: (Units=GPa)
#
#
# Indices 1 2 3 4 5 6 
#
# 1 91.3129 28.8331 59.8398 0.0000 3.3247 0.0000
# 2 28.8331 44.8576 18.8470 -0.0001 11.3983 0.0001
# 3 59.8398 18.8470 90.8205 0.0000 8.7933 -0.0001
# 4 0.0000 -0.0001 0.0000 33.4470 0.0000 1.9346
# 5 3.3247 11.3983 8.7933 0.0000 40.6245 0.0000
# 6 0.0000 0.0001 -0.0001 1.9346 0.0000 36.9298
#
#
#
# Elastic Compliance Matrix: (Units=1/GPa)
#
#
# Indices 1 2 3 4 5 6 
#
# 1 0.022601 -0.009949 -0.013195 0.000000 0.003798 0.000000
# 2 -0.009949 0.030258 0.001041 0.000000 -0.007901 0.000000
# 3 -0.013195 0.001041 0.019828 0.000000 -0.003504 0.000000
# 4 0.000000 0.000000 0.000000 0.029989 0.000000 -0.001571
# 5 0.003798 -0.007901 -0.003504 0.000000 0.027280 0.000000
# 6 0.000000 0.000000 0.000000 -0.001571 0.000000 0.027161
#
#
# Mechanical properties :
#
#
# Convention : Reuss Voigt Hill
#
# Bulk Modulus (GPa) = 35.11026 49.11455 42.11240
# Shear Modulus (GPa) = 23.71744 30.16500 26.94122
#
# Velocity S-wave (km/s) = 3.51139 3.96001 3.74243
# Velocity P-wave (km/s) = 5.89002 6.81482 6.36923
#
# Compressibility (1/GPa) = 0.02848171
#
# Stress axis : x y z
#
# Youngs Moduli (GPa) = 44.24519 33.04950 50.43440
#
# Poissons Ratio (x) = 0.32880 0.66547
# Poissons Ratio (y) = 0.44018 -0.05249
# Poissons Ratio (z) = 0.58380 -0.03440
#
# Static dielectric constant tensor:
#      x y z
#    x 3.637570 0.000000 0.063530 
#    y 0.000000 3.714620 0.000000 
#    z 0.063530 0.000000 3.564590 
# 
# 
# High freq. dielectric constant tensor:
#      x y z
#    x 1.758250 0.000000 0.000470 
#    y 0.000000 1.760100 0.000000 
#    z 0.000470 0.000000 1.758830 
# 
# From -- ./inp_files/378531.got.cif
#   From: 2010.06.25/outbox.cif.g09.slc.cpg/sg12_190_cif.got.tgz:378531.got - 2010.06.28 00:19:55.
