data_PCOD8111422
_publ_section_title
;
Structure prediction by ZEFSAII (Michael W. Deem and Ramdas Pophale) SiO2 
 PCOD8111422
Probable space group: C 2/M
;
_chemical_formula_sum "Si O2"
_cell_formula_units_Z 48
_cell_length_a 26.776834
_cell_length_b 8.801309
_cell_length_c 15.051838
_cell_angle_alpha 90.000000
_cell_angle_beta 41.075205
_cell_angle_gamma 90.000000
_cell_volume 2330.740053
_symmetry_space_group_name_H-M "C 2/M"
_symmetry_group_IT_number 12
_symmetry_cell_setting 'monoclinic'
loop_
_space_group_symop_operation_xyz
x,y,z
-x,y,-z
-x,-y,-z
x,-y,z
1/2+x,1/2+y,z
1/2-x,1/2+y,-z
1/2-x,1/2-y,-z
1/2+x,1/2-y,z
loop_
_atom_site_type_symbol
_atom_site_label
_atom_site_fract_x
_atom_site_fract_y
_atom_site_fract_z
Si Si1 0.934981 0.178372 0.742733
Si Si2 0.585951 0.326140 0.897239
Si Si3 0.904559 0.679275 0.469029
Si Si4 0.668821 0.674712 0.600806
Si Si5 0.821155 0.822938 0.740233
Si Si6 0.352532 0.823632 0.014786
O O1 0.874071 0.227364 0.750663
O O2 0.013199 0.259933 0.612782
O O3 0.950059 0.000000 0.722846
O O4 0.904903 0.226872 0.879083
O O5 0.589207 0.500000 0.926666
O O6 0.627909 0.306061 0.748695
O O7 0.626615 0.217515 0.912797
O O8 0.500000 0.271493 0.000000
O O9 0.906562 0.500000 0.460321
O O10 0.882673 0.743680 0.402824
O O11 0.842323 0.728337 0.624693
O O12 0.678502 0.500000 0.560489
O O13 0.750000 0.750000 0.500000
O O14 0.735486 0.783209 0.883364
O O15 0.830515 0.000000 0.705010
O O16 0.368585 0.000000 0.975858
#
# Coordination Sequence:
#
# PCOD8111422 Si02
#       6
#     8   8   8   8   8   8
#     4  11  23  41  64  88 121 163 203 247 303 365
#     4  10  22  40  61  85 115 156 202 244 293 354
#     4  12  25  40  62  92 124 159 203 254 304 358
#     4  11  23  40  63  90 122 160 202 249 301 359
#     4  10  23  42  63  89 122 161 202 248 305 364
#     4  11  23  39  62  92 123 155 198 251 302 359
#
# _framework density 20.594317
#
# number of rings (size 3 to 8) (size 9 to 14) (size 15 to 20)
#    0.000    1.167    0.000    6.000    0.000   10.333 
#    0.000    0.000    0.000    0.000    0.000    0.000 
#    0.000    0.000    0.000    0.000    0.000    0.000 
#
# Total GULP energy -297808.391979 kJ/mol
# GULP energy per Si atom -12408.682999 kJ/mol
# Density = 2.054744 g / cm^3
# Si number density = 20.594317 Si / 1000 Ang^3
#
#
#
# Elastic Constant Matrix: (Units=GPa)
#
#
# Indices 1 2 3 4 5 6 
#
# 1 97.1112 28.2277 12.1639 -0.0011 -7.8844 0.0018
# 2 28.2277 90.5554 33.5492 -0.0009 -2.8261 0.0013
# 3 12.1639 33.5492 80.5715 -0.0004 -9.3885 0.0004
# 4 -0.0011 -0.0009 -0.0004 25.0098 -0.0004 -1.8232
# 5 -7.8844 -2.8261 -9.3885 -0.0004 39.4203 0.0006
# 6 0.0018 0.0013 0.0004 -1.8232 0.0006 35.4143
#
#
#
# Elastic Compliance Matrix: (Units=1/GPa)
#
#
# Indices 1 2 3 4 5 6 
#
# 1 0.011486 -0.003503 -0.000038 0.000000 0.002037 0.000000
# 2 -0.003503 0.014131 -0.005470 0.000000 -0.000990 0.000000
# 3 -0.000038 -0.005470 0.015066 0.000000 0.003188 0.000000
# 4 0.000000 0.000000 0.000000 0.040135 0.000000 0.002066
# 5 0.002037 -0.000990 0.003188 0.000000 0.026463 -0.000001
# 6 0.000000 0.000000 0.000000 0.002066 -0.000001 0.028344
#
#
# Mechanical properties :
#
#
# Convention : Reuss Voigt Hill
#
# Bulk Modulus (GPa) = 44.12996 46.23552 45.18274
# Shear Modulus (GPa) = 31.01725 32.92204 31.96964
#
# Velocity S-wave (km/s) = 3.88507 4.00258 3.94426
# Velocity P-wave (km/s) = 6.44979 6.62271 6.53682
#
# Compressibility (1/GPa) = 0.02266034
#
# Stress axis : x y z
#
# Youngs Moduli (GPa) = 87.06433 70.76848 66.37249
#
# Poissons Ratio (x) = 0.24787 0.00254
# Poissons Ratio (y) = 0.30495 0.36309
# Poissons Ratio (z) = 0.00333 0.38714
#
# Static dielectric constant tensor:
#      x y z
#    x 3.843620 0.000000 -0.042410 
#    y 0.000000 3.778620 0.000000 
#    z -0.042410 0.000000 3.719180 
# 
# 
# High freq. dielectric constant tensor:
#      x y z
#    x 1.820620 0.000000 -0.003330 
#    y 0.000000 1.809390 0.000000 
#    z -0.003330 0.000000 1.820860 
# 
# From -- ./inp_files/244690.got.cif
#   From: 2010.06.25/outbox.cif.g09.slc.cpg/sg12_123_cif.got.tgz:244690.got - 2010.06.28 00:19:55.
