data_PCOD8111193
_publ_section_title
;
Structure prediction by ZEFSAII (Michael W. Deem and Ramdas Pophale) SiO2 
 PCOD8111193
Probable space group: C 2/M
;
_chemical_formula_sum "Si O2"
_cell_formula_units_Z 56
_cell_length_a 16.864445
_cell_length_b 21.400019
_cell_length_c 8.354485
_cell_angle_alpha 90.000000
_cell_angle_beta 61.372323
_cell_angle_gamma 90.000000
_cell_volume 2646.534409
_symmetry_space_group_name_H-M "C 2/M"
_symmetry_group_IT_number 12
_symmetry_cell_setting 'monoclinic'
loop_
_space_group_symop_operation_xyz
x,y,z
-x,y,-z
-x,-y,-z
x,-y,z
1/2+x,1/2+y,z
1/2-x,1/2+y,-z
1/2-x,1/2-y,-z
1/2+x,1/2-y,z
loop_
_atom_site_type_symbol
_atom_site_label
_atom_site_fract_x
_atom_site_fract_y
_atom_site_fract_z
Si Si1 0.508868 0.427408 0.816674
Si Si2 0.847149 0.644465 0.540648
Si Si3 0.847291 0.426511 0.851564
Si Si4 0.330067 0.609809 0.812799
Si Si5 0.196530 0.928967 0.503791
Si Si6 0.334506 0.750880 0.802161
Si Si7 0.521377 0.169174 0.160204
O O1 0.524338 0.500000 0.826419
O O2 0.421907 0.417315 0.793096
O O3 0.598415 0.401515 0.644843
O O4 0.500000 0.395012 0.000000
O O5 0.874089 0.591526 0.644251
O O6 0.767815 0.618854 0.507236
O O7 0.816076 0.707483 0.662419
O O8 0.931044 0.659236 0.347221
O O9 0.848530 0.500000 0.877100
O O10 0.919895 0.394738 0.899997
O O11 0.748161 0.396942 0.978120
O O12 0.296550 0.569752 0.694530
O O13 0.350247 0.679884 0.734490
O O14 0.213806 0.000000 0.548948
O O15 0.422329 0.775531 0.811170
O O16 0.250000 0.750000 0.000000
O O17 0.500000 0.188976 0.000000
#
# Coordination Sequence:
#
# PCOD8111193 Si02
#       7
#     8   8   8   8   8   8   8
#     4  10  22  39  61  92 130 173 222 273 329 396
#     4  11  24  43  69  96 136 176 221 272 329 398
#     4  11  22  40  68  98 131 177 220 270 338 403
#     4  12  23  41  66  95 134 172 225 280 337 392
#     4  11  24  41  65  99 135 172 218 274 337 399
#     4  11  24  46  68  92 131 177 222 274 323 392
#     4  11  25  45  67  99 133 172 219 278 331 393
#
# _framework density 21.159748
#
# number of rings (size 3 to 8) (size 9 to 14) (size 15 to 20)
#    0.000    1.000    2.857    5.571    0.000    7.714 
#    0.000    0.000    0.000    0.000    0.000    0.000 
#    0.000    0.000    0.000    0.000    0.000    0.000 
#
# Total GULP energy -347256.797854 kJ/mol
# GULP energy per Si atom -12402.028495 kJ/mol
# Density = 2.111159 g / cm^3
# Si number density = 21.159748 Si / 1000 Ang^3
#
#
#
# Elastic Constant Matrix: (Units=GPa)
#
#
# Indices 1 2 3 4 5 6 
#
# 1 120.6412 17.5803 55.4612 0.0000 -7.5329 0.0000
# 2 17.5803 104.6205 26.6263 0.0000 -6.8597 0.0000
# 3 55.4612 26.6263 127.7546 0.0000 -19.3810 0.0000
# 4 0.0000 0.0000 0.0000 26.5175 0.0000 -3.1251
# 5 -7.5329 -6.8597 -19.3810 0.0000 42.4083 0.0000
# 6 0.0000 0.0000 0.0000 -3.1251 0.0000 35.7195
#
#
#
# Elastic Compliance Matrix: (Units=1/GPa)
#
#
# Indices 1 2 3 4 5 6 
#
# 1 0.010398 -0.000640 -0.004423 0.000000 -0.000278 0.000000
# 2 -0.000640 0.010154 -0.001726 0.000000 0.000740 0.000000
# 3 -0.004423 -0.001726 0.010687 0.000000 0.003819 0.000000
# 4 0.000000 0.000000 0.000000 0.038104 0.000000 0.003334
# 5 -0.000278 0.000740 0.003819 0.000000 0.025396 0.000000
# 6 0.000000 0.000000 0.000000 0.003334 0.000000 0.028288
#
#
# Mechanical properties :
#
#
# Convention : Reuss Voigt Hill
#
# Bulk Modulus (GPa) = 56.62271 61.37245 58.99758
# Shear Modulus (GPa) = 35.08998 37.81897 36.45447
#
# Velocity S-wave (km/s) = 4.07669 4.23224 4.15519
# Velocity P-wave (km/s) = 6.99835 7.27666 7.13886
#
# Compressibility (1/GPa) = 0.01766076
#
# Stress axis : x y z
#
# Youngs Moduli (GPa) = 96.17021 98.48618 93.57404
#
# Poissons Ratio (x) = 0.06302 0.41387
# Poissons Ratio (y) = 0.06154 0.16153
# Poissons Ratio (z) = 0.42535 0.17001
#
# Static dielectric constant tensor:
#      x y z
#    x 3.896850 0.000000 -0.096620 
#    y 0.000000 11.115480 0.000000 
#    z -0.096620 0.000000 4.066730 
# 
# 
# High freq. dielectric constant tensor:
#      x y z
#    x 1.832230 0.000000 -0.005590 
#    y 0.000000 1.826080 0.000000 
#    z -0.005590 0.000000 1.843330 
# 
# From -- ./inp_files/65735.got.cif
#   From: 2010.06.25/outbox.cif.g09.slc.cpg/sg12_33_cif.got.tgz:65735.got - 2010.06.28 00:19:55.
