data_PCOD8111741
_publ_section_title
;
Structure prediction by ZEFSAII (Michael W. Deem and Ramdas Pophale) SiO2 
 PCOD8111741
Probable space group: C 2/M
;
_chemical_formula_sum "Si O2"
_cell_formula_units_Z 40
_cell_length_a 9.900073
_cell_length_b 16.499402
_cell_length_c 11.268951
_cell_angle_alpha 90.000000
_cell_angle_beta 79.595430
_cell_angle_gamma 90.000000
_cell_volume 1810.463008
_symmetry_space_group_name_H-M "C 2/M"
_symmetry_group_IT_number 12
_symmetry_cell_setting 'monoclinic'
loop_
_space_group_symop_operation_xyz
x,y,z
-x,y,-z
-x,-y,-z
x,-y,z
1/2+x,1/2+y,z
1/2-x,1/2+y,-z
1/2-x,1/2-y,-z
1/2+x,1/2-y,z
loop_
_atom_site_type_symbol
_atom_site_label
_atom_site_fract_x
_atom_site_fract_y
_atom_site_fract_z
Si Si1 0.930973 0.406960 0.729378
Si Si2 0.275101 0.129428 0.238316
Si Si3 0.013624 0.910772 0.632237
Si Si4 0.146663 0.676368 0.016089
Si Si5 0.746418 0.291561 0.629787
O O1 0.886148 0.500000 0.718259
O O2 0.861553 0.372721 0.860311
O O3 0.875987 0.352049 0.628396
O O4 0.096522 0.402390 0.704601
O O5 0.249903 0.224082 0.269273
O O6 0.137084 0.081529 0.288445
O O7 0.305402 0.114467 0.094787
O O8 0.109004 0.843573 0.677773
O O9 0.000000 0.881905 0.500000
O O10 0.082121 0.000000 0.630331
O O11 0.250000 0.750000 0.000000
O O12 0.000000 0.712542 0.000000
O O13 0.750000 0.250000 0.500000
#
# Coordination Sequence:
#
# PCOD8111741 Si02
#       5
#     8   8   8   8   8
#     4  11  25  44  68 100 134 171 220 280 332 385
#     4  11  23  41  71  94 129 175 223 265 331 397
#     4  11  24  42  62  92 131 169 215 272 327 381
#     4  10  22  40  67  97 131 171 221 270 327 396
#     4  12  24  43  66  95 132 178 222 267 323 397
#
# _framework density 22.093795
#
# number of rings (size 3 to 8) (size 9 to 14) (size 15 to 20)
#    0.000    1.000    4.000    2.400    2.800    4.400 
#    0.000    1.000    0.000    3.000    0.000    0.000 
#    0.000    0.000    0.000    0.000    0.000    0.000 
#
# Total GULP energy -247977.218675 kJ/mol
# GULP energy per Si atom -12398.860934 kJ/mol
# Density = 2.204351 g / cm^3
# Si number density = 22.093795 Si / 1000 Ang^3
#
#
#
# Elastic Constant Matrix: (Units=GPa)
#
#
# Indices 1 2 3 4 5 6 
#
# 1 113.8592 26.2888 30.0626 0.0000 -3.2032 0.0000
# 2 26.2888 126.4802 14.0776 0.0000 16.8030 0.0000
# 3 30.0626 14.0776 77.1177 0.0000 2.5423 0.0000
# 4 0.0000 0.0000 0.0000 9.6278 0.0000 2.1798
# 5 -3.2032 16.8030 2.5423 0.0000 31.7296 0.0000
# 6 0.0000 0.0000 0.0000 2.1798 0.0000 31.3746
#
#
#
# Elastic Compliance Matrix: (Units=1/GPa)
#
#
# Indices 1 2 3 4 5 6 
#
# 1 0.010308 -0.002050 -0.003724 0.000000 0.002425 0.000000
# 2 -0.002050 0.009068 -0.000693 0.000000 -0.004953 0.000000
# 3 -0.003724 -0.000693 0.014584 0.000000 -0.001178 0.000000
# 4 0.000000 0.000000 0.000000 0.105526 0.000000 -0.007331
# 5 0.002425 -0.004953 -0.001178 0.000000 0.034479 0.000000
# 6 0.000000 0.000000 0.000000 -0.007331 0.000000 0.032382
#
#
# Mechanical properties :
#
#
# Convention : Reuss Voigt Hill
#
# Bulk Modulus (GPa) = 47.56041 50.92393 49.24217
# Shear Modulus (GPa) = 22.09572 31.01493 26.55533
#
# Velocity S-wave (km/s) = 3.16585 3.75078 3.47066
# Velocity P-wave (km/s) = 5.91073 6.46968 6.19651
#
# Compressibility (1/GPa) = 0.02102589
#
# Stress axis : x y z
#
# Youngs Moduli (GPa) = 97.01629 110.28212 68.56759
#
# Poissons Ratio (x) = 0.22608 0.25534
# Poissons Ratio (y) = 0.19889 0.04750
# Poissons Ratio (z) = 0.36128 0.07640
#
# Static dielectric constant tensor:
#      x y z
#    x 4.199250 0.000000 -0.071220 
#    y 0.000000 3.895190 0.000000 
#    z -0.071220 0.000000 4.229660 
# 
# 
# High freq. dielectric constant tensor:
#      x y z
#    x 1.876730 0.000000 -0.001290 
#    y 0.000000 1.870770 0.000000 
#    z -0.001290 0.000000 1.862870 
# 
# From -- ./inp_files/118925.got.cif
#   From: 2010.06.25/outbox.cif.g09.slc.cpg/sg12_60_cif.got.tgz:118925.got - 2010.06.28 00:19:55.
