data_PCOD8111420
_publ_section_title
;
Structure prediction by ZEFSAII (Michael W. Deem and Ramdas Pophale) SiO2 
 PCOD8111420
Probable space group: C 2/M
;
_chemical_formula_sum "Si O2"
_cell_formula_units_Z 56
_cell_length_a 20.522763
_cell_length_b 32.555098
_cell_length_c 8.887197
_cell_angle_alpha 90.000000
_cell_angle_beta 150.647801
_cell_angle_gamma 90.000000
_cell_volume 2910.531778
_symmetry_space_group_name_H-M "C 2/M"
_symmetry_group_IT_number 12
_symmetry_cell_setting 'monoclinic'
loop_
_space_group_symop_operation_xyz
x,y,z
-x,y,-z
-x,-y,-z
x,-y,z
1/2+x,1/2+y,z
1/2-x,1/2+y,-z
1/2-x,1/2-y,-z
1/2+x,1/2-y,z
loop_
_atom_site_type_symbol
_atom_site_label
_atom_site_fract_x
_atom_site_fract_y
_atom_site_fract_z
Si Si1 0.246122 0.412441 0.145351
Si Si2 0.746214 0.633923 0.150574
Si Si3 0.518639 0.869768 0.866377
Si Si4 0.468556 0.774541 0.106954
Si Si5 0.520971 0.587312 0.873207
Si Si6 0.790948 0.000000 0.141227
Si Si7 0.239870 0.729875 0.817781
Si Si8 0.067252 0.000000 0.869166
O O1 0.385831 0.409511 0.509547
O O2 0.211481 0.459216 0.029103
O O3 0.254324 0.383814 0.017091
O O4 0.131586 0.398188 0.025385
O O5 0.725574 0.682319 0.098658
O O6 0.883942 0.622285 0.505690
O O7 0.626646 0.616430 0.007321
O O8 0.564655 0.822664 0.949102
O O9 0.500000 0.883627 0.000000
O O10 0.591445 0.762915 0.460053
O O11 0.500000 0.761501 0.000000
O O12 0.340099 0.750053 0.901699
O O13 0.575645 0.540551 0.988849
O O14 0.500000 0.603137 0.000000
O O15 0.809254 0.000000 0.997833
O O16 0.933198 0.000000 0.505188
O O17 0.250000 0.750000 0.000000
#
# Coordination Sequence:
#
# PCOD8111420 Si02
#       8
#     8   8   8   8   8   4   8   4
#     4  11  21  38  61  84 114 152 194 232 280 342
#     4  11  23  38  58  86 116 151 189 237 286 337
#     4  10  22  41  60  82 116 153 188 233 288 341
#     4  10  22  40  61  83 114 154 188 230 290 343
#     4  11  22  36  59  89 116 149 191 237 284 333
#     4   9  18  34  59  85 112 150 190 232 279 335
#     4  11  23  38  59  86 115 147 194 239 282 334
#     4   9  17  36  57  82 119 149 184 232 286 335
#
# _framework density 19.240469000000001
#
# number of rings (size 3 to 8) (size 9 to 14) (size 15 to 20)
#    0.000    1.571    1.429    3.643    0.000    6.286 
#    0.000    2.500    0.000    0.000    0.000    0.000 
#    0.000    0.000    0.000    0.000    0.000    0.000 
#
# Total GULP energy -347325.439742 kJ/mol
# GULP energy per Si atom -12404.479991 kJ/mol
# Density = 1.919668 g / cm^3
# Si number density = 19.240469 Si / 1000 Ang^3
#
#
#
# Elastic Constant Matrix: (Units=GPa)
#
#
# Indices 1 2 3 4 5 6 
#
# 1 162.6663 56.9442 53.1838 0.0000 6.2195 0.0000
# 2 56.9442 102.8341 41.6494 0.0000 16.2744 0.0000
# 3 53.1838 41.6494 75.7462 0.0000 -0.9154 0.0000
# 4 0.0000 0.0000 0.0000 27.3837 0.0000 7.2502
# 5 6.2195 16.2744 -0.9154 0.0000 37.8197 0.0000
# 6 0.0000 0.0000 0.0000 7.2502 0.0000 56.3274
#
#
#
# Elastic Compliance Matrix: (Units=1/GPa)
#
#
# Indices 1 2 3 4 5 6 
#
# 1 0.008644 -0.002940 -0.004456 0.000000 -0.000264 0.000000
# 2 -0.002940 0.014795 -0.006144 0.000000 -0.006032 0.000000
# 3 -0.004456 -0.006144 0.019755 0.000000 0.003855 0.000000
# 4 0.000000 0.000000 0.000000 0.037807 0.000000 -0.004866
# 5 -0.000264 -0.006032 0.003855 0.000000 0.029174 0.000000
# 6 0.000000 0.000000 0.000000 -0.004866 0.000000 0.018380
#
#
# Mechanical properties :
#
#
# Convention : Reuss Voigt Hill
#
# Bulk Modulus (GPa) = 62.05313 71.64459 66.84886
# Shear Modulus (GPa) = 31.05493 36.93742 33.99618
#
# Velocity S-wave (km/s) = 4.02187 4.38628 4.20802
# Velocity P-wave (km/s) = 7.34089 7.93535 7.64390
#
# Compressibility (1/GPa) = 0.01611522
#
# Stress axis : x y z
#
# Youngs Moduli (GPa) = 115.69245 67.58837 50.61942
#
# Poissons Ratio (x) = 0.19871 0.22554
# Poissons Ratio (y) = 0.34014 0.31100
# Poissons Ratio (z) = 0.51548 0.41526
#
# Static dielectric constant tensor:
#      x y z
#    x 3.576240 0.000000 -0.056090 
#    y 0.000000 3.693530 0.000000 
#    z -0.056090 0.000000 3.505420 
# 
# 
# High freq. dielectric constant tensor:
#      x y z
#    x 1.764220 0.000000 -0.005580 
#    y 0.000000 1.755930 0.000000 
#    z -0.005580 0.000000 1.746710 
# 
# From -- ./inp_files/91579.got.cif
#   From: 2010.06.25/outbox.cif.g09.slc.cpg/sg12_46_cif.got.tgz:91579.got - 2010.06.28 00:19:55.
