data_PCOD8111300
_publ_section_title
;
Structure prediction by ZEFSAII (Michael W. Deem and Ramdas Pophale) SiO2 
 PCOD8111300
Probable space group: C 2/M
;
_chemical_formula_sum "Si O2"
_cell_formula_units_Z 48
_cell_length_a 15.306435
_cell_length_b 26.010521
_cell_length_c 9.447967
_cell_angle_alpha 90.000000
_cell_angle_beta 35.573886
_cell_angle_gamma 90.000000
_cell_volume 2188.263384
_symmetry_space_group_name_H-M "C 2/M"
_symmetry_group_IT_number 12
_symmetry_cell_setting 'monoclinic'
loop_
_space_group_symop_operation_xyz
x,y,z
-x,y,-z
-x,-y,-z
x,-y,z
1/2+x,1/2+y,z
1/2-x,1/2+y,-z
1/2-x,1/2-y,-z
1/2+x,1/2-y,z
loop_
_atom_site_type_symbol
_atom_site_label
_atom_site_fract_x
_atom_site_fract_y
_atom_site_fract_z
Si Si1 0.779763 0.622559 0.916828
Si Si2 0.150072 0.702174 0.391218
Si Si3 0.126209 0.650282 0.722558
Si Si4 0.672095 0.316879 0.318498
Si Si5 0.381153 0.442796 0.048895
Si Si6 0.434452 0.058736 0.378042
O O1 0.754903 0.658010 0.809973
O O2 0.635038 0.585193 0.083126
O O3 0.932885 0.589386 0.716508
O O4 0.774390 0.656961 0.063564
O O5 0.121740 0.687409 0.591537
O O6 0.224940 0.758099 0.274349
O O7 0.000000 0.703971 0.500000
O O8 0.289028 0.654509 0.585297
O O9 0.102309 0.590241 0.716459
O O10 0.000000 0.669271 0.000000
O O11 0.500000 0.322526 0.500000
O O12 0.440450 0.500000 0.940923
O O13 0.212882 0.442055 0.332128
O O14 0.500000 0.416158 0.000000
O O15 0.484223 0.000000 0.277261
#
# Coordination Sequence:
#
# PCOD8111300 Si02
#       6
#     8   8   8   8   8   8
#     4  12  21  42  69  96 133 174 227 282 333 398
#     4  11  21  42  68  97 129 176 224 282 337 400
#     4  12  23  44  67  97 136 175 222 284 335 406
#     4  11  27  42  62  95 136 176 228 276 346 400
#     4  10  22  39  65 102 138 173 221 273 334 405
#     4  11  23  41  70 100 133 174 224 276 336 398
#
# _framework density 21.935203000000001
#
# number of rings (size 3 to 8) (size 9 to 14) (size 15 to 20)
#    0.000    0.833    5.000    2.000    2.333    3.000 
#    0.000    0.833    0.000    2.500    0.000    0.000 
#    0.000    0.000    0.000    0.000    0.000    0.000 
#
# Total GULP energy -297374.761152 kJ/mol
# GULP energy per Si atom -12390.615048 kJ/mol
# Density = 2.188528 g / cm^3
# Si number density = 21.935203 Si / 1000 Ang^3
#
#
#
# Elastic Constant Matrix: (Units=GPa)
#
#
# Indices 1 2 3 4 5 6 
#
# 1 172.5357 77.9547 37.4096 -0.0001 14.6511 0.0001
# 2 77.9547 156.7223 41.2638 0.0000 10.9195 0.0000
# 3 37.4096 41.2638 59.0463 -0.0001 14.4431 0.0001
# 4 -0.0001 0.0000 -0.0001 24.0640 0.0001 -4.0813
# 5 14.6511 10.9195 14.4431 0.0001 39.2859 0.0000
# 6 0.0001 0.0000 0.0001 -4.0813 0.0000 44.9933
#
#
#
# Elastic Compliance Matrix: (Units=1/GPa)
#
#
# Indices 1 2 3 4 5 6 
#
# 1 0.007868 -0.003180 -0.002484 0.000000 -0.001137 0.000000
# 2 -0.003180 0.009106 -0.004417 0.000000 0.000279 0.000000
# 3 -0.002484 -0.004417 0.023152 0.000000 -0.006357 0.000000
# 4 0.000000 0.000000 0.000000 0.042205 0.000000 0.003828
# 5 -0.001137 0.000279 -0.006357 0.000000 0.028138 0.000000
# 6 0.000000 0.000000 0.000000 0.003828 0.000000 0.022573
#
#
# Mechanical properties :
#
#
# Convention : Reuss Voigt Hill
#
# Bulk Modulus (GPa) = 50.09359 77.95116 64.02238
# Shear Modulus (GPa) = 31.27753 37.11373 34.19563
#
# Velocity S-wave (km/s) = 3.78021 4.11782 3.95262
# Velocity P-wave (km/s) = 6.47611 7.63038 7.07682
#
# Compressibility (1/GPa) = 0.01996263
#
# Stress axis : x y z
#
# Youngs Moduli (GPa) = 127.09708 109.81591 43.19351
#
# Poissons Ratio (x) = 0.34925 0.10730
# Poissons Ratio (y) = 0.40421 0.19079
# Poissons Ratio (z) = 0.31574 0.48506
#
# Static dielectric constant tensor:
#      x y z
#    x 4.371040 0.000000 0.128920 
#    y 0.000000 4.794490 0.000000 
#    z 0.128920 0.000000 3.692320 
# 
# 
# High freq. dielectric constant tensor:
#      x y z
#    x 1.887070 0.000000 -0.002220 
#    y 0.000000 1.873960 0.000000 
#    z -0.002220 0.000000 1.821980 
# 
# From -- ./inp_files/67294.got.cif
#   From: 2010.06.25/outbox.cif.g09.slc.cpg/sg12_34_cif.got.tgz:67294.got - 2010.06.28 00:19:55.
