data_PCOD8111067
_publ_section_title
;
Structure prediction by ZEFSAII (Michael W. Deem and Ramdas Pophale) SiO2 
 PCOD8111067
Probable space group: C 2/M
;
_chemical_formula_sum "Si O2"
_cell_formula_units_Z 56
_cell_length_a 15.468959
_cell_length_b 14.028539
_cell_length_c 15.541627
_cell_angle_alpha 90.000000
_cell_angle_beta 59.542752
_cell_angle_gamma 90.000000
_cell_volume 2907.241586
_symmetry_space_group_name_H-M "C 2/M"
_symmetry_group_IT_number 12
_symmetry_cell_setting 'monoclinic'
loop_
_space_group_symop_operation_xyz
x,y,z
-x,y,-z
-x,-y,-z
x,-y,z
1/2+x,1/2+y,z
1/2-x,1/2+y,-z
1/2-x,1/2-y,-z
1/2+x,1/2-y,z
loop_
_atom_site_type_symbol
_atom_site_label
_atom_site_fract_x
_atom_site_fract_y
_atom_site_fract_z
Si Si1 0.134089 0.887335 0.606185
Si Si2 0.400658 0.794704 0.882047
Si Si3 0.754224 0.886847 0.620573
Si Si4 0.220536 0.705370 0.881248
Si Si5 0.057042 0.896595 0.382831
Si Si6 0.842363 0.500000 0.117463
Si Si7 0.121517 0.239935 0.763431
Si Si8 0.038983 0.500000 0.118337
O O1 0.215806 0.859843 0.492349
O O2 0.164351 0.846192 0.683514
O O3 0.022905 0.843153 0.639029
O O4 0.125827 0.000000 0.616186
O O5 0.331106 0.746845 0.844018
O O6 0.502507 0.734755 0.834841
O O7 0.425727 0.905559 0.847763
O O8 0.348548 0.785495 0.000512
O O9 0.838038 0.844288 0.646333
O O10 0.650329 0.837334 0.698215
O O11 0.744734 0.000000 0.637103
O O12 0.226781 0.595015 0.845833
O O13 0.170832 0.769232 0.832134
O O14 0.000000 0.914900 0.500000
O O15 0.083196 0.000000 0.329487
O O16 0.918981 0.500000 0.160293
O O17 0.907220 0.500000 0.999741
#
# Coordination Sequence:
#
# PCOD8111067 Si02
#       8
#     8   8   8   8   8   4   8   4
#     4   9  19  37  53  75 116 155 184 230 295 347
#     4  10  22  39  58  85 119 151 186 240 301 345
#     4   9  19  33  55  84 112 140 183 244 295 341
#     4  10  22  39  58  85 119 150 188 243 296 345
#     4   7  12  28  52  73  98 134 172 221 283 330
#     4   9  16  34  62  83 107 146 192 239 292 331
#     4  12  22  32  59  86 110 149 199 239 283 355
#     4   9  16  34  62  81 109 152 184 235 294 345
#
# _framework density 19.262245
#
# number of rings (size 3 to 8) (size 9 to 14) (size 15 to 20)
#    0.000    2.571    1.429    2.571    4.000    0.000 
#    2.571    0.000    0.000    0.857    0.000    2.000 
#    0.000    0.000    0.000    0.000    0.000    0.000 
#
# Total GULP energy -346914.609939 kJ/mol
# GULP energy per Si atom -12389.807498 kJ/mol
# Density = 1.921840 g / cm^3
# Si number density = 19.262245 Si / 1000 Ang^3
#
#
#
# Elastic Constant Matrix: (Units=GPa)
#
#
# Indices 1 2 3 4 5 6 
#
# 1 131.2167 49.4103 44.5746 0.0000 7.9809 0.0000
# 2 49.4103 61.5609 17.9884 0.0000 8.4248 0.0000
# 3 44.5746 17.9884 51.4119 0.0000 4.2729 0.0000
# 4 0.0000 0.0000 0.0000 26.4583 0.0000 2.1017
# 5 7.9809 8.4248 4.2729 0.0000 29.5737 0.0000
# 6 0.0000 0.0000 0.0000 2.1017 0.0000 25.5237
#
#
#
# Elastic Compliance Matrix: (Units=1/GPa)
#
#
# Indices 1 2 3 4 5 6 
#
# 1 0.013912 -0.008509 -0.009083 0.000000 -0.000018 0.000000
# 2 -0.008509 0.023854 -0.000602 0.000000 -0.004412 0.000000
# 3 -0.009083 -0.000602 0.027650 0.000000 -0.001372 0.000000
# 4 0.000000 0.000000 0.000000 0.038044 0.000000 -0.003133
# 5 -0.000018 -0.004412 -0.001372 0.000000 0.035274 0.000000
# 6 0.000000 0.000000 0.000000 -0.003133 0.000000 0.039437
#
#
# Mechanical properties :
#
#
# Convention : Reuss Voigt Hill
#
# Bulk Modulus (GPa) = 34.44980 52.01513 43.23246
# Shear Modulus (GPa) = 22.29809 25.12555 23.71182
#
# Velocity S-wave (km/s) = 3.40605 3.61556 3.51237
# Velocity P-wave (km/s) = 5.77856 6.67023 6.24034
#
# Compressibility (1/GPa) = 0.02902775
#
# Stress axis : x y z
#
# Youngs Moduli (GPa) = 71.88145 41.92241 36.16618
#
# Poissons Ratio (x) = 0.35674 0.32849
# Poissons Ratio (y) = 0.61167 0.02176
# Poissons Ratio (z) = 0.65288 0.02522
#
# Static dielectric constant tensor:
#      x y z
#    x 3.812270 0.000000 -0.051160 
#    y 0.000000 3.354610 0.000000 
#    z -0.051160 0.000000 3.542070 
# 
# 
# High freq. dielectric constant tensor:
#      x y z
#    x 1.741960 0.000000 -0.013750 
#    y 0.000000 1.716250 0.000000 
#    z -0.013750 0.000000 1.759240 
# 
# From -- ./inp_files/224697.got.cif
#   From: 2010.06.25/outbox.cif.g09.slc.cpg/sg12_113_cif.got.tgz:224697.got - 2010.06.28 00:19:55.
