data_PCOD8111310
_publ_section_title
;
Structure prediction by ZEFSAII (Michael W. Deem and Ramdas Pophale) SiO2 
 PCOD8111310
Probable space group: C 2/M
;
_chemical_formula_sum "Si O2"
_cell_formula_units_Z 40
_cell_length_a 8.734827
_cell_length_b 15.238170
_cell_length_c 19.853794
_cell_angle_alpha 90.000000
_cell_angle_beta 45.545828
_cell_angle_gamma 90.000000
_cell_volume 1886.313071
_symmetry_space_group_name_H-M "C 2/M"
_symmetry_group_IT_number 12
_symmetry_cell_setting 'monoclinic'
loop_
_space_group_symop_operation_xyz
x,y,z
-x,y,-z
-x,-y,-z
x,-y,z
1/2+x,1/2+y,z
1/2-x,1/2+y,-z
1/2-x,1/2-y,-z
1/2+x,1/2-y,z
loop_
_atom_site_type_symbol
_atom_site_label
_atom_site_fract_x
_atom_site_fract_y
_atom_site_fract_z
Si Si1 0.618050 0.500000 0.832283
Si Si2 0.652679 0.500000 0.572948
Si Si3 0.182985 0.174584 0.892795
Si Si4 0.860954 0.855384 0.600024
Si Si5 0.154711 0.675790 0.795068
Si Si6 0.567198 0.000000 0.627508
Si Si7 0.119894 0.000000 0.224924
O O1 0.608291 0.584113 0.882618
O O2 0.413518 0.500000 0.845129
O O3 0.819869 0.500000 0.720817
O O4 0.539322 0.415480 0.578038
O O5 0.894068 0.500000 0.466496
O O6 0.615434 0.500000 0.665073
O O7 0.218017 0.247338 0.825490
O O8 0.400685 0.163104 0.867356
O O9 0.000000 0.207020 0.000000
O O10 0.756850 0.796015 0.690932
O O11 0.000000 0.801780 0.500000
O O12 0.669034 0.912998 0.628615
O O13 0.246200 0.584434 0.793952
#
# Coordination Sequence:
#
# PCOD8111310 Si02
#       7
#     4   4   8   8   8   4   4
#     4  12  23  40  64  91 123 160 214 254 309 360
#     4   7  14  27  55  90 124 157 202 234 297 361
#     4  12  26  44  65  90 121 162 210 262 312 362
#     4   8  14  30  60  92 121 158 197 240 303 366
#     4  11  22  43  66  91 126 163 202 255 310 363
#     4   9  14  30  59  90 120 163 199 249 293 361
#     4  10  22  39  65  95 127 164 198 250 304 373
#
# _framework density 21.205387999999999
#
# number of rings (size 3 to 8) (size 9 to 14) (size 15 to 20)
#    0.000    2.000    2.000    4.500    0.000    0.400 
#    0.000    2.500    4.400    0.000    0.000    0.000 
#    0.000    0.000    0.000    0.000    0.000    0.000 
#
# Total GULP energy -247831.193961 kJ/mol
# GULP energy per Si atom -12391.559698 kJ/mol
# Density = 2.115712 g / cm^3
# Si number density = 21.205388 Si / 1000 Ang^3
#
#
#
# Elastic Constant Matrix: (Units=GPa)
#
#
# Indices 1 2 3 4 5 6 
#
# 1 74.6245 21.7038 18.6289 0.0021 4.9632 0.0030
# 2 21.7038 98.2434 32.6128 0.0014 14.6065 0.0020
# 3 18.6289 32.6128 124.3324 0.0037 -4.5784 0.0041
# 4 0.0021 0.0014 0.0037 22.0359 -0.0017 7.4553
# 5 4.9632 14.6065 -4.5784 -0.0017 26.9523 -0.0015
# 6 0.0030 0.0020 0.0041 7.4553 -0.0015 24.4276
#
#
#
# Elastic Compliance Matrix: (Units=1/GPa)
#
#
# Indices 1 2 3 4 5 6 
#
# 1 0.014624 -0.002454 -0.001608 -0.000001 -0.001636 -0.000001
# 2 -0.002454 0.012856 -0.003265 0.000000 -0.007070 -0.000001
# 3 -0.001608 -0.003265 0.009274 -0.000001 0.003641 -0.000001
# 4 -0.000001 0.000000 -0.000001 0.050606 0.000002 -0.015445
# 5 -0.001636 -0.007070 0.003641 0.000002 0.041854 0.000002
# 6 -0.000001 -0.000001 -0.000001 -0.015445 0.000002 0.045651
#
#
# Mechanical properties :
#
#
# Convention : Reuss Voigt Hill
#
# Bulk Modulus (GPa) = 45.24555 49.23237 47.23896
# Shear Modulus (GPa) = 25.39553 29.63348 27.51450
#
# Velocity S-wave (km/s) = 3.46439 3.74230 3.60602
# Velocity P-wave (km/s) = 6.11439 6.47614 6.29787
#
# Compressibility (1/GPa) = 0.02210162
#
# Stress axis : x y z
#
# Youngs Moduli (GPa) = 68.37943 77.78610 107.82492
#
# Poissons Ratio (x) = 0.19087 0.17336
# Poissons Ratio (y) = 0.16779 0.35203
# Poissons Ratio (z) = 0.10994 0.25396
#
# Static dielectric constant tensor:
#      x y z
#    x 3.679540 0.000010 0.198950 
#    y 0.000010 2.885660 0.000020 
#    z 0.198950 0.000020 4.389060 
# 
# 
# High freq. dielectric constant tensor:
#      x y z
#    x 1.823680 0.000000 0.006630 
#    y 0.000000 1.800780 0.000000 
#    z 0.006630 0.000000 1.852300 
# 
# From -- ./inp_files/299719.got.cif
#   From: 2010.06.25/outbox.cif.g09.slc.cpg/sg12_150_cif.got.tgz:299719.got - 2010.06.28 00:19:55.
