data_PCOD8111201
_publ_section_title
;
Structure prediction by ZEFSAII (Michael W. Deem and Ramdas Pophale) SiO2 
 PCOD8111201
Probable space group: C 2/M
;
_chemical_formula_sum "Si O2"
_cell_formula_units_Z 28
_cell_length_a 15.877683
_cell_length_b 17.573748
_cell_length_c 5.178485
_cell_angle_alpha 90.000000
_cell_angle_beta 105.175713
_cell_angle_gamma 90.000000
_cell_volume 1394.565623
_symmetry_space_group_name_H-M "C 2/M"
_symmetry_group_IT_number 12
_symmetry_cell_setting 'monoclinic'
loop_
_space_group_symop_operation_xyz
x,y,z
-x,y,-z
-x,-y,-z
x,-y,z
1/2+x,1/2+y,z
1/2-x,1/2+y,-z
1/2-x,1/2-y,-z
1/2+x,1/2-y,z
loop_
_atom_site_type_symbol
_atom_site_label
_atom_site_fract_x
_atom_site_fract_y
_atom_site_fract_z
Si Si1 0.767326 0.912302 0.094537
Si Si2 0.343169 0.087666 0.501839
Si Si3 0.450345 0.335362 0.215810
Si Si4 0.500000 0.189057 0.500000
O O1 0.721681 0.886645 0.322997
O O2 0.850933 0.860341 0.119536
O O3 0.796884 0.000000 0.130505
O O4 0.701494 0.898017 0.808121
O O5 0.430446 0.136958 0.591869
O O6 0.369956 0.000000 0.561183
O O7 0.500000 0.374200 0.500000
O O8 0.452840 0.243402 0.250091
O O9 0.500000 0.362137 0.000000
#
# Coordination Sequence:
#
# PCOD8111201 Si02
#       4
#     8   8   8   4
#     4  10  22  40  61  86 113 150 196 236 282 335
#     4  10  22  39  62  85 113 152 192 238 282 335
#     4  10  23  39  56  90 115 153 189 230 293 335
#     4  10  25  38  59  86 122 148 192 230 291 342
#
# _framework density 20.077938
#
# number of rings (size 3 to 8) (size 9 to 14) (size 15 to 20)
#    0.857    1.143    0.000    2.143    4.000    3.429 
#    0.000    4.286    0.000    0.000    0.000    0.000 
#    0.000    0.000    0.000    0.000    0.000    0.000 
#
# Total GULP energy -173609.233869 kJ/mol
# GULP energy per Si atom -12400.659562 kJ/mol
# Density = 2.003224 g / cm^3
# Si number density = 20.077938 Si / 1000 Ang^3
#
#
#
# Elastic Constant Matrix: (Units=GPa)
#
#
# Indices 1 2 3 4 5 6 
#
# 1 155.8594 77.7196 33.2587 0.0000 -8.2089 0.0000
# 2 77.7196 86.1521 27.5211 0.0000 9.8110 0.0000
# 3 33.2587 27.5211 81.2038 0.0000 -25.0947 0.0000
# 4 0.0000 0.0000 0.0000 20.9000 0.0000 29.7800
# 5 -8.2089 9.8110 -25.0947 0.0000 34.4140 0.0000
# 6 0.0000 0.0000 0.0000 29.7800 0.0000 78.8541
#
#
#
# Elastic Compliance Matrix: (Units=1/GPa)
#
#
# Indices 1 2 3 4 5 6 
#
# 1 0.013114 -0.013274 0.001632 0.000000 0.008102 0.000000
# 2 -0.013274 0.029003 -0.010232 0.000000 -0.018896 0.000000
# 3 0.001632 -0.010232 0.020830 0.000000 0.018496 0.000000
# 4 0.000000 0.000000 0.000000 0.103592 0.000000 -0.039123
# 5 0.008102 -0.018896 0.018496 0.000000 0.049865 0.000000
# 6 0.000000 0.000000 0.000000 -0.039123 0.000000 0.027457
#
#
# Mechanical properties :
#
#
# Convention : Reuss Voigt Hill
#
# Bulk Modulus (GPa) = 52.09138 66.69048 59.39093
# Shear Modulus (GPa) = 17.00631 39.14800 28.07716
#
# Velocity S-wave (km/s) = 2.91351 4.42045 3.74359
# Velocity P-wave (km/s) = 6.10892 7.70336 6.95200
#
# Compressibility (1/GPa) = 0.01919703
#
# Stress axis : x y z
#
# Youngs Moduli (GPa) = 76.25598 34.47955 48.00753
#
# Poissons Ratio (x) = 0.45768 -0.07833
# Poissons Ratio (y) = 1.01222 0.49123
# Poissons Ratio (z) = -0.12442 0.35280
#
# Static dielectric constant tensor:
#      x y z
#    x 3.512820 0.000000 -0.160130 
#    y 0.000000 3.545320 0.000000 
#    z -0.160130 0.000000 3.625160 
# 
# 
# High freq. dielectric constant tensor:
#      x y z
#    x 1.790300 0.000000 -0.009740 
#    y 0.000000 1.773540 0.000000 
#    z -0.009740 0.000000 1.787620 
# 
# From -- ./inp_files/6141.got.cif
#   From: 2010.06.25/outbox.cif.g09.slc.cpg/sg12_4_cif.got.tgz:6141.got - 2010.06.28 00:19:55.
