data_PCOD8111082
_publ_section_title
;
Structure prediction by ZEFSAII (Michael W. Deem and Ramdas Pophale) SiO2 
 PCOD8111082
Probable space group: C 2/M
;
_chemical_formula_sum "Si O2"
_cell_formula_units_Z 48
_cell_length_a 9.519402
_cell_length_b 29.836783
_cell_length_c 18.473633
_cell_angle_alpha 90.000000
_cell_angle_beta 28.928154
_cell_angle_gamma 90.000000
_cell_volume 2538.056552
_symmetry_space_group_name_H-M "C 2/M"
_symmetry_group_IT_number 12
_symmetry_cell_setting 'monoclinic'
loop_
_space_group_symop_operation_xyz
x,y,z
-x,y,-z
-x,-y,-z
x,-y,z
1/2+x,1/2+y,z
1/2-x,1/2+y,-z
1/2-x,1/2-y,-z
1/2+x,1/2-y,z
loop_
_atom_site_type_symbol
_atom_site_label
_atom_site_fract_x
_atom_site_fract_y
_atom_site_fract_z
Si Si1 0.836580 0.677427 0.145255
Si Si2 0.667531 0.083464 0.145451
Si Si3 0.314384 0.741707 0.389269
Si Si4 0.650319 0.182845 0.151235
Si Si5 0.362811 0.073683 0.137184
Si Si6 0.480219 0.500000 0.637263
Si Si7 0.586838 0.000000 0.672966
O O1 0.520383 0.698956 0.289553
O O2 0.767469 0.624791 0.173152
O O3 0.047330 0.692268 0.115564
O O4 0.000000 0.694019 0.000000
O O5 0.535391 0.132588 0.223196
O O6 0.594137 0.067232 0.097382
O O7 0.592424 0.045977 0.238523
O O8 0.000000 0.092798 0.000000
O O9 0.250000 0.750000 0.500000
O O10 0.476559 0.784384 0.282085
O O11 0.000000 0.730683 0.500000
O O12 0.000000 0.189608 0.000000
O O13 0.084508 0.043671 0.284703
O O14 0.500000 0.056157 0.000000
O O15 0.315152 0.500000 0.635093
O O16 0.806785 0.500000 0.458890
#
# Coordination Sequence:
#
# PCOD8111082 Si02
#       7
#     8   8   8   8   8   4   4
#     4  10  22  39  60  83 112 150 191 232 277 335
#     4   9  18  34  56  82 108 140 183 226 269 316
#     4  12  25  40  57  84 114 149 186 232 290 338
#     4  10  22  39  59  84 113 149 190 234 278 330
#     4   9  18  34  57  81 106 143 185 224 265 322
#     4   9  17  30  53  81 112 141 182 216 272 323
#     4   9  17  30  51  85 110 143 174 224 267 326
#
# _framework density 18.912109000000001
#
# number of rings (size 3 to 8) (size 9 to 14) (size 15 to 20)
#    0.000    2.167    1.667    1.000    2.333    2.667 
#    3.000    0.000    0.000    1.000    0.000    0.000 
#    0.000    0.000    0.000    0.000    0.000    0.000 
#
# Total GULP energy -297412.893498 kJ/mol
# GULP energy per Si atom -12392.203896 kJ/mol
# Density = 1.886906 g / cm^3
# Si number density = 18.912109 Si / 1000 Ang^3
#
#
#
# Elastic Constant Matrix: (Units=GPa)
#
#
# Indices 1 2 3 4 5 6 
#
# 1 100.4350 45.3049 63.7114 -0.0001 7.1024 -0.0001
# 2 45.3049 102.2874 66.3490 0.0000 12.5089 0.0000
# 3 63.7114 66.3490 129.3568 -0.0003 18.5908 -0.0002
# 4 -0.0001 0.0000 -0.0003 23.1943 0.0000 -2.4887
# 5 7.1024 12.5089 18.5908 0.0000 42.0515 0.0001
# 6 -0.0001 0.0000 -0.0002 -2.4887 0.0001 24.5388
#
#
#
# Elastic Compliance Matrix: (Units=1/GPa)
#
#
# Indices 1 2 3 4 5 6 
#
# 1 0.015027 -0.002823 -0.006096 0.000000 0.000997 0.000000
# 2 -0.002823 0.015229 -0.006234 0.000000 -0.001297 0.000000
# 3 -0.006096 -0.006234 0.014433 0.000000 -0.003497 0.000000
# 4 0.000000 0.000000 0.000000 0.043588 0.000000 0.004421
# 5 0.000997 -0.001297 -0.003497 0.000000 0.025544 0.000000
# 6 0.000000 0.000000 0.000000 0.004421 0.000000 0.041200
#
#
# Mechanical properties :
#
#
# Convention : Reuss Voigt Hill
#
# Bulk Modulus (GPa) = 69.53245 75.86776 72.70011
# Shear Modulus (GPa) = 26.29860 28.40452 27.35156
#
# Velocity S-wave (km/s) = 3.73308 3.87967 3.80708
# Velocity P-wave (km/s) = 7.44494 7.76351 7.60589
#
# Compressibility (1/GPa) = 0.01438177
#
# Stress axis : x y z
#
# Youngs Moduli (GPa) = 66.54710 65.66217 69.28340
#
# Poissons Ratio (x) = 0.18538 0.42238
# Poissons Ratio (y) = 0.18788 0.43195
# Poissons Ratio (z) = 0.40570 0.40937
#
# Static dielectric constant tensor:
#      x y z
#    x 3.482480 0.000000 0.142910 
#    y 0.000000 4.012800 0.000000 
#    z 0.142910 0.000000 3.528670 
# 
# 
# High freq. dielectric constant tensor:
#      x y z
#    x 1.727440 0.000000 0.010230 
#    y 0.000000 1.749920 0.000000 
#    z 0.010230 0.000000 1.727250 
# 
# From -- ./inp_files/260263.got.cif
#   From: 2010.06.25/outbox.cif.g09.slc.cpg/sg12_131_cif.got.tgz:260263.got - 2010.06.28 00:19:55.
