data_PCOD8111272
_publ_section_title
;
Structure prediction by ZEFSAII (Michael W. Deem and Ramdas Pophale) SiO2 
 PCOD8111272
Probable space group: C 2/M
;
_chemical_formula_sum "Si O2"
_cell_formula_units_Z 64
_cell_length_a 18.053179
_cell_length_b 17.793916
_cell_length_c 14.357009
_cell_angle_alpha 90.000000
_cell_angle_beta 40.402219
_cell_angle_gamma 90.000000
_cell_volume 2989.264306
_symmetry_space_group_name_H-M "C 2/M"
_symmetry_group_IT_number 12
_symmetry_cell_setting 'monoclinic'
loop_
_space_group_symop_operation_xyz
x,y,z
-x,y,-z
-x,-y,-z
x,-y,z
1/2+x,1/2+y,z
1/2-x,1/2+y,-z
1/2-x,1/2-y,-z
1/2+x,1/2-y,z
loop_
_atom_site_type_symbol
_atom_site_label
_atom_site_fract_x
_atom_site_fract_y
_atom_site_fract_z
Si Si1 0.228887 0.415065 0.573114
Si Si2 0.629435 0.156786 0.842272
Si Si3 0.709331 0.087112 0.309556
Si Si4 0.418696 0.172458 0.426790
Si Si5 0.792345 0.168616 0.854343
Si Si6 0.916007 0.821460 0.166771
Si Si7 0.543208 0.662944 0.660038
Si Si8 0.323885 0.156741 0.847916
O O1 0.209170 0.500000 0.559272
O O2 0.160318 0.403003 0.734026
O O3 0.182100 0.359102 0.540411
O O4 0.364754 0.400700 0.452055
O O5 0.720840 0.140373 0.835269
O O6 0.644653 0.240761 0.786994
O O7 0.500000 0.143783 0.000000
O O8 0.603548 0.137823 0.449015
O O9 0.824208 0.111781 0.252893
O O10 0.723653 0.101940 0.186221
O O11 0.685721 0.000000 0.351960
O O12 0.410213 0.262158 0.435198
O O13 0.540581 0.146509 0.271127
O O14 0.788524 0.258597 0.857694
O O15 0.923038 0.139607 0.728183
O O16 0.732105 0.132534 0.001917
O O17 0.978031 0.823715 0.208336
O O18 0.000000 0.834685 0.000000
#
# Coordination Sequence:
#
# PCOD8111272 Si02
#       8
#     8   8   8   8   8   8   8   8
#     4  12  25  42  65  94 132 173 215 268 328 388
#     4  11  23  42  70  99 127 166 218 274 319 379
#     4  12  24  39  59  93 137 173 212 262 326 394
#     4  11  22  39  65  94 128 168 217 267 318 386
#     4  10  22  41  68  95 126 162 221 273 316 376
#     4  11  22  39  66  94 128 167 216 269 316 382
#     4  11  23  41  67  97 128 169 220 266 319 388
#     4  10  22  39  63  96 126 166 214 269 323 381
#
# _framework density 21.409949999999998
#
# number of rings (size 3 to 8) (size 9 to 14) (size 15 to 20)
#    0.000    1.000    3.750    3.375    7.000    2.500 
#    0.000    3.750    0.000    0.000    0.000    0.000 
#    0.000    0.000    0.000    0.000    0.000    0.000 
#
# Total GULP energy -396908.136040 kJ/mol
# GULP energy per Si atom -12403.379251 kJ/mol
# Density = 2.136122 g / cm^3
# Si number density = 21.409950 Si / 1000 Ang^3
#
#
#
# Elastic Constant Matrix: (Units=GPa)
#
#
# Indices 1 2 3 4 5 6 
#
# 1 111.2904 13.3167 25.9509 0.0000 -7.6718 0.0000
# 2 13.3167 59.8402 33.0709 0.0000 1.0405 0.0000
# 3 25.9509 33.0709 105.0461 0.0000 -0.3499 0.0001
# 4 0.0000 0.0000 0.0000 13.7843 0.0000 2.1147
# 5 -7.6718 1.0405 -0.3499 0.0000 40.6804 0.0000
# 6 0.0000 0.0000 0.0001 2.1147 0.0000 14.4225
#
#
#
# Elastic Compliance Matrix: (Units=1/GPa)
#
#
# Indices 1 2 3 4 5 6 
#
# 1 0.009720 -0.001055 -0.002063 0.000000 0.001842 0.000000
# 2 -0.001055 0.020359 -0.006151 0.000000 -0.000773 0.000000
# 3 -0.002063 -0.006151 0.011965 0.000000 -0.000129 0.000000
# 4 0.000000 0.000000 0.000000 0.074216 0.000000 -0.010882
# 5 0.001842 -0.000773 -0.000129 0.000000 0.024948 0.000000
# 6 0.000000 0.000000 0.000000 -0.010882 0.000000 0.070932
#
#
# Mechanical properties :
#
#
# Convention : Reuss Voigt Hill
#
# Bulk Modulus (GPa) = 42.54315 46.76153 44.65234
# Shear Modulus (GPa) = 20.96319 27.36666 24.16493
#
# Velocity S-wave (km/s) = 3.13251 3.57910 3.36322
# Velocity P-wave (km/s) = 5.74433 6.24247 5.99857
#
# Compressibility (1/GPa) = 0.02350555
#
# Stress axis : x y z
#
# Youngs Moduli (GPa) = 102.88311 49.11835 83.57395
#
# Poissons Ratio (x) = 0.05182 0.17241
# Poissons Ratio (y) = 0.10854 0.51410
# Poissons Ratio (z) = 0.21224 0.30215
#
# Static dielectric constant tensor:
#      x y z
#    x 3.914480 0.000000 0.074550 
#    y 0.000000 3.472280 0.000000 
#    z 0.074550 0.000000 4.117790 
# 
# 
# High freq. dielectric constant tensor:
#      x y z
#    x 1.847660 0.000000 0.000650 
#    y 0.000000 1.801710 0.000000 
#    z 0.000650 0.000000 1.856620 
# 
# From -- ./inp_files/226810.got.cif
#   From: 2010.06.25/outbox.cif.g09.slc.cpg/sg12_114_cif.got.tgz:226810.got - 2010.06.28 00:19:55.
