data_PCOD8111754
_publ_section_title
;
Structure prediction by ZEFSAII (Michael W. Deem and Ramdas Pophale) SiO2 
 PCOD8111754
Probable space group: C 2/M
;
_chemical_formula_sum "Si O2"
_cell_formula_units_Z 44
_cell_length_a 17.622000
_cell_length_b 11.522579
_cell_length_c 11.352051
_cell_angle_alpha 90.000000
_cell_angle_beta 116.618174
_cell_angle_gamma 90.000000
_cell_volume 2060.737399
_symmetry_space_group_name_H-M "C 2/M"
_symmetry_group_IT_number 12
_symmetry_cell_setting 'monoclinic'
loop_
_space_group_symop_operation_xyz
x,y,z
-x,y,-z
-x,-y,-z
x,-y,z
1/2+x,1/2+y,z
1/2-x,1/2+y,-z
1/2-x,1/2-y,-z
1/2+x,1/2-y,z
loop_
_atom_site_type_symbol
_atom_site_label
_atom_site_fract_x
_atom_site_fract_y
_atom_site_fract_z
Si Si1 0.211111 0.139159 0.142075
Si Si2 0.119208 0.500000 0.226972
Si Si3 0.049716 0.500000 0.765862
Si Si4 0.162366 0.195548 0.867210
Si Si5 0.502668 0.246232 0.637887
Si Si6 0.671940 0.758897 0.357942
Si Si7 0.800864 0.500000 0.956010
O O1 0.305248 0.183480 0.169292
O O2 0.184947 0.175215 0.254867
O O3 0.209110 0.000000 0.128498
O O4 0.147652 0.196912 0.999427
O O5 0.166868 0.391111 0.315989
O O6 0.128713 0.500000 0.094645
O O7 0.018820 0.500000 0.176848
O O8 0.031242 0.612984 0.673919
O O9 0.144421 0.500000 0.885699
O O10 0.072200 0.167819 0.745640
O O11 0.238801 0.108080 0.896306
O O12 0.500000 0.277173 0.500000
O O13 0.413273 0.278371 0.634135
O O14 0.750000 0.750000 0.500000
#
# Coordination Sequence:
#
# PCOD8111754 Si02
#       7
#     8   4   4   8   8   8   4
#     4  11  23  42  70  99 131 180 224 276 337 405
#     4  10  23  41  66 100 132 177 225 284 341 401
#     4  10  22  40  70 101 131 166 229 292 336 386
#     4  11  24  42  68 103 137 175 222 271 344 400
#     4  11  25  44  66 100 135 176 229 281 336 400
#     4  11  25  45  67  96 135 184 230 282 338 404
#     4  12  21  43  69 101 140 176 214 274 340 416
#
# _framework density 21.351579999999998
#
# number of rings (size 3 to 8) (size 9 to 14) (size 15 to 20)
#    0.000    1.091    2.727    3.818    2.545    0.727 
#    4.909    1.364    0.000    0.000    0.000    0.000 
#    0.000    0.000    0.000    0.000    0.000    0.000 
#
# Total GULP energy -272613.360306 kJ/mol
# GULP energy per Si atom -12391.516378 kJ/mol
# Density = 2.130298 g / cm^3
# Si number density = 21.351580 Si / 1000 Ang^3
#
#
#
# Elastic Constant Matrix: (Units=GPa)
#
#
# Indices 1 2 3 4 5 6 
#
# 1 129.6840 43.6571 96.1421 0.0000 -1.7369 0.0000
# 2 43.6571 87.4416 33.2760 0.0000 1.5460 0.0000
# 3 96.1421 33.2760 180.2569 0.0000 1.2948 0.0000
# 4 0.0000 0.0000 0.0000 19.4704 0.0000 -7.1927
# 5 -1.7369 1.5460 1.2948 0.0000 52.2330 0.0000
# 6 0.0000 0.0000 0.0000 -7.1927 0.0000 29.8312
#
#
#
# Elastic Compliance Matrix: (Units=1/GPa)
#
#
# Indices 1 2 3 4 5 6 
#
# 1 0.014287 -0.004566 -0.006783 0.000000 0.000778 0.000000
# 2 -0.004566 0.013764 -0.000102 0.000000 -0.000557 0.000000
# 3 -0.006783 -0.000102 0.009187 0.000000 -0.000450 0.000000
# 4 0.000000 0.000000 0.000000 0.056382 0.000000 0.013594
# 5 0.000778 -0.000557 -0.000450 0.000000 0.019199 0.000000
# 6 0.000000 0.000000 0.000000 0.013594 0.000000 0.036800
#
#
# Mechanical properties :
#
#
# Convention : Reuss Voigt Hill
#
# Bulk Modulus (GPa) = 69.74456 82.61476 76.17966
# Shear Modulus (GPa) = 28.20097 35.26075 31.73086
#
# Velocity S-wave (km/s) = 3.63821 4.06819 3.85920
# Velocity P-wave (km/s) = 7.09820 7.80022 7.45748
#
# Compressibility (1/GPa) = 0.01433804
#
# Stress axis : x y z
#
# Youngs Moduli (GPa) = 69.99376 72.65184 108.84473
#
# Poissons Ratio (x) = 0.33170 0.73828
# Poissons Ratio (y) = 0.31956 0.01108
# Poissons Ratio (z) = 0.47476 0.00740
#
# Static dielectric constant tensor:
#      x y z
#    x 3.995600 0.000000 -0.088450 
#    y 0.000000 3.834050 0.000000 
#    z -0.088450 0.000000 3.944040 
# 
# 
# High freq. dielectric constant tensor:
#      x y z
#    x 1.842130 0.000000 -0.003130 
#    y 0.000000 1.838090 0.000000 
#    z -0.003130 0.000000 1.843420 
# 
# From -- ./inp_files/154437.got.cif
#   From: 2010.06.25/outbox.cif.g09.slc.cpg/sg12_78_cif.got.tgz:154437.got - 2010.06.28 00:19:55.
