data_PCOD8111269
_publ_section_title
;
Structure prediction by ZEFSAII (Michael W. Deem and Ramdas Pophale) SiO2 
 PCOD8111269
Probable space group: C 2/M
;
_chemical_formula_sum "Si O2"
_cell_formula_units_Z 56
_cell_length_a 19.466191
_cell_length_b 21.098965
_cell_length_c 9.237065
_cell_angle_alpha 90.000000
_cell_angle_beta 44.825527
_cell_angle_gamma 90.000000
_cell_volume 2674.450820
_symmetry_space_group_name_H-M "C 2/M"
_symmetry_group_IT_number 12
_symmetry_cell_setting 'monoclinic'
loop_
_space_group_symop_operation_xyz
x,y,z
-x,y,-z
-x,-y,-z
x,-y,z
1/2+x,1/2+y,z
1/2-x,1/2+y,-z
1/2-x,1/2-y,-z
1/2+x,1/2-y,z
loop_
_atom_site_type_symbol
_atom_site_label
_atom_site_fract_x
_atom_site_fract_y
_atom_site_fract_z
Si Si1 0.012638 0.804033 0.151576
Si Si2 0.188032 0.234902 0.450105
Si Si3 0.389505 0.929474 0.124909
Si Si4 0.911468 0.930403 0.023059
Si Si5 0.152339 0.313025 0.001200
Si Si6 0.387009 0.157493 0.630539
Si Si7 0.201305 0.572368 0.449697
O O1 0.905274 0.809075 0.380329
O O2 0.067765 0.870144 0.113280
O O3 0.072886 0.743091 0.113307
O O4 0.000000 0.798069 0.000000
O O5 0.250000 0.250000 0.500000
O O6 0.250426 0.203184 0.230408
O O7 0.144805 0.300237 0.457550
O O8 0.387365 0.880265 0.995769
O O9 0.331611 0.896998 0.347279
O O10 0.348274 0.000000 0.142626
O O11 0.500000 0.938465 0.000000
O O12 0.814998 0.913374 0.257325
O O13 0.899897 0.000000 0.961764
O O14 0.000000 0.935705 0.000000
O O15 0.177049 0.324509 0.133151
O O16 0.500000 0.163287 0.500000
O O17 0.359766 0.089585 0.604221
O O18 0.177037 0.500000 0.510637
#
# Coordination Sequence:
#
# PCOD8111269 Si02
#       7
#     8   8   8   8   8   8   8
#     4  11  22  38  64  98 124 170 214 271 331 391
#     4  12  25  41  65  93 128 171 218 272 332 397
#     4  10  22  39  63  94 130 172 221 273 325 388
#     4   9  20  38  63  96 128 159 211 270 319 381
#     4  12  24  40  63  94 132 171 215 274 335 391
#     4  12  25  42  63  93 136 174 216 274 341 399
#     4  10  22  41  66  94 128 175 222 269 329 400
#
# _framework density 20.938877000000002
#
# number of rings (size 3 to 8) (size 9 to 14) (size 15 to 20)
#    0.000    1.143    2.857    3.429    6.000    0.857 
#    0.000    0.000    0.000    0.000    0.000    4.000 
#    0.000    0.000    0.000    0.000    0.000    0.000 
#
# Total GULP energy -347011.361129 kJ/mol
# GULP energy per Si atom -12393.262897 kJ/mol
# Density = 2.089122 g / cm^3
# Si number density = 20.938877 Si / 1000 Ang^3
#
#
#
# Elastic Constant Matrix: (Units=GPa)
#
#
# Indices 1 2 3 4 5 6 
#
# 1 88.8569 34.0256 39.3459 0.0000 0.6373 0.0000
# 2 34.0256 114.9256 32.4357 0.0000 -1.2889 0.0000
# 3 39.3459 32.4357 133.6209 0.0000 -15.7655 0.0000
# 4 0.0000 0.0000 0.0000 36.6095 0.0000 18.5186
# 5 0.6373 -1.2889 -15.7655 0.0000 35.5104 0.0000
# 6 0.0000 0.0000 0.0000 18.5186 0.0000 67.7294
#
#
#
# Elastic Compliance Matrix: (Units=1/GPa)
#
#
# Indices 1 2 3 4 5 6 
#
# 1 0.014081 -0.003173 -0.003609 0.000000 -0.001970 0.000000
# 2 -0.003173 0.010073 -0.001542 0.000000 -0.000262 0.000000
# 3 -0.003609 -0.001542 0.009415 0.000000 0.004189 0.000000
# 4 0.000000 0.000000 0.000000 0.031700 0.000000 -0.008667
# 5 -0.001970 -0.000262 0.004189 0.000000 0.030046 0.000000
# 6 0.000000 0.000000 0.000000 -0.008667 0.000000 0.017134
#
#
# Mechanical properties :
#
#
# Convention : Reuss Voigt Hill
#
# Bulk Modulus (GPa) = 59.09208 61.00197 60.04703
# Shear Modulus (GPa) = 37.10972 43.40962 40.25967
#
# Velocity S-wave (km/s) = 4.21442 4.55813 4.38964
# Velocity P-wave (km/s) = 7.20863 7.54312 7.37777
#
# Compressibility (1/GPa) = 0.01692274
#
# Stress axis : x y z
#
# Youngs Moduli (GPa) = 71.01828 99.27754 106.21441
#
# Poissons Ratio (x) = 0.31496 0.38328
# Poissons Ratio (y) = 0.22531 0.16377
# Poissons Ratio (z) = 0.25627 0.15307
#
# Static dielectric constant tensor:
#      x y z
#    x 3.681710 0.000000 -0.128380 
#    y 0.000000 4.528440 0.000000 
#    z -0.128380 0.000000 4.028720 
# 
# 
# High freq. dielectric constant tensor:
#      x y z
#    x 1.795410 0.000000 -0.017610 
#    y 0.000000 1.835690 0.000000 
#    z -0.017610 0.000000 1.828800 
# 
# From -- ./inp_files/79064.got.cif
#   From: 2010.06.25/outbox.cif.g09.slc.cpg/sg12_40_cif.got.tgz:79064.got - 2010.06.28 00:19:55.
