data_PCOD8111109
_publ_section_title
;
Structure prediction by ZEFSAII (Michael W. Deem and Ramdas Pophale) SiO2 
 PCOD8111109
Probable space group: C 2/M
;
_chemical_formula_sum "Si O2"
_cell_formula_units_Z 48
_cell_length_a 19.317134
_cell_length_b 28.968140
_cell_length_c 9.245649
_cell_angle_alpha 90.000000
_cell_angle_beta 151.583704
_cell_angle_gamma 90.000000
_cell_volume 2462.028227
_symmetry_space_group_name_H-M "C 2/M"
_symmetry_group_IT_number 12
_symmetry_cell_setting 'monoclinic'
loop_
_space_group_symop_operation_xyz
x,y,z
-x,y,-z
-x,-y,-z
x,-y,z
1/2+x,1/2+y,z
1/2-x,1/2+y,-z
1/2-x,1/2-y,-z
1/2+x,1/2-y,z
loop_
_atom_site_type_symbol
_atom_site_label
_atom_site_fract_x
_atom_site_fract_y
_atom_site_fract_z
Si Si1 0.215678 0.788929 0.270434
Si Si2 0.064021 0.945669 0.766491
Si Si3 0.108888 0.110636 0.325983
Si Si4 0.096714 0.208572 0.366358
Si Si5 0.892785 0.553755 0.434678
Si Si6 0.379915 0.120046 0.662911
O O1 0.139399 0.776782 0.281809
O O2 0.315870 0.748057 0.385063
O O3 0.312091 0.835401 0.458313
O O4 0.074828 0.792561 0.906870
O O5 0.000000 0.924978 0.500000
O O6 0.965403 0.928738 0.717207
O O7 0.050277 0.000000 0.740524
O O8 0.230741 0.930382 0.091522
O O9 0.152267 0.156210 0.498862
O O10 0.254512 0.091439 0.518108
O O11 0.000000 0.128522 0.000000
O O12 0.897481 0.500000 0.487921
O O13 0.946391 0.584809 0.667511
O O14 0.000000 0.563823 0.500000
O O15 0.500000 0.135924 0.000000
#
# Coordination Sequence:
#
# PCOD8111109 Si02
#       6
#     8   8   8   8   8   8
#     4   9  17  28  46  75 109 140 175 215 266 320
#     4  10  22  39  60  81 105 144 184 219 270 334
#     4  11  19  36  55  82 112 139 180 232 271 308
#     4   9  16  28  47  74 109 142 171 217 269 316
#     4  10  22  41  58  77 111 147 178 219 274 330
#     4  11  23  34  54  85 112 142 182 228 271 314
#
# _framework density 19.496120000000001
#
# number of rings (size 3 to 8) (size 9 to 14) (size 15 to 20)
#    0.000    2.000    5.000    0.000    9.333    1.333 
#    0.000    0.000    0.000    1.000    0.000    4.667 
#    0.000    0.000    0.000    0.000    0.000    0.000 
#
# Total GULP energy -297391.416816 kJ/mol
# GULP energy per Si atom -12391.309034 kJ/mol
# Density = 1.945175 g / cm^3
# Si number density = 19.496120 Si / 1000 Ang^3
#
#
#
# Elastic Constant Matrix: (Units=GPa)
#
#
# Indices 1 2 3 4 5 6 
#
# 1 71.3819 30.8642 28.2614 0.0000 14.2784 0.0000
# 2 30.8642 50.2471 27.3238 0.0000 -1.6261 0.0000
# 3 28.2614 27.3238 73.7357 0.0000 11.9294 0.0000
# 4 0.0000 0.0000 0.0000 26.3743 0.0000 8.4666
# 5 14.2784 -1.6261 11.9294 0.0000 23.6287 0.0000
# 6 0.0000 0.0000 0.0000 8.4666 0.0000 7.2748
#
#
#
# Elastic Compliance Matrix: (Units=1/GPa)
#
#
# Indices 1 2 3 4 5 6 
#
# 1 0.023624 -0.014195 -0.001445 0.000000 -0.014523 0.000000
# 2 -0.014195 0.034547 -0.009946 0.000000 0.015977 0.000000
# 3 -0.001445 -0.009946 0.019351 0.000000 -0.009581 0.000000
# 4 0.000000 0.000000 0.000000 0.060530 0.000000 -0.070446
# 5 -0.014523 0.015977 -0.009581 0.000000 0.057034 0.000000
# 6 0.000000 0.000000 0.000000 -0.070446 0.000000 0.219448
#
#
# Mechanical properties :
#
#
# Convention : Reuss Voigt Hill
#
# Bulk Modulus (GPa) = 37.95023 40.91815 39.43419
# Shear Modulus (GPa) = 10.53765 18.71658 14.62712
#
# Velocity S-wave (km/s) = 2.32739 3.10177 2.74205
# Velocity P-wave (km/s) = 5.17012 5.81906 5.50416
#
# Compressibility (1/GPa) = 0.02635030
#
# Stress axis : x y z
#
# Youngs Moduli (GPa) = 42.32998 28.94646 51.67601
#
# Poissons Ratio (x) = 0.41091 0.07465
# Poissons Ratio (y) = 0.60089 0.51396
# Poissons Ratio (z) = 0.06115 0.28789
#
# Static dielectric constant tensor:
#      x y z
#    x 3.225940 0.000000 0.289500 
#    y 0.000000 3.430840 0.000000 
#    z 0.289500 0.000000 3.868850 
# 
# 
# High freq. dielectric constant tensor:
#      x y z
#    x 1.715540 0.000000 0.032670 
#    y 0.000000 1.758010 0.000000 
#    z 0.032670 0.000000 1.757640 
# 
# From -- ./inp_files/80864.got.cif
#   From: 2010.06.25/outbox.cif.g09.slc.cpg/sg12_41_cif.got.tgz:80864.got - 2010.06.28 00:19:55.
