data_PCOD8111706
_publ_section_title
;
Structure prediction by ZEFSAII (Michael W. Deem and Ramdas Pophale) SiO2 
 PCOD8111706
Probable space group: C 2/M
;
_chemical_formula_sum "Si O2"
_cell_formula_units_Z 40
_cell_length_a 29.880982
_cell_length_b 12.252712
_cell_length_c 5.194572
_cell_angle_alpha 90.000000
_cell_angle_beta 100.463163
_cell_angle_gamma 90.000000
_cell_volume 1870.228375
_symmetry_space_group_name_H-M "C 2/M"
_symmetry_group_IT_number 12
_symmetry_cell_setting 'monoclinic'
loop_
_space_group_symop_operation_xyz
x,y,z
-x,y,-z
-x,-y,-z
x,-y,z
1/2+x,1/2+y,z
1/2-x,1/2+y,-z
1/2-x,1/2-y,-z
1/2+x,1/2-y,z
loop_
_atom_site_type_symbol
_atom_site_label
_atom_site_fract_x
_atom_site_fract_y
_atom_site_fract_z
Si Si1 0.452421 0.679189 0.885172
Si Si2 0.576921 0.773890 0.654023
Si Si3 0.862248 0.121929 0.007780
Si Si4 0.279674 0.768489 0.780755
Si Si5 0.823512 0.500000 0.780227
Si Si6 0.880317 0.500000 0.338737
O O1 0.550653 0.776032 0.901048
O O2 0.455194 0.725024 0.600495
O O3 0.406863 0.606333 0.869762
O O4 0.500000 0.615842 0.000000
O O5 0.589699 0.894049 0.577560
O O6 0.622364 0.696679 0.731937
O O7 0.822079 0.184874 0.817314
O O8 0.846304 0.000000 0.074837
O O9 0.250000 0.750000 0.500000
O O10 0.294297 0.893440 0.801899
O O11 0.250000 0.750000 0.000000
O O12 0.839527 0.500000 0.501363
O O13 0.864573 0.500000 0.026649
#
# Coordination Sequence:
#
# PCOD8111706 Si02
#       6
#     8   8   8   8   4   4
#     4  10  22  43  67  99 137 173 222 274 338 406
#     4  10  22  40  65  98 131 175 218 275 329 392
#     4  10  25  44  70  97 135 175 222 282 335 393
#     4  12  28  45  67 101 136 175 226 276 334 400
#     4  12  24  44  70  96 131 182 219 273 335 396
#     4  12  20  42  71  94 132 178 224 264 334 405
#
# _framework density 21.387761999999999
#
# number of rings (size 3 to 8) (size 9 to 14) (size 15 to 20)
#    1.200    0.000    2.000    4.200    5.600    1.200 
#    0.000    4.000    0.000    0.000    0.000    0.000 
#    0.000    0.000    0.000    0.000    0.000    0.000 
#
# Total GULP energy -247799.090989 kJ/mol
# GULP energy per Si atom -12389.954549 kJ/mol
# Density = 2.133908 g / cm^3
# Si number density = 21.387762 Si / 1000 Ang^3
#
#
#
# Elastic Constant Matrix: (Units=GPa)
#
#
# Indices 1 2 3 4 5 6 
#
# 1 111.8226 29.5366 33.4926 0.0000 18.5270 0.0000
# 2 29.5366 145.9782 22.9852 0.0000 14.2673 0.0000
# 3 33.4926 22.9852 142.9675 0.0000 14.5186 0.0000
# 4 0.0000 0.0000 0.0000 15.6581 0.0000 -8.7693
# 5 18.5270 14.2673 14.5186 0.0000 49.8537 0.0000
# 6 0.0000 0.0000 0.0000 -8.7693 0.0000 14.8462
#
#
#
# Elastic Compliance Matrix: (Units=1/GPa)
#
#
# Indices 1 2 3 4 5 6 
#
# 1 0.010389 -0.001523 -0.001897 0.000000 -0.002873 0.000000
# 2 -0.001523 0.007400 -0.000696 0.000000 -0.001349 0.000000
# 3 -0.001897 -0.000696 0.007686 0.000000 -0.001334 0.000000
# 4 0.000000 0.000000 0.000000 0.095436 0.000000 0.056372
# 5 -0.002873 -0.001349 -0.001334 0.000000 0.021901 0.000000
# 6 0.000000 0.000000 0.000000 0.056372 0.000000 0.100655
#
#
# Mechanical properties :
#
#
# Convention : Reuss Voigt Hill
#
# Bulk Modulus (GPa) = 57.99233 63.64412 60.81822
# Shear Modulus (GPa) = 19.42152 37.05520 28.23836
#
# Velocity S-wave (km/s) = 3.01668 4.16690 3.63754
# Velocity P-wave (km/s) = 6.26956 7.27823 6.79264
#
# Compressibility (1/GPa) = 0.01724366
#
# Stress axis : x y z
#
# Youngs Moduli (GPa) = 96.25449 135.13763 130.09886
#
# Poissons Ratio (x) = 0.20576 0.24684
# Poissons Ratio (y) = 0.14656 0.09055
# Poissons Ratio (z) = 0.18263 0.09405
#
# Static dielectric constant tensor:
#      x y z
#    x 3.850410 0.000000 0.089720 
#    y 0.000000 3.449060 0.000000 
#    z 0.089720 0.000000 3.865030 
# 
# 
# High freq. dielectric constant tensor:
#      x y z
#    x 1.834420 0.000000 0.008300 
#    y 0.000000 1.828140 0.000000 
#    z 0.008300 0.000000 1.847440 
# 
# From -- ./inp_files/27536.got.cif
#   From: 2010.06.25/outbox.cif.g09.slc.cpg/sg12_14_cif.got.tgz:27536.got - 2010.06.28 00:19:55.
