data_PCOD8111274
_publ_section_title
;
Structure prediction by ZEFSAII (Michael W. Deem and Ramdas Pophale) SiO2 
 PCOD8111274
Probable space group: C 2/M
;
_chemical_formula_sum "Si O2"
_cell_formula_units_Z 44
_cell_length_a 24.021505
_cell_length_b 16.044831
_cell_length_c 15.255223
_cell_angle_alpha 90.000000
_cell_angle_beta 159.473104
_cell_angle_gamma 90.000000
_cell_volume 2061.693476
_symmetry_space_group_name_H-M "C 2/M"
_symmetry_group_IT_number 12
_symmetry_cell_setting 'monoclinic'
loop_
_space_group_symop_operation_xyz
x,y,z
-x,y,-z
-x,-y,-z
x,-y,z
1/2+x,1/2+y,z
1/2-x,1/2+y,-z
1/2-x,1/2-y,-z
1/2+x,1/2-y,z
loop_
_atom_site_type_symbol
_atom_site_label
_atom_site_fract_x
_atom_site_fract_y
_atom_site_fract_z
Si Si1 0.340316 0.404650 0.311130
Si Si2 0.277932 0.593562 0.419698
Si Si3 0.625366 0.210671 0.883108
Si Si4 0.000000 0.279322 0.000000
Si Si5 0.060310 0.161280 0.926418
Si Si6 0.091861 0.406669 0.545149
O O1 0.500000 0.372932 0.500000
O O2 0.306601 0.500000 0.235569
O O3 0.352967 0.392002 0.433854
O O4 0.200935 0.349363 0.066902
O O5 0.206204 0.500000 0.319150
O O6 0.410786 0.599646 0.692585
O O7 0.143377 0.661354 0.241251
O O8 0.546387 0.285825 0.817558
O O9 0.481791 0.161391 0.627186
O O10 0.750000 0.250000 0.000000
O O11 0.048110 0.219274 0.992463
O O12 0.222280 0.109480 0.167888
O O13 0.070157 0.500000 0.475138
O O14 0.000000 0.397930 0.500000
#
# Coordination Sequence:
#
# PCOD8111274 Si02
#       6
#     8   8   8   4   8   8
#     4  10  22  39  63  97 135 171 215 271 337 401
#     4  11  24  45  70  98 132 178 225 277 335 393
#     4  12  23  38  66  97 135 169 222 266 328 388
#     4  12  25  48  67  98 136 174 230 278 329 394
#     4  12  25  44  70  99 135 174 225 275 333 391
#     4  11  25  44  66 100 140 178 215 267 338 408
#
# _framework density 21.341678000000002
#
# number of rings (size 3 to 8) (size 9 to 14) (size 15 to 20)
#    0.000    0.727    3.636    4.091    2.545    0.000 
#    0.000    3.636    0.000    0.000    0.000    0.000 
#    0.000    0.000    0.000    0.000    0.000    0.000 
#
# Total GULP energy -272842.588796 kJ/mol
# GULP energy per Si atom -12401.935854 kJ/mol
# Density = 2.129310 g / cm^3
# Si number density = 21.341678 Si / 1000 Ang^3
#
#
#
# Elastic Constant Matrix: (Units=GPa)
#
#
# Indices 1 2 3 4 5 6 
#
# 1 64.2532 27.3643 11.3000 0.0000 7.9496 0.0000
# 2 27.3643 83.1649 27.6023 0.0000 -6.0988 0.0000
# 3 11.3000 27.6023 120.8427 0.0000 -2.6946 0.0000
# 4 0.0000 0.0000 0.0000 -19.4348 0.0000 -212.2297
# 5 7.9496 -6.0988 -2.6946 0.0000 32.1403 0.0000
# 6 0.0000 0.0000 0.0000 -212.2297 0.0000 -501.7515
#
#
#
# Elastic Compliance Matrix: (Units=1/GPa)
#
#
# Indices 1 2 3 4 5 6 
#
# 1 0.019205 -0.006624 -0.000418 0.000000 -0.006042 0.000000
# 2 -0.006624 0.015456 -0.002814 0.000000 0.004335 0.000000
# 3 -0.000418 -0.002814 0.008964 0.000000 0.000321 0.000000
# 4 0.000000 0.000000 0.000000 0.014218 0.000000 -0.006014
# 5 -0.006042 0.004335 0.000321 0.000000 0.033458 0.000000
# 6 0.000000 0.000000 0.000000 -0.006014 0.000000 0.000551
#
#
# Mechanical properties :
#
#
# Convention : Reuss Voigt Hill
#
# Bulk Modulus (GPa) = 41.81652 44.53266 43.17459
# Shear Modulus (GPa) = 41.82904 -84.34290 -21.25693
#
# Velocity S-wave (km/s) = 4.43196 -6.29334 -3.15942
# Velocity P-wave (km/s) = 6.76949 5.64768 2.63910
#
# Compressibility (1/GPa) = 0.02391400
#
# Stress axis : x y z
#
# Youngs Moduli (GPa) = 52.06882 64.70095 111.55426
#
# Poissons Ratio (x) = 0.42856 0.04659
# Poissons Ratio (y) = 0.34489 0.31394
# Poissons Ratio (z) = 0.02175 0.18209
#
# Static dielectric constant tensor:
#      x y z
#    x 3.733600 0.000000 -0.026760 
#    y 0.000000 4.154790 0.000000 
#    z -0.026760 0.000000 3.803440 
# 
# 
# High freq. dielectric constant tensor:
#      x y z
#    x 1.829330 0.000000 -0.001870 
#    y 0.000000 1.856600 0.000000 
#    z -0.001870 0.000000 1.843680 
# 
# From -- ./inp_files/241395.got.cif
#   From: 2010.06.25/outbox.cif.g09.slc.cpg/sg12_121_cif.got.tgz:241395.got - 2010.06.28 00:19:55.
