data_PCOD8111963
_publ_section_title
;
Structure prediction by ZEFSAII (Michael W. Deem and Ramdas Pophale) SiO2 
 PCOD8111963
Probable space group: C 2/M
;
_chemical_formula_sum "Si O2"
_cell_formula_units_Z 36
_cell_length_a 7.789860
_cell_length_b 26.707217
_cell_length_c 11.534632
_cell_angle_alpha 90.000000
_cell_angle_beta 138.155358
_cell_angle_gamma 90.000000
_cell_volume 1600.890043
_symmetry_space_group_name_H-M "C 2/M"
_symmetry_group_IT_number 12
_symmetry_cell_setting 'monoclinic'
loop_
_space_group_symop_operation_xyz
x,y,z
-x,y,-z
-x,-y,-z
x,-y,z
1/2+x,1/2+y,z
1/2-x,1/2+y,-z
1/2-x,1/2-y,-z
1/2+x,1/2-y,z
loop_
_atom_site_type_symbol
_atom_site_label
_atom_site_fract_x
_atom_site_fract_y
_atom_site_fract_z
Si Si1 0.915116 0.680412 0.796403
Si Si2 0.000000 0.107536 0.500000
Si Si3 0.553391 0.363433 0.892487
Si Si4 0.833099 0.720963 0.305941
Si Si5 0.786435 0.941486 0.609317
O O1 0.684971 0.640694 0.673618
O O2 0.815655 0.729550 0.815112
O O3 0.992788 0.697910 0.706721
O O4 0.153986 0.654589 0.983195
O O5 0.172055 0.072567 0.503890
O O6 0.370479 0.319878 0.752327
O O7 0.496884 0.414381 0.795719
O O8 0.500000 0.373363 0.000000
O O9 0.000000 0.737271 0.500000
O O10 0.500000 0.924097 0.500000
O O11 0.825273 0.000000 0.648329
#
# Coordination Sequence:
#
# PCOD8111963 Si02
#       5
#     8   4   8   8   8
#     4  11  24  38  61  95 137 178 218 267 325 392
#     4  12  25  46  68 104 136 172 225 278 334 394
#     4  10  22  41  64  99 138 174 220 276 333 392
#     4  11  21  38  61  93 133 182 224 264 320 396
#     4  11  25  48  76  98 127 174 224 281 339 397
#
# _framework density 22.487490999999999
#
# number of rings (size 3 to 8) (size 9 to 14) (size 15 to 20)
#    0.000    1.111    1.111    6.333    3.111    1.333 
#    0.000    3.333    0.000    0.000    0.000    0.000 
#    0.000    0.000    0.000    0.000    0.000    0.000 
#
# Total GULP energy -223338.445305 kJ/mol
# GULP energy per Si atom -12407.691406 kJ/mol
# Density = 2.243631 g / cm^3
# Si number density = 22.487491 Si / 1000 Ang^3
#
#
#
# Elastic Constant Matrix: (Units=GPa)
#
#
# Indices 1 2 3 4 5 6 
#
# 1 110.9521 38.1507 15.9312 0.0000 15.9706 0.0000
# 2 38.1507 122.7060 54.9756 0.0000 12.0375 0.0000
# 3 15.9312 54.9756 99.7586 0.0000 21.3818 0.0000
# 4 0.0000 0.0000 0.0000 36.0956 0.0000 3.1671
# 5 15.9706 12.0375 21.3818 0.0000 29.8169 0.0000
# 6 0.0000 0.0000 0.0000 3.1671 0.0000 35.7715
#
#
#
# Elastic Compliance Matrix: (Units=1/GPa)
#
#
# Indices 1 2 3 4 5 6 
#
# 1 0.010764 -0.003406 0.001299 0.000000 -0.005321 0.000000
# 2 -0.003406 0.011900 -0.006351 0.000000 0.001575 0.000000
# 3 0.001299 -0.006351 0.015262 0.000000 -0.009076 0.000000
# 4 0.000000 0.000000 0.000000 0.027921 0.000000 -0.002472
# 5 -0.005321 0.001575 -0.009076 0.000000 0.042261 0.000000
# 6 0.000000 0.000000 0.000000 -0.002472 0.000000 0.028174
#
#
# Mechanical properties :
#
#
# Convention : Reuss Voigt Hill
#
# Bulk Modulus (GPa) = 47.60135 61.28131 54.44133
# Shear Modulus (GPa) = 31.21053 35.29407 33.25230
#
# Velocity S-wave (km/s) = 3.72950 3.96599 3.84956
# Velocity P-wave (km/s) = 6.30551 6.94856 6.63483
#
# Compressibility (1/GPa) = 0.02100781
#
# Stress axis : x y z
#
# Youngs Moduli (GPa) = 92.90505 84.03546 65.52113
#
# Poissons Ratio (x) = 0.28626 -0.08510
# Poissons Ratio (y) = 0.31648 0.41615
# Poissons Ratio (z) = -0.12067 0.53374
#
# Static dielectric constant tensor:
#      x y z
#    x 4.235830 0.000000 0.219020 
#    y 0.000000 3.916700 0.000000 
#    z 0.219020 0.000000 3.952900 
# 
# 
# High freq. dielectric constant tensor:
#      x y z
#    x 1.908300 0.000000 0.002780 
#    y 0.000000 1.876920 0.000000 
#    z 0.002780 0.000000 1.887360 
# 
# From -- ./inp_files/123984.got.cif
#   From: 2010.06.25/outbox.cif.g09.slc.cpg/sg12_62_cif.got.tgz:123984.got - 2010.06.28 00:19:55.
