data_PCOD8111325
_publ_section_title
;
Structure prediction by ZEFSAII (Michael W. Deem and Ramdas Pophale) SiO2 
 PCOD8111325
Probable space group: C 2/M
;
_chemical_formula_sum "Si O2"
_cell_formula_units_Z 48
_cell_length_a 8.432686
_cell_length_b 27.516860
_cell_length_c 9.716450
_cell_angle_alpha 90.000000
_cell_angle_beta 87.783661
_cell_angle_gamma 90.000000
_cell_volume 2252.928551
_symmetry_space_group_name_H-M "C 2/M"
_symmetry_group_IT_number 12
_symmetry_cell_setting 'monoclinic'
loop_
_space_group_symop_operation_xyz
x,y,z
-x,y,-z
-x,-y,-z
x,-y,z
1/2+x,1/2+y,z
1/2-x,1/2+y,-z
1/2-x,1/2-y,-z
1/2+x,1/2-y,z
loop_
_atom_site_type_symbol
_atom_site_label
_atom_site_fract_x
_atom_site_fract_y
_atom_site_fract_z
Si Si1 0.090868 0.899181 0.638333
Si Si2 0.416662 0.055718 0.643623
Si Si3 0.593619 0.882005 0.863687
Si Si4 0.886225 0.944706 0.874963
Si Si5 0.361800 0.202707 0.326144
Si Si6 0.768014 0.696381 0.634323
O O1 0.227995 0.939954 0.625617
O O2 0.173918 0.850243 0.691516
O O3 0.000000 0.890785 0.500000
O O4 0.957075 0.915618 0.746538
O O5 0.500000 0.072591 0.500000
O O6 0.476671 0.091136 0.761138
O O7 0.457776 0.000000 0.678939
O O8 0.719125 0.920605 0.917725
O O9 0.685822 0.836502 0.788747
O O10 0.500000 0.862288 0.000000
O O11 0.856006 0.000000 0.831762
O O12 0.000000 0.941307 0.000000
O O13 0.319836 0.258191 0.289914
O O14 0.260727 0.193834 0.468351
O O15 0.549538 0.196342 0.331132
#
# Coordination Sequence:
#
# PCOD8111325 Si02
#       6
#     8   8   8   8   8   8
#     4  12  24  39  66  97 132 169 212 273 326 380
#     4  11  23  41  66  97 131 171 220 273 325 385
#     4  12  25  44  68  97 130 173 220 272 329 394
#     4  11  26  45  65  93 130 174 221 264 322 393
#     4  10  22  41  65  99 127 166 219 264 324 392
#     4  10  22  39  68  96 129 167 213 270 325 387
#
# _framework density 21.305603999999999
#
# number of rings (size 3 to 8) (size 9 to 14) (size 15 to 20)
#    0.000    1.000    1.667    5.000    7.000    5.333 
#    0.000    1.667    0.000    0.000    0.000    0.000 
#    0.000    0.000    0.000    0.000    0.000    0.000 
#
# Total GULP energy -297632.928868 kJ/mol
# GULP energy per Si atom -12401.372036 kJ/mol
# Density = 2.125711 g / cm^3
# Si number density = 21.305604 Si / 1000 Ang^3
#
#
#
# Elastic Constant Matrix: (Units=GPa)
#
#
# Indices 1 2 3 4 5 6 
#
# 1 81.8989 35.8932 23.8029 0.0000 -1.2787 0.0000
# 2 35.8932 146.8870 52.6860 0.0000 -5.9833 0.0000
# 3 23.8029 52.6860 75.0134 0.0000 -8.0552 0.0000
# 4 0.0000 0.0000 0.0000 21.0688 0.0000 -2.5348
# 5 -1.2787 -5.9833 -8.0552 0.0000 27.7272 0.0000
# 6 0.0000 0.0000 0.0000 -2.5348 0.0000 41.9655
#
#
#
# Elastic Compliance Matrix: (Units=1/GPa)
#
#
# Indices 1 2 3 4 5 6 
#
# 1 0.014098 -0.002462 -0.002819 0.000000 -0.000700 0.000000
# 2 -0.002462 0.009531 -0.005888 0.000000 0.000233 0.000000
# 3 -0.002819 -0.005888 0.018797 0.000000 0.004060 0.000000
# 4 0.000000 0.000000 0.000000 0.047811 0.000000 0.002888
# 5 -0.000700 0.000233 0.004060 0.000000 0.037263 0.000000
# 6 0.000000 0.000000 0.000000 0.002888 0.000000 0.024004
#
#
# Mechanical properties :
#
#
# Convention : Reuss Voigt Hill
#
# Bulk Modulus (GPa) = 49.78359 58.72931 54.25645
# Shear Modulus (GPa) = 27.69506 30.91344 29.30425
#
# Velocity S-wave (km/s) = 3.60932 3.81327 3.71269
# Velocity P-wave (km/s) = 6.38645 6.85661 6.62570
#
# Compressibility (1/GPa) = 0.02008694
#
# Stress axis : x y z
#
# Youngs Moduli (GPa) = 70.93340 104.92116 53.20028
#
# Poissons Ratio (x) = 0.25834 0.14999
# Poissons Ratio (y) = 0.17465 0.31323
# Poissons Ratio (z) = 0.19998 0.61776
#
# Static dielectric constant tensor:
#      x y z
#    x 3.847490 0.000000 0.026440 
#    y 0.000000 4.116390 0.000000 
#    z 0.026440 0.000000 3.578370 
# 
# 
# High freq. dielectric constant tensor:
#      x y z
#    x 1.846620 0.000000 -0.002190 
#    y 0.000000 1.849600 0.000000 
#    z -0.002190 0.000000 1.813280 
# 
# From -- ./inp_files/42239.got.cif
#   From: 2010.06.25/outbox.cif.g09.slc.cpg/sg12_22_cif.got.tgz:42239.got - 2010.06.28 00:19:55.
