data_PCOD8111655
_publ_section_title
;
Structure prediction by ZEFSAII (Michael W. Deem and Ramdas Pophale) SiO2 
 PCOD8111655
Probable space group: C 2/M
;
_chemical_formula_sum "Si O2"
_cell_formula_units_Z 36
_cell_length_a 10.238413
_cell_length_b 23.149661
_cell_length_c 8.643279
_cell_angle_alpha 90.000000
_cell_angle_beta 48.929187
_cell_angle_gamma 90.000000
_cell_volume 1544.430962
_symmetry_space_group_name_H-M "C 2/M"
_symmetry_group_IT_number 12
_symmetry_cell_setting 'monoclinic'
loop_
_space_group_symop_operation_xyz
x,y,z
-x,y,-z
-x,-y,-z
x,-y,z
1/2+x,1/2+y,z
1/2-x,1/2+y,-z
1/2-x,1/2-y,-z
1/2+x,1/2-y,z
loop_
_atom_site_type_symbol
_atom_site_label
_atom_site_fract_x
_atom_site_fract_y
_atom_site_fract_z
Si Si1 0.137796 0.000000 0.627209
Si Si2 0.000000 0.596075 0.000000
Si Si3 0.384818 0.173232 0.846117
Si Si4 0.771240 0.000000 0.798949
Si Si5 0.036504 0.200293 0.293576
Si Si6 0.161450 0.116613 0.767903
O O1 0.218897 0.942877 0.641213
O O2 0.178013 0.000000 0.417168
O O3 0.928315 0.000000 0.799165
O O4 0.165432 0.557794 0.913766
O O5 0.028183 0.635045 0.824484
O O6 0.482646 0.231841 0.725189
O O7 0.322220 0.141278 0.739901
O O8 0.228632 0.181945 0.090682
O O9 0.000000 0.185630 0.500000
O O10 0.890870 0.166290 0.311817
O O11 0.000000 0.101052 0.000000
#
# Coordination Sequence:
#
# PCOD8111655 Si02
#       6
#     4   4   8   4   8   8
#     4  11  23  41  71  97 126 167 236 270 306 403
#     4  11  24  44  64  90 144 171 208 276 340 395
#     4  10  24  41  64  94 133 177 213 271 337 386
#     4  10  24  41  65 102 123 177 218 268 339 377
#     4  10  23  40  65  95 129 174 227 266 321 394
#     4  10  22  40  64  96 130 170 224 269 324 380
#
# _framework density 23.309557000000002
#
# number of rings (size 3 to 8) (size 9 to 14) (size 15 to 20)
#    0.000    1.778    0.000    3.000   14.000    4.444 
#    0.000    1.111    0.000    0.000    0.000    0.000 
#    0.000    0.000    0.000    0.000    0.000    0.000 
#
# Total GULP energy -223238.659118 kJ/mol
# GULP energy per Si atom -12402.147729 kJ/mol
# Density = 2.325650 g / cm^3
# Si number density = 23.309557 Si / 1000 Ang^3
#
#
#
# Elastic Constant Matrix: (Units=GPa)
#
#
# Indices 1 2 3 4 5 6 
#
# 1 107.3091 74.5931 21.7089 0.0000 39.2166 0.0000
# 2 74.5931 181.4428 20.4107 0.0000 26.0885 0.0000
# 3 21.7089 20.4107 62.8248 0.0000 23.7326 0.0000
# 4 0.0000 0.0000 0.0000 32.3945 0.0000 26.6360
# 5 39.2166 26.0885 23.7326 0.0000 36.2257 0.0000
# 6 0.0000 0.0000 0.0000 26.6360 0.0000 26.4099
#
#
#
# Elastic Compliance Matrix: (Units=1/GPa)
#
#
# Indices 1 2 3 4 5 6 
#
# 1 0.019557 -0.005615 0.002042 0.000000 -0.018466 0.000000
# 2 -0.005615 0.007769 -0.001018 0.000000 0.001151 0.000000
# 3 0.002042 -0.001018 0.021396 0.000000 -0.015494 0.000000
# 4 0.000000 0.000000 0.000000 0.180813 0.000000 -0.182361
# 5 -0.018466 0.001151 -0.015494 0.000000 0.056917 0.000000
# 6 0.000000 0.000000 0.000000 -0.182361 0.000000 0.221786
#
#
# Mechanical properties :
#
#
# Convention : Reuss Voigt Hill
#
# Bulk Modulus (GPa) = 25.29155 65.00023 45.14589
# Shear Modulus (GPa) = 9.42329 34.66364 22.04346
#
# Velocity S-wave (km/s) = 2.01282 3.86048 3.07853
# Velocity P-wave (km/s) = 4.03432 6.91500 5.66096
#
# Compressibility (1/GPa) = 0.03953890
#
# Stress axis : x y z
#
# Youngs Moduli (GPa) = 51.13179 128.72029 46.73873
#
# Poissons Ratio (x) = 0.72274 -0.09544
# Poissons Ratio (y) = 0.28709 0.04760
# Poissons Ratio (z) = -0.10441 0.13110
#
# Static dielectric constant tensor:
#      x y z
#    x 4.133630 0.000000 0.142360 
#    y 0.000000 4.360080 0.000000 
#    z 0.142360 0.000000 4.047240 
# 
# 
# High freq. dielectric constant tensor:
#      x y z
#    x 1.918460 0.000000 0.019380 
#    y 0.000000 1.940910 0.000000 
#    z 0.019380 0.000000 1.911590 
# 
# From -- ./inp_files/50383.got.cif
#   From: 2010.06.25/outbox.cif.g09.slc.cpg/sg12_26_cif.got.tgz:50383.got - 2010.06.28 00:19:55.
