data_PCOD8111101
_publ_section_title
;
Structure prediction by ZEFSAII (Michael W. Deem and Ramdas Pophale) SiO2 
 PCOD8111101
Probable space group: C 2/M
;
_chemical_formula_sum "Si O2"
_cell_formula_units_Z 40
_cell_length_a 8.593303
_cell_length_b 26.135183
_cell_length_c 8.461966
_cell_angle_alpha 90.000000
_cell_angle_beta 86.781468
_cell_angle_gamma 90.000000
_cell_volume 1897.454517
_symmetry_space_group_name_H-M "C 2/M"
_symmetry_group_IT_number 12
_symmetry_cell_setting 'monoclinic'
loop_
_space_group_symop_operation_xyz
x,y,z
-x,y,-z
-x,-y,-z
x,-y,z
1/2+x,1/2+y,z
1/2-x,1/2+y,-z
1/2-x,1/2-y,-z
1/2+x,1/2-y,z
loop_
_atom_site_type_symbol
_atom_site_label
_atom_site_fract_x
_atom_site_fract_y
_atom_site_fract_z
Si Si1 0.450952 0.558238 0.323810
Si Si2 0.626811 0.720451 0.611123
Si Si3 0.139014 0.865078 0.092730
Si Si4 0.428941 0.812682 0.176348
Si Si5 0.708071 0.127165 0.229695
O O1 0.500000 0.563560 0.500000
O O2 0.457342 0.500000 0.264872
O O3 0.566796 0.590579 0.205492
O O4 0.271333 0.578601 0.324610
O O5 0.500000 0.695351 0.500000
O O6 0.750000 0.750000 0.500000
O O7 0.541217 0.761364 0.728262
O O8 0.694448 0.676444 0.717670
O O9 0.243197 0.825427 0.189039
O O10 0.259137 0.887067 0.955807
O O11 0.000000 0.837818 0.000000
O O12 0.524568 0.859531 0.256275
O O13 0.500000 0.802827 0.000000
#
# Coordination Sequence:
#
# PCOD8111101 Si02
#       5
#     8   8   8   8   8
#     4  10  22  40  64  93 120 154 201 252 306 360
#     4  12  25  39  59  91 124 164 202 249 300 356
#     4   9  21  37  63  85 116 158 198 246 296 353
#     4  10  23  41  58  87 124 161 203 245 298 361
#     4  10  22  39  59  88 122 160 200 245 299 357
#
# _framework density 21.080874000000001
#
# number of rings (size 3 to 8) (size 9 to 14) (size 15 to 20)
#    0.000    1.800    2.000    0.600    8.400    9.200 
#    0.000    1.000    0.000    9.600    0.000    0.000 
#    0.000    0.000    0.000    0.000    0.000    0.000 
#
# Total GULP energy -247793.523127 kJ/mol
# GULP energy per Si atom -12389.676156 kJ/mol
# Density = 2.103289 g / cm^3
# Si number density = 21.080874 Si / 1000 Ang^3
#
#
#
# Elastic Constant Matrix: (Units=GPa)
#
#
# Indices 1 2 3 4 5 6 
#
# 1 116.4822 39.3356 33.8873 0.0000 21.8163 0.0000
# 2 39.3356 89.1699 51.9245 0.0000 -0.2631 0.0000
# 3 33.8873 51.9245 85.2522 0.0000 5.3375 0.0000
# 4 0.0000 0.0000 0.0000 30.9371 0.0000 -0.9081
# 5 21.8163 -0.2631 5.3375 0.0000 32.9988 0.0000
# 6 0.0000 0.0000 0.0000 -0.9081 0.0000 17.8531
#
#
#
# Elastic Compliance Matrix: (Units=1/GPa)
#
#
# Indices 1 2 3 4 5 6 
#
# 1 0.011968 -0.004357 -0.001622 0.000000 -0.007684 0.000000
# 2 -0.004357 0.019079 -0.010182 0.000000 0.004680 0.000000
# 3 -0.001622 -0.010182 0.018703 0.000000 -0.002034 0.000000
# 4 0.000000 0.000000 0.000000 0.032372 0.000000 0.001647
# 5 -0.007684 0.004680 -0.002034 0.000000 0.035751 0.000000
# 6 0.000000 0.000000 0.000000 0.001647 0.000000 0.056096
#
#
# Mechanical properties :
#
#
# Convention : Reuss Voigt Hill
#
# Bulk Modulus (GPa) = 57.37817 60.13327 58.75572
# Shear Modulus (GPa) = 23.57367 27.40827 25.49097
#
# Velocity S-wave (km/s) = 3.34765 3.60967 3.48113
# Velocity P-wave (km/s) = 6.49766 6.77937 6.64001
#
# Compressibility (1/GPa) = 0.01742823
#
# Stress axis : x y z
#
# Youngs Moduli (GPa) = 83.55880 52.41243 53.46655
#
# Poissons Ratio (x) = 0.22839 0.08672
# Poissons Ratio (y) = 0.36411 0.54438
# Poissons Ratio (z) = 0.13553 0.53364
#
# Static dielectric constant tensor:
#      x y z
#    x 4.276520 0.000000 0.289010 
#    y 0.000000 3.773800 0.000000 
#    z 0.289010 0.000000 4.177020 
# 
# 
# High freq. dielectric constant tensor:
#      x y z
#    x 1.829750 0.000000 0.014170 
#    y 0.000000 1.789870 0.000000 
#    z 0.014170 0.000000 1.846040 
# 
# From -- ./inp_files/39325.got.cif
#   From: 2010.06.25/outbox.cif.g09.slc.cpg/sg12_20_cif.got.tgz:39325.got - 2010.06.28 00:19:55.
