data_PCOD8111411
_publ_section_title
;
Structure prediction by ZEFSAII (Michael W. Deem and Ramdas Pophale) SiO2 
 PCOD8111411
Probable space group: C 2/M
;
_chemical_formula_sum "Si O2"
_cell_formula_units_Z 40
_cell_length_a 13.989332
_cell_length_b 10.698368
_cell_length_c 15.255125
_cell_angle_alpha 90.000000
_cell_angle_beta 131.468152
_cell_angle_gamma 90.000000
_cell_volume 1710.802511
_symmetry_space_group_name_H-M "C 2/M"
_symmetry_group_IT_number 12
_symmetry_cell_setting 'monoclinic'
loop_
_space_group_symop_operation_xyz
x,y,z
-x,y,-z
-x,-y,-z
x,-y,z
1/2+x,1/2+y,z
1/2-x,1/2+y,-z
1/2-x,1/2-y,-z
1/2+x,1/2-y,z
loop_
_atom_site_type_symbol
_atom_site_label
_atom_site_fract_x
_atom_site_fract_y
_atom_site_fract_z
Si Si1 0.394069 0.134426 0.757156
Si Si2 0.993394 0.307126 0.636062
Si Si3 0.913592 0.226589 0.023176
Si Si4 0.339328 0.637182 0.159766
Si Si5 0.300525 0.858351 0.373279
O O1 0.450714 0.115637 0.694588
O O2 0.511569 0.151360 0.895628
O O3 0.308557 0.258640 0.715909
O O4 0.326636 0.000000 0.738502
O O5 0.871659 0.293725 0.498808
O O6 0.047459 0.174507 0.704211
O O7 0.104803 0.377297 0.650933
O O8 0.890625 0.134277 0.090865
O O9 0.778565 0.268035 0.899988
O O10 0.000000 0.160753 0.000000
O O11 0.293736 0.500000 0.158032
O O12 0.249672 0.000000 0.364724
#
# Coordination Sequence:
#
# PCOD8111411 Si02
#       5
#     8   8   8   8   8
#     4  11  23  39  62  92 125 161 203 253 307 360
#     4  10  22  40  62  87 120 161 203 247 304 364
#     4  10  22  40  60  87 122 162 203 246 306 369
#     4  10  22  40  62  90 123 159 204 256 303 357
#     4  11  23  41  65  90 121 164 209 249 299 366
#
# _framework density 23.380839999999999
#
# number of rings (size 3 to 8) (size 9 to 14) (size 15 to 20)
#    0.000    1.600    0.000    4.800    0.000    8.400 
#    0.000   10.000    0.000    0.000    0.000    0.000 
#    0.000    0.000    0.000    0.000    0.000    0.000 
#
# Total GULP energy -247796.397260 kJ/mol
# GULP energy per Si atom -12389.819863 kJ/mol
# Density = 2.332762 g / cm^3
# Si number density = 23.380840 Si / 1000 Ang^3
#
#
#
# Elastic Constant Matrix: (Units=GPa)
#
#
# Indices 1 2 3 4 5 6 
#
# 1 104.4105 9.0995 3.1804 0.0000 -10.2085 0.0000
# 2 9.0995 131.0432 35.5695 0.0000 19.2829 0.0000
# 3 3.1804 35.5695 68.5514 0.0000 3.6482 0.0000
# 4 0.0000 0.0000 0.0000 -2.4556 0.0000 13.0568
# 5 -10.2085 19.2829 3.6482 0.0000 32.8905 0.0000
# 6 0.0000 0.0000 0.0000 13.0568 0.0000 11.8163
#
#
#
# Elastic Compliance Matrix: (Units=1/GPa)
#
#
# Indices 1 2 3 4 5 6 
#
# 1 0.010066 -0.001263 -0.000017 0.000000 0.003867 0.000000
# 2 -0.001263 0.009836 -0.004745 0.000000 -0.005632 0.000000
# 3 -0.000017 -0.004745 0.017003 0.000000 0.000891 0.000000
# 4 0.000000 0.000000 0.000000 -0.059231 0.000000 0.065449
# 5 0.003867 -0.005632 0.000891 0.000000 0.034807 0.000000
# 6 0.000000 0.000000 0.000000 0.065449 0.000000 0.012309
#
#
# Mechanical properties :
#
#
# Convention : Reuss Voigt Hill
#
# Bulk Modulus (GPa) = 40.23568 44.41153 42.32361
# Shear Modulus (GPa) = 110.80070 25.52729 68.16399
#
# Velocity S-wave (km/s) = 6.89147 3.30783 5.40528
# Velocity P-wave (km/s) = 8.97605 5.79871 7.55627
#
# Compressibility (1/GPa) = 0.02485356
#
# Stress axis : x y z
#
# Youngs Moduli (GPa) = 99.34152 101.67240 58.81289
#
# Poissons Ratio (x) = 0.12844 0.00102
# Poissons Ratio (y) = 0.12550 0.27907
# Poissons Ratio (z) = 0.00172 0.48244
#
# Static dielectric constant tensor:
#      x y z
#    x 4.347480 0.000000 -0.156650 
#    y 0.000000 3.724050 0.000000 
#    z -0.156650 0.000000 4.350580 
# 
# 
# High freq. dielectric constant tensor:
#      x y z
#    x 1.931090 0.000000 -0.012360 
#    y 0.000000 1.897870 0.000000 
#    z -0.012360 0.000000 1.932490 
# 
# From -- ./inp_files/213049.got.cif
#   From: 2010.06.25/outbox.cif.g09.slc.cpg/sg12_107_cif.got.tgz:213049.got - 2010.06.28 00:19:55.
