data_PCOD8111306
_publ_section_title
;
Structure prediction by ZEFSAII (Michael W. Deem and Ramdas Pophale) SiO2 
 PCOD8111306
Probable space group: C 2/M
;
_chemical_formula_sum "Si O2"
_cell_formula_units_Z 64
_cell_length_a 8.885731
_cell_length_b 31.278304
_cell_length_c 15.130012
_cell_angle_alpha 90.000000
_cell_angle_beta 135.059339
_cell_angle_gamma 90.000000
_cell_volume 2970.368869
_symmetry_space_group_name_H-M "C 2/M"
_symmetry_group_IT_number 12
_symmetry_cell_setting 'monoclinic'
loop_
_space_group_symop_operation_xyz
x,y,z
-x,y,-z
-x,-y,-z
x,-y,z
1/2+x,1/2+y,z
1/2-x,1/2+y,-z
1/2-x,1/2-y,-z
1/2+x,1/2-y,z
loop_
_atom_site_type_symbol
_atom_site_label
_atom_site_fract_x
_atom_site_fract_y
_atom_site_fract_z
Si Si1 0.801059 0.274221 0.352620
Si Si2 0.368974 0.049326 0.033729
Si Si3 0.019480 0.154023 0.301619
Si Si4 0.778117 0.884977 0.449505
Si Si5 0.793328 0.188155 0.872037
Si Si6 0.958603 0.451259 0.267747
Si Si7 0.353906 0.181347 0.742468
Si Si8 0.555562 0.600904 0.147019
O O1 0.594725 0.299480 0.300966
O O2 0.821989 0.288438 0.258698
O O3 0.762671 0.223916 0.339533
O O4 0.000000 0.284870 0.500000
O O5 0.169711 0.079970 0.970362
O O6 0.294830 0.000000 0.991246
O O7 0.500000 0.063379 0.000000
O O8 0.504097 0.054284 0.180818
O O9 0.183204 0.138668 0.443280
O O10 0.035010 0.116312 0.238366
O O11 0.774395 0.160453 0.229528
O O12 0.637146 0.927234 0.399460
O O13 0.644328 0.851646 0.336942
O O14 0.000000 0.898861 0.500000
O O15 0.605872 0.187207 0.869066
O O16 0.883512 0.141418 0.887203
O O17 0.000000 0.213068 0.000000
O O18 0.974936 0.500000 0.302542
O O19 0.729281 0.435434 0.204681
#
# Coordination Sequence:
#
# PCOD8111306 Si02
#       8
#     8   8   8   8   8   8   8   8
#     4  11  23  41  68  97 127 173 230 283 327 394
#     4  10  23  41  68  99 125 161 219 278 320 391
#     4  10  24  39  63 100 128 169 221 277 321 393
#     4  10  22  39  65  92 126 167 216 273 329 388
#     4  11  24  40  63  94 131 175 215 270 343 398
#     4  11  23  42  66  93 127 171 214 264 333 394
#     4  11  22  42  66  92 129 171 224 273 332 389
#     4  11  23  39  64  92 131 172 216 265 328 395
#
# _framework density 21.546146
#
# number of rings (size 3 to 8) (size 9 to 14) (size 15 to 20)
#    0.000    1.375    1.250    4.125    5.250    3.250 
#    0.000    3.750    0.000    0.000    0.000    0.000 
#    0.000    0.000    0.000    0.000    0.000    0.000 
#
# Total GULP energy -396626.257369 kJ/mol
# GULP energy per Si atom -12394.570543 kJ/mol
# Density = 2.149711 g / cm^3
# Si number density = 21.546146 Si / 1000 Ang^3
#
#
#
# Elastic Constant Matrix: (Units=GPa)
#
#
# Indices 1 2 3 4 5 6 
#
# 1 116.2560 31.4454 45.5173 0.0000 4.8672 0.0000
# 2 31.4454 95.2983 9.3324 0.0000 1.9838 0.0000
# 3 45.5173 9.3324 45.3750 0.0000 14.3094 0.0000
# 4 0.0000 0.0000 0.0000 26.3560 0.0000 2.2265
# 5 4.8672 1.9838 14.3094 0.0000 33.2890 0.0000
# 6 0.0000 0.0000 0.0000 2.2265 0.0000 20.9735
#
#
#
# Elastic Compliance Matrix: (Units=1/GPa)
#
#
# Indices 1 2 3 4 5 6 
#
# 1 0.016028 -0.003737 -0.016936 0.000000 0.005159 0.000000
# 2 -0.003737 0.011584 0.001633 0.000000 -0.000846 0.000000
# 3 -0.016936 0.001633 0.043892 0.000000 -0.016488 0.000000
# 4 0.000000 0.000000 0.000000 0.038285 0.000000 -0.004064
# 5 0.005159 -0.000846 -0.016488 0.000000 0.036423 0.000000
# 6 0.000000 0.000000 0.000000 -0.004064 0.000000 0.048111
#
#
# Mechanical properties :
#
#
# Convention : Reuss Voigt Hill
#
# Bulk Modulus (GPa) = 29.91956 47.72436 38.82196
# Shear Modulus (GPa) = 20.53012 27.49931 24.01471
#
# Velocity S-wave (km/s) = 3.09017 3.57641 3.34214
# Velocity P-wave (km/s) = 5.16223 6.26516 5.74024
#
# Compressibility (1/GPa) = 0.03342295
#
# Stress axis : x y z
#
# Youngs Moduli (GPa) = 62.39227 86.32396 22.78336
#
# Poissons Ratio (x) = 0.32263 0.38587
# Poissons Ratio (y) = 0.23319 -0.03722
# Poissons Ratio (z) = 1.05669 -0.14100
#
# Static dielectric constant tensor:
#      x y z
#    x 4.036480 0.000000 -0.042130 
#    y 0.000000 3.872120 0.000000 
#    z -0.042130 0.000000 3.934010 
# 
# 
# High freq. dielectric constant tensor:
#      x y z
#    x 1.855330 0.000000 0.004040 
#    y 0.000000 1.848050 0.000000 
#    z 0.004040 0.000000 1.834940 
# 
# From -- ./inp_files/201341.got.cif
#   From: 2010.06.25/outbox.cif.g09.slc.cpg/sg12_101_cif.got.tgz:201341.got - 2010.06.28 00:19:55.
