data_PCOD8111464
_publ_section_title
;
Structure prediction by ZEFSAII (Michael W. Deem and Ramdas Pophale) SiO2 
 PCOD8111464
Probable space group: C 2/M
;
_chemical_formula_sum "Si O2"
_cell_formula_units_Z 64
_cell_length_a 13.003140
_cell_length_b 26.435846
_cell_length_c 15.164849
_cell_angle_alpha 90.000000
_cell_angle_beta 140.370200
_cell_angle_gamma 90.000000
_cell_volume 3324.917272
_symmetry_space_group_name_H-M "C 2/M"
_symmetry_group_IT_number 12
_symmetry_cell_setting 'monoclinic'
loop_
_space_group_symop_operation_xyz
x,y,z
-x,y,-z
-x,-y,-z
x,-y,z
1/2+x,1/2+y,z
1/2-x,1/2+y,-z
1/2-x,1/2-y,-z
1/2+x,1/2-y,z
loop_
_atom_site_type_symbol
_atom_site_label
_atom_site_fract_x
_atom_site_fract_y
_atom_site_fract_z
Si Si1 0.818170 0.206630 0.192770
Si Si2 0.314328 0.809469 0.712033
Si Si3 0.644326 0.346421 0.436346
Si Si4 0.811483 0.698539 0.389410
Si Si5 0.668577 0.942560 0.069324
Si Si6 0.688700 0.684168 0.130572
Si Si7 0.334037 0.147587 0.060290
Si Si8 0.484427 0.442700 0.386207
O O1 0.727026 0.178634 0.213442
O O2 0.797192 0.266320 0.185467
O O3 0.004867 0.192736 0.318633
O O4 0.745835 0.189991 0.052812
O O5 0.189660 0.837916 0.567311
O O6 0.296298 0.749671 0.680082
O O7 0.486102 0.833447 0.803500
O O8 0.789446 0.334010 0.464288
O O9 0.592342 0.405195 0.397493
O O10 0.739675 0.664667 0.261486
O O11 0.000000 0.711438 0.500000
O O12 0.801280 0.934512 0.233106
O O13 0.669997 0.000000 0.035273
O O14 0.500000 0.927452 0.000000
O O15 0.690215 0.907243 0.998734
O O16 0.738834 0.643452 0.090080
O O17 0.500000 0.697041 0.000000
O O18 0.500000 0.430287 0.500000
O O19 0.542775 0.500000 0.406135
#
# Coordination Sequence:
#
# PCOD8111464 Si02
#       8
#     8   8   8   8   8   8   8   8
#     4  11  20  35  54  84 115 147 189 234 286 343
#     4  11  22  35  56  85 118 150 190 235 283 350
#     4  12  22  36  61  84 113 155 195 233 288 348
#     4  11  23  41  55  79 119 159 197 239 279 328
#     4  10  22  40  61  88 120 149 182 236 298 351
#     4  11  23  37  54  79 116 154 197 239 275 326
#     4  12  22  36  57  83 113 156 193 229 285 343
#     4  10  22  40  62  90 119 146 185 237 295 353
#
# _framework density 19.2486
#
# number of rings (size 3 to 8) (size 9 to 14) (size 15 to 20)
#    0.000    1.000    1.250    8.250    1.750    0.000 
#    0.000    0.000    0.000    1.500    0.000    0.000 
#    0.000    0.000    0.000    0.000    0.000    0.000 
#
# Total GULP energy -396801.935208 kJ/mol
# GULP energy per Si atom -12400.060475 kJ/mol
# Density = 1.920479 g / cm^3
# Si number density = 19.248600 Si / 1000 Ang^3
#
#
#
# Elastic Constant Matrix: (Units=GPa)
#
#
# Indices 1 2 3 4 5 6 
#
# 1 83.0536 40.9040 25.2251 0.0000 -4.3714 0.0000
# 2 40.9040 90.3633 18.4183 0.0000 -3.2577 0.0000
# 3 25.2251 18.4183 118.4949 0.0000 2.4476 0.0000
# 4 0.0000 0.0000 0.0000 22.5807 0.0000 -5.5074
# 5 -4.3714 -3.2577 2.4476 0.0000 31.5153 0.0000
# 6 0.0000 0.0000 0.0000 -5.5074 0.0000 28.2436
#
#
#
# Elastic Compliance Matrix: (Units=1/GPa)
#
#
# Indices 1 2 3 4 5 6 
#
# 1 0.016209 -0.006779 -0.002433 0.000000 0.001737 0.000000
# 2 -0.006779 0.014319 -0.000795 0.000000 0.000602 0.000000
# 3 -0.002433 -0.000795 0.009104 0.000000 -0.001127 0.000000
# 4 0.000000 0.000000 0.000000 0.046497 0.000000 0.009067
# 5 0.001737 0.000602 -0.001127 0.000000 0.032121 0.000000
# 6 0.000000 0.000000 0.000000 0.009067 0.000000 0.037174
#
#
# Mechanical properties :
#
#
# Convention : Reuss Voigt Hill
#
# Bulk Modulus (GPa) = 50.97202 51.22296 51.09749
# Shear Modulus (GPa) = 27.47596 30.29221 28.88408
#
# Velocity S-wave (km/s) = 3.78223 3.97134 3.87794
# Velocity P-wave (km/s) = 6.75367 6.90635 6.83044
#
# Compressibility (1/GPa) = 0.01961860
#
# Stress axis : x y z
#
# Youngs Moduli (GPa) = 61.69287 69.83873 109.84277
#
# Poissons Ratio (x) = 0.47343 0.26723
# Poissons Ratio (y) = 0.41821 0.08732
# Poissons Ratio (z) = 0.15009 0.05552
#
# Static dielectric constant tensor:
#      x y z
#    x 3.489250 0.000000 -0.224360 
#    y 0.000000 3.384540 0.000000 
#    z -0.224360 0.000000 3.738430 
# 
# 
# High freq. dielectric constant tensor:
#      x y z
#    x 1.737660 0.000000 -0.005120 
#    y 0.000000 1.719960 0.000000 
#    z -0.005120 0.000000 1.773580 
# 
# From -- ./inp_files/209409.got.cif
#   From: 2010.06.25/outbox.cif.g09.slc.cpg/sg12_105_cif.got.tgz:209409.got - 2010.06.28 00:19:55.
