data_PCOD8111479
_publ_section_title
;
Structure prediction by ZEFSAII (Michael W. Deem and Ramdas Pophale) SiO2 
 PCOD8111479
Probable space group: C 2/M
;
_chemical_formula_sum "Si O2"
_cell_formula_units_Z 56
_cell_length_a 9.028686
_cell_length_b 18.189321
_cell_length_c 19.014842
_cell_angle_alpha 90.000000
_cell_angle_beta 60.585823
_cell_angle_gamma 90.000000
_cell_volume 2720.181868
_symmetry_space_group_name_H-M "C 2/M"
_symmetry_group_IT_number 12
_symmetry_cell_setting 'monoclinic'
loop_
_space_group_symop_operation_xyz
x,y,z
-x,y,-z
-x,-y,-z
x,-y,z
1/2+x,1/2+y,z
1/2-x,1/2+y,-z
1/2-x,1/2-y,-z
1/2+x,1/2-y,z
loop_
_atom_site_type_symbol
_atom_site_label
_atom_site_fract_x
_atom_site_fract_y
_atom_site_fract_z
Si Si1 0.721742 0.415718 0.647099
Si Si2 0.727146 0.584805 0.060180
Si Si3 0.002746 0.415107 0.885291
Si Si4 0.598762 0.651165 0.542603
Si Si5 0.947745 0.691661 0.774285
Si Si6 0.919525 0.161625 0.189856
Si Si7 0.465509 0.813294 0.403309
O O1 0.783756 0.500000 0.631538
O O2 0.591452 0.400795 0.613023
O O3 0.627063 0.401140 0.742757
O O4 0.880066 0.360419 0.600863
O O5 0.683776 0.500000 0.058565
O O6 0.552129 0.629812 0.102369
O O7 0.825503 0.596188 0.110639
O O8 0.842636 0.613140 0.968726
O O9 0.978130 0.500000 0.871112
O O10 0.017116 0.369824 0.810707
O O11 0.500000 0.614322 0.500000
O O12 0.506413 0.728511 0.581609
O O13 0.793792 0.657823 0.476087
O O14 0.744639 0.687752 0.814771
O O15 0.996133 0.771397 0.789420
O O16 0.041107 0.677616 0.678918
#
# Coordination Sequence:
#
# PCOD8111479 Si02
#       7
#     8   8   8   8   8   8   8
#     4  11  24  42  63  92 128 164 206 263 320 371
#     4   9  19  39  63  87 124 167 204 253 318 377
#     4   9  20  39  63  91 123 163 208 256 314 376
#     4  11  22  38  66  90 121 162 210 250 309 375
#     4  11  23  37  61  89 122 161 208 261 309 374
#     4  11  23  39  61  90 124 164 211 258 315 377
#     4  10  22  40  61  89 122 166 206 252 312 380
#
# _framework density 20.586859
#
# number of rings (size 3 to 8) (size 9 to 14) (size 15 to 20)
#    0.000    1.714    1.429    4.286    2.000    6.571 
#    0.000    1.429    0.000    0.000    0.000    0.000 
#    0.000    0.000    0.000    0.000    0.000    0.000 
#
# Total GULP energy -347286.645302 kJ/mol
# GULP energy per Si atom -12403.094475 kJ/mol
# Density = 2.054000 g / cm^3
# Si number density = 20.586859 Si / 1000 Ang^3
#
#
#
# Elastic Constant Matrix: (Units=GPa)
#
#
# Indices 1 2 3 4 5 6 
#
# 1 49.4777 30.4693 10.7832 0.0000 10.9081 0.0000
# 2 30.4693 90.8158 27.2077 0.0000 -0.4273 0.0000
# 3 10.7832 27.2077 68.3608 0.0000 5.1397 0.0000
# 4 0.0000 0.0000 0.0000 30.5043 0.0000 4.0356
# 5 10.9081 -0.4273 5.1397 0.0000 37.4041 0.0000
# 6 0.0000 0.0000 0.0000 4.0356 0.0000 37.7000
#
#
#
# Elastic Compliance Matrix: (Units=1/GPa)
#
#
# Indices 1 2 3 4 5 6 
#
# 1 0.027786 -0.009347 -0.000046 0.000000 -0.008204 0.000000
# 2 -0.009347 0.015672 -0.005034 0.000000 0.003597 0.000000
# 3 -0.000046 -0.005034 0.016816 0.000000 -0.002355 0.000000
# 4 0.000000 0.000000 0.000000 0.033253 0.000000 -0.003560
# 5 -0.008204 0.003597 -0.002355 0.000000 0.029492 0.000000
# 6 0.000000 0.000000 0.000000 -0.003560 0.000000 0.026906
#
#
# Mechanical properties :
#
#
# Convention : Reuss Voigt Hill
#
# Bulk Modulus (GPa) = 31.82617 38.39717 35.11167
# Shear Modulus (GPa) = 26.41971 30.46795 28.44383
#
# Velocity S-wave (km/s) = 3.58624 3.85121 3.72109
# Velocity P-wave (km/s) = 5.71325 6.20222 5.96275
#
# Compressibility (1/GPa) = 0.03142069
#
# Stress axis : x y z
#
# Youngs Moduli (GPa) = 35.98947 63.80694 59.46740
#
# Poissons Ratio (x) = 0.59641 0.00273
# Poissons Ratio (y) = 0.33640 0.29933
# Poissons Ratio (z) = 0.00165 0.32118
#
# Static dielectric constant tensor:
#      x y z
#    x 3.762220 0.000000 0.066550 
#    y 0.000000 3.530350 0.000000 
#    z 0.066550 0.000000 3.882360 
# 
# 
# High freq. dielectric constant tensor:
#      x y z
#    x 1.807430 0.000000 0.003750 
#    y 0.000000 1.790620 0.000000 
#    z 0.003750 0.000000 1.813520 
# 
# From -- ./inp_files/300660.got.cif
#   From: 2010.06.25/outbox.cif.g09.slc.cpg/sg12_151_cif.got.tgz:300660.got - 2010.06.28 00:19:55.
