data_PCOD8111646
_publ_section_title
;
Structure prediction by ZEFSAII (Michael W. Deem and Ramdas Pophale) SiO2 
 PCOD8111646
Probable space group: C 2/M
;
_chemical_formula_sum "Si O2"
_cell_formula_units_Z 56
_cell_length_a 23.428122
_cell_length_b 18.340132
_cell_length_c 8.081317
_cell_angle_alpha 90.000000
_cell_angle_beta 48.096830
_cell_angle_gamma 90.000000
_cell_volume 2584.373460
_symmetry_space_group_name_H-M "C 2/M"
_symmetry_group_IT_number 12
_symmetry_cell_setting 'monoclinic'
loop_
_space_group_symop_operation_xyz
x,y,z
-x,y,-z
-x,-y,-z
x,-y,z
1/2+x,1/2+y,z
1/2-x,1/2+y,-z
1/2-x,1/2-y,-z
1/2+x,1/2-y,z
loop_
_atom_site_type_symbol
_atom_site_label
_atom_site_fract_x
_atom_site_fract_y
_atom_site_fract_z
Si Si1 0.154550 0.580238 0.311208
Si Si2 0.586201 0.356287 0.788424
Si Si3 0.666511 0.776731 0.714307
Si Si4 0.084488 0.582463 0.781681
Si Si5 0.704322 0.808010 0.981572
Si Si6 0.835914 0.085199 0.678223
Si Si7 0.670849 0.582388 0.938651
O O1 0.153345 0.500000 0.228183
O O2 0.087775 0.584093 0.576055
O O3 0.141675 0.645606 0.206458
O O4 0.237734 0.593519 0.233103
O O5 0.602432 0.269660 0.737518
O O6 0.602465 0.397841 0.584569
O O7 0.500000 0.375057 0.000000
O O8 0.639777 0.374515 0.841205
O O9 0.750000 0.750000 0.500000
O O10 0.649621 0.862311 0.719542
O O11 0.660015 0.763995 0.924925
O O12 0.102496 0.500000 0.810753
O O13 0.000000 0.607480 0.000000
O O14 0.761587 0.865993 0.783802
O O15 0.750000 0.750000 0.000000
O O16 0.864287 0.104840 0.811537
O O17 0.813732 0.000000 0.714897
O O18 0.647755 0.500000 0.946467
#
# Coordination Sequence:
#
# PCOD8111646 Si02
#       7
#     8   8   8   8   8   8   8
#     4   9  19  37  63  92 123 161 207 263 317 376
#     4  12  25  40  61  93 130 170 211 259 318 385
#     4  12  23  41  63  94 122 161 218 266 316 382
#     4  10  22  41  65  93 130 170 209 262 329 392
#     4  11  21  37  64  90 123 160 214 268 320 369
#     4  10  22  40  64  94 128 167 209 263 318 380
#     4   9  19  38  61  91 127 166 216 260 308 373
#
# _framework density 21.668693000000001
#
# number of rings (size 3 to 8) (size 9 to 14) (size 15 to 20)
#    0.000    1.571    1.429    5.571    0.000    2.857 
#    0.000    2.143    0.000    2.571    0.000    0.000 
#    0.000    0.000    0.000    0.000    0.000    0.000 
#
# Total GULP energy -346986.689424 kJ/mol
# GULP energy per Si atom -12392.381765 kJ/mol
# Density = 2.161937 g / cm^3
# Si number density = 21.668693 Si / 1000 Ang^3
#
#
#
# Elastic Constant Matrix: (Units=GPa)
#
#
# Indices 1 2 3 4 5 6 
#
# 1 43.7366 25.5986 30.0332 0.0000 15.5313 0.0000
# 2 25.5986 107.9939 44.5822 0.0000 4.7999 0.0000
# 3 30.0332 44.5822 156.8952 0.0000 8.8564 0.0000
# 4 0.0000 0.0000 0.0000 32.2679 0.0000 5.1477
# 5 15.5313 4.7999 8.8564 0.0000 33.3098 0.0000
# 6 0.0000 0.0000 0.0000 5.1477 0.0000 28.2216
#
#
#
# Elastic Compliance Matrix: (Units=1/GPa)
#
#
# Indices 1 2 3 4 5 6 
#
# 1 0.033980 -0.005749 -0.004085 0.000000 -0.013930 0.000000
# 2 -0.005749 0.011481 -0.002253 0.000000 0.001626 0.000000
# 3 -0.004085 -0.002253 0.007787 0.000000 0.000159 0.000000
# 4 0.000000 0.000000 0.000000 0.031919 0.000000 -0.005822
# 5 -0.013930 0.001626 0.000159 0.000000 0.036240 0.000000
# 6 0.000000 0.000000 0.000000 -0.005822 0.000000 0.036496
#
#
# Mechanical properties :
#
#
# Convention : Reuss Voigt Hill
#
# Bulk Modulus (GPa) = 34.39593 56.56152 45.47873
# Shear Modulus (GPa) = 26.07307 32.65397 29.36352
#
# Velocity S-wave (km/s) = 3.47257 3.88618 3.68518
# Velocity P-wave (km/s) = 5.65564 6.80412 6.25629
#
# Compressibility (1/GPa) = 0.02907321
#
# Stress axis : x y z
#
# Youngs Moduli (GPa) = 29.42867 87.10343 128.42026
#
# Poissons Ratio (x) = 0.50078 0.52455
# Poissons Ratio (y) = 0.16919 0.28939
# Poissons Ratio (z) = 0.12021 0.19628
#
# Static dielectric constant tensor:
#      x y z
#    x 3.534130 0.000000 0.327260 
#    y 0.000000 4.311300 0.000000 
#    z 0.327260 0.000000 4.050120 
# 
# 
# High freq. dielectric constant tensor:
#      x y z
#    x 1.807160 0.000000 0.027170 
#    y 0.000000 1.875840 0.000000 
#    z 0.027170 0.000000 1.852490 
# 
# From -- ./inp_files/98171.got.cif
#   From: 2010.06.25/outbox.cif.g09.slc.cpg/sg12_50_cif.got.tgz:98171.got - 2010.06.28 00:19:55.
