data_PCOD8111412
_publ_section_title
;
Structure prediction by ZEFSAII (Michael W. Deem and Ramdas Pophale) SiO2 
 PCOD8111412
Probable space group: C 2/M
;
_chemical_formula_sum "Si O2"
_cell_formula_units_Z 64
_cell_length_a 30.192233
_cell_length_b 8.749936
_cell_length_c 16.257048
_cell_angle_alpha 90.000000
_cell_angle_beta 132.785610
_cell_angle_gamma 90.000000
_cell_volume 3151.947489
_symmetry_space_group_name_H-M "C 2/M"
_symmetry_group_IT_number 12
_symmetry_cell_setting 'monoclinic'
loop_
_space_group_symop_operation_xyz
x,y,z
-x,y,-z
-x,-y,-z
x,-y,z
1/2+x,1/2+y,z
1/2-x,1/2+y,-z
1/2-x,1/2-y,-z
1/2+x,1/2-y,z
loop_
_atom_site_type_symbol
_atom_site_label
_atom_site_fract_x
_atom_site_fract_y
_atom_site_fract_z
Si Si1 0.704597 0.820329 0.092853
Si Si2 0.887741 0.175013 0.504265
Si Si3 0.664578 0.321435 0.198068
Si Si4 0.262652 0.324252 0.429404
Si Si5 0.958223 0.821376 0.872055
Si Si6 0.619261 0.180883 0.841670
Si Si7 0.491030 0.819199 0.740016
Si Si8 0.164783 0.680970 0.724425
O O1 0.657184 0.772788 0.104266
O O2 0.766029 0.730613 0.185630
O O3 0.717604 0.000000 0.112808
O O4 0.674880 0.767535 0.969640
O O5 0.833217 0.188801 0.499924
O O6 0.870783 0.245685 0.395574
O O7 0.943891 0.262748 0.613119
O O8 0.905705 0.000000 0.512985
O O9 0.665317 0.500000 0.178288
O O10 0.727599 0.272067 0.317161
O O11 0.610523 0.280961 0.191809
O O12 0.241008 0.500000 0.400989
O O13 0.250000 0.250000 0.500000
O O14 0.975319 0.733837 0.811500
O O15 0.967054 0.000000 0.866246
O O16 0.000000 0.766641 0.000000
O O17 0.556254 0.248043 0.796010
O O18 0.632051 0.240174 0.765965
O O19 0.615273 0.000000 0.838003
O O20 0.490907 0.000000 0.739030
O O21 0.161976 0.500000 0.712391
#
# Coordination Sequence:
#
# PCOD8111412 Si02
#       8
#     8   8   8   8   8   8   8   8
#     4  11  21  38  62  91 127 159 197 253 310 365
#     4  11  24  42  61  87 124 162 200 253 310 360
#     4  11  22  36  58  87 119 157 201 243 296 361
#     4  11  23  38  58  83 117 154 195 246 300 358
#     4  10  22  40  60  87 125 164 203 251 303 357
#     4   9  22  41  62  90 123 160 203 253 308 364
#     4  11  23  41  64  90 121 162 210 255 301 361
#     4  11  22  40  65  91 121 160 205 252 305 367
#
# _framework density 20.304905999999999
#
# number of rings (size 3 to 8) (size 9 to 14) (size 15 to 20)
#    0.000    1.375    1.250    4.125    0.000    6.250 
#    0.000    8.750    0.000    0.000    0.000    0.000 
#    0.000    0.000    0.000    0.000    0.000    0.000 
#
# Total GULP energy -396926.744444 kJ/mol
# GULP energy per Si atom -12403.960764 kJ/mol
# Density = 2.025869 g / cm^3
# Si number density = 20.304906 Si / 1000 Ang^3
#
#
#
# Elastic Constant Matrix: (Units=GPa)
#
#
# Indices 1 2 3 4 5 6 
#
# 1 113.7066 29.9939 51.5389 0.0000 -16.4085 0.0000
# 2 29.9939 31.4165 11.0234 0.0000 -11.0773 0.0000
# 3 51.5389 11.0234 126.4568 0.0000 -15.5495 0.0000
# 4 0.0000 0.0000 0.0000 28.8605 0.0000 -2.8954
# 5 -16.4085 -11.0773 -15.5495 0.0000 40.0975 0.0000
# 6 0.0000 0.0000 0.0000 -2.8954 0.0000 28.2112
#
#
#
# Elastic Compliance Matrix: (Units=1/GPa)
#
#
# Indices 1 2 3 4 5 6 
#
# 1 0.014037 -0.011507 -0.004623 0.000000 0.000773 0.000000
# 2 -0.011507 0.045172 0.001793 0.000000 0.008466 0.000000
# 3 -0.004623 0.001793 0.009938 0.000000 0.002457 0.000000
# 4 0.000000 0.000000 0.000000 0.035010 0.000000 0.003593
# 5 0.000773 0.008466 0.002457 0.000000 0.028547 0.000000
# 6 0.000000 0.000000 0.000000 0.003593 0.000000 0.035816
#
#
# Mechanical properties :
#
#
# Convention : Reuss Voigt Hill
#
# Bulk Modulus (GPa) = 24.70761 50.74357 37.72559
# Shear Modulus (GPa) = 23.73239 31.36877 27.55058
#
# Velocity S-wave (km/s) = 3.42248 3.93477 3.68753
# Velocity P-wave (km/s) = 5.27376 6.75931 6.06221
#
# Compressibility (1/GPa) = 0.04047336
#
# Stress axis : x y z
#
# Youngs Moduli (GPa) = 71.24241 22.13774 100.62626
#
# Poissons Ratio (x) = 0.25473 0.46517
# Poissons Ratio (y) = 0.81975 -0.18041
# Poissons Ratio (z) = 0.32933 -0.03969
#
# Static dielectric constant tensor:
#      x y z
#    x 3.890950 0.000000 -0.047660 
#    y 0.000000 3.639530 0.000000 
#    z -0.047660 0.000000 3.900760 
# 
# 
# High freq. dielectric constant tensor:
#      x y z
#    x 1.803290 0.000000 -0.005810 
#    y 0.000000 1.790230 0.000000 
#    z -0.005810 0.000000 1.806190 
# 
# From -- ./inp_files/250007.got.cif
#   From: 2010.06.25/outbox.cif.g09.slc.cpg/sg12_126_cif.got.tgz:250007.got - 2010.06.28 00:19:55.
