data_PCOD8111292
_publ_section_title
;
Structure prediction by ZEFSAII (Michael W. Deem and Ramdas Pophale) SiO2 
 PCOD8111292
Probable space group: C 2/M
;
_chemical_formula_sum "Si O2"
_cell_formula_units_Z 48
_cell_length_a 12.028004
_cell_length_b 17.829307
_cell_length_c 14.827746
_cell_angle_alpha 90.000000
_cell_angle_beta 46.339513
_cell_angle_gamma 90.000000
_cell_volume 2300.423211
_symmetry_space_group_name_H-M "C 2/M"
_symmetry_group_IT_number 12
_symmetry_cell_setting 'monoclinic'
loop_
_space_group_symop_operation_xyz
x,y,z
-x,y,-z
-x,-y,-z
x,-y,z
1/2+x,1/2+y,z
1/2-x,1/2+y,-z
1/2-x,1/2-y,-z
1/2+x,1/2-y,z
loop_
_atom_site_type_symbol
_atom_site_label
_atom_site_fract_x
_atom_site_fract_y
_atom_site_fract_z
Si Si1 0.870994 0.305977 0.138115
Si Si2 0.418276 0.635137 0.134489
Si Si3 0.879099 0.084739 0.490158
Si Si4 0.085476 0.677916 0.682899
Si Si5 0.959271 0.159306 0.749147
Si Si6 0.911109 0.414605 0.639702
O O1 0.856839 0.216521 0.141262
O O2 0.922637 0.336617 0.206023
O O3 0.710002 0.337405 0.195671
O O4 0.000000 0.337532 0.000000
O O5 0.546818 0.641075 0.140915
O O6 0.274622 0.589968 0.258363
O O7 0.500000 0.597881 0.000000
O O8 0.750704 0.148649 0.559733
O O9 0.000000 0.105013 0.500000
O O10 0.960352 0.090828 0.347835
O O11 0.814104 0.000000 0.538372
O O12 0.058378 0.765162 0.676160
O O13 0.957455 0.630593 0.702655
O O14 0.963655 0.500000 0.621788
O O15 0.000000 0.382769 0.500000
#
# Coordination Sequence:
#
# PCOD8111292 Si02
#       6
#     8   8   8   8   8   8
#     4  10  22  39  64  96 124 158 207 265 315 361
#     4  10  23  39  63  93 125 165 207 258 317 377
#     4  11  23  40  62  90 128 163 202 255 316 371
#     4  11  22  39  67  93 122 162 209 259 305 378
#     4  11  22  40  66  95 124 161 205 264 309 370
#     4  11  24  42  63  90 130 170 209 257 314 376
#
# _framework density 20.865725999999999
#
# number of rings (size 3 to 8) (size 9 to 14) (size 15 to 20)
#    0.000    1.333    3.333    2.000    2.333    6.333 
#    0.000    0.000    0.000    2.500    0.000    0.000 
#    0.000    0.000    0.000    0.000    0.000    0.000 
#
# Total GULP energy -297524.727817 kJ/mol
# GULP energy per Si atom -12396.863659 kJ/mol
# Density = 2.081823 g / cm^3
# Si number density = 20.865726 Si / 1000 Ang^3
#
#
#
# Elastic Constant Matrix: (Units=GPa)
#
#
# Indices 1 2 3 4 5 6 
#
# 1 123.4409 34.0660 45.9771 -0.0005 13.4532 0.0002
# 2 34.0660 50.8876 25.8828 -0.0003 3.7286 0.0002
# 3 45.9771 25.8828 142.5492 -0.0009 10.6388 0.0013
# 4 -0.0005 -0.0003 -0.0009 16.3967 0.0008 4.8836
# 5 13.4532 3.7286 10.6388 0.0008 35.8184 -0.0008
# 6 0.0002 0.0002 0.0013 4.8836 -0.0008 1.8465
#
#
#
# Elastic Compliance Matrix: (Units=1/GPa)
#
#
# Indices 1 2 3 4 5 6 
#
# 1 0.010874 -0.005946 -0.002218 0.000001 -0.002806 -0.000003
# 2 -0.005946 0.024945 -0.002643 0.000001 0.000421 -0.000004
# 3 -0.002218 -0.002643 0.008312 0.000010 -0.001361 -0.000033
# 4 0.000001 0.000001 0.000010 0.287285 -0.000028 -0.759799
# 5 -0.002806 0.000421 -0.001361 -0.000028 0.029333 0.000089
# 6 -0.000003 -0.000004 -0.000033 -0.759799 0.000089 2.551049
#
#
# Mechanical properties :
#
#
# Convention : Reuss Voigt Hill
#
# Bulk Modulus (GPa) = 44.41078 58.74775 51.57926
# Shear Modulus (GPa) = 1.70015 24.87576 13.28796
#
# Velocity S-wave (km/s) = 0.90364 3.45655 2.52629
# Velocity P-wave (km/s) = 4.73488 6.64429 5.76912
#
# Compressibility (1/GPa) = 0.02251706
#
# Stress axis : x y z
#
# Youngs Moduli (GPa) = 91.96339 40.08860 120.30763
#
# Poissons Ratio (x) = 0.23835 0.26687
# Poissons Ratio (y) = 0.54677 0.31798
# Poissons Ratio (z) = 0.20400 0.10596
#
# Static dielectric constant tensor:
#      x y z
#    x 3.941620 0.000000 0.129120 
#    y 0.000000 3.503350 0.000000 
#    z 0.129120 0.000000 3.853640 
# 
# 
# High freq. dielectric constant tensor:
#      x y z
#    x 1.834640 0.000000 0.006710 
#    y 0.000000 1.793440 0.000000 
#    z 0.006710 0.000000 1.815730 
# 
# From -- ./inp_files/89717.got.cif
#   From: 2010.06.25/outbox.cif.g09.slc.cpg/sg12_45_cif.got.tgz:89717.got - 2010.06.28 00:19:55.
