data_PCOD8111912
_publ_section_title
;
Structure prediction by ZEFSAII (Michael W. Deem and Ramdas Pophale) SiO2 
 PCOD8111912
Probable space group: C 2/M
;
_chemical_formula_sum "Si O2"
_cell_formula_units_Z 56
_cell_length_a 18.943720
_cell_length_b 8.948061
_cell_length_c 16.788087
_cell_angle_alpha 90.000000
_cell_angle_beta 74.365383
_cell_angle_gamma 90.000000
_cell_volume 2740.448607
_symmetry_space_group_name_H-M "C 2/M"
_symmetry_group_IT_number 12
_symmetry_cell_setting 'monoclinic'
loop_
_space_group_symop_operation_xyz
x,y,z
-x,y,-z
-x,-y,-z
x,-y,z
1/2+x,1/2+y,z
1/2-x,1/2+y,-z
1/2-x,1/2-y,-z
1/2+x,1/2-y,z
loop_
_atom_site_type_symbol
_atom_site_label
_atom_site_fract_x
_atom_site_fract_y
_atom_site_fract_z
Si Si1 0.700219 0.670716 0.675702
Si Si2 0.708912 0.828300 0.839829
Si Si3 0.867311 0.825113 0.854683
Si Si4 0.081466 0.672714 0.002275
Si Si5 0.165763 0.824322 0.418956
Si Si6 0.573185 0.823889 0.314346
Si Si7 0.927394 0.829409 0.400101
O O1 0.726769 0.500000 0.664559
O O2 0.702525 0.725873 0.764923
O O3 0.751030 0.766587 0.600297
O O4 0.618061 0.685824 0.667413
O O5 0.781679 0.785154 0.867499
O O6 0.713032 0.000000 0.810767
O O7 0.636999 0.797762 0.913380
O O8 0.891932 0.775304 0.934109
O O9 0.919000 0.739616 0.776676
O O10 0.881640 0.000000 0.840599
O O11 0.083116 0.500000 0.028665
O O12 0.000000 0.720072 0.000000
O O13 0.136527 0.746376 0.348363
O O14 0.120822 0.776706 0.510247
O O15 0.164420 0.000000 0.406836
O O16 0.495619 0.780223 0.375471
O O17 0.581275 0.000000 0.310220
O O18 0.954506 0.000000 0.404214
#
# Coordination Sequence:
#
# PCOD8111912 Si02
#       7
#     8   8   8   8   8   8   8
#     4  11  23  39  63  94 126 164 213 261 307 370
#     4  10  22  41  64  90 125 170 208 248 310 371
#     4  11  23  41  65  91 124 167 211 253 307 374
#     4  10  23  42  65  96 130 160 202 257 310 369
#     4  11  22  41  65  89 125 168 210 260 318 374
#     4  12  25  40  63  93 125 165 214 264 313 370
#     4  10  24  42  61  90 128 168 209 261 320 373
#
# _framework density 20.434609999999999
#
# number of rings (size 3 to 8) (size 9 to 14) (size 15 to 20)
#    0.000    1.286    1.429    3.857    2.000    5.429 
#    0.000    0.000    0.000    0.000    0.000    0.000 
#    0.000    0.000    0.000    0.000    0.000    0.000 
#
# Total GULP energy -347360.124457 kJ/mol
# GULP energy per Si atom -12405.718731 kJ/mol
# Density = 2.038810 g / cm^3
# Si number density = 20.434610 Si / 1000 Ang^3
#
#
#
# Elastic Constant Matrix: (Units=GPa)
#
#
# Indices 1 2 3 4 5 6 
#
# 1 70.2263 28.9318 26.2246 0.0000 -4.2442 0.0000
# 2 28.9318 100.6540 37.8975 0.0000 -2.1322 0.0000
# 3 26.2246 37.8975 84.6793 0.0000 -7.4959 0.0000
# 4 0.0000 0.0000 0.0000 32.9474 0.0000 -1.4890
# 5 -4.2442 -2.1322 -7.4959 0.0000 34.1022 0.0000
# 6 0.0000 0.0000 0.0000 -1.4890 0.0000 27.5135
#
#
#
# Elastic Compliance Matrix: (Units=1/GPa)
#
#
# Indices 1 2 3 4 5 6 
#
# 1 0.017114 -0.003533 -0.003621 0.000000 0.001113 0.000000
# 2 -0.003533 0.012684 -0.004642 0.000000 -0.000667 0.000000
# 3 -0.003621 -0.004642 0.015239 0.000000 0.002609 0.000000
# 4 0.000000 0.000000 0.000000 0.030426 0.000000 0.001647
# 5 0.001113 -0.000667 0.002609 0.000000 0.029994 0.000000
# 6 0.000000 0.000000 0.000000 0.001647 0.000000 0.036435
#
#
# Mechanical properties :
#
#
# Convention : Reuss Voigt Hill
#
# Bulk Modulus (GPa) = 46.62565 49.07418 47.84991
# Shear Modulus (GPa) = 28.96360 29.74634 29.35497
#
# Velocity S-wave (km/s) = 3.76889 3.81948 3.79427
# Velocity P-wave (km/s) = 6.46575 6.59686 6.53164
#
# Compressibility (1/GPa) = 0.02144742
#
# Stress axis : x y z
#
# Youngs Moduli (GPa) = 58.43043 78.84010 65.62191
#
# Poissons Ratio (x) = 0.27850 0.23760
# Poissons Ratio (y) = 0.20641 0.30459
# Poissons Ratio (z) = 0.21156 0.36594
#
# Static dielectric constant tensor:
#      x y z
#    x 3.833860 0.000000 -0.066380 
#    y 0.000000 3.681090 0.000000 
#    z -0.066380 0.000000 3.695980 
# 
# 
# High freq. dielectric constant tensor:
#      x y z
#    x 1.808960 0.000000 -0.003210 
#    y 0.000000 1.799750 0.000000 
#    z -0.003210 0.000000 1.806870 
# 
# From -- ./inp_files/275120.got.cif
#   From: 2010.06.25/outbox.cif.g09.slc.cpg/sg12_138_cif.got.tgz:275120.got - 2010.06.28 00:19:55.
