data_PCOD8111395
_publ_section_title
;
Structure prediction by ZEFSAII (Michael W. Deem and Ramdas Pophale) SiO2 
 PCOD8111395
Probable space group: C 2/M
;
_chemical_formula_sum "Si O2"
_cell_formula_units_Z 48
_cell_length_a 9.824450
_cell_length_b 8.955119
_cell_length_c 26.055510
_cell_angle_alpha 90.000000
_cell_angle_beta 91.158421
_cell_angle_gamma 90.000000
_cell_volume 2291.872298
_symmetry_space_group_name_H-M "C 2/M"
_symmetry_group_IT_number 12
_symmetry_cell_setting 'monoclinic'
loop_
_space_group_symop_operation_xyz
x,y,z
-x,y,-z
-x,-y,-z
x,-y,z
1/2+x,1/2+y,z
1/2-x,1/2+y,-z
1/2-x,1/2-y,-z
1/2+x,1/2-y,z
loop_
_atom_site_type_symbol
_atom_site_label
_atom_site_fract_x
_atom_site_fract_y
_atom_site_fract_z
Si Si1 0.705751 0.828089 0.551449
Si Si2 0.045997 0.671840 0.944503
Si Si3 0.729698 0.171779 0.115613
Si Si4 0.477637 0.671894 0.611653
Si Si5 0.294377 0.671801 0.779876
Si Si6 0.519688 0.171729 0.719259
O O1 0.750000 0.750000 0.500000
O O2 0.566707 0.757566 0.570486
O O3 0.820108 0.808262 0.595847
O O4 0.678415 0.000000 0.538934
O O5 0.093507 0.500000 0.947531
O O6 0.172003 0.773270 0.928812
O O7 0.925083 0.692817 0.903038
O O8 0.000000 0.727892 0.000000
O O9 0.758024 0.269873 0.166004
O O10 0.761985 0.000000 0.128238
O O11 0.522057 0.500000 0.611378
O O12 0.498026 0.734235 0.668212
O O13 0.338542 0.500000 0.785462
O O14 0.423090 0.768315 0.763432
O O15 0.175094 0.689595 0.737527
O O16 0.483702 0.000000 0.707909
#
# Coordination Sequence:
#
# PCOD8111395 Si02
#       6
#     8   8   8   8   8   8
#     4  11  24  41  62  90 122 157 199 244 292 348
#     4  10  22  40  60  85 119 155 193 241 293 346
#     4  11  23  38  60  89 117 152 198 241 289 350
#     4  11  24  41  62  90 122 156 197 244 294 349
#     4  11  24  41  61  87 120 156 195 242 294 348
#     4  11  24  41  62  89 119 154 198 243 291 350
#
# _framework density 20.943574999999999
#
# number of rings (size 3 to 8) (size 9 to 14) (size 15 to 20)
#    0.000    1.167    0.000    5.500    0.000   17.000 
#    0.000    0.000    0.000    0.000    0.000    0.000 
#    0.000    0.000    0.000    0.000    0.000    0.000 
#
# Total GULP energy -297814.997992 kJ/mol
# GULP energy per Si atom -12408.958250 kJ/mol
# Density = 2.089591 g / cm^3
# Si number density = 20.943575 Si / 1000 Ang^3
#
#
#
# Elastic Constant Matrix: (Units=GPa)
#
#
# Indices 1 2 3 4 5 6 
#
# 1 59.2922 37.5098 -5.1275 0.0000 -14.2460 0.0000
# 2 37.5098 120.6135 26.8376 0.0000 3.7108 0.0000
# 3 -5.1275 26.8376 88.4027 0.0000 -4.5524 0.0000
# 4 0.0000 0.0000 0.0000 41.0843 0.0000 -8.7229
# 5 -14.2460 3.7108 -4.5524 0.0000 35.3062 0.0000
# 6 0.0000 0.0000 0.0000 -8.7229 0.0000 35.4889
#
#
#
# Elastic Compliance Matrix: (Units=1/GPa)
#
#
# Indices 1 2 3 4 5 6 
#
# 1 0.026442 -0.009744 0.005128 0.000000 0.012355 0.000000
# 2 -0.009744 0.012541 -0.004674 0.000000 -0.005853 0.000000
# 3 0.005128 -0.004674 0.013248 0.000000 0.004269 0.000000
# 4 0.000000 0.000000 0.000000 0.025680 0.000000 0.006312
# 5 0.012355 -0.005853 0.004269 0.000000 0.034474 0.000000
# 6 0.000000 0.000000 0.000000 0.006312 0.000000 0.029729
#
#
# Mechanical properties :
#
#
# Convention : Reuss Voigt Hill
#
# Bulk Modulus (GPa) = 29.71662 42.97201 36.34431
# Shear Modulus (GPa) = 29.08445 36.31513 32.69979
#
# Velocity S-wave (km/s) = 3.73058 4.16859 3.95565
# Velocity P-wave (km/s) = 5.72503 6.61302 6.18498
#
# Compressibility (1/GPa) = 0.03365121
#
# Stress axis : x y z
#
# Youngs Moduli (GPa) = 37.81837 79.73559 75.48264
#
# Poissons Ratio (x) = 0.77698 -0.38709
# Poissons Ratio (y) = 0.36852 0.35280
# Poissons Ratio (z) = -0.19394 0.37268
#
# Static dielectric constant tensor:
#      x y z
#    x 3.175160 0.000000 0.789360 
#    y 0.000000 3.343140 0.000000 
#    z 0.789360 0.000000 2.827770 
# 
# 
# High freq. dielectric constant tensor:
#      x y z
#    x 1.827790 0.000000 -0.001220 
#    y 0.000000 1.832290 0.000000 
#    z -0.001220 0.000000 1.833730 
# 
# From -- ./inp_files/334809.got.cif
#   From: 2010.06.25/outbox.cif.g09.slc.cpg/sg12_168_cif.got.tgz:334809.got - 2010.06.28 00:19:55.
