data_PCOD8111079
_publ_section_title
;
Structure prediction by ZEFSAII (Michael W. Deem and Ramdas Pophale) SiO2 
 PCOD8111079
Probable space group: C 2/M
;
_chemical_formula_sum "Si O2"
_cell_formula_units_Z 64
_cell_length_a 20.102781
_cell_length_b 8.721856
_cell_length_c 21.721160
_cell_angle_alpha 90.000000
_cell_angle_beta 60.171972
_cell_angle_gamma 90.000000
_cell_volume 3303.913627
_symmetry_space_group_name_H-M "C 2/M"
_symmetry_group_IT_number 12
_symmetry_cell_setting 'monoclinic'
loop_
_space_group_symop_operation_xyz
x,y,z
-x,y,-z
-x,-y,-z
x,-y,z
1/2+x,1/2+y,z
1/2-x,1/2+y,-z
1/2-x,1/2-y,-z
1/2+x,1/2-y,z
loop_
_atom_site_type_symbol
_atom_site_label
_atom_site_fract_x
_atom_site_fract_y
_atom_site_fract_z
Si Si1 0.026010 0.823223 0.699485
Si Si2 0.947895 0.318910 0.434175
Si Si3 0.734786 0.818811 0.262375
Si Si4 0.972848 0.680187 0.945492
Si Si5 0.369228 0.820929 0.802474
Si Si6 0.594480 0.678424 0.799066
Si Si7 0.331609 0.679819 0.948417
Si Si8 0.110106 0.318411 0.411711
O O1 0.950855 0.717038 0.735155
O O2 0.075248 0.771612 0.617206
O O3 0.078447 0.794575 0.734686
O O4 0.001355 0.000000 0.706298
O O5 0.944891 0.500000 0.423443
O O6 0.889547 0.271321 0.516229
O O7 0.032574 0.261911 0.414602
O O8 0.697781 0.774379 0.214039
O O9 0.820997 0.754274 0.225755
O O10 0.683550 0.748955 0.341872
O O11 0.737600 0.000000 0.269219
O O12 0.959991 0.500000 0.948304
O O13 0.891860 0.760422 0.970686
O O14 0.034509 0.726560 0.866278
O O15 0.000000 0.734536 0.000000
O O16 0.359735 0.721511 0.867664
O O17 0.365452 0.000000 0.820877
O O18 0.586982 0.500000 0.820427
O O19 0.325609 0.500000 0.957786
O O20 0.250000 0.750000 0.000000
O O21 0.110396 0.500000 0.406555
#
# Coordination Sequence:
#
# PCOD8111079 Si02
#       8
#     8   8   8   8   8   8   8   8
#     4  11  21  34  53  82 117 154 191 236 292 352
#     4   9  16  29  54  81 107 144 194 245 293 343
#     4   9  18  34  58  86 112 147 197 242 288 347
#     4  11  25  44  64  89 120 157 199 245 294 347
#     4  11  21  37  63  89 114 149 196 249 292 336
#     4  10  22  39  59  83 114 156 196 235 289 355
#     4  12  26  44  65  92 125 158 195 242 295 351
#     4   8  14  28  52  82 109 140 191 248 290 341
#
# _framework density 19.370968000000001
#
# number of rings (size 3 to 8) (size 9 to 14) (size 15 to 20)
#    0.000    1.875    2.500    3.000    1.750    1.500 
#    0.000    2.500    0.000    0.000    0.000    0.000 
#    0.000    0.000    0.000    0.000    0.000    0.000 
#
# Total GULP energy -396816.390808 kJ/mol
# GULP energy per Si atom -12400.512213 kJ/mol
# Density = 1.932688 g / cm^3
# Si number density = 19.370968 Si / 1000 Ang^3
#
#
#
# Elastic Constant Matrix: (Units=GPa)
#
#
# Indices 1 2 3 4 5 6 
#
# 1 129.7628 46.2595 44.0590 0.0002 5.1076 -0.0012
# 2 46.2595 70.4661 36.3280 0.0003 8.8260 -0.0026
# 3 44.0590 36.3280 100.4868 0.0002 16.2440 0.0002
# 4 0.0002 0.0003 0.0002 17.9039 -0.0001 -0.4600
# 5 5.1076 8.8260 16.2440 -0.0001 33.8088 -0.0003
# 6 -0.0012 -0.0026 0.0002 -0.4600 -0.0003 20.4422
#
#
#
# Elastic Compliance Matrix: (Units=1/GPa)
#
#
# Indices 1 2 3 4 5 6 
#
# 1 0.010640 -0.005692 -0.002806 0.000000 0.001227 0.000000
# 2 -0.005692 0.020573 -0.004567 0.000000 -0.002316 0.000002
# 3 -0.002806 -0.004567 0.013630 0.000000 -0.004933 -0.000001
# 4 0.000000 0.000000 0.000000 0.055886 0.000000 0.001258
# 5 0.001227 -0.002316 -0.004933 0.000000 0.032367 0.000000
# 6 0.000000 0.000002 -0.000001 0.001258 0.000000 0.048947
#
#
# Mechanical properties :
#
#
# Convention : Reuss Voigt Hill
#
# Bulk Modulus (GPa) = 53.43913 61.55653 57.49783
# Shear Modulus (GPa) = 23.31975 26.03560 24.67767
#
# Velocity S-wave (km/s) = 3.47342 3.67011 3.57312
# Velocity P-wave (km/s) = 6.61312 7.05736 6.83885
#
# Compressibility (1/GPa) = 0.01871288
#
# Stress axis : x y z
#
# Youngs Moduli (GPa) = 93.98611 48.60816 73.36624
#
# Poissons Ratio (x) = 0.27668 0.20584
# Poissons Ratio (y) = 0.53498 0.33508
# Poissons Ratio (z) = 0.26369 0.22201
#
# Static dielectric constant tensor:
#      x y z
#    x 3.691950 0.000000 -0.023810 
#    y 0.000000 3.325800 0.000000 
#    z -0.023810 0.000000 3.877090 
# 
# 
# High freq. dielectric constant tensor:
#      x y z
#    x 1.745710 0.000000 0.008440 
#    y 0.000000 1.731220 0.000000 
#    z 0.008440 0.000000 1.768600 
# 
# From -- ./inp_files/319838.got.cif
#   From: 2010.06.25/outbox.cif.g09.slc.cpg/sg12_160_cif.got.tgz:319838.got - 2010.06.28 00:19:55.
