data_PCOD8111718
_publ_section_title
;
Structure prediction by ZEFSAII (Michael W. Deem and Ramdas Pophale) SiO2 
 PCOD8111718
Probable space group: C 2/M
;
_chemical_formula_sum "Si O2"
_cell_formula_units_Z 56
_cell_length_a 23.549246
_cell_length_b 15.339765
_cell_length_c 8.858488
_cell_angle_alpha 90.000000
_cell_angle_beta 114.235733
_cell_angle_gamma 90.000000
_cell_volume 2918.001568
_symmetry_space_group_name_H-M "C 2/M"
_symmetry_group_IT_number 12
_symmetry_cell_setting 'monoclinic'
loop_
_space_group_symop_operation_xyz
x,y,z
-x,y,-z
-x,-y,-z
x,-y,z
1/2+x,1/2+y,z
1/2-x,1/2+y,-z
1/2-x,1/2-y,-z
1/2+x,1/2-y,z
loop_
_atom_site_type_symbol
_atom_site_label
_atom_site_fract_x
_atom_site_fract_y
_atom_site_fract_z
Si Si1 0.675167 0.594281 0.604130
Si Si2 0.989858 0.596836 0.316607
Si Si3 0.849472 0.852108 0.756883
Si Si4 0.930461 0.000000 0.998360
Si Si5 0.379177 0.096790 0.998429
Si Si6 0.569848 0.500000 0.638419
Si Si7 0.945903 0.706197 0.844655
Si Si8 0.732260 0.772335 0.148742
O O1 0.709432 0.500000 0.671069
O O2 0.670764 0.600952 0.418219
O O3 0.607122 0.585534 0.613192
O O4 0.711379 0.678115 0.706246
O O5 0.012386 0.500000 0.292453
O O6 0.000000 0.613014 0.500000
O O7 0.030348 0.673084 0.288796
O O8 0.916597 0.606472 0.196658
O O9 0.889679 0.769851 0.749902
O O10 0.789274 0.814775 0.783503
O O11 0.890868 0.915614 0.905500
O O12 0.000000 0.000000 0.000000
O O13 0.934014 0.000000 0.183937
O O14 0.427225 0.120068 0.918086
O O15 0.323798 0.162747 0.931060
O O16 0.352981 0.000000 0.947321
O O17 0.500000 0.500000 0.500000
O O18 0.000000 0.755410 0.000000
O O19 0.750000 0.750000 0.000000
#
# Coordination Sequence:
#
# PCOD8111718 Si02
#       8
#     8   8   8   4   8   4   8   8
#     4  10  22  42  63  87 124 158 206 255 319 382
#     4   9  17  31  53  83 118 150 188 243 298 356
#     4  11  22  39  61  86 121 159 209 260 312 377
#     4  12  22  40  64  92 126 166 213 263 324 387
#     4   9  18  34  55  78 111 153 197 231 290 365
#     4  10  22  40  66  94 122 162 206 257 318 387
#     4   9  18  32  53  82 112 150 190 235 295 360
#     4  11  23  39  60  88 119 158 207 258 314 371
#
# _framework density 19.191217000000002
#
# number of rings (size 3 to 8) (size 9 to 14) (size 15 to 20)
#    0.429    1.571    0.714    3.429    0.000    2.857 
#    1.286    5.000    0.000    3.429    0.000    0.000 
#    0.000    0.000    0.000    0.000    0.000    0.000 
#
# Total GULP energy -346936.951593 kJ/mol
# GULP energy per Si atom -12390.605414 kJ/mol
# Density = 1.914754 g / cm^3
# Si number density = 19.191217 Si / 1000 Ang^3
#
#
#
# Elastic Constant Matrix: (Units=GPa)
#
#
# Indices 1 2 3 4 5 6 
#
# 1 104.3961 38.7438 44.0636 0.0000 -1.8978 0.0000
# 2 38.7438 81.3347 40.0915 0.0000 -1.7832 0.0000
# 3 44.0636 40.0915 116.1262 0.0000 -4.2241 0.0000
# 4 0.0000 0.0000 0.0000 -34.3140 0.0000 26.9613
# 5 -1.8978 -1.7832 -4.2241 0.0000 24.3366 0.0000
# 6 0.0000 0.0000 0.0000 26.9613 0.0000 21.2942
#
#
#
# Elastic Compliance Matrix: (Units=1/GPa)
#
#
# Indices 1 2 3 4 5 6 
#
# 1 0.012583 -0.004387 -0.003257 0.000000 0.000095 0.000000
# 2 -0.004387 0.016346 -0.003973 0.000000 0.000166 0.000000
# 3 -0.003257 -0.003973 0.011270 0.000000 0.001411 0.000000
# 4 0.000000 0.000000 0.000000 -0.014609 0.000000 0.018497
# 5 0.000095 0.000166 0.001411 0.000000 0.041355 0.000000
# 6 0.000000 0.000000 0.000000 0.018497 0.000000 0.023541
#
#
# Mechanical properties :
#
#
# Convention : Reuss Voigt Hill
#
# Bulk Modulus (GPa) = 58.93779 60.85054 59.89416
# Shear Modulus (GPa) = 41.88475 14.19390 28.03932
#
# Velocity S-wave (km/s) = 4.67679 2.72252 3.82651
# Velocity P-wave (km/s) = 7.74213 6.45439 7.12740
#
# Compressibility (1/GPa) = 0.01696704
#
# Stress axis : x y z
#
# Youngs Moduli (GPa) = 79.47095 61.17542 88.73093
#
# Poissons Ratio (x) = 0.26835 0.28898
# Poissons Ratio (y) = 0.34861 0.35252
# Poissons Ratio (z) = 0.25882 0.24305
#
# Static dielectric constant tensor:
#      x y z
#    x 3.395670 0.000000 -0.008150 
#    y 0.000000 3.598800 0.000000 
#    z -0.008150 0.000000 3.509490 
# 
# 
# High freq. dielectric constant tensor:
#      x y z
#    x 1.739460 0.000000 -0.002340 
#    y 0.000000 1.748790 0.000000 
#    z -0.002340 0.000000 1.751580 
# 
# From -- ./inp_files/97016.got.cif
#   From: 2010.06.25/outbox.cif.g09.slc.cpg/sg12_49_cif.got.tgz:97016.got - 2010.06.28 00:19:55.
