data_PCOD8111187
_publ_section_title
;
Structure prediction by ZEFSAII (Michael W. Deem and Ramdas Pophale) SiO2 
 PCOD8111187
Probable space group: C 2/M
;
_chemical_formula_sum "Si O2"
_cell_formula_units_Z 48
_cell_length_a 14.278314
_cell_length_b 18.869256
_cell_length_c 12.593359
_cell_angle_alpha 90.000000
_cell_angle_beta 136.853824
_cell_angle_gamma 90.000000
_cell_volume 2320.287312
_symmetry_space_group_name_H-M "C 2/M"
_symmetry_group_IT_number 12
_symmetry_cell_setting 'monoclinic'
loop_
_space_group_symop_operation_xyz
x,y,z
-x,y,-z
-x,-y,-z
x,-y,z
1/2+x,1/2+y,z
1/2-x,1/2+y,-z
1/2-x,1/2-y,-z
1/2+x,1/2-y,z
loop_
_atom_site_type_symbol
_atom_site_label
_atom_site_fract_x
_atom_site_fract_y
_atom_site_fract_z
Si Si1 0.695597 0.082574 0.943458
Si Si2 0.279062 0.648971 0.560470
Si Si3 0.977150 0.580196 0.596348
Si Si4 0.153602 0.224791 0.584389
Si Si5 0.952636 0.846295 0.080322
Si Si6 0.361556 0.200872 0.942289
O O1 0.577745 0.113385 0.768197
O O2 0.674834 0.000000 0.957013
O O3 0.842411 0.092514 0.009786
O O4 0.696090 0.131560 0.047910
O O5 0.180888 0.581027 0.495051
O O6 0.179398 0.709249 0.527400
O O7 0.311791 0.657564 0.462493
O O8 0.421082 0.641006 0.737887
O O9 0.026999 0.500000 0.624994
O O10 0.000000 0.618243 0.500000
O O11 0.253551 0.227866 0.766639
O O12 0.000000 0.221442 0.500000
O O13 0.890131 0.767092 0.045900
O O14 0.000000 0.853795 0.000000
O O15 0.500000 0.176934 0.000000
#
# Coordination Sequence:
#
# PCOD8111187 Si02
#       6
#     8   8   8   8   8   8
#     4  11  25  41  63  91 125 171 207 249 310 368
#     4  11  22  38  61  91 121 159 202 251 314 365
#     4  10  22  39  61  91 125 164 206 251 303 369
#     4  11  23  37  60  92 121 157 200 252 311 367
#     4  11  22  39  61  94 122 159 206 259 316 360
#     4  11  22  42  62  91 126 159 209 259 305 366
#
# _framework density 20.687093999999998
#
# number of rings (size 3 to 8) (size 9 to 14) (size 15 to 20)
#    0.000    1.167    3.333    4.000    4.667    1.333 
#    0.000    0.833    0.000    2.000    0.000    0.000 
#    0.000    0.000    0.000    0.000    0.000    0.000 
#
# Total GULP energy -297590.002595 kJ/mol
# GULP energy per Si atom -12399.583441 kJ/mol
# Density = 2.064001 g / cm^3
# Si number density = 20.687094 Si / 1000 Ang^3
#
#
#
# Elastic Constant Matrix: (Units=GPa)
#
#
# Indices 1 2 3 4 5 6 
#
# 1 106.6763 26.3207 40.5329 0.0000 19.9151 0.0000
# 2 26.3207 50.2342 6.9643 0.0000 1.6812 0.0000
# 3 40.5329 6.9643 104.8033 0.0000 23.1369 0.0000
# 4 0.0000 0.0000 0.0000 14.6925 0.0000 6.8504
# 5 19.9151 1.6812 23.1369 0.0000 35.5963 0.0000
# 6 0.0000 0.0000 0.0000 6.8504 0.0000 28.2554
#
#
#
# Elastic Compliance Matrix: (Units=1/GPa)
#
#
# Indices 1 2 3 4 5 6 
#
# 1 0.013177 -0.006242 -0.003642 0.000000 -0.004711 0.000000
# 2 -0.006242 0.023049 0.000411 0.000000 0.002137 0.000000
# 3 -0.003642 0.000411 0.012233 0.000000 -0.005933 0.000000
# 4 0.000000 0.000000 0.000000 0.076737 0.000000 -0.018605
# 5 -0.004711 0.002137 -0.005933 0.000000 0.034484 0.000000
# 6 0.000000 0.000000 0.000000 -0.018605 0.000000 0.039902
#
#
# Mechanical properties :
#
#
# Convention : Reuss Voigt Hill
#
# Bulk Modulus (GPa) = 33.88317 45.48329 39.68323
# Shear Modulus (GPa) = 21.89486 28.23524 25.06505
#
# Velocity S-wave (km/s) = 3.25681 3.69843 3.48462
# Velocity P-wave (km/s) = 5.52783 6.34601 5.95100
#
# Compressibility (1/GPa) = 0.02951318
#
# Stress axis : x y z
#
# Youngs Moduli (GPa) = 75.88801 43.38628 81.74876
#
# Poissons Ratio (x) = 0.27081 0.29770
# Poissons Ratio (y) = 0.47368 -0.03358
# Poissons Ratio (z) = 0.27636 -0.01782
#
# Static dielectric constant tensor:
#      x y z
#    x 3.804000 0.000000 -0.048590 
#    y 0.000000 3.591180 0.000000 
#    z -0.048590 0.000000 3.926540 
# 
# 
# High freq. dielectric constant tensor:
#      x y z
#    x 1.818620 0.000000 0.007810 
#    y 0.000000 1.783250 0.000000 
#    z 0.007810 0.000000 1.821350 
# 
# From -- ./inp_files/148001.got.cif
#   From: 2010.06.25/outbox.cif.g09.slc.cpg/sg12_75_cif.got.tgz:148001.got - 2010.06.28 00:19:55.
