data_PCOD8111934
_publ_section_title
;
Structure prediction by ZEFSAII (Michael W. Deem and Ramdas Pophale) SiO2 
 PCOD8111934
Probable space group: C 2/M
;
_chemical_formula_sum "Si O2"
_cell_formula_units_Z 40
_cell_length_a 9.493211
_cell_length_b 25.261991
_cell_length_c 10.749394
_cell_angle_alpha 90.000000
_cell_angle_beta 51.289235
_cell_angle_gamma 90.000000
_cell_volume 2011.562307
_symmetry_space_group_name_H-M "C 2/M"
_symmetry_group_IT_number 12
_symmetry_cell_setting 'monoclinic'
loop_
_space_group_symop_operation_xyz
x,y,z
-x,y,-z
-x,-y,-z
x,-y,z
1/2+x,1/2+y,z
1/2-x,1/2+y,-z
1/2-x,1/2-y,-z
1/2+x,1/2-y,z
loop_
_atom_site_type_symbol
_atom_site_label
_atom_site_fract_x
_atom_site_fract_y
_atom_site_fract_z
Si Si1 0.869991 0.792393 0.185948
Si Si2 0.415709 0.293169 0.678524
Si Si3 0.793622 0.600489 0.652126
Si Si4 0.708916 0.000000 0.912935
Si Si5 0.708860 0.500000 0.859760
Si Si6 0.539096 0.587295 0.342577
O O1 0.766273 0.739571 0.203401
O O2 0.739259 0.842993 0.265762
O O3 0.960499 0.781630 0.269933
O O4 0.000000 0.805868 0.000000
O O5 0.500000 0.274512 0.500000
O O6 0.368577 0.355186 0.698003
O O7 0.765483 0.552902 0.760659
O O8 0.655340 0.591464 0.615339
O O9 0.000000 0.599182 0.500000
O O10 0.817440 0.948576 0.807959
O O11 0.500000 0.000000 0.000000
O O12 0.687285 0.000000 0.070510
O O13 0.500000 0.500000 0.000000
O O14 0.500000 0.563207 0.500000
#
# Coordination Sequence:
#
# PCOD8111934 Si02
#       6
#     8   8   8   4   4   8
#     4  11  23  40  64  97 130 165 214 268 319 371
#     4  10  22  41  64  92 128 171 212 257 317 384
#     4  11  24  41  68  93 123 172 216 259 314 381
#     4  12  27  42  64  96 129 166 204 263 326 378
#     4  12  23  44  66  92 129 162 212 268 314 374
#     4  10  23  43  64  92 131 167 211 259 312 381
#
# _framework density 19.885041999999999
#
# number of rings (size 3 to 8) (size 9 to 14) (size 15 to 20)
#    0.000    1.200    2.000    3.000    5.600    4.000 
#    0.000    0.000    0.000    0.000    0.000    0.000 
#    0.000    0.000    0.000    0.000    0.000    0.000 
#
# Total GULP energy -247973.036325 kJ/mol
# GULP energy per Si atom -12398.651816 kJ/mol
# Density = 1.983978 g / cm^3
# Si number density = 19.885042 Si / 1000 Ang^3
#
#
#
# Elastic Constant Matrix: (Units=GPa)
#
#
# Indices 1 2 3 4 5 6 
#
# 1 128.1824 60.0843 73.4770 0.0000 2.0301 0.0000
# 2 60.0843 124.8419 65.5393 0.0000 -3.6809 0.0000
# 3 73.4770 65.5393 147.8530 0.0000 -6.5654 0.0000
# 4 0.0000 0.0000 0.0000 42.3181 0.0000 -12.1837
# 5 2.0301 -3.6809 -6.5654 0.0000 46.1125 0.0000
# 6 0.0000 0.0000 0.0000 -12.1837 0.0000 65.2214
#
#
#
# Elastic Compliance Matrix: (Units=1/GPa)
#
#
# Indices 1 2 3 4 5 6 
#
# 1 0.012034 -0.003468 -0.004507 0.000000 -0.001448 0.000000
# 2 -0.003468 0.011440 -0.003321 0.000000 0.000593 0.000000
# 3 -0.004507 -0.003321 0.010539 0.000000 0.001434 0.000000
# 4 0.000000 0.000000 0.000000 0.024974 0.000000 0.004665
# 5 -0.001448 0.000593 0.001434 0.000000 0.022001 0.000000
# 6 0.000000 0.000000 0.000000 0.004665 0.000000 0.016204
#
#
# Mechanical properties :
#
#
# Convention : Reuss Voigt Hill
#
# Bulk Modulus (GPa) = 87.56606 88.78648 88.17627
# Shear Modulus (GPa) = 40.45560 44.18217 42.31888
#
# Velocity S-wave (km/s) = 4.51541 4.71880 4.61822
# Velocity P-wave (km/s) = 8.44494 8.62764 8.53678
#
# Compressibility (1/GPa) = 0.01141995
#
# Stress axis : x y z
#
# Youngs Moduli (GPa) = 83.10077 87.40952 94.88258
#
# Poissons Ratio (x) = 0.30314 0.42766
# Poissons Ratio (y) = 0.28820 0.31514
# Poissons Ratio (z) = 0.37455 0.29032
#
# Static dielectric constant tensor:
#      x y z
#    x 3.732850 0.000000 0.187960 
#    y 0.000000 3.826760 0.000000 
#    z 0.187960 0.000000 3.600820 
# 
# 
# High freq. dielectric constant tensor:
#      x y z
#    x 1.783450 0.000000 0.011660 
#    y 0.000000 1.794140 0.000000 
#    z 0.011660 0.000000 1.782260 
# 
# From -- ./inp_files/79331.got.cif
#   From: 2010.06.25/outbox.cif.g09.slc.cpg/sg12_40_cif.got.tgz:79331.got - 2010.06.28 00:19:55.
