data_PCOD8111083
_publ_section_title
;
Structure prediction by ZEFSAII (Michael W. Deem and Ramdas Pophale) SiO2 
 PCOD8111083
Probable space group: C 2/M
;
_chemical_formula_sum "Si O2"
_cell_formula_units_Z 56
_cell_length_a 23.822830
_cell_length_b 9.015092
_cell_length_c 15.516597
_cell_angle_alpha 90.000000
_cell_angle_beta 60.289885
_cell_angle_gamma 90.000000
_cell_volume 2894.355259
_symmetry_space_group_name_H-M "C 2/M"
_symmetry_group_IT_number 12
_symmetry_cell_setting 'monoclinic'
loop_
_space_group_symop_operation_xyz
x,y,z
-x,y,-z
-x,-y,-z
x,-y,z
1/2+x,1/2+y,z
1/2-x,1/2+y,-z
1/2-x,1/2-y,-z
1/2+x,1/2-y,z
loop_
_atom_site_type_symbol
_atom_site_label
_atom_site_fract_x
_atom_site_fract_y
_atom_site_fract_z
Si Si1 0.437870 0.825658 0.847554
Si Si2 0.800578 0.672921 0.024879
Si Si3 0.730134 0.675574 0.426980
Si Si4 0.323464 0.826104 0.199858
Si Si5 0.540249 0.674563 0.340557
Si Si6 0.039444 0.174203 0.885189
Si Si7 0.408217 0.674002 0.517930
O O1 0.427762 0.771132 0.758225
O O2 0.501492 0.745205 0.834536
O O3 0.449508 0.000000 0.842851
O O4 0.373826 0.777994 0.948051
O O5 0.791288 0.500000 0.015742
O O6 0.789528 0.714570 0.134010
O O7 0.750000 0.750000 0.000000
O O8 0.729535 0.500000 0.440208
O O9 0.750000 0.750000 0.500000
O O10 0.776180 0.721301 0.312929
O O11 0.659370 0.742030 0.461030
O O12 0.389164 0.737745 0.162591
O O13 0.339817 0.000000 0.189204
O O14 0.552564 0.500000 0.315277
O O15 0.463601 0.709285 0.405763
O O16 0.573543 0.735056 0.401974
O O17 0.044013 0.000000 0.866388
O O18 0.000000 0.216847 0.000000
O O19 0.401145 0.500000 0.534606
#
# Coordination Sequence:
#
# PCOD8111083 Si02
#       7
#     8   8   8   8   8   8   8
#     4  11  23  38  58  87 122 154 186 236 298 351
#     4  10  23  40  60  87 121 158 195 237 287 348
#     4  10  22  39  59  84 116 156 199 241 290 349
#     4  10  22  41  62  85 118 162 198 238 300 356
#     4   9  18  35  61  87 111 147 194 243 289 341
#     4  11  23  39  61  87 113 148 196 245 288 342
#     4   8  17  36  59  83 113 148 192 243 292 339
#
# _framework density 19.348006000000002
#
# number of rings (size 3 to 8) (size 9 to 14) (size 15 to 20)
#    0.000    2.143    1.429    1.714    4.000    2.857 
#    0.000    2.143    0.000    0.000    0.000    0.000 
#    0.000    0.000    0.000    0.000    0.000    0.000 
#
# Total GULP energy -347192.940572 kJ/mol
# GULP energy per Si atom -12399.747878 kJ/mol
# Density = 1.930397 g / cm^3
# Si number density = 19.348006 Si / 1000 Ang^3
#
#
#
# Elastic Constant Matrix: (Units=GPa)
#
#
# Indices 1 2 3 4 5 6 
#
# 1 146.7822 40.5084 60.2040 0.0000 -0.9717 0.0000
# 2 40.5084 40.4149 41.2798 0.0000 -2.7236 0.0000
# 3 60.2040 41.2798 138.6230 0.0000 8.0947 0.0000
# 4 0.0000 0.0000 0.0000 24.8026 0.0000 3.6670
# 5 -0.9717 -2.7236 8.0947 0.0000 29.6084 0.0000
# 6 0.0000 0.0000 0.0000 3.6670 0.0000 33.1855
#
#
#
# Elastic Compliance Matrix: (Units=1/GPa)
#
#
# Indices 1 2 3 4 5 6 
#
# 1 0.009756 -0.007810 -0.001919 0.000000 0.000126 0.000000
# 2 -0.007810 0.042994 -0.009783 0.000000 0.006373 0.000000
# 3 -0.001919 -0.009783 0.011195 0.000000 -0.004024 0.000000
# 4 0.000000 0.000000 0.000000 0.040988 0.000000 -0.004529
# 5 0.000126 0.006373 -0.004024 0.000000 0.035465 0.000000
# 6 0.000000 0.000000 0.000000 -0.004529 0.000000 0.030634
#
#
# Mechanical properties :
#
#
# Convention : Reuss Voigt Hill
#
# Bulk Modulus (GPa) = 40.12682 67.75602 53.94142
# Shear Modulus (GPa) = 22.89769 29.77449 26.33609
#
# Velocity S-wave (km/s) = 3.44388 3.92713 3.69342
# Velocity P-wave (km/s) = 6.04966 7.46048 6.79180
#
# Compressibility (1/GPa) = 0.02492099
#
# Stress axis : x y z
#
# Youngs Moduli (GPa) = 102.50010 23.25924 89.32404
#
# Poissons Ratio (x) = 0.18167 0.17138
# Poissons Ratio (y) = 0.80058 0.87385
# Poissons Ratio (z) = 0.19666 0.22754
#
# Static dielectric constant tensor:
#      x y z
#    x 3.824770 0.000000 -0.036110 
#    y 0.000000 3.284000 0.000000 
#    z -0.036110 0.000000 3.709720 
# 
# 
# High freq. dielectric constant tensor:
#      x y z
#    x 1.763220 0.000000 0.002900 
#    y 0.000000 1.730860 0.000000 
#    z 0.002900 0.000000 1.764070 
# 
# From -- ./inp_files/238258.got.cif
#   From: 2010.06.25/outbox.cif.g09.slc.cpg/sg12_120_cif.got.tgz:238258.got - 2010.06.28 00:19:55.
