data_PCOD8111326
_publ_section_title
;
Structure prediction by ZEFSAII (Michael W. Deem and Ramdas Pophale) SiO2 
 PCOD8111326
Probable space group: C 2/M
;
_chemical_formula_sum "Si O2"
_cell_formula_units_Z 64
_cell_length_a 13.992813
_cell_length_b 24.117940
_cell_length_c 17.112897
_cell_angle_alpha 90.000000
_cell_angle_beta 148.246843
_cell_angle_gamma 90.000000
_cell_volume 3039.273476
_symmetry_space_group_name_H-M "C 2/M"
_symmetry_group_IT_number 12
_symmetry_cell_setting 'monoclinic'
loop_
_space_group_symop_operation_xyz
x,y,z
-x,y,-z
-x,-y,-z
x,-y,z
1/2+x,1/2+y,z
1/2-x,1/2+y,-z
1/2-x,1/2-y,-z
1/2+x,1/2-y,z
loop_
_atom_site_type_symbol
_atom_site_label
_atom_site_fract_x
_atom_site_fract_y
_atom_site_fract_z
Si Si1 0.785124 0.366545 0.353221
Si Si2 0.308818 0.805008 0.225023
Si Si3 0.253779 0.363443 0.358019
Si Si4 0.856969 0.639893 0.098768
Si Si5 0.173966 0.257084 0.533234
Si Si6 0.827952 0.302275 0.924258
Si Si7 0.064126 0.884985 0.675123
Si Si8 0.044613 0.936344 0.822146
O O1 0.721317 0.351224 0.220765
O O2 0.735143 0.312277 0.368858
O O3 0.658651 0.415498 0.298660
O O4 0.000000 0.383623 0.500000
O O5 0.387998 0.836798 0.206194
O O6 0.458991 0.770753 0.379550
O O7 0.160987 0.762307 0.089330
O O8 0.278773 0.295738 0.377522
O O9 0.351340 0.382956 0.505979
O O10 0.335663 0.392961 0.338046
O O11 0.051357 0.387471 0.216415
O O12 0.835142 0.690285 0.022238
O O13 0.694502 0.596098 0.977705
O O14 0.250000 0.250000 0.500000
O O15 0.637650 0.327479 0.762111
O O16 0.000000 0.331524 0.000000
O O17 0.090233 0.931052 0.760885
O O18 0.057428 0.000000 0.855012
#
# Coordination Sequence:
#
# PCOD8111326 Si02
#       8
#     8   8   8   8   8   8   8   8
#     4  10  25  42  66  98 131 171 224 278 327 396
#     4  11  23  36  57  98 140 179 219 255 312 405
#     4  11  20  38  65 103 143 176 208 250 331 411
#     4  11  25  38  64  94 137 176 222 273 323 397
#     4  11  20  34  63  99 144 179 209 252 319 405
#     4  11  21  35  56  94 142 183 209 248 321 397
#     4  10  22  39  68  96 133 176 218 268 318 409
#     4  11  27  51  70  91 123 172 235 301 351 374
#
# _framework density 21.057663999999999
#
# number of rings (size 3 to 8) (size 9 to 14) (size 15 to 20)
#    0.000    1.250    3.750    1.875    8.750    0.250 
#    0.000    4.375    0.000    0.000    0.000    0.000 
#    0.000    0.000    0.000    0.000    0.000    0.000 
#
# Total GULP energy -396481.280108 kJ/mol
# GULP energy per Si atom -12390.040003 kJ/mol
# Density = 2.100974 g / cm^3
# Si number density = 21.057664 Si / 1000 Ang^3
#
#
#
# Elastic Constant Matrix: (Units=GPa)
#
#
# Indices 1 2 3 4 5 6 
#
# 1 108.6121 30.4709 35.4756 0.0000 -6.7540 0.0000
# 2 30.4709 79.6503 27.1811 0.0000 6.9281 0.0000
# 3 35.4756 27.1811 103.5258 -0.0001 7.8501 0.0000
# 4 0.0000 0.0000 -0.0001 11.0283 -0.0001 -0.8487
# 5 -6.7540 6.9281 7.8501 -0.0001 38.0520 0.0000
# 6 0.0000 0.0000 0.0000 -0.8487 0.0000 19.4918
#
#
#
# Elastic Compliance Matrix: (Units=1/GPa)
#
#
# Indices 1 2 3 4 5 6 
#
# 1 0.011481 -0.003575 -0.003250 0.000000 0.003359 0.000000
# 2 -0.003575 0.015025 -0.002503 0.000000 -0.002854 0.000000
# 3 -0.003250 -0.002503 0.011621 0.000000 -0.002519 0.000000
# 4 0.000000 0.000000 0.000000 0.090981 0.000000 0.003961
# 5 0.003359 -0.002854 -0.002519 0.000000 0.027915 0.000000
# 6 0.000000 0.000000 0.000000 0.003961 0.000000 0.051476
#
#
# Mechanical properties :
#
#
# Convention : Reuss Voigt Hill
#
# Bulk Modulus (GPa) = 51.36161 53.11595 52.23878
# Shear Modulus (GPa) = 21.39989 26.95846 24.17917
#
# Velocity S-wave (km/s) = 3.19133 3.58190 3.39224
# Velocity P-wave (km/s) = 6.16631 6.51041 6.34069
#
# Compressibility (1/GPa) = 0.01946979
#
# Stress axis : x y z
#
# Youngs Moduli (GPa) = 87.10407 66.55550 86.04792
#
# Poissons Ratio (x) = 0.23794 0.27967
# Poissons Ratio (y) = 0.31140 0.21542
# Poissons Ratio (z) = 0.28310 0.16662
#
# Static dielectric constant tensor:
#      x y z
#    x 4.031250 0.000000 -0.092190 
#    y 0.000000 3.296680 0.000000 
#    z -0.092190 0.000000 4.003430 
# 
# 
# High freq. dielectric constant tensor:
#      x y z
#    x 1.840980 0.000000 -0.006840 
#    y 0.000000 1.759060 0.000000 
#    z -0.006840 0.000000 1.839030 
# 
# From -- ./inp_files/272876.got.cif
#   From: 2010.06.25/outbox.cif.g09.slc.cpg/sg12_137_cif.got.tgz:272876.got - 2010.06.28 00:19:55.
