data_PCOD8111447
_publ_section_title
;
Structure prediction by ZEFSAII (Michael W. Deem and Ramdas Pophale) SiO2 
 PCOD8111447
Probable space group: C 2/M
;
_chemical_formula_sum "Si O2"
_cell_formula_units_Z 56
_cell_length_a 29.868648
_cell_length_b 14.513500
_cell_length_c 11.941181
_cell_angle_alpha 90.000000
_cell_angle_beta 31.454993
_cell_angle_gamma 90.000000
_cell_volume 2701.238384
_symmetry_space_group_name_H-M "C 2/M"
_symmetry_group_IT_number 12
_symmetry_cell_setting 'monoclinic'
loop_
_space_group_symop_operation_xyz
x,y,z
-x,y,-z
-x,-y,-z
x,-y,z
1/2+x,1/2+y,z
1/2-x,1/2+y,-z
1/2-x,1/2-y,-z
1/2+x,1/2-y,z
loop_
_atom_site_type_symbol
_atom_site_label
_atom_site_fract_x
_atom_site_fract_y
_atom_site_fract_z
Si Si1 0.434515 0.105516 0.237743
Si Si2 0.051645 0.772900 0.646779
Si Si3 0.762876 0.893259 0.358411
Si Si4 0.323482 0.679464 0.812347
Si Si5 0.202100 0.600029 0.908164
Si Si6 0.870081 0.204354 0.948754
Si Si7 0.663054 0.395730 0.564645
O O1 0.457399 0.167044 0.296469
O O2 0.337426 0.125014 0.404697
O O3 0.446930 0.000000 0.248240
O O4 0.500000 0.132125 0.000000
O O5 0.106887 0.773293 0.416330
O O6 0.091344 0.830367 0.664620
O O7 0.959437 0.817349 0.817700
O O8 0.816983 0.863294 0.351757
O O9 0.779328 0.000000 0.294164
O O10 0.791879 0.830647 0.192244
O O11 0.277048 0.597521 0.843528
O O12 0.367481 0.649249 0.835557
O O13 0.250000 0.750000 0.000000
O O14 0.154707 0.500000 0.015850
O O15 0.247167 0.610614 0.692040
O O16 0.137359 0.685573 0.060198
O O17 0.627552 0.500000 0.638186
#
# Coordination Sequence:
#
# PCOD8111447 Si02
#       7
#     8   8   8   8   8   8   8
#     4  10  23  40  59  88 124 160 201 246 294 356
#     4  11  23  37  60  90 122 157 197 247 306 351
#     4  10  22  40  61  87 119 160 201 244 301 358
#     4   9  19  40  60  81 113 155 203 248 289 347
#     4   9  19  36  60  86 111 153 200 241 292 348
#     4  11  23  36  60  90 122 158 194 248 298 360
#     4   9  20  38  60  83 116 154 200 247 288 352
#
# _framework density 20.731231999999999
#
# number of rings (size 3 to 8) (size 9 to 14) (size 15 to 20)
#    0.000    2.143    0.000    3.000    4.000    2.857 
#    0.000    5.714    0.000    8.571    0.000    0.000 
#    0.000    0.000    0.000    0.000    0.000    0.000 
#
# Total GULP energy -347150.981499 kJ/mol
# GULP energy per Si atom -12398.249339 kJ/mol
# Density = 2.068405 g / cm^3
# Si number density = 20.731232 Si / 1000 Ang^3
#
#
#
# Elastic Constant Matrix: (Units=GPa)
#
#
# Indices 1 2 3 4 5 6 
#
# 1 127.0113 32.4491 44.8981 0.0000 13.2324 0.0000
# 2 32.4491 67.9898 32.6033 0.0000 9.2497 0.0000
# 3 44.8981 32.6033 113.4524 0.0000 5.4881 0.0000
# 4 0.0000 0.0000 0.0000 21.4548 0.0000 -3.7686
# 5 13.2324 9.2497 5.4881 0.0000 35.9245 0.0000
# 6 0.0000 0.0000 0.0000 -3.7686 0.0000 14.1215
#
#
#
# Elastic Compliance Matrix: (Units=1/GPa)
#
#
# Indices 1 2 3 4 5 6 
#
# 1 0.009936 -0.002994 -0.002954 0.000000 -0.002438 0.000000
# 2 -0.002994 0.018455 -0.003972 0.000000 -0.003042 0.000000
# 3 -0.002954 -0.003972 0.011105 0.000000 0.000414 0.000000
# 4 0.000000 0.000000 0.000000 0.048902 0.000000 0.013051
# 5 -0.002438 -0.003042 0.000414 0.000000 0.029454 0.000000
# 6 0.000000 0.000000 0.000000 0.013051 0.000000 0.074297
#
#
# Mechanical properties :
#
#
# Convention : Reuss Voigt Hill
#
# Bulk Modulus (GPa) = 50.87189 58.70605 54.78897
# Shear Modulus (GPa) = 22.87900 27.53368 25.20634
#
# Velocity S-wave (km/s) = 3.32565 3.64830 3.49071
# Velocity P-wave (km/s) = 6.27205 6.79161 6.53699
#
# Compressibility (1/GPa) = 0.01965722
#
# Stress axis : x y z
#
# Youngs Moduli (GPa) = 100.63960 54.18447 90.05313
#
# Poissons Ratio (x) = 0.16224 0.26601
# Poissons Ratio (y) = 0.30133 0.35765
# Poissons Ratio (z) = 0.29728 0.21520
#
# Static dielectric constant tensor:
#      x y z
#    x 4.219430 0.000000 0.210840 
#    y 0.000000 3.799780 0.000000 
#    z 0.210840 0.000000 3.646070 
# 
# 
# High freq. dielectric constant tensor:
#      x y z
#    x 1.818130 0.000000 0.005290 
#    y 0.000000 1.804200 0.000000 
#    z 0.005290 0.000000 1.799130 
# 
# From -- ./inp_files/189613.got.cif
#   From: 2010.06.25/outbox.cif.g09.slc.cpg/sg12_95_cif.got.tgz:189613.got - 2010.06.28 00:19:55.
