data_PCOD8111149
_publ_section_title
;
Structure prediction by ZEFSAII (Michael W. Deem and Ramdas Pophale) SiO2 
 PCOD8111149
Probable space group: C 2/M
;
_chemical_formula_sum "Si O2"
_cell_formula_units_Z 36
_cell_length_a 9.394321
_cell_length_b 27.420490
_cell_length_c 11.889942
_cell_angle_alpha 90.000000
_cell_angle_beta 36.997352
_cell_angle_gamma 90.000000
_cell_volume 1843.133238
_symmetry_space_group_name_H-M "C 2/M"
_symmetry_group_IT_number 12
_symmetry_cell_setting 'monoclinic'
loop_
_space_group_symop_operation_xyz
x,y,z
-x,y,-z
-x,-y,-z
x,-y,z
1/2+x,1/2+y,z
1/2-x,1/2+y,-z
1/2-x,1/2-y,-z
1/2+x,1/2-y,z
loop_
_atom_site_type_symbol
_atom_site_label
_atom_site_fract_x
_atom_site_fract_y
_atom_site_fract_z
Si Si1 0.000000 0.370933 0.000000
Si Si2 0.228143 0.806864 0.995278
Si Si3 0.899338 0.054814 0.686609
Si Si4 0.273989 0.552233 0.310044
Si Si5 0.730882 0.844542 0.275704
O O1 0.099470 0.336189 0.033042
O O2 0.197208 0.405511 0.824308
O O3 0.955292 0.819535 0.193456
O O4 0.250000 0.750000 0.000000
O O5 0.312267 0.819681 0.816428
O O6 0.000000 0.061585 0.500000
O O7 0.104781 0.064895 0.647469
O O8 0.797153 0.000000 0.766606
O O9 0.374887 0.500000 0.198403
O O10 0.304925 0.598531 0.208232
O O11 0.000000 0.544524 0.500000
O O12 0.500000 0.839117 0.500000
#
# Coordination Sequence:
#
# PCOD8111149 Si02
#       5
#     4   8   8   8   8
#     4  12  23  38  64  92 122 168 203 246 324 372
#     4  11  25  44  63  90 126 158 206 269 312 359
#     4  10  22  39  60  92 131 165 202 249 301 371
#     4   9  18  36  62  92 124 160 204 248 295 361
#     4  10  22  43  67  91 122 162 206 253 305 370
#
# _framework density 19.531957999999999
#
# number of rings (size 3 to 8) (size 9 to 14) (size 15 to 20)
#    0.000    1.778    2.222    1.667    6.222    0.889 
#    0.000    5.556    0.000    0.000    0.000    0.000 
#    0.000    0.000    0.000    0.000    0.000    0.000 
#
# Total GULP energy -223066.520182 kJ/mol
# GULP energy per Si atom -12392.584455 kJ/mol
# Density = 1.948750 g / cm^3
# Si number density = 19.531958 Si / 1000 Ang^3
#
#
#
# Elastic Constant Matrix: (Units=GPa)
#
#
# Indices 1 2 3 4 5 6 
#
# 1 142.9358 78.4698 55.8509 0.0000 -10.0418 0.0000
# 2 78.4698 208.0545 66.1244 0.0000 -0.1853 0.0000
# 3 55.8509 66.1244 103.4655 0.0000 -8.1000 0.0000
# 4 0.0000 0.0000 0.0000 26.8990 0.0000 2.1385
# 5 -10.0418 -0.1853 -8.1000 0.0000 32.7179 0.0000
# 6 0.0000 0.0000 0.0000 2.1385 0.0000 43.5490
#
#
#
# Elastic Compliance Matrix: (Units=1/GPa)
#
#
# Indices 1 2 3 4 5 6 
#
# 1 0.009977 -0.002639 -0.003528 0.000000 0.002174 0.000000
# 2 -0.002639 0.006758 -0.003013 0.000000 -0.001518 0.000000
# 3 -0.003528 -0.003013 0.013674 0.000000 0.002285 0.000000
# 4 0.000000 0.000000 0.000000 0.037322 0.000000 -0.001833
# 5 0.002174 -0.001518 0.002285 0.000000 0.031789 0.000000
# 6 0.000000 0.000000 0.000000 -0.001833 0.000000 0.023053
#
#
# Mechanical properties :
#
#
# Convention : Reuss Voigt Hill
#
# Bulk Modulus (GPa) = 83.00750 95.03843 89.02296
# Shear Modulus (GPa) = 34.49470 37.56723 36.03097
#
# Velocity S-wave (km/s) = 4.20702 4.39038 4.29968
# Velocity P-wave (km/s) = 8.13567 8.62926 8.38610
#
# Compressibility (1/GPa) = 0.01204710
#
# Stress axis : x y z
#
# Youngs Moduli (GPa) = 100.23532 147.96771 73.12976
#
# Poissons Ratio (x) = 0.39055 0.25803
# Poissons Ratio (y) = 0.26456 0.22036
# Poissons Ratio (z) = 0.35367 0.44586
#
# Static dielectric constant tensor:
#      x y z
#    x 3.727360 0.000000 -0.186700 
#    y 0.000000 4.169740 0.000000 
#    z -0.186700 0.000000 3.275100 
# 
# 
# High freq. dielectric constant tensor:
#      x y z
#    x 1.773840 0.000000 -0.012940 
#    y 0.000000 1.784030 0.000000 
#    z -0.012940 0.000000 1.741120 
# 
# From -- ./inp_files/123339.got.cif
#   From: 2010.06.25/outbox.cif.g09.slc.cpg/sg12_62_cif.got.tgz:123339.got - 2010.06.28 00:19:55.
