data_PCOD8111778
_publ_section_title
;
Structure prediction by ZEFSAII (Michael W. Deem and Ramdas Pophale) SiO2 
 PCOD8111778
Probable space group: C 2/M
;
_chemical_formula_sum "Si O2"
_cell_formula_units_Z 56
_cell_length_a 28.837893
_cell_length_b 16.671209
_cell_length_c 6.807729
_cell_angle_alpha 90.000000
_cell_angle_beta 122.342544
_cell_angle_gamma 90.000000
_cell_volume 2765.159014
_symmetry_space_group_name_H-M "C 2/M"
_symmetry_group_IT_number 12
_symmetry_cell_setting 'monoclinic'
loop_
_space_group_symop_operation_xyz
x,y,z
-x,y,-z
-x,-y,-z
x,-y,z
1/2+x,1/2+y,z
1/2-x,1/2+y,-z
1/2-x,1/2-y,-z
1/2+x,1/2-y,z
loop_
_atom_site_type_symbol
_atom_site_label
_atom_site_fract_x
_atom_site_fract_y
_atom_site_fract_z
Si Si1 0.612021 0.219815 0.470682
Si Si2 0.745114 0.906810 0.368931
Si Si3 0.704708 0.314008 0.843218
Si Si4 0.337854 0.594628 0.881988
Si Si5 0.945882 0.692119 0.268470
Si Si6 0.554493 0.328157 0.036139
Si Si7 0.624640 0.094981 0.188060
O O1 0.667990 0.270004 0.596462
O O2 0.598647 0.210764 0.668161
O O3 0.568798 0.269444 0.247068
O O4 0.616152 0.131461 0.385430
O O5 0.765605 0.887616 0.197334
O O6 0.788166 0.876632 0.630084
O O7 0.684145 0.870828 0.257420
O O8 0.739108 0.000000 0.378588
O O9 0.750000 0.250000 0.000000
O O10 0.668889 0.351322 0.939091
O O11 0.335401 0.500000 0.925840
O O12 0.396545 0.611160 0.909664
O O13 0.000000 0.658353 0.500000
O O14 0.959923 0.774202 0.186116
O O15 0.921694 0.625203 0.067741
O O16 0.500000 0.373712 0.000000
O O17 0.620648 0.000000 0.194556
#
# Coordination Sequence:
#
# PCOD8111778 Si02
#       7
#     8   8   8   8   8   8   8
#     4  11  22  38  63  89 121 162 208 258 313 372
#     4  10  22  41  60  86 130 167 199 254 316 370
#     4  12  23  36  64  96 123 167 216 255 305 380
#     4  11  24  41  63  94 132 169 210 261 321 380
#     4  11  22  40  64  92 120 162 209 265 318 367
#     4  11  22  40  66  90 121 163 214 263 317 380
#     4  10  24  41  60  91 127 165 209 257 315 380
#
# _framework density 20.251998
#
# number of rings (size 3 to 8) (size 9 to 14) (size 15 to 20)
#    0.000    1.143    4.286    2.143    2.000    2.286 
#    0.000    4.286    0.000    1.286    0.000    0.000 
#    0.000    0.000    0.000    0.000    0.000    0.000 
#
# Total GULP energy -347079.032696 kJ/mol
# GULP energy per Si atom -12395.679739 kJ/mol
# Density = 2.020590 g / cm^3
# Si number density = 20.251998 Si / 1000 Ang^3
#
#
#
# Elastic Constant Matrix: (Units=GPa)
#
#
# Indices 1 2 3 4 5 6 
#
# 1 110.2222 35.7119 44.9841 0.0000 6.6852 0.0000
# 2 35.7119 75.0364 36.3099 0.0000 -0.9681 0.0000
# 3 44.9841 36.3099 108.4601 0.0000 4.7400 0.0000
# 4 0.0000 0.0000 0.0000 23.6032 0.0000 -0.1191
# 5 6.6852 -0.9681 4.7400 0.0000 41.5836 0.0000
# 6 0.0000 0.0000 0.0000 -0.1191 0.0000 28.0344
#
#
#
# Elastic Compliance Matrix: (Units=1/GPa)
#
#
# Indices 1 2 3 4 5 6 
#
# 1 0.011900 -0.003974 -0.003535 0.000000 -0.001603 0.000000
# 2 -0.003974 0.017270 -0.004200 0.000000 0.001520 0.000000
# 3 -0.003535 -0.004200 0.012132 0.000000 -0.000912 0.000000
# 4 0.000000 0.000000 0.000000 0.042368 0.000000 0.000180
# 5 -0.001603 0.001520 -0.000912 0.000000 0.024445 0.000000
# 6 0.000000 0.000000 0.000000 0.000180 0.000000 0.035671
#
#
# Mechanical properties :
#
#
# Convention : Reuss Voigt Hill
#
# Bulk Modulus (GPa) = 55.91399 58.63673 57.27536
# Shear Modulus (GPa) = 28.87413 30.42509 29.64961
#
# Velocity S-wave (km/s) = 3.78000 3.88019 3.83042
# Velocity P-wave (km/s) = 6.83522 7.00649 6.92138
#
# Compressibility (1/GPa) = 0.01788461
#
# Stress axis : x y z
#
# Youngs Moduli (GPa) = 84.03343 57.90413 82.42557
#
# Poissons Ratio (x) = 0.23008 0.29140
# Poissons Ratio (y) = 0.33391 0.34618
# Poissons Ratio (z) = 0.29708 0.24319
#
# Static dielectric constant tensor:
#      x y z
#    x 3.872870 0.000000 0.091640 
#    y 0.000000 3.282850 0.000000 
#    z 0.091640 0.000000 3.857650 
# 
# 
# High freq. dielectric constant tensor:
#      x y z
#    x 1.804790 0.000000 0.002850 
#    y 0.000000 1.772180 0.000000 
#    z 0.002850 0.000000 1.802460 
# 
# From -- ./inp_files/28826.got.cif
#   From: 2010.06.25/outbox.cif.g09.slc.cpg/sg12_15_cif.got.tgz:28826.got - 2010.06.28 00:19:55.
