data_PCOD8111010
_publ_section_title
;
Structure prediction by ZEFSAII (Michael W. Deem and Ramdas Pophale) SiO2 
 PCOD8111010
Probable space group: C 2/M
;
_chemical_formula_sum "Si O2"
_cell_formula_units_Z 48
_cell_length_a 9.040967
_cell_length_b 26.955488
_cell_length_c 14.481563
_cell_angle_alpha 90.000000
_cell_angle_beta 40.372862
_cell_angle_gamma 90.000000
_cell_volume 2286.078094
_symmetry_space_group_name_H-M "C 2/M"
_symmetry_group_IT_number 12
_symmetry_cell_setting 'monoclinic'
loop_
_space_group_symop_operation_xyz
x,y,z
-x,y,-z
-x,-y,-z
x,-y,z
1/2+x,1/2+y,z
1/2-x,1/2+y,-z
1/2-x,1/2-y,-z
1/2+x,1/2-y,z
loop_
_atom_site_type_symbol
_atom_site_label
_atom_site_fract_x
_atom_site_fract_y
_atom_site_fract_z
Si Si1 0.732575 0.618698 0.139359
Si Si2 0.485507 0.557105 0.404450
Si Si3 0.990849 0.400731 0.401442
Si Si4 0.370932 0.193812 0.358212
Si Si5 0.962833 0.943581 0.124860
Si Si6 0.087226 0.209090 0.314067
O O1 0.672880 0.585733 0.256324
O O2 0.621451 0.595801 0.101158
O O3 0.636868 0.674164 0.202436
O O4 0.000000 0.620422 0.000000
O O5 0.500000 0.579659 0.500000
O O6 0.556039 0.500000 0.369095
O O7 0.230446 0.564273 0.489578
O O8 0.985510 0.359280 0.323451
O O9 0.000000 0.376412 0.500000
O O10 0.202098 0.436006 0.278362
O O11 0.292161 0.202234 0.290276
O O12 0.564711 0.234348 0.290769
O O13 0.154947 0.194433 0.528381
O O14 0.031544 0.000000 0.118979
O O15 0.000000 0.933981 0.000000
#
# Coordination Sequence:
#
# PCOD8111010 Si02
#       6
#     8   8   8   8   8   8
#     4  12  26  45  67  96 142 182 225 277 348 415
#     4  11  24  41  67 100 131 173 230 285 338 401
#     4  12  23  41  70  99 134 173 226 289 344 394
#     4  10  22  38  71  96 133 168 222 287 334 402
#     4  11  27  46  67  97 135 183 232 277 340 410
#     4  10  22  41  64 102 129 171 228 273 340 402
#
# _framework density 20.996659000000001
#
# number of rings (size 3 to 8) (size 9 to 14) (size 15 to 20)
#    0.000    1.000    3.333    2.000   11.667    2.000 
#    0.000    1.667    0.000    0.000    0.000    0.000 
#    0.000    0.000    0.000    0.000    0.000    0.000 
#
# Total GULP energy -297664.601374 kJ/mol
# GULP energy per Si atom -12402.691724 kJ/mol
# Density = 2.094887 g / cm^3
# Si number density = 20.996659 Si / 1000 Ang^3
#
#
#
# Elastic Constant Matrix: (Units=GPa)
#
#
# Indices 1 2 3 4 5 6 
#
# 1 115.3718 41.4634 37.7485 0.0000 10.9813 0.0000
# 2 41.4634 92.0968 51.0706 0.0000 5.2095 0.0000
# 3 37.7485 51.0706 103.6443 0.0000 0.7839 0.0000
# 4 0.0000 0.0000 0.0000 17.7035 0.0000 6.0904
# 5 10.9813 5.2095 0.7839 0.0000 31.1335 0.0000
# 6 0.0000 0.0000 0.0000 6.0904 0.0000 -52.1099
#
#
#
# Elastic Compliance Matrix: (Units=1/GPa)
#
#
# Indices 1 2 3 4 5 6 
#
# 1 0.010970 -0.003515 -0.002239 0.000000 -0.003225 0.000000
# 2 -0.003515 0.016235 -0.006710 0.000000 -0.001308 0.000000
# 3 -0.002239 -0.006710 0.013758 0.000000 0.001566 0.000000
# 4 0.000000 0.000000 0.000000 0.054303 0.000000 0.006347
# 5 -0.003225 -0.001308 0.001566 0.000000 0.033437 0.000000
# 6 0.000000 0.000000 0.000000 0.006347 0.000000 -0.018448
#
#
# Mechanical properties :
#
#
# Convention : Reuss Voigt Hill
#
# Bulk Modulus (GPa) = 62.35898 63.51975 62.93936
# Shear Modulus (GPa) = 35.57994 11.40079 23.49037
#
# Velocity S-wave (km/s) = 4.12096 2.33272 3.34843
# Velocity P-wave (km/s) = 7.23927 6.12972 6.70748
#
# Compressibility (1/GPa) = 0.01603618
#
# Stress axis : x y z
#
# Youngs Moduli (GPa) = 91.15392 61.59350 72.68286
#
# Poissons Ratio (x) = 0.21650 0.16275
# Poissons Ratio (y) = 0.32040 0.48770
# Poissons Ratio (z) = 0.20411 0.41329
#
# Static dielectric constant tensor:
#      x y z
#    x 4.004290 0.000000 0.136510 
#    y 0.000000 3.870630 0.000000 
#    z 0.136510 0.000000 3.664570 
# 
# 
# High freq. dielectric constant tensor:
#      x y z
#    x 1.831530 0.000000 0.004260 
#    y 0.000000 1.829310 0.000000 
#    z 0.004260 0.000000 1.806110 
# 
# From -- ./inp_files/200768.got.cif
#   From: 2010.06.25/outbox.cif.g09.slc.cpg/sg12_101_cif.got.tgz:200768.got - 2010.06.28 00:19:55.
