data_PCOD8111124
_publ_section_title
;
Structure prediction by ZEFSAII (Michael W. Deem and Ramdas Pophale) SiO2 
 PCOD8111124
Probable space group: C 2/M
;
_chemical_formula_sum "Si O2"
_cell_formula_units_Z 40
_cell_length_a 21.253480
_cell_length_b 8.755752
_cell_length_c 10.452317
_cell_angle_alpha 90.000000
_cell_angle_beta 98.830182
_cell_angle_gamma 90.000000
_cell_volume 1922.020076
_symmetry_space_group_name_H-M "C 2/M"
_symmetry_group_IT_number 12
_symmetry_cell_setting 'monoclinic'
loop_
_space_group_symop_operation_xyz
x,y,z
-x,y,-z
-x,-y,-z
x,-y,z
1/2+x,1/2+y,z
1/2-x,1/2+y,-z
1/2-x,1/2-y,-z
1/2+x,1/2-y,z
loop_
_atom_site_type_symbol
_atom_site_label
_atom_site_fract_x
_atom_site_fract_y
_atom_site_fract_z
Si Si1 0.930295 0.819950 0.028523
Si Si2 0.798331 0.319639 0.912637
Si Si3 0.418611 0.179535 0.566373
Si Si4 0.211090 0.678667 0.374037
Si Si5 0.552320 0.180276 0.700830
O O1 0.920192 0.774756 0.172712
O O2 0.925256 0.000000 0.009243
O O3 0.870423 0.744487 0.937174
O O4 0.000000 0.761041 0.000000
O O5 0.802338 0.500000 0.935553
O O6 0.767946 0.279401 0.763690
O O7 0.750000 0.250000 0.000000
O O8 0.360619 0.240520 0.632062
O O9 0.482016 0.246881 0.649637
O O10 0.407171 0.222138 0.413444
O O11 0.428434 0.000000 0.575095
O O12 0.213049 0.500000 0.397719
O O13 0.250000 0.750000 0.500000
O O14 0.554400 0.000000 0.733865
#
# Coordination Sequence:
#
# PCOD8111124 Si02
#       5
#     8   8   8   8   8
#     4  11  24  40  60  89 127 165 208 260 315 372
#     4  11  25  44  66  93 128 169 214 261 313 377
#     4   8  16  33  57  86 117 148 195 249 302 363
#     4  10  22  39  60  87 119 158 203 250 302 367
#     4   9  17  33  60  88 114 151 197 250 307 368
#
# _framework density 20.811437000000002
#
# number of rings (size 3 to 8) (size 9 to 14) (size 15 to 20)
#    0.000    2.200    0.000    3.600    2.800    4.800 
#    0.000    3.000    0.000    0.000    0.000    0.000 
#    0.000    0.000    0.000    0.000    0.000    0.000 
#
# Total GULP energy -247846.404891 kJ/mol
# GULP energy per Si atom -12392.320245 kJ/mol
# Density = 2.076407 g / cm^3
# Si number density = 20.811437 Si / 1000 Ang^3
#
#
#
# Elastic Constant Matrix: (Units=GPa)
#
#
# Indices 1 2 3 4 5 6 
#
# 1 109.7225 40.9677 49.0799 0.0000 -10.6876 0.0000
# 2 40.9677 65.9689 44.7871 0.0000 -2.3284 0.0000
# 3 49.0799 44.7871 141.8899 0.0000 -3.0595 0.0000
# 4 0.0000 0.0000 0.0000 34.1062 0.0000 2.3726
# 5 -10.6876 -2.3284 -3.0595 0.0000 32.9132 0.0000
# 6 0.0000 0.0000 0.0000 2.3726 0.0000 29.7512
#
#
#
# Elastic Compliance Matrix: (Units=1/GPa)
#
#
# Indices 1 2 3 4 5 6 
#
# 1 0.012857 -0.006227 -0.002406 0.000000 0.003511 0.000000
# 2 -0.006227 0.022330 -0.004914 0.000000 -0.000899 0.000000
# 3 -0.002406 -0.004914 0.009426 0.000000 -0.000253 0.000000
# 4 0.000000 0.000000 0.000000 0.029484 0.000000 -0.002351
# 5 0.003511 -0.000899 -0.000253 0.000000 0.031436 0.000000
# 6 0.000000 0.000000 0.000000 -0.002351 0.000000 0.033800
#
#
# Mechanical properties :
#
#
# Convention : Reuss Voigt Hill
#
# Bulk Modulus (GPa) = 57.08134 65.25007 61.16570
# Shear Modulus (GPa) = 29.02494 31.53722 30.28108
#
# Velocity S-wave (km/s) = 3.73857 3.89701 3.81861
# Velocity P-wave (km/s) = 6.79141 7.18818 6.99261
#
# Compressibility (1/GPa) = 0.01751886
#
# Stress axis : x y z
#
# Youngs Moduli (GPa) = 77.77772 44.78259 106.09444
#
# Poissons Ratio (x) = 0.27886 0.25527
# Poissons Ratio (y) = 0.48433 0.52133
# Poissons Ratio (z) = 0.18714 0.22006
#
# Static dielectric constant tensor:
#      x y z
#    x 3.997030 0.000000 -0.100040 
#    y 0.000000 3.441630 0.000000 
#    z -0.100040 0.000000 3.888510 
# 
# 
# High freq. dielectric constant tensor:
#      x y z
#    x 1.818020 0.000000 -0.006170 
#    y 0.000000 1.785120 0.000000 
#    z -0.006170 0.000000 1.830800 
# 
# From -- ./inp_files/162723.got.cif
#   From: 2010.06.25/outbox.cif.g09.slc.cpg/sg12_82_cif.got.tgz:162723.got - 2010.06.28 00:19:55.
