data_PCOD8111684
_publ_section_title
;
Structure prediction by ZEFSAII (Michael W. Deem and Ramdas Pophale) SiO2 
 PCOD8111684
Probable space group: C 2/M
;
_chemical_formula_sum "Si O2"
_cell_formula_units_Z 40
_cell_length_a 26.654434
_cell_length_b 7.719901
_cell_length_c 9.691678
_cell_angle_alpha 90.000000
_cell_angle_beta 105.811144
_cell_angle_gamma 90.000000
_cell_volume 1918.800111
_symmetry_space_group_name_H-M "C 2/M"
_symmetry_group_IT_number 12
_symmetry_cell_setting 'monoclinic'
loop_
_space_group_symop_operation_xyz
x,y,z
-x,y,-z
-x,-y,-z
x,-y,z
1/2+x,1/2+y,z
1/2-x,1/2+y,-z
1/2-x,1/2-y,-z
1/2+x,1/2-y,z
loop_
_atom_site_type_symbol
_atom_site_label
_atom_site_fract_x
_atom_site_fract_y
_atom_site_fract_z
Si Si1 0.949580 0.699626 0.372883
Si Si2 0.161842 0.697017 0.596277
Si Si3 0.252736 0.192183 0.845341
Si Si4 0.157398 0.705915 0.280615
Si Si5 0.921875 0.000000 0.843774
Si Si6 0.036265 0.000000 0.823696
O O1 0.951219 0.500000 0.323208
O O2 0.899112 0.737019 0.428752
O O3 0.946976 0.824870 0.240651
O O4 0.000000 0.746418 0.500000
O O5 0.174799 0.500000 0.640851
O O6 0.196558 0.803259 0.730307
O O7 0.176858 0.742836 0.450885
O O8 0.297475 0.283170 0.786350
O O9 0.273333 0.000000 0.865620
O O10 0.250000 0.250000 0.000000
O O11 0.144181 0.500000 0.253817
O O12 0.106807 0.821249 0.215186
O O13 0.974703 0.000000 0.797385
O O14 0.931635 0.000000 0.012743
#
# Coordination Sequence:
#
# PCOD8111684 Si02
#       6
#     8   8   8   8   4   4
#     4  10  22  40  66  95 130 169 216 268 320 380
#     4  10  22  40  65  94 126 168 213 265 320 379
#     4  11  25  40  63  94 128 169 212 263 325 383
#     4  10  24  44  65  92 128 170 217 262 320 387
#     4  11  26  42  68  92 130 179 209 271 325 374
#     4  11  25  42  62 100 131 166 225 264 324 382
#
# _framework density 20.846360000000001
#
# number of rings (size 3 to 8) (size 9 to 14) (size 15 to 20)
#    0.000    1.600    0.000    2.700    8.400    3.200 
#    0.000    2.000    0.000    0.000    0.000    0.000 
#    0.000    0.000    0.000    0.000    0.000    0.000 
#
# Total GULP energy -247974.789738 kJ/mol
# GULP energy per Si atom -12398.739487 kJ/mol
# Density = 2.079891 g / cm^3
# Si number density = 20.846360 Si / 1000 Ang^3
#
#
#
# Elastic Constant Matrix: (Units=GPa)
#
#
# Indices 1 2 3 4 5 6 
#
# 1 83.3978 32.5435 70.6472 0.0000 -3.2501 0.0000
# 2 32.5435 89.4150 50.1302 0.0000 -3.5552 0.0000
# 3 70.6472 50.1302 146.7817 0.0000 -14.9992 0.0000
# 4 0.0000 0.0000 0.0000 32.5581 0.0000 1.3188
# 5 -3.2501 -3.5552 -14.9992 0.0000 38.0813 0.0000
# 6 0.0000 0.0000 0.0000 1.3188 0.0000 29.5365
#
#
#
# Elastic Compliance Matrix: (Units=1/GPa)
#
#
# Indices 1 2 3 4 5 6 
#
# 1 0.020824 -0.002377 -0.009431 0.000000 -0.002159 0.000000
# 2 -0.002377 0.014117 -0.003713 0.000000 -0.000347 0.000000
# 3 -0.009431 -0.003713 0.013027 0.000000 0.003979 0.000000
# 4 0.000000 0.000000 0.000000 0.030770 0.000000 -0.001374
# 5 -0.002159 -0.000347 0.003979 0.000000 0.027610 0.000000
# 6 0.000000 0.000000 0.000000 -0.001374 0.000000 0.033918
#
#
# Mechanical properties :
#
#
# Convention : Reuss Voigt Hill
#
# Bulk Modulus (GPa) = 59.08471 69.58180 64.33326
# Shear Modulus (GPa) = 28.25676 31.12008 29.68842
#
# Velocity S-wave (km/s) = 3.68567 3.86791 3.77789
# Velocity P-wave (km/s) = 6.82032 7.30743 7.06807
#
# Compressibility (1/GPa) = 0.01692485
#
# Stress axis : x y z
#
# Youngs Moduli (GPa) = 48.02251 70.83839 76.76478
#
# Poissons Ratio (x) = 0.16839 0.72399
# Poissons Ratio (y) = 0.11416 0.28500
# Poissons Ratio (z) = 0.45292 0.26299
#
# Static dielectric constant tensor:
#      x y z
#    x 3.635370 0.000000 -0.063440 
#    y 0.000000 3.958240 0.000000 
#    z -0.063440 0.000000 3.692110 
# 
# 
# High freq. dielectric constant tensor:
#      x y z
#    x 1.827690 0.000000 -0.007900 
#    y 0.000000 1.822090 0.000000 
#    z -0.007900 0.000000 1.819130 
# 
# From -- ./inp_files/93052.got.cif
#   From: 2010.06.25/outbox.cif.g09.slc.cpg/sg12_47_cif.got.tgz:93052.got - 2010.06.28 00:19:55.
