data_PCOD8111986
_publ_section_title
;
Structure prediction by ZEFSAII (Michael W. Deem and Ramdas Pophale) SiO2 
 PCOD8111986
Probable space group: C 2/M
;
_chemical_formula_sum "Si O2"
_cell_formula_units_Z 48
_cell_length_a 24.760360
_cell_length_b 21.282002
_cell_length_c 12.893439
_cell_angle_alpha 90.000000
_cell_angle_beta 159.913988
_cell_angle_gamma 90.000000
_cell_volume 2333.334280
_symmetry_space_group_name_H-M "C 2/M"
_symmetry_group_IT_number 12
_symmetry_cell_setting 'monoclinic'
loop_
_space_group_symop_operation_xyz
x,y,z
-x,y,-z
-x,-y,-z
x,-y,z
1/2+x,1/2+y,z
1/2-x,1/2+y,-z
1/2-x,1/2-y,-z
1/2+x,1/2-y,z
loop_
_atom_site_type_symbol
_atom_site_label
_atom_site_fract_x
_atom_site_fract_y
_atom_site_fract_z
Si Si1 0.954788 0.359024 0.218959
Si Si2 0.121070 0.573051 0.125081
Si Si3 0.095461 0.770835 0.774742
Si Si4 0.045048 0.927314 0.191512
Si Si5 0.205939 0.891522 0.093608
Si Si6 0.323141 0.568544 0.173625
O O1 0.972556 0.284744 0.274385
O O2 0.115775 0.388710 0.547594
O O3 0.935405 0.378293 0.064555
O O4 0.800871 0.383886 0.000955
O O5 0.127577 0.500000 0.097675
O O6 0.291808 0.599154 0.468117
O O7 0.000000 0.579031 0.000000
O O8 0.000000 0.789914 0.500000
O O9 0.250000 0.750000 0.000000
O O10 0.127062 0.827706 0.909807
O O11 0.076708 0.000000 0.228364
O O12 0.000000 0.895043 0.000000
O O13 0.900400 0.917622 0.006797
O O14 0.213007 0.940734 0.012708
O O15 0.500000 0.595875 0.500000
O O16 0.311640 0.500000 0.207573
#
# Coordination Sequence:
#
# PCOD8111986 Si02
#       6
#     8   8   8   8   8   8
#     4  12  24  39  61  91 121 160 207 252 309 368
#     4  10  22  41  65  92 125 164 204 252 308 366
#     4  12  24  43  63  89 124 167 211 254 307 368
#     4  10  22  41  65  93 125 163 204 250 309 369
#     4  12  24  38  62  90 122 161 205 254 308 367
#     4  11  23  37  56  86 122 158 200 251 308 368
#
# _framework density 20.571418999999999
#
# number of rings (size 3 to 8) (size 9 to 14) (size 15 to 20)
#    0.000    0.833    3.333    4.000    2.333    7.333 
#    0.000    0.833    0.000    4.000    0.000    0.000 
#    0.000    0.000    0.000    0.000    0.000    0.000 
#
# Total GULP energy -297401.723494 kJ/mol
# GULP energy per Si atom -12391.738479 kJ/mol
# Density = 2.052460 g / cm^3
# Si number density = 20.571419 Si / 1000 Ang^3
#
#
#
# Elastic Constant Matrix: (Units=GPa)
#
#
# Indices 1 2 3 4 5 6 
#
# 1 101.9941 7.7364 33.2834 0.0000 -9.9095 0.0000
# 2 7.7364 67.3612 16.0189 0.0000 -10.3908 0.0000
# 3 33.2834 16.0189 168.3059 0.0000 -5.6682 0.0000
# 4 0.0000 0.0000 0.0000 24.2774 0.0000 -0.5060
# 5 -9.9095 -10.3908 -5.6682 0.0000 46.8735 0.0000
# 6 0.0000 0.0000 0.0000 -0.5060 0.0000 27.3950
#
#
#
# Elastic Compliance Matrix: (Units=1/GPa)
#
#
# Indices 1 2 3 4 5 6 
#
# 1 0.010679 -0.000455 -0.002004 0.000000 0.001915 0.000000
# 2 -0.000455 0.015704 -0.001296 0.000000 0.003228 0.000000
# 3 -0.002004 -0.001296 0.006464 0.000000 0.000071 0.000000
# 4 0.000000 0.000000 0.000000 0.041206 0.000000 0.000761
# 5 0.001915 0.003228 0.000071 0.000000 0.022463 0.000000
# 6 0.000000 0.000000 0.000000 0.000761 0.000000 0.036517
#
#
# Mechanical properties :
#
#
# Convention : Reuss Voigt Hill
#
# Bulk Modulus (GPa) = 39.46802 50.19319 44.83060
# Shear Modulus (GPa) = 33.55980 38.41734 35.98857
#
# Velocity S-wave (km/s) = 4.04342 4.32616 4.18717
# Velocity P-wave (km/s) = 6.40519 7.02899 6.72433
#
# Compressibility (1/GPa) = 0.02533697
#
# Stress axis : x y z
#
# Youngs Moduli (GPa) = 93.64202 63.67907 154.71222
#
# Poissons Ratio (x) = 0.02895 0.31006
# Poissons Ratio (y) = 0.04257 0.20051
# Poissons Ratio (z) = 0.18767 0.08253
#
# Static dielectric constant tensor:
#      x y z
#    x 3.728820 0.000000 -0.092670 
#    y 0.000000 3.713030 0.000000 
#    z -0.092670 0.000000 4.027710 
# 
# 
# High freq. dielectric constant tensor:
#      x y z
#    x 1.802090 0.000000 0.000430 
#    y 0.000000 1.792070 0.000000 
#    z 0.000430 0.000000 1.831740 
# 
# From -- ./inp_files/178608.got.cif
#   From: 2010.06.25/outbox.cif.g09.slc.cpg/sg12_90_cif.got.tgz:178608.got - 2010.06.28 00:19:55.
