data_PCOD8111952
_publ_section_title
;
Structure prediction by ZEFSAII (Michael W. Deem and Ramdas Pophale) SiO2 
 PCOD8111952
Probable space group: C 2/M
;
_chemical_formula_sum "Si O2"
_cell_formula_units_Z 40
_cell_length_a 9.882275
_cell_length_b 19.890289
_cell_length_c 10.876414
_cell_angle_alpha 90.000000
_cell_angle_beta 102.372081
_cell_angle_gamma 90.000000
_cell_volume 2088.233669
_symmetry_space_group_name_H-M "C 2/M"
_symmetry_group_IT_number 12
_symmetry_cell_setting 'monoclinic'
loop_
_space_group_symop_operation_xyz
x,y,z
-x,y,-z
-x,-y,-z
x,-y,z
1/2+x,1/2+y,z
1/2-x,1/2+y,-z
1/2-x,1/2-y,-z
1/2+x,1/2-y,z
loop_
_atom_site_type_symbol
_atom_site_label
_atom_site_fract_x
_atom_site_fract_y
_atom_site_fract_z
Si Si1 0.227076 0.123665 0.253822
Si Si2 0.417963 0.371448 0.276199
Si Si3 0.861457 0.740655 0.417437
Si Si4 0.851004 0.500000 0.409946
Si Si5 0.644683 0.500000 0.594253
Si Si6 0.345308 0.684792 0.006454
O O1 0.296819 0.194061 0.301267
O O2 0.209474 0.129938 0.103275
O O3 0.079862 0.112205 0.290670
O O4 0.327153 0.063776 0.316095
O O5 0.404469 0.311239 0.368752
O O6 0.338268 0.435029 0.316358
O O7 0.344047 0.354234 0.134358
O O8 0.750000 0.750000 0.500000
O O9 0.000000 0.706682 0.500000
O O10 0.756075 0.500000 0.509948
O O11 0.000000 0.500000 0.500000
O O12 0.500000 0.500000 0.500000
O O13 0.500000 0.709193 0.000000
O O14 0.250000 0.750000 0.000000
#
# Coordination Sequence:
#
# PCOD8111952 Si02
#       6
#     8   8   8   4   4   8
#     4  11  22  41  65  90 127 167 207 265 308 374
#     4  11  22  40  65  94 122 166 216 253 315 373
#     4  12  22  34  58  89 123 160 210 256 308 367
#     4  12  26  45  63  95 133 162 208 263 325 374
#     4  12  22  43  69  85 131 168 202 262 311 388
#     4  10  22  41  64  94 126 164 213 264 310 365
#
# _framework density 19.154945999999999
#
# number of rings (size 3 to 8) (size 9 to 14) (size 15 to 20)
#    0.000    0.800    6.000    2.400    0.000    0.800 
#    3.600    3.000    0.000    1.200    0.000    0.000 
#    0.000    0.000    0.000    0.000    0.000    0.000 
#
# Total GULP energy -248040.331385 kJ/mol
# GULP energy per Si atom -12402.016569 kJ/mol
# Density = 1.911135 g / cm^3
# Si number density = 19.154946 Si / 1000 Ang^3
#
#
#
# Elastic Constant Matrix: (Units=GPa)
#
#
# Indices 1 2 3 4 5 6 
#
# 1 95.8172 22.8820 52.7175 0.0000 9.7521 0.0000
# 2 22.8820 106.4117 50.0624 0.0000 6.7964 0.0000
# 3 52.7175 50.0624 140.7113 0.0000 6.3285 0.0000
# 4 0.0000 0.0000 0.0000 37.3337 0.0000 4.4725
# 5 9.7521 6.7964 6.3285 0.0000 31.7369 0.0000
# 6 0.0000 0.0000 0.0000 4.4725 0.0000 27.8672
#
#
#
# Elastic Compliance Matrix: (Units=1/GPa)
#
#
# Indices 1 2 3 4 5 6 
#
# 1 0.013472 -0.000469 -0.004741 0.000000 -0.003094 0.000000
# 2 -0.000469 0.011387 -0.003807 0.000000 -0.001535 0.000000
# 3 -0.004741 -0.003807 0.010227 0.000000 0.000233 0.000000
# 4 0.000000 0.000000 0.000000 0.027311 0.000000 -0.004383
# 5 -0.003094 -0.001535 0.000233 0.000000 0.032742 0.000000
# 6 0.000000 0.000000 0.000000 -0.004383 0.000000 0.036588
#
#
# Mechanical properties :
#
#
# Convention : Reuss Voigt Hill
#
# Bulk Modulus (GPa) = 58.64190 66.02932 62.33561
# Shear Modulus (GPa) = 32.16579 33.87278 33.01928
#
# Velocity S-wave (km/s) = 4.10230 4.20975 4.15637
# Velocity P-wave (km/s) = 7.28831 7.62727 7.45972
#
# Compressibility (1/GPa) = 0.01705265
#
# Stress axis : x y z
#
# Youngs Moduli (GPa) = 74.22799 87.81780 97.78046
#
# Poissons Ratio (x) = 0.04116 0.46362
# Poissons Ratio (y) = 0.03479 0.37222
# Poissons Ratio (z) = 0.35194 0.33430
#
# Static dielectric constant tensor:
#      x y z
#    x 3.130940 0.000000 -0.171610 
#    y 0.000000 3.239140 0.000000 
#    z -0.171610 0.000000 3.549830 
# 
# 
# High freq. dielectric constant tensor:
#      x y z
#    x 1.742310 0.000000 0.003050 
#    y 0.000000 1.742350 0.000000 
#    z 0.003050 0.000000 1.765360 
# 
# From -- ./inp_files/118989.got.cif
#   From: 2010.06.25/outbox.cif.g09.slc.cpg/sg12_60_cif.got.tgz:118989.got - 2010.06.28 00:19:55.
