data_PCOD8111763
_publ_section_title
;
Structure prediction by ZEFSAII (Michael W. Deem and Ramdas Pophale) SiO2 
 PCOD8111763
Probable space group: C 2/M
;
_chemical_formula_sum "Si O2"
_cell_formula_units_Z 48
_cell_length_a 8.251364
_cell_length_b 18.293222
_cell_length_c 18.018583
_cell_angle_alpha 90.000000
_cell_angle_beta 65.754210
_cell_angle_gamma 90.000000
_cell_volume 2479.890287
_symmetry_space_group_name_H-M "C 2/M"
_symmetry_group_IT_number 12
_symmetry_cell_setting 'monoclinic'
loop_
_space_group_symop_operation_xyz
x,y,z
-x,y,-z
-x,-y,-z
x,-y,z
1/2+x,1/2+y,z
1/2-x,1/2+y,-z
1/2-x,1/2-y,-z
1/2+x,1/2-y,z
loop_
_atom_site_type_symbol
_atom_site_label
_atom_site_fract_x
_atom_site_fract_y
_atom_site_fract_z
Si Si1 0.946101 0.812889 0.666662
Si Si2 0.338481 0.916689 0.231986
Si Si3 0.630348 0.200848 0.187129
Si Si4 0.310165 0.083302 0.063203
Si Si5 0.678584 0.788622 0.441339
Si Si6 0.978291 0.802159 0.919937
O O1 0.837339 0.887982 0.693434
O O2 0.907909 0.761992 0.744426
O O3 0.882077 0.772652 0.605127
O O4 0.156755 0.834626 0.623768
O O5 0.507926 0.869287 0.224955
O O6 0.301618 0.908599 0.152467
O O7 0.374524 0.000000 0.248803
O O8 0.598555 0.234115 0.111540
O O9 0.834048 0.174624 0.152148
O O10 0.152421 0.128888 0.056101
O O11 0.283934 0.000000 0.041781
O O12 0.500000 0.112978 0.000000
O O13 0.500000 0.834432 0.500000
O O14 0.750000 0.750000 0.500000
O O15 0.000000 0.774686 0.000000
#
# Coordination Sequence:
#
# PCOD8111763 Si02
#       6
#     8   8   8   8   8   8
#     4  11  18  37  61  88 121 150 192 247 283 355
#     4  11  23  39  60  87 123 165 200 245 310 355
#     4  12  22  37  58  88 118 154 203 253 295 344
#     4  10  22  41  58  79 120 166 208 253 306 360
#     4   9  19  33  61  97 116 145 191 240 292 351
#     4  12  23  35  57  84 118 155 210 256 306 346
#
# _framework density 19.355695000000001
#
# number of rings (size 3 to 8) (size 9 to 14) (size 15 to 20)
#    0.000    1.167    5.000    1.500    0.000    2.333 
#    0.000    0.000    0.000    5.000    0.000    0.000 
#    0.000    0.000    0.000    0.000    0.000    0.000 
#
# Total GULP energy -297531.278963 kJ/mol
# GULP energy per Si atom -12397.136623 kJ/mol
# Density = 1.931164 g / cm^3
# Si number density = 19.355695 Si / 1000 Ang^3
#
#
#
# Elastic Constant Matrix: (Units=GPa)
#
#
# Indices 1 2 3 4 5 6 
#
# 1 125.3285 47.0314 48.9190 0.0000 -40.2887 0.0000
# 2 47.0314 96.6957 27.5363 0.0000 -16.1569 0.0000
# 3 48.9190 27.5363 92.6011 0.0000 -24.2418 0.0000
# 4 0.0000 0.0000 0.0000 -28.7362 0.0000 -121.5367
# 5 -40.2887 -16.1569 -24.2418 0.0000 60.4964 0.0000
# 6 0.0000 0.0000 0.0000 -121.5367 0.0000 -324.5745
#
#
#
# Elastic Compliance Matrix: (Units=1/GPa)
#
#
# Indices 1 2 3 4 5 6 
#
# 1 0.013061 -0.004194 -0.004099 0.000000 0.005936 0.000000
# 2 -0.004194 0.012837 -0.001604 0.000000 -0.000007 0.000000
# 3 -0.004099 -0.001604 0.014093 0.000000 0.002489 0.000000
# 4 0.000000 0.000000 0.000000 0.059619 0.000000 -0.022324
# 5 0.005936 -0.000007 0.002489 0.000000 0.021478 0.000000
# 6 0.000000 0.000000 0.000000 -0.022324 0.000000 0.005278
#
#
# Mechanical properties :
#
#
# Convention : Reuss Voigt Hill
#
# Bulk Modulus (GPa) = 49.50901 62.39984 55.95442
# Shear Modulus (GPa) = 32.70303 -45.82027 -6.55862
#
# Velocity S-wave (km/s) = 4.11491 -4.87074 -1.84278
# Velocity P-wave (km/s) = 6.94339 0.82236 4.94404
#
# Compressibility (1/GPa) = 0.02019834
#
# Stress axis : x y z
#
# Youngs Moduli (GPa) = 76.56590 77.90033 70.95803
#
# Poissons Ratio (x) = 0.32668 0.29084
# Poissons Ratio (y) = 0.32108 0.11380
# Poissons Ratio (z) = 0.31383 0.12493
#
# Static dielectric constant tensor:
#      x y z
#    x 4.047360 0.000000 -0.384570 
#    y 0.000000 3.312650 0.000000 
#    z -0.384570 0.000000 4.056220 
# 
# 
# High freq. dielectric constant tensor:
#      x y z
#    x 1.773830 0.000000 -0.013070 
#    y 0.000000 1.709710 0.000000 
#    z -0.013070 0.000000 1.769330 
# 
# From -- ./inp_files/195966.got.cif
#   From: 2010.06.25/outbox.cif.g09.slc.cpg/sg12_98_cif.got.tgz:195966.got - 2010.06.28 00:19:55.
