data_PCOD8111943
_publ_section_title
;
Structure prediction by ZEFSAII (Michael W. Deem and Ramdas Pophale) SiO2 
 PCOD8111943
Probable space group: C 2/M
;
_chemical_formula_sum "Si O2"
_cell_formula_units_Z 32
_cell_length_a 17.657047
_cell_length_b 16.815570
_cell_length_c 8.060722
_cell_angle_alpha 90.000000
_cell_angle_beta 143.358029
_cell_angle_gamma 90.000000
_cell_volume 1428.373361
_symmetry_space_group_name_H-M "C 2/M"
_symmetry_group_IT_number 12
_symmetry_cell_setting 'monoclinic'
loop_
_space_group_symop_operation_xyz
x,y,z
-x,y,-z
-x,-y,-z
x,-y,z
1/2+x,1/2+y,z
1/2-x,1/2+y,-z
1/2-x,1/2-y,-z
1/2+x,1/2-y,z
loop_
_atom_site_type_symbol
_atom_site_label
_atom_site_fract_x
_atom_site_fract_y
_atom_site_fract_z
Si Si1 0.169888 0.864855 0.320260
Si Si2 0.316214 0.000000 0.144148
Si Si3 0.500000 0.860650 0.500000
Si Si4 0.072092 0.290006 0.288204
Si Si5 0.427572 0.500000 0.083934
Si Si6 0.715079 0.500000 0.624284
O O1 0.078576 0.804734 0.262429
O O2 0.283067 0.818138 0.426291
O O3 0.087368 0.920517 0.052965
O O4 0.247285 0.920998 0.580362
O O5 0.381120 0.080795 0.320850
O O6 0.171880 0.000000 0.944687
O O7 0.316255 0.000000 0.947600
O O8 0.493257 0.806468 0.320855
O O9 0.000000 0.328299 0.000000
O O10 0.565672 0.500000 0.409079
#
# Coordination Sequence:
#
# PCOD8111943 Si02
#       6
#     8   4   4   8   4   4
#     4  10  22  41  64  93 127 165 216 256 318 378
#     4  11  23  41  62  99 124 165 215 259 317 371
#     4  11  24  44  66  93 134 160 214 269 308 378
#     4  11  22  42  66  94 127 170 209 261 321 374
#     4  11  20  42  65  91 129 165 210 261 313 376
#     4  11  22  39  65  92 125 171 211 259 315 376
#
# _framework density 22.403106000000001
#
# number of rings (size 3 to 8) (size 9 to 14) (size 15 to 20)
#    0.000    1.250    2.500    4.875    0.000    0.000 
#    9.000    7.500    0.000    0.000    0.000    0.000 
#    0.000    0.000    0.000    0.000    0.000    0.000 
#
# Total GULP energy -198267.257861 kJ/mol
# GULP energy per Si atom -12391.703616 kJ/mol
# Density = 2.235212 g / cm^3
# Si number density = 22.403106 Si / 1000 Ang^3
#
#
#
# Elastic Constant Matrix: (Units=GPa)
#
#
# Indices 1 2 3 4 5 6 
#
# 1 100.0955 33.7791 2.6703 0.0000 -17.4135 0.0000
# 2 33.7791 127.5072 16.3137 0.0000 -4.5623 0.0000
# 3 2.6703 16.3137 68.3461 0.0000 -16.4972 0.0000
# 4 0.0000 0.0000 0.0000 18.8889 0.0000 -21.4533
# 5 -17.4135 -4.5623 -16.4972 0.0000 39.6748 0.0000
# 6 0.0000 0.0000 0.0000 -21.4533 0.0000 19.1073
#
#
#
# Elastic Compliance Matrix: (Units=1/GPa)
#
#
# Indices 1 2 3 4 5 6 
#
# 1 0.011993 -0.003187 0.001639 0.000000 0.005579 0.000000
# 2 -0.003187 0.008937 -0.002332 0.000000 -0.001341 0.000000
# 3 0.001639 -0.002332 0.016932 0.000000 0.007492 0.000000
# 4 0.000000 0.000000 0.000000 -0.192367 0.000000 -0.215985
# 5 0.005579 -0.001341 0.007492 0.000000 0.030614 0.000000
# 6 0.000000 0.000000 0.000000 -0.215985 0.000000 -0.190167
#
#
# Mechanical properties :
#
#
# Convention : Reuss Voigt Hill
#
# Bulk Modulus (GPa) = 33.22154 44.60832 38.91493
# Shear Modulus (GPa) = -16.87698 31.74659 7.43480
#
# Velocity S-wave (km/s) = -2.74767 3.76847 1.82369
# Velocity P-wave (km/s) = 2.18974 6.23619 4.67360
#
# Compressibility (1/GPa) = 0.03010095
#
# Stress axis : x y z
#
# Youngs Moduli (GPa) = 83.38315 111.88825 59.05816
#
# Poissons Ratio (x) = 0.35661 -0.09678
# Poissons Ratio (y) = 0.26576 0.13775
# Poissons Ratio (z) = -0.13664 0.26098
#
# Static dielectric constant tensor:
#      x y z
#    x 3.888280 0.000000 0.049120 
#    y 0.000000 4.179620 0.000000 
#    z 0.049120 0.000000 3.854330 
# 
# 
# High freq. dielectric constant tensor:
#      x y z
#    x 1.872450 0.000000 0.012120 
#    y 0.000000 1.890290 0.000000 
#    z 0.012120 0.000000 1.883120 
# 
# From -- ./inp_files/74838.got.cif
#   From: 2010.06.25/outbox.cif.g09.slc.cpg/sg12_38_cif.got.tgz:74838.got - 2010.06.28 00:19:55.
