data_PCOD8111868
_publ_section_title
;
Structure prediction by ZEFSAII (Michael W. Deem and Ramdas Pophale) SiO2 
 PCOD8111868
Probable space group: C 2/M
;
_chemical_formula_sum "Si O2"
_cell_formula_units_Z 48
_cell_length_a 29.147315
_cell_length_b 8.914094
_cell_length_c 14.482513
_cell_angle_alpha 90.000000
_cell_angle_beta 38.287276
_cell_angle_gamma 90.000000
_cell_volume 2331.494633
_symmetry_space_group_name_H-M "C 2/M"
_symmetry_group_IT_number 12
_symmetry_cell_setting 'monoclinic'
loop_
_space_group_symop_operation_xyz
x,y,z
-x,y,-z
-x,-y,-z
x,-y,z
1/2+x,1/2+y,z
1/2-x,1/2+y,-z
1/2-x,1/2-y,-z
1/2+x,1/2-y,z
loop_
_atom_site_type_symbol
_atom_site_label
_atom_site_fract_x
_atom_site_fract_y
_atom_site_fract_z
Si Si1 0.309225 0.331163 0.678073
Si Si2 0.568089 0.174301 0.960304
Si Si3 0.224044 0.323889 0.634529
Si Si4 0.803051 0.670188 0.986983
Si Si5 0.052256 0.177569 0.181619
Si Si6 0.954811 0.675910 0.480939
O O1 0.341840 0.500000 0.628021
O O2 0.286272 0.281334 0.611624
O O3 0.233095 0.325765 0.855183
O O4 0.368593 0.218439 0.629322
O O5 0.642998 0.234983 0.793583
O O6 0.576656 0.000000 0.973787
O O7 0.500000 0.202100 0.000000
O O8 0.551494 0.265726 0.078648
O O9 0.219317 0.500000 0.626444
O O10 0.250000 0.250000 0.500000
O O11 0.819037 0.500000 0.929602
O O12 0.750000 0.750000 0.000000
O O13 0.879082 0.759789 0.868734
O O14 0.980157 0.236138 0.349311
O O15 0.054043 0.000000 0.178923
O O16 0.963890 0.500000 0.450239
O O17 0.000000 0.728038 0.500000
#
# Coordination Sequence:
#
# PCOD8111868 Si02
#       6
#     8   8   8   8   8   8
#     4  10  22  41  63  89 127 165 202 255 315 374
#     4  10  22  43  68  93 125 167 211 259 318 378
#     4  10  22  41  63  93 127 163 204 255 314 373
#     4  11  22  40  65  93 127 165 208 258 314 375
#     4  12  25  41  64  94 129 168 211 261 317 377
#     4  11  25  43  64  91 125 167 215 264 314 375
#
# _framework density 20.587651999999999
#
# number of rings (size 3 to 8) (size 9 to 14) (size 15 to 20)
#    0.000    1.333    1.667    3.500    2.333    7.000 
#    0.000    0.000    0.000    0.000    0.000    0.000 
#    0.000    0.000    0.000    0.000    0.000    0.000 
#
# Total GULP energy -297731.304232 kJ/mol
# GULP energy per Si atom -12405.471010 kJ/mol
# Density = 2.054079 g / cm^3
# Si number density = 20.587652 Si / 1000 Ang^3
#
#
#
# Elastic Constant Matrix: (Units=GPa)
#
#
# Indices 1 2 3 4 5 6 
#
# 1 89.5869 42.0305 18.8871 0.0001 0.4092 0.0000
# 2 42.0305 105.5347 33.7653 -0.0004 4.3935 0.0001
# 3 18.8871 33.7653 83.8362 0.0000 2.6475 0.0000
# 4 0.0001 -0.0004 0.0000 34.1581 0.0000 2.9031
# 5 0.4092 4.3935 2.6475 0.0000 38.0566 0.0000
# 6 0.0000 0.0001 0.0000 2.9031 0.0000 35.4208
#
#
#
# Elastic Compliance Matrix: (Units=1/GPa)
#
#
# Indices 1 2 3 4 5 6 
#
# 1 0.013814 -0.005191 -0.001038 0.000000 0.000523 0.000000
# 2 -0.005191 0.012863 -0.003975 0.000000 -0.001153 0.000000
# 3 -0.001038 -0.003975 0.013778 0.000000 -0.000489 0.000000
# 4 0.000000 0.000000 0.000000 0.029481 0.000000 -0.002416
# 5 0.000523 -0.001153 -0.000489 0.000000 0.026438 0.000000
# 6 0.000000 0.000000 0.000000 -0.002416 0.000000 0.028430
#
#
# Mechanical properties :
#
#
# Convention : Reuss Voigt Hill
#
# Bulk Modulus (GPa) = 49.88164 52.03597 50.95880
# Shear Modulus (GPa) = 32.91759 33.81208 33.36483
#
# Velocity S-wave (km/s) = 4.00296 4.05699 4.03006
# Velocity P-wave (km/s) = 6.75622 6.87573 6.81624
#
# Compressibility (1/GPa) = 0.02004746
#
# Stress axis : x y z
#
# Youngs Moduli (GPa) = 72.38836 77.74387 72.57939
#
# Poissons Ratio (x) = 0.40361 0.07532
# Poissons Ratio (y) = 0.37580 0.28847
# Poissons Ratio (z) = 0.07513 0.30900
#
# Static dielectric constant tensor:
#      x y z
#    x 3.764700 0.000000 -0.056300 
#    y 0.000000 3.705530 0.000000 
#    z -0.056300 0.000000 4.124810 
# 
# 
# High freq. dielectric constant tensor:
#      x y z
#    x 1.815900 0.000000 0.000120 
#    y 0.000000 1.799840 0.000000 
#    z 0.000120 0.000000 1.816290 
# 
# From -- ./inp_files/248781.got.cif
#   From: 2010.06.25/outbox.cif.g09.slc.cpg/sg12_125_cif.got.tgz:248781.got - 2010.06.28 00:19:55.
