data_PCOD8111814
_publ_section_title
;
Structure prediction by ZEFSAII (Michael W. Deem and Ramdas Pophale) SiO2 
 PCOD8111814
Probable space group: C 2/M
;
_chemical_formula_sum "Si O2"
_cell_formula_units_Z 56
_cell_length_a 15.194504
_cell_length_b 8.658668
_cell_length_c 23.661800
_cell_angle_alpha 90.000000
_cell_angle_beta 63.371847
_cell_angle_gamma 90.000000
_cell_volume 2782.857108
_symmetry_space_group_name_H-M "C 2/M"
_symmetry_group_IT_number 12
_symmetry_cell_setting 'monoclinic'
loop_
_space_group_symop_operation_xyz
x,y,z
-x,y,-z
-x,-y,-z
x,-y,z
1/2+x,1/2+y,z
1/2-x,1/2+y,-z
1/2-x,1/2-y,-z
1/2+x,1/2-y,z
loop_
_atom_site_type_symbol
_atom_site_label
_atom_site_fract_x
_atom_site_fract_y
_atom_site_fract_z
Si Si1 0.022525 0.818127 0.653674
Si Si2 0.496510 0.818474 0.878269
Si Si3 0.344807 0.680443 0.002183
Si Si4 0.309111 0.320507 0.142592
Si Si5 0.898330 0.819311 0.798313
Si Si6 0.270815 0.182253 0.432798
Si Si7 0.425114 0.316794 0.568109
O O1 0.128016 0.738360 0.623137
O O2 0.968797 0.772112 0.726706
O O3 0.956638 0.754945 0.620620
O O4 0.038344 0.000000 0.643650
O O5 0.442324 0.761407 0.950433
O O6 0.602482 0.736348 0.842637
O O7 0.429866 0.776868 0.843827
O O8 0.512002 0.000000 0.876785
O O9 0.350544 0.500000 0.986907
O O10 0.250000 0.750000 0.000000
O O11 0.339944 0.714172 0.069681
O O12 0.288563 0.500000 0.159103
O O13 0.212436 0.224782 0.186725
O O14 0.904567 0.000000 0.810265
O O15 0.250000 0.250000 0.500000
O O16 0.184976 0.238739 0.414906
O O17 0.271309 0.000000 0.438709
O O18 0.500000 0.248139 0.500000
O O19 0.430804 0.500000 0.565544
#
# Coordination Sequence:
#
# PCOD8111814 Si02
#       7
#     8   8   8   8   8   8   8
#     4  10  22  41  62  88 120 157 201 248 304 366
#     4  12  25  41  64  92 126 168 213 259 309 373
#     4  11  22  38  64  95 127 161 205 261 319 372
#     4  11  24  42  65  93 126 163 208 262 316 373
#     4  11  24  42  64  89 124 167 210 259 313 377
#     4  11  21  35  60  90 120 156 196 245 299 360
#     4   9  17  34  60  85 116 154 190 234 295 360
#
# _framework density 20.123204000000001
#
# number of rings (size 3 to 8) (size 9 to 14) (size 15 to 20)
#    0.000    1.286    2.857    3.429    0.000    5.714 
#    0.000    3.571    0.000    0.000    0.000    0.000 
#    0.000    0.000    0.000    0.000    0.000    0.000 
#
# Total GULP energy -347340.546926 kJ/mol
# GULP energy per Si atom -12405.019533 kJ/mol
# Density = 2.007740 g / cm^3
# Si number density = 20.123204 Si / 1000 Ang^3
#
#
#
# Elastic Constant Matrix: (Units=GPa)
#
#
# Indices 1 2 3 4 5 6 
#
# 1 134.1285 25.0159 36.7971 0.0000 -25.5010 0.0000
# 2 25.0159 66.2573 40.9302 0.0000 -5.2057 0.0001
# 3 36.7971 40.9302 100.4578 0.0000 -21.9488 0.0000
# 4 0.0000 0.0000 0.0000 24.0651 0.0000 -7.8678
# 5 -25.5010 -5.2057 -21.9488 0.0000 29.5199 0.0000
# 6 0.0000 0.0001 0.0000 -7.8678 0.0000 35.0222
#
#
#
# Elastic Compliance Matrix: (Units=1/GPa)
#
#
# Indices 1 2 3 4 5 6 
#
# 1 0.009520 -0.002459 -0.000935 0.000000 0.007095 0.000000
# 2 -0.002459 0.021037 -0.008745 0.000000 -0.004916 0.000000
# 3 -0.000935 -0.008745 0.015935 0.000000 0.009498 0.000000
# 4 0.000000 0.000000 0.000000 0.044848 0.000000 0.010075
# 5 0.007095 -0.004916 0.009498 0.000000 0.046200 0.000000
# 6 0.000000 0.000000 0.000000 0.010075 0.000000 0.030817
#
#
# Mechanical properties :
#
#
# Convention : Reuss Voigt Hill
#
# Bulk Modulus (GPa) = 45.01647 56.25889 50.63768
# Shear Modulus (GPa) = 24.99527 30.92812 27.96169
#
# Velocity S-wave (km/s) = 3.52818 3.92463 3.73168
# Velocity P-wave (km/s) = 6.24631 6.96814 6.61707
#
# Compressibility (1/GPa) = 0.02221409
#
# Stress axis : x y z
#
# Youngs Moduli (GPa) = 105.04681 47.53574 62.75496
#
# Poissons Ratio (x) = 0.11690 0.05867
# Poissons Ratio (y) = 0.25834 0.54876
# Poissons Ratio (z) = 0.09820 0.41568
#
# Static dielectric constant tensor:
#      x y z
#    x 3.879640 0.000000 0.028130 
#    y 0.000000 3.557490 0.000000 
#    z 0.028130 0.000000 3.704680 
# 
# 
# High freq. dielectric constant tensor:
#      x y z
#    x 1.803450 0.000000 -0.005660 
#    y 0.000000 1.778650 0.000000 
#    z -0.005660 0.000000 1.781900 
# 
# From -- ./inp_files/338462.got.cif
#   From: 2010.06.25/outbox.cif.g09.slc.cpg/sg12_170_cif.got.tgz:338462.got - 2010.06.28 00:19:55.
