data_PCOD8111031
_publ_section_title
;
Structure prediction by ZEFSAII (Michael W. Deem and Ramdas Pophale) SiO2 
 PCOD8111031
Probable space group: C 2/M
;
_chemical_formula_sum "Si O2"
_cell_formula_units_Z 56
_cell_length_a 20.066238
_cell_length_b 8.870442
_cell_length_c 17.641428
_cell_angle_alpha 90.000000
_cell_angle_beta 107.228617
_cell_angle_gamma 90.000000
_cell_volume 2999.215637
_symmetry_space_group_name_H-M "C 2/M"
_symmetry_group_IT_number 12
_symmetry_cell_setting 'monoclinic'
loop_
_space_group_symop_operation_xyz
x,y,z
-x,y,-z
-x,-y,-z
x,-y,z
1/2+x,1/2+y,z
1/2-x,1/2+y,-z
1/2-x,1/2-y,-z
1/2+x,1/2-y,z
loop_
_atom_site_type_symbol
_atom_site_label
_atom_site_fract_x
_atom_site_fract_y
_atom_site_fract_z
Si Si1 0.162505 0.322582 0.596139
Si Si2 0.464743 0.678160 0.167525
Si Si3 0.574799 0.678749 0.002090
Si Si4 0.419375 0.824503 0.582179
Si Si5 0.806438 0.323883 0.668985
Si Si6 0.440179 0.321126 0.325741
Si Si7 0.120508 0.177695 0.173672
O O1 0.164133 0.500000 0.608426
O O2 0.120904 0.276463 0.506983
O O3 0.240495 0.262502 0.613026
O O4 0.127384 0.247023 0.657174
O O5 0.461985 0.500000 0.172405
O O6 0.440525 0.745212 0.239874
O O7 0.543921 0.727047 0.176401
O O8 0.412553 0.733531 0.081035
O O9 0.570062 0.500000 0.000729
O O10 0.629396 0.725425 0.087004
O O11 0.500000 0.745406 0.000000
O O12 0.372139 0.783808 0.638446
O O13 0.489897 0.729179 0.607882
O O14 0.439231 0.000000 0.587492
O O15 0.789898 0.500000 0.663623
O O16 0.822049 0.268341 0.759496
O O17 0.435374 0.500000 0.325995
O O18 0.132728 0.000000 0.189295
#
# Coordination Sequence:
#
# PCOD8111031 Si02
#       7
#     8   8   8   8   8   8   8
#     4  11  24  40  55  73 103 142 181 218 262 314
#     4   8  14  26  47  78 108 135 169 210 253 301
#     4   7  11  21  43  74 105 133 167 208 247 298
#     4  10  22  39  57  77 103 137 176 220 265 312
#     4  11  22  36  55  79 107 136 173 221 268 311
#     4  11  21  34  56  83 110 138 173 216 261 310
#     4   9  15  28  51  78 105 137 173 208 254 310
#
# _framework density 18.671548999999999
#
# number of rings (size 3 to 8) (size 9 to 14) (size 15 to 20)
#    0.000    2.429    1.429    3.857    0.000    3.429 
#    0.000    0.000    0.000    6.429    0.000    0.000 
#    0.000    0.000    0.000    0.000    0.000    0.000 
#
# Total GULP energy -346993.708537 kJ/mol
# GULP energy per Si atom -12392.632448 kJ/mol
# Density = 1.862905 g / cm^3
# Si number density = 18.671549 Si / 1000 Ang^3
#
#
#
# Elastic Constant Matrix: (Units=GPa)
#
#
# Indices 1 2 3 4 5 6 
#
# 1 36.3814 15.6528 12.8967 0.0000 1.4551 0.0000
# 2 15.6528 44.4035 25.9557 0.0000 -0.9952 0.0000
# 3 12.8967 25.9557 114.7675 0.0000 -17.9110 0.0000
# 4 0.0000 0.0000 0.0000 22.7743 0.0000 2.4991
# 5 1.4551 -0.9952 -17.9110 0.0000 13.1285 0.0000
# 6 0.0000 0.0000 0.0000 2.4991 0.0000 26.4300
#
#
#
# Elastic Compliance Matrix: (Units=1/GPa)
#
#
# Indices 1 2 3 4 5 6 
#
# 1 0.033196 -0.010331 -0.002656 0.000000 -0.008086 0.000000
# 2 -0.010331 0.029790 -0.006410 0.000000 -0.005342 0.000000
# 3 -0.002656 -0.006410 0.013253 0.000000 0.017890 0.000000
# 4 0.000000 0.000000 0.000000 0.044369 0.000000 -0.004195
# 5 -0.008086 -0.005342 0.017890 0.000000 0.101068 0.000000
# 6 0.000000 0.000000 0.000000 -0.004195 0.000000 0.038232
#
#
# Mechanical properties :
#
#
# Convention : Reuss Voigt Hill
#
# Bulk Modulus (GPa) = 26.70519 33.84033 30.27276
# Shear Modulus (GPa) = 16.06766 21.86973 18.96869
#
# Velocity S-wave (km/s) = 2.93668 3.42612 3.19080
# Velocity P-wave (km/s) = 5.08257 5.81502 5.46108
#
# Compressibility (1/GPa) = 0.03744590
#
# Stress axis : x y z
#
# Youngs Moduli (GPa) = 30.12389 33.56870 75.45296
#
# Poissons Ratio (x) = 0.34680 0.20039
# Poissons Ratio (y) = 0.31121 0.48365
# Poissons Ratio (z) = 0.08000 0.21517
#
# Static dielectric constant tensor:
#      x y z
#    x 3.184230 0.000000 -0.265090 
#    y 0.000000 3.114770 0.000000 
#    z -0.265090 0.000000 4.043160 
# 
# 
# High freq. dielectric constant tensor:
#      x y z
#    x 1.687970 0.000000 -0.010720 
#    y 0.000000 1.697910 0.000000 
#    z -0.010720 0.000000 1.750390 
# 
# From -- ./inp_files/275584.got.cif
#   From: 2010.06.25/outbox.cif.g09.slc.cpg/sg12_138_cif.got.tgz:275584.got - 2010.06.28 00:19:55.
