data_PCOD8111164
_publ_section_title
;
Structure prediction by ZEFSAII (Michael W. Deem and Ramdas Pophale) SiO2 
 PCOD8111164
Probable space group: C 2/M
;
_chemical_formula_sum "Si O2"
_cell_formula_units_Z 40
_cell_length_a 14.176770
_cell_length_b 25.484995
_cell_length_c 9.553822
_cell_angle_alpha 90.000000
_cell_angle_beta 35.830533
_cell_angle_gamma 90.000000
_cell_volume 2020.617683
_symmetry_space_group_name_H-M "C 2/M"
_symmetry_group_IT_number 12
_symmetry_cell_setting 'monoclinic'
loop_
_space_group_symop_operation_xyz
x,y,z
-x,y,-z
-x,-y,-z
x,-y,z
1/2+x,1/2+y,z
1/2-x,1/2+y,-z
1/2-x,1/2-y,-z
1/2+x,1/2-y,z
loop_
_atom_site_type_symbol
_atom_site_label
_atom_site_fract_x
_atom_site_fract_y
_atom_site_fract_z
Si Si1 0.368500 0.724740 0.969146
Si Si2 0.895905 0.130525 0.762469
Si Si3 0.962790 0.336269 0.893529
Si Si4 0.360592 0.439910 0.054772
Si Si5 0.655251 0.152047 0.398199
O O1 0.474124 0.773008 0.895936
O O2 0.287923 0.696425 0.201558
O O3 0.250000 0.750000 0.000000
O O4 0.467305 0.679857 0.765226
O O5 0.707461 0.141519 0.957155
O O6 0.000000 0.121784 0.500000
O O7 0.915788 0.078727 0.833816
O O8 0.000000 0.361460 0.000000
O O9 0.110601 0.351834 0.614888
O O10 0.305683 0.500000 0.111765
O O11 0.208896 0.405487 0.284882
O O12 0.500000 0.431680 0.000000
O O13 0.500000 0.170527 0.500000
#
# Coordination Sequence:
#
# PCOD8111164 Si02
#       5
#     8   8   8   8   8
#     4   9  19  33  55  83 120 160 196 234 287 342
#     4  10  22  39  61  87 124 160 194 250 303 356
#     4  11  24  37  57  91 124 164 205 242 292 349
#     4  10  23  43  67  91 114 152 201 252 312 365
#     4  11  20  40  63  86 120 158 205 250 291 354
#
# _framework density 19.795926000000001
#
# number of rings (size 3 to 8) (size 9 to 14) (size 15 to 20)
#    0.000    1.800    6.000    0.000    8.400    4.800 
#    0.000    0.000    0.000    1.200    0.000    0.000 
#    0.000    0.000    0.000    0.000    0.000    0.000 
#
# Total GULP energy -247870.446944 kJ/mol
# GULP energy per Si atom -12393.522347 kJ/mol
# Density = 1.975087 g / cm^3
# Si number density = 19.795926 Si / 1000 Ang^3
#
#
#
# Elastic Constant Matrix: (Units=GPa)
#
#
# Indices 1 2 3 4 5 6 
#
# 1 54.2448 22.4158 29.9830 0.0000 25.3268 0.0000
# 2 22.4158 112.2910 55.0698 0.0000 7.6795 0.0000
# 3 29.9830 55.0698 177.6864 0.0000 38.9952 0.0000
# 4 0.0000 0.0000 0.0000 19.1616 0.0000 -0.5158
# 5 25.3268 7.6795 38.9952 0.0000 34.0407 0.0000
# 6 0.0000 0.0000 0.0000 -0.5158 0.0000 12.7675
#
#
#
# Elastic Compliance Matrix: (Units=1/GPa)
#
#
# Indices 1 2 3 4 5 6 
#
# 1 0.030713 -0.005321 0.001627 0.000000 -0.023515 0.000000
# 2 -0.005321 0.011508 -0.003965 0.000000 0.005904 0.000000
# 3 0.001627 -0.003965 0.008885 0.000000 -0.010495 0.000000
# 4 0.000000 0.000000 0.000000 0.052244 0.000000 0.002111
# 5 -0.023515 0.005904 -0.010495 0.000000 0.057562 0.000000
# 6 0.000000 0.000000 0.000000 0.002111 0.000000 0.078409
#
#
# Mechanical properties :
#
#
# Convention : Reuss Voigt Hill
#
# Bulk Modulus (GPa) = 27.94089 62.12882 45.03486
# Shear Modulus (GPa) = 18.75689 28.97754 23.86721
#
# Velocity S-wave (km/s) = 3.08151 3.83013 3.47603
# Velocity P-wave (km/s) = 5.17745 7.14231 6.23774
#
# Compressibility (1/GPa) = 0.03578984
#
# Stress axis : x y z
#
# Youngs Moduli (GPa) = 32.55920 86.89527 112.54655
#
# Poissons Ratio (x) = 0.46235 -0.18311
# Poissons Ratio (y) = 0.17324 0.44620
# Poissons Ratio (z) = -0.05297 0.34450
#
# Static dielectric constant tensor:
#      x y z
#    x 3.381810 0.000000 -0.011110 
#    y 0.000000 3.705870 0.000000 
#    z -0.011110 0.000000 3.455960 
# 
# 
# High freq. dielectric constant tensor:
#      x y z
#    x 1.767410 0.000000 0.019690 
#    y 0.000000 1.755480 0.000000 
#    z 0.019690 0.000000 1.771030 
# 
# From -- ./inp_files/65079.got.cif
#   From: 2010.06.25/outbox.cif.g09.slc.cpg/sg12_33_cif.got.tgz:65079.got - 2010.06.28 00:19:55.
