data_PCOD8111744
_publ_section_title
;
Structure prediction by ZEFSAII (Michael W. Deem and Ramdas Pophale) SiO2 
 PCOD8111744
Probable space group: C 2/M
;
_chemical_formula_sum "Si O2"
_cell_formula_units_Z 52
_cell_length_a 17.711394
_cell_length_b 12.979501
_cell_length_c 17.102361
_cell_angle_alpha 90.000000
_cell_angle_beta 144.383843
_cell_angle_gamma 90.000000
_cell_volume 2289.562783
_symmetry_space_group_name_H-M "C 2/M"
_symmetry_group_IT_number 12
_symmetry_cell_setting 'monoclinic'
loop_
_space_group_symop_operation_xyz
x,y,z
-x,y,-z
-x,-y,-z
x,-y,z
1/2+x,1/2+y,z
1/2-x,1/2+y,-z
1/2-x,1/2-y,-z
1/2+x,1/2-y,z
loop_
_atom_site_type_symbol
_atom_site_label
_atom_site_fract_x
_atom_site_fract_y
_atom_site_fract_z
Si Si1 0.000000 0.737385 0.500000
Si Si2 0.966850 0.379692 0.206923
Si Si3 0.414427 0.187263 0.854090
Si Si4 0.330429 0.617626 0.269026
Si Si5 0.856869 0.380899 0.504741
Si Si6 0.193971 0.121806 0.927790
Si Si7 0.924913 0.881021 0.773901
O O1 0.949706 0.808539 0.387566
O O2 0.891146 0.667766 0.449593
O O3 0.948583 0.500000 0.206155
O O4 0.035280 0.365903 0.181735
O O5 0.057862 0.332792 0.352228
O O6 0.818600 0.330778 0.080902
O O7 0.274832 0.139114 0.752882
O O8 0.408700 0.311386 0.837878
O O9 0.500000 0.157162 0.000000
O O10 0.377996 0.500000 0.312472
O O11 0.278734 0.646483 0.139724
O O12 0.890558 0.500000 0.526437
O O13 0.701948 0.365565 0.388200
O O14 0.052586 0.163645 0.836436
O O15 0.189716 0.000000 0.937707
O O16 0.939941 0.000000 0.812052
#
# Coordination Sequence:
#
# PCOD8111744 Si02
#       7
#     4   8   8   8   8   8   8
#     4  12  24  42  66  98 130 176 220 272 330 390
#     4  10  22  40  67  98 129 172 222 273 326 388
#     4  12  24  40  67  99 131 174 220 268 328 395
#     4  11  24  42  65  99 135 170 214 272 335 393
#     4  10  23  44  68  95 131 176 226 272 322 389
#     4   9  20  41  67  94 129 169 216 273 329 387
#     4  10  23  44  66  95 134 176 220 273 329 385
#
# _framework density 22.711759000000001
#
# number of rings (size 3 to 8) (size 9 to 14) (size 15 to 20)
#    0.000    1.538    3.077    0.923    2.154    4.615 
#    0.000    3.077    0.000    0.000    0.000    0.000 
#    0.000    0.000    0.000    0.000    0.000    0.000 
#
# Total GULP energy -322347.331219 kJ/mol
# GULP energy per Si atom -12397.974278 kJ/mol
# Density = 2.266007 g / cm^3
# Si number density = 22.711759 Si / 1000 Ang^3
#
#
#
# Elastic Constant Matrix: (Units=GPa)
#
#
# Indices 1 2 3 4 5 6 
#
# 1 111.4452 30.4889 44.1370 0.0000 10.6623 0.0000
# 2 30.4889 47.7666 41.2321 0.0000 4.1220 0.0000
# 3 44.1370 41.2321 115.9441 0.0001 9.0594 0.0001
# 4 0.0000 0.0000 0.0001 31.0717 0.0001 1.9436
# 5 10.6623 4.1220 9.0594 0.0001 38.8405 0.0001
# 6 0.0000 0.0000 0.0001 1.9436 0.0001 34.5909
#
#
#
# Elastic Compliance Matrix: (Units=1/GPa)
#
#
# Indices 1 2 3 4 5 6 
#
# 1 0.011519 -0.005091 -0.002413 0.000000 -0.002059 0.000000
# 2 -0.005091 0.032478 -0.009627 0.000000 0.000196 0.000000
# 3 -0.002413 -0.009627 0.013074 0.000000 -0.001365 0.000000
# 4 0.000000 0.000000 0.000000 0.032297 0.000000 -0.001815
# 5 -0.002059 0.000196 -0.001365 0.000000 0.026609 0.000000
# 6 0.000000 0.000000 0.000000 -0.001815 0.000000 0.029011
#
#
# Mechanical properties :
#
#
# Convention : Reuss Voigt Hill
#
# Bulk Modulus (GPa) = 43.84638 56.31911 50.08275
# Shear Modulus (GPa) = 26.75889 31.52049 29.13969
#
# Velocity S-wave (km/s) = 3.43621 3.72943 3.58582
# Velocity P-wave (km/s) = 5.92376 6.58756 6.26446
#
# Compressibility (1/GPa) = 0.02280690
#
# Stress axis : x y z
#
# Youngs Moduli (GPa) = 86.81551 30.79014 76.48873
#
# Poissons Ratio (x) = 0.15676 0.18460
# Poissons Ratio (y) = 0.44200 0.73636
# Poissons Ratio (z) = 0.20952 0.29642
#
# Static dielectric constant tensor:
#      x y z
#    x 3.957650 0.000000 0.253490 
#    y 0.000000 4.212110 0.000000 
#    z 0.253490 0.000000 4.327850 
# 
# 
# High freq. dielectric constant tensor:
#      x y z
#    x 1.886290 0.000000 0.016900 
#    y 0.000000 1.914940 0.000000 
#    z 0.016900 0.000000 1.897260 
# 
# From -- ./inp_files/225789.got.cif
#   From: 2010.06.25/outbox.cif.g09.slc.cpg/sg12_113_cif.got.tgz:225789.got - 2010.06.28 00:19:55.
