data_PCOD8111467
_publ_section_title
;
Structure prediction by ZEFSAII (Michael W. Deem and Ramdas Pophale) SiO2 
 PCOD8111467
Probable space group: C 2/M
;
_chemical_formula_sum "Si O2"
_cell_formula_units_Z 40
_cell_length_a 8.629477
_cell_length_b 18.506296
_cell_length_c 11.977691
_cell_angle_alpha 90.000000
_cell_angle_beta 99.608090
_cell_angle_gamma 90.000000
_cell_volume 1886.000824
_symmetry_space_group_name_H-M "C 2/M"
_symmetry_group_IT_number 12
_symmetry_cell_setting 'monoclinic'
loop_
_space_group_symop_operation_xyz
x,y,z
-x,y,-z
-x,-y,-z
x,-y,z
1/2+x,1/2+y,z
1/2-x,1/2+y,-z
1/2-x,1/2-y,-z
1/2+x,1/2-y,z
loop_
_atom_site_type_symbol
_atom_site_label
_atom_site_fract_x
_atom_site_fract_y
_atom_site_fract_z
Si Si1 0.424538 0.812019 0.227797
Si Si2 0.581382 0.679469 0.127972
Si Si3 0.276288 0.826158 0.447774
Si Si4 0.508232 0.582959 0.308723
Si Si5 0.153338 0.416916 0.340284
O O1 0.527461 0.743568 0.203842
O O2 0.269784 0.818542 0.131773
O O3 0.374202 0.806855 0.350041
O O4 0.536579 0.882521 0.233127
O O5 0.533081 0.604634 0.181973
O O6 0.500000 0.686592 0.000000
O O7 0.250000 0.750000 0.500000
O O8 0.371628 0.877459 0.544099
O O9 0.114324 0.867042 0.400081
O O10 0.559764 0.500000 0.331241
O O11 0.329057 0.594980 0.319261
O O12 0.107895 0.500000 0.348743
#
# Coordination Sequence:
#
# PCOD8111467 Si02
#       5
#     8   8   8   8   8
#     4  11  24  38  60  90 120 152 199 253 292 352
#     4  11  23  42  66  87 114 154 201 254 307 353
#     4  11  22  37  61  91 124 161 198 239 291 356
#     4  10  22  40  61  88 122 159 202 246 292 352
#     4  11  23  39  60  89 127 164 195 236 293 355
#
# _framework density 21.208897
#
# number of rings (size 3 to 8) (size 9 to 14) (size 15 to 20)
#    0.000    1.200    0.000    7.200    0.000   10.000 
#    0.000    0.000    0.000    3.000    0.000    0.000 
#    0.000    0.000    0.000    0.000    0.000    0.000 
#
# Total GULP energy -247999.308429 kJ/mol
# GULP energy per Si atom -12399.965421 kJ/mol
# Density = 2.116062 g / cm^3
# Si number density = 21.208897 Si / 1000 Ang^3
#
#
#
# Elastic Constant Matrix: (Units=GPa)
#
#
# Indices 1 2 3 4 5 6 
#
# 1 120.2493 75.0305 51.9876 0.0000 28.5253 0.0000
# 2 75.0305 163.5434 57.1555 0.0000 20.7310 0.0000
# 3 51.9876 57.1555 81.7741 0.0000 22.8813 0.0000
# 4 0.0000 0.0000 0.0000 21.7510 0.0000 1.1577
# 5 28.5253 20.7310 22.8813 0.0000 30.0655 0.0000
# 6 0.0000 0.0000 0.0000 1.1577 0.0000 35.4042
#
#
#
# Elastic Compliance Matrix: (Units=1/GPa)
#
#
# Indices 1 2 3 4 5 6 
#
# 1 0.014612 -0.004277 -0.004125 0.000000 -0.007776 0.000000
# 2 -0.004277 0.009405 -0.004035 0.000000 0.000643 0.000000
# 3 -0.004125 -0.004035 0.020072 0.000000 -0.008580 0.000000
# 4 0.000000 0.000000 0.000000 0.046055 0.000000 -0.001506
# 5 -0.007776 0.000643 -0.008580 0.000000 0.046724 0.000000
# 6 0.000000 0.000000 0.000000 -0.001506 0.000000 0.028294
#
#
# Mechanical properties :
#
#
# Convention : Reuss Voigt Hill
#
# Bulk Modulus (GPa) = 52.03724 81.54599 66.79162
# Shear Modulus (GPa) = 25.45281 29.53703 27.49492
#
# Velocity S-wave (km/s) = 3.46801 3.73590 3.60444
# Velocity P-wave (km/s) = 6.37377 7.55921 6.99166
#
# Compressibility (1/GPa) = 0.01921701
#
# Stress axis : x y z
#
# Youngs Moduli (GPa) = 68.43532 106.32442 49.82039
#
# Poissons Ratio (x) = 0.45471 0.20550
# Poissons Ratio (y) = 0.29267 0.20101
# Poissons Ratio (z) = 0.28229 0.42900
#
# Static dielectric constant tensor:
#      x y z
#    x 4.300270 0.000000 0.196310 
#    y 0.000000 3.987980 0.000000 
#    z 0.196310 0.000000 3.754110 
# 
# 
# High freq. dielectric constant tensor:
#      x y z
#    x 1.854790 0.000000 0.009070 
#    y 0.000000 1.836830 0.000000 
#    z 0.009070 0.000000 1.813150 
# 
# From -- ./inp_files/118933.got.cif
#   From: 2010.06.25/outbox.cif.g09.slc.cpg/sg12_60_cif.got.tgz:118933.got - 2010.06.28 00:19:55.
