data_PCOD8111933
_publ_section_title
;
Structure prediction by ZEFSAII (Michael W. Deem and Ramdas Pophale) SiO2 
 PCOD8111933
Probable space group: C 2/M
;
_chemical_formula_sum "Si O2"
_cell_formula_units_Z 48
_cell_length_a 19.745105
_cell_length_b 8.754045
_cell_length_c 13.740055
_cell_angle_alpha 90.000000
_cell_angle_beta 89.911718
_cell_angle_gamma 90.000000
_cell_volume 2374.959336
_symmetry_space_group_name_H-M "C 2/M"
_symmetry_group_IT_number 12
_symmetry_cell_setting 'monoclinic'
loop_
_space_group_symop_operation_xyz
x,y,z
-x,y,-z
-x,-y,-z
x,-y,z
1/2+x,1/2+y,z
1/2-x,1/2+y,-z
1/2-x,1/2-y,-z
1/2+x,1/2-y,z
loop_
_atom_site_type_symbol
_atom_site_label
_atom_site_fract_x
_atom_site_fract_y
_atom_site_fract_z
Si Si1 0.013863 0.323288 0.293612
Si Si2 0.943583 0.678040 0.922874
Si Si3 0.199450 0.820231 0.077225
Si Si4 0.620252 0.679532 0.632168
Si Si5 0.356144 0.178747 0.577230
Si Si6 0.751805 0.318949 0.285611
O O1 0.992287 0.500000 0.304508
O O2 0.028687 0.278795 0.182886
O O3 0.080038 0.285934 0.355384
O O4 0.954944 0.215519 0.332102
O O5 0.925724 0.500000 0.930216
O O6 0.876400 0.771082 0.947907
O O7 0.000000 0.727124 0.000000
O O8 0.219098 0.761433 0.184825
O O9 0.205844 0.000000 0.070873
O O10 0.250000 0.750000 0.000000
O O11 0.631629 0.500000 0.628299
O O12 0.631191 0.748859 0.526570
O O13 0.672278 0.754144 0.708476
O O14 0.290016 0.253708 0.623846
O O15 0.343052 0.000000 0.564986
O O16 0.753521 0.500000 0.291966
#
# Coordination Sequence:
#
# PCOD8111933 Si02
#       6
#     8   8   8   8   8   8
#     4  10  22  41  64  92 128 167 207 254 311 372
#     4  10  22  42  68  96 127 164 205 252 311 375
#     4  11  25  43  67  95 127 164 207 258 310 369
#     4  12  26  40  61  93 129 167 210 259 308 369
#     4  11  22  41  67  92 124 165 210 259 312 372
#     4  11  24  43  65  91 126 166 209 258 312 369
#
# _framework density 20.210871999999998
#
# number of rings (size 3 to 8) (size 9 to 14) (size 15 to 20)
#    0.000    1.167    1.667    4.000    2.333    6.333 
#    0.000    0.000    0.000    0.000    0.000    0.000 
#    0.000    0.000    0.000    0.000    0.000    0.000 
#
# Total GULP energy -297788.778597 kJ/mol
# GULP energy per Si atom -12407.865775 kJ/mol
# Density = 2.016487 g / cm^3
# Si number density = 20.210872 Si / 1000 Ang^3
#
#
#
# Elastic Constant Matrix: (Units=GPa)
#
#
# Indices 1 2 3 4 5 6 
#
# 1 38.9526 29.7236 28.8463 0.0000 -0.3476 0.0000
# 2 29.7236 87.1173 37.7979 0.0000 3.7265 0.0000
# 3 28.8463 37.7979 110.3255 0.0000 2.4531 0.0000
# 4 0.0000 0.0000 0.0000 20.7356 0.0000 -20.3205
# 5 -0.3476 3.7265 2.4531 0.0000 36.3987 0.0000
# 6 0.0000 0.0000 0.0000 -20.3205 0.0000 17.3971
#
#
#
# Elastic Compliance Matrix: (Units=1/GPa)
#
#
# Indices 1 2 3 4 5 6 
#
# 1 0.038436 -0.010355 -0.006544 0.000000 0.001868 0.000000
# 2 -0.010355 0.016314 -0.002847 0.000000 -0.001577 0.000000
# 3 -0.006544 -0.002847 0.011763 0.000000 -0.000564 0.000000
# 4 0.000000 0.000000 0.000000 -0.333383 0.000000 -0.389405
# 5 0.001868 -0.001577 -0.000564 0.000000 0.027691 0.000000
# 6 0.000000 0.000000 0.000000 -0.389405 0.000000 -0.397359
#
#
# Mechanical properties :
#
#
# Convention : Reuss Voigt Hill
#
# Bulk Modulus (GPa) = 37.00583 47.68124 42.34354
# Shear Modulus (GPa) = -8.50283 24.24145 7.86931
#
# Velocity S-wave (km/s) = -2.05334 3.46703 1.97536
# Velocity P-wave (km/s) = 3.56764 6.29843 5.11851
#
# Compressibility (1/GPa) = 0.02702277
#
# Stress axis : x y z
#
# Youngs Moduli (GPa) = 26.01703 61.29545 85.01293
#
# Poissons Ratio (x) = 0.63471 0.55630
# Poissons Ratio (y) = 0.26940 0.24202
# Poissons Ratio (z) = 0.17025 0.17450
#
# Static dielectric constant tensor:
#      x y z
#    x 3.196300 0.000000 0.019890 
#    y 0.000000 3.507100 0.000000 
#    z 0.019890 0.000000 3.844660 
# 
# 
# High freq. dielectric constant tensor:
#      x y z
#    x 1.804960 0.000000 0.003780 
#    y 0.000000 1.792040 0.000000 
#    z 0.003780 0.000000 1.803000 
# 
# From -- ./inp_files/221587.got.cif
#   From: 2010.06.25/outbox.cif.g09.slc.cpg/sg12_111_cif.got.tgz:221587.got - 2010.06.28 00:19:55.
