data_PCOD8111494
_publ_section_title
;
Structure prediction by ZEFSAII (Michael W. Deem and Ramdas Pophale) SiO2 
 PCOD8111494
Probable space group: C 2/M
;
_chemical_formula_sum "Si O2"
_cell_formula_units_Z 40
_cell_length_a 14.558159
_cell_length_b 17.575449
_cell_length_c 15.056390
_cell_angle_alpha 90.000000
_cell_angle_beta 151.121456
_cell_angle_gamma 90.000000
_cell_volume 1860.544091
_symmetry_space_group_name_H-M "C 2/M"
_symmetry_group_IT_number 12
_symmetry_cell_setting 'monoclinic'
loop_
_space_group_symop_operation_xyz
x,y,z
-x,y,-z
-x,-y,-z
x,-y,z
1/2+x,1/2+y,z
1/2-x,1/2+y,-z
1/2-x,1/2-y,-z
1/2+x,1/2-y,z
loop_
_atom_site_type_symbol
_atom_site_label
_atom_site_fract_x
_atom_site_fract_y
_atom_site_fract_z
Si Si1 0.210545 0.246880 0.192691
Si Si2 0.035111 0.194021 0.748848
Si Si3 0.316434 0.825727 0.658708
Si Si4 0.175851 0.583364 0.714977
Si Si5 0.158923 0.585142 0.907158
O O1 0.341533 0.261848 0.219523
O O2 0.287990 0.297194 0.340282
O O3 0.197350 0.156272 0.204227
O O4 0.000000 0.278034 0.000000
O O5 0.853365 0.151443 0.551914
O O6 0.954450 0.257476 0.745481
O O7 0.162153 0.136292 0.912733
O O8 0.462149 0.895953 0.792609
O O9 0.278811 0.500000 0.790710
O O10 0.112690 0.593337 0.763604
O O11 0.000000 0.585678 0.500000
O O12 0.216718 0.500000 0.982123
#
# Coordination Sequence:
#
# PCOD8111494 Si02
#       5
#     8   8   8   8   8
#     4  12  22  39  68  95 131 170 214 274 322 383
#     4  11  23  42  64  98 130 169 224 266 320 381
#     4  11  23  40  69  96 129 172 218 269 320 384
#     4  10  22  40  61  93 134 167 206 263 327 393
#     4  11  23  43  66  94 134 172 215 267 324 385
#
# _framework density 21.499088
#
# number of rings (size 3 to 8) (size 9 to 14) (size 15 to 20)
#    0.000    1.000    4.000    3.600    2.800    1.200 
#    0.000    3.000    0.000    2.400    0.000    0.000 
#    0.000    0.000    0.000    0.000    0.000    0.000 
#
# Total GULP energy -247888.443017 kJ/mol
# GULP energy per Si atom -12394.422151 kJ/mol
# Density = 2.145015 g / cm^3
# Si number density = 21.499088 Si / 1000 Ang^3
#
#
#
# Elastic Constant Matrix: (Units=GPa)
#
#
# Indices 1 2 3 4 5 6 
#
# 1 55.0942 31.1560 24.2269 -0.0095 -12.4219 0.0010
# 2 31.1560 91.1949 66.9334 -0.0013 -10.3466 -0.0037
# 3 24.2269 66.9334 128.1024 -0.0367 -2.4573 -0.0523
# 4 -0.0095 -0.0013 -0.0367 -11.9835 -0.0116 -7.8391
# 5 -12.4219 -10.3466 -2.4573 -0.0116 34.5946 -0.0098
# 6 0.0010 -0.0037 -0.0523 -7.8391 -0.0098 27.9083
#
#
#
# Elastic Compliance Matrix: (Units=1/GPa)
#
#
# Indices 1 2 3 4 5 6 
#
# 1 0.023814 -0.006794 -0.000830 -0.000018 0.006460 -0.000006
# 2 -0.006794 0.020510 -0.009373 0.000032 0.003029 -0.000005
# 3 -0.000830 -0.009373 0.012819 -0.000042 -0.002191 0.000010
# 4 -0.000018 0.000032 -0.000042 -0.070495 -0.000029 -0.019801
# 5 0.006460 0.003029 -0.002191 -0.000029 0.031976 -0.000001
# 6 -0.000006 -0.000005 0.000010 -0.019801 -0.000001 0.030270
#
#
# Mechanical properties :
#
#
# Convention : Reuss Voigt Hill
#
# Bulk Modulus (GPa) = 43.19967 57.66936 50.43452
# Shear Modulus (GPa) = 55.18460 20.24221 37.71340
#
# Velocity S-wave (km/s) = 5.07189 3.07178 4.19284
# Velocity P-wave (km/s) = 7.37808 6.28199 6.85199
#
# Compressibility (1/GPa) = 0.02314832
#
# Stress axis : x y z
#
# Youngs Moduli (GPa) = 41.99176 48.75686 78.01005
#
# Poissons Ratio (x) = 0.33124 0.06476
# Poissons Ratio (y) = 0.28528 0.73123
# Poissons Ratio (z) = 0.03486 0.45702
#
# Static dielectric constant tensor:
#      x y z
#    x 3.897220 0.000010 -0.106650 
#    y 0.000010 4.094970 0.000010 
#    z -0.106650 0.000010 4.041570 
# 
# 
# High freq. dielectric constant tensor:
#      x y z
#    x 1.833390 0.000000 -0.009140 
#    y 0.000000 1.830690 0.000000 
#    z -0.009140 0.000000 1.860400 
# 
# From -- ./inp_files/216611.got.cif
#   From: 2010.06.25/outbox.cif.g09.slc.cpg/sg12_109_cif.got.tgz:216611.got - 2010.06.28 00:19:55.
