data_PCOD8111299
_publ_section_title
;
Structure prediction by ZEFSAII (Michael W. Deem and Ramdas Pophale) SiO2 
 PCOD8111299
Probable space group: C 2/M
;
_chemical_formula_sum "Si O2"
_cell_formula_units_Z 56
_cell_length_a 14.580886
_cell_length_b 11.773774
_cell_length_c 17.698093
_cell_angle_alpha 90.000000
_cell_angle_beta 121.727295
_cell_angle_gamma 90.000000
_cell_volume 2584.231328
_symmetry_space_group_name_H-M "C 2/M"
_symmetry_group_IT_number 12
_symmetry_cell_setting 'monoclinic'
loop_
_space_group_symop_operation_xyz
x,y,z
-x,y,-z
-x,-y,-z
x,-y,z
1/2+x,1/2+y,z
1/2-x,1/2+y,-z
1/2-x,1/2-y,-z
1/2+x,1/2-y,z
loop_
_atom_site_type_symbol
_atom_site_label
_atom_site_fract_x
_atom_site_fract_y
_atom_site_fract_z
Si Si1 0.485486 0.000000 0.373898
Si Si2 0.926094 0.682208 0.903218
Si Si3 0.820946 0.500000 0.437774
Si Si4 0.450466 0.747502 0.312661
Si Si5 0.751691 0.370675 0.711000
Si Si6 0.182342 0.872323 0.046402
Si Si7 0.105564 0.248396 0.873030
Si Si8 0.687442 0.282468 0.399067
O O1 0.411895 0.000000 0.414874
O O2 0.612796 0.000000 0.453677
O O3 0.457494 0.114388 0.315177
O O4 0.820197 0.624564 0.820265
O O5 0.887913 0.797494 0.926899
O O6 0.998890 0.699254 0.862011
O O7 0.000000 0.616486 0.000000
O O8 0.742239 0.394667 0.390479
O O9 0.360242 0.699395 0.330389
O O10 0.421514 0.695536 0.218830
O O11 0.567649 0.695740 0.379972
O O12 0.725499 0.500000 0.677281
O O13 0.814925 0.312399 0.668557
O O14 0.308749 0.848093 0.105624
O O15 0.157955 0.000000 0.059542
O O16 0.150936 0.850818 0.945794
O O17 0.750000 0.250000 0.500000
#
# Coordination Sequence:
#
# PCOD8111299 Si02
#       8
#     4   8   4   8   8   8   8   8
#     4  11  24  44  78  99 135 179 236 292 343 405
#     4  10  22  44  68 100 136 180 234 281 336 408
#     4  11  24  48  72 106 133 182 228 294 346 414
#     4  12  25  45  70 105 137 183 230 288 345 420
#     4  12  28  47  67 104 147 182 227 292 354 412
#     4  10  22  42  66  95 136 179 226 284 340 404
#     4  10  22  39  64  99 131 171 231 274 337 403
#     4  12  27  48  74 102 139 180 236 282 352 420
#
# _framework density 21.669886999999999
#
# number of rings (size 3 to 8) (size 9 to 14) (size 15 to 20)
#    0.000    1.000    5.714    0.000    4.000    4.571 
#    1.286    0.714    0.000    0.000    0.000    0.000 
#    0.000    0.000    0.000    0.000    0.000    0.000 
#
# Total GULP energy -346963.812102 kJ/mol
# GULP energy per Si atom -12391.564718 kJ/mol
# Density = 2.162056 g / cm^3
# Si number density = 21.669887 Si / 1000 Ang^3
#
#
#
# Elastic Constant Matrix: (Units=GPa)
#
#
# Indices 1 2 3 4 5 6 
#
# 1 115.4787 19.3977 28.5811 0.0000 21.6057 0.0000
# 2 19.3977 100.5611 25.4390 0.0000 14.1118 0.0000
# 3 28.5811 25.4390 118.8758 0.0000 8.5849 0.0000
# 4 0.0000 0.0000 0.0000 16.3424 0.0000 -3.1903
# 5 21.6057 14.1118 8.5849 0.0000 37.4685 0.0000
# 6 0.0000 0.0000 0.0000 -3.1903 0.0000 37.2962
#
#
#
# Elastic Compliance Matrix: (Units=1/GPa)
#
#
# Indices 1 2 3 4 5 6 
#
# 1 0.010231 -0.000761 -0.001923 0.000000 -0.005172 0.000000
# 2 -0.000761 0.011042 -0.001944 0.000000 -0.003275 0.000000
# 3 -0.001923 -0.001944 0.009312 0.000000 -0.000292 0.000000
# 4 0.000000 0.000000 0.000000 0.062230 0.000000 0.005323
# 5 -0.005172 -0.003275 -0.000292 0.000000 0.030972 0.000000
# 6 0.000000 0.000000 0.000000 0.005323 0.000000 0.027268
#
#
# Mechanical properties :
#
#
# Convention : Reuss Voigt Hill
#
# Bulk Modulus (GPa) = 46.88484 53.52791 50.20637
# Shear Modulus (GPa) = 29.86495 35.65460 32.75978
#
# Velocity S-wave (km/s) = 3.71641 4.06070 3.89236
# Velocity P-wave (km/s) = 6.33234 6.83672 6.58936
#
# Compressibility (1/GPa) = 0.02132886
#
# Stress axis : x y z
#
# Youngs Moduli (GPa) = 97.73981 90.56157 107.39281
#
# Poissons Ratio (x) = 0.06893 0.20657
# Poissons Ratio (y) = 0.07439 0.20872
# Poissons Ratio (z) = 0.18800 0.17601
#
# Static dielectric constant tensor:
#      x y z
#    x 4.185820 0.000000 0.432290 
#    y 0.000000 3.727760 0.000000 
#    z 0.432290 0.000000 4.338030 
# 
# 
# High freq. dielectric constant tensor:
#      x y z
#    x 1.871400 0.000000 0.008430 
#    y 0.000000 1.822420 0.000000 
#    z 0.008430 0.000000 1.858950 
# 
# From -- ./inp_files/269406.got.cif
#   From: 2010.06.25/outbox.cif.g09.slc.cpg/sg12_135_cif.got.tgz:269406.got - 2010.06.28 00:19:55.
