data_PCOD8111589
_publ_section_title
;
Structure prediction by ZEFSAII (Michael W. Deem and Ramdas Pophale) SiO2 
 PCOD8111589
Probable space group: C 2/M
;
_chemical_formula_sum "Si O2"
_cell_formula_units_Z 48
_cell_length_a 9.454168
_cell_length_b 29.147844
_cell_length_c 15.893880
_cell_angle_alpha 90.000000
_cell_angle_beta 33.677160
_cell_angle_gamma 90.000000
_cell_volume 2428.685105
_symmetry_space_group_name_H-M "C 2/M"
_symmetry_group_IT_number 12
_symmetry_cell_setting 'monoclinic'
loop_
_space_group_symop_operation_xyz
x,y,z
-x,y,-z
-x,-y,-z
x,-y,z
1/2+x,1/2+y,z
1/2-x,1/2+y,-z
1/2-x,1/2-y,-z
1/2+x,1/2-y,z
loop_
_atom_site_type_symbol
_atom_site_label
_atom_site_fract_x
_atom_site_fract_y
_atom_site_fract_z
Si Si1 0.707806 0.620851 0.135453
Si Si2 0.206566 0.549208 0.160040
Si Si3 0.251153 0.553541 0.329078
Si Si4 0.522764 0.699090 0.347697
Si Si5 0.749512 0.639576 0.929919
Si Si6 0.116118 0.286701 0.679714
O O1 0.508341 0.579140 0.231881
O O2 0.634492 0.653269 0.250420
O O3 0.691894 0.649650 0.056129
O O4 0.000000 0.603186 0.000000
O O5 0.063979 0.500000 0.212745
O O6 0.178164 0.564420 0.270104
O O7 0.096199 0.590634 0.155768
O O8 0.500000 0.539545 0.000000
O O9 0.301486 0.500000 0.321411
O O10 0.000000 0.572017 0.500000
O O11 0.714092 0.719564 0.321710
O O12 0.260145 0.689830 0.528720
O O13 0.483152 0.736391 0.294662
O O14 0.880992 0.681921 0.820371
O O15 0.500000 0.629849 0.000000
#
# Coordination Sequence:
#
# PCOD8111589 Si02
#       6
#     8   8   8   8   8   8
#     4  12  24  40  60  96 132 161 200 262 326 363
#     4   9  17  34  58  86 118 157 205 248 291 357
#     4  10  22  40  63  93 126 165 214 257 299 369
#     4  10  24  42  64  84 123 161 204 258 310 376
#     4  11  22  37  60  91 120 163 209 247 306 375
#     4  10  23  44  61  88 117 163 208 253 312 371
#
# _framework density 19.763781000000002
#
# number of rings (size 3 to 8) (size 9 to 14) (size 15 to 20)
#    0.000    1.667    5.000    0.000    4.667    1.667 
#    3.000    0.000    0.000    0.000    0.000    5.833 
#    0.000    0.000    0.000    0.000    0.000    0.000 
#
# Total GULP energy -297419.341049 kJ/mol
# GULP energy per Si atom -12392.472544 kJ/mol
# Density = 1.971880 g / cm^3
# Si number density = 19.763781 Si / 1000 Ang^3
#
#
#
# Elastic Constant Matrix: (Units=GPa)
#
#
# Indices 1 2 3 4 5 6 
#
# 1 68.4799 25.4011 32.6217 0.0000 10.4343 0.0000
# 2 25.4011 75.4074 41.8079 0.0000 0.1315 0.0000
# 3 32.6217 41.8079 117.9537 0.0000 4.8726 0.0000
# 4 0.0000 0.0000 0.0000 31.2250 0.0000 8.3023
# 5 10.4343 0.1315 4.8726 0.0000 33.8282 0.0000
# 6 0.0000 0.0000 0.0000 8.3023 0.0000 11.7505
#
#
#
# Elastic Compliance Matrix: (Units=1/GPa)
#
#
# Indices 1 2 3 4 5 6 
#
# 1 0.018644 -0.004396 -0.003381 0.000000 -0.005247 0.000000
# 2 -0.004396 0.017562 -0.005092 0.000000 0.002021 0.000000
# 3 -0.003381 -0.005092 0.011241 0.000000 -0.000556 0.000000
# 4 0.000000 0.000000 0.000000 0.039434 0.000000 -0.027862
# 5 -0.005247 0.002021 -0.000556 0.000000 0.031252 0.000000
# 6 0.000000 0.000000 0.000000 -0.027862 0.000000 0.104789
#
#
# Mechanical properties :
#
#
# Convention : Reuss Voigt Hill
#
# Bulk Modulus (GPa) = 46.06844 51.27805 48.67325
# Shear Modulus (GPa) = 19.53915 26.16141 22.85028
#
# Velocity S-wave (km/s) = 3.14767 3.64222 3.40394
# Velocity P-wave (km/s) = 6.04736 6.60980 6.33483
#
# Compressibility (1/GPa) = 0.02170683
#
# Stress axis : x y z
#
# Youngs Moduli (GPa) = 53.63755 56.94093 88.96040
#
# Poissons Ratio (x) = 0.25033 0.30079
# Poissons Ratio (y) = 0.23581 0.45302
# Poissons Ratio (z) = 0.18136 0.28996
#
# Static dielectric constant tensor:
#      x y z
#    x 3.474800 0.000000 0.165630 
#    y 0.000000 3.757850 0.000000 
#    z 0.165630 0.000000 3.814040 
# 
# 
# High freq. dielectric constant tensor:
#      x y z
#    x 1.755350 0.000000 0.021280 
#    y 0.000000 1.768520 0.000000 
#    z 0.021280 0.000000 1.778750 
# 
# From -- ./inp_files/200762.got.cif
#   From: 2010.06.25/outbox.cif.g09.slc.cpg/sg12_101_cif.got.tgz:200762.got - 2010.06.28 00:19:55.
