data_PCOD8111687
_publ_section_title
;
Structure prediction by ZEFSAII (Michael W. Deem and Ramdas Pophale) SiO2 
 PCOD8111687
Probable space group: C 2/M
;
_chemical_formula_sum "Si O2"
_cell_formula_units_Z 48
_cell_length_a 29.089574
_cell_length_b 8.640957
_cell_length_c 9.481627
_cell_angle_alpha 90.000000
_cell_angle_beta 81.191165
_cell_angle_gamma 90.000000
_cell_volume 2355.206665
_symmetry_space_group_name_H-M "C 2/M"
_symmetry_group_IT_number 12
_symmetry_cell_setting 'monoclinic'
loop_
_space_group_symop_operation_xyz
x,y,z
-x,y,-z
-x,-y,-z
x,-y,z
1/2+x,1/2+y,z
1/2-x,1/2+y,-z
1/2-x,1/2-y,-z
1/2+x,1/2-y,z
loop_
_atom_site_type_symbol
_atom_site_label
_atom_site_fract_x
_atom_site_fract_y
_atom_site_fract_z
Si Si1 0.544288 0.817391 0.066903
Si Si2 0.781268 0.319963 0.604271
Si Si3 0.039311 0.178083 0.378055
Si Si4 0.771770 0.318902 0.127518
Si Si5 0.372462 0.324036 0.468612
Si Si6 0.627832 0.319709 0.852597
O O1 0.540819 0.768952 0.231119
O O2 0.545183 0.000000 0.058934
O O3 0.500000 0.751966 0.000000
O O4 0.591912 0.757371 0.976705
O O5 0.770545 0.500000 0.634837
O O6 0.750000 0.250000 0.500000
O O7 0.769004 0.218903 0.744717
O O8 0.834531 0.298356 0.536962
O O9 0.086556 0.197593 0.440757
O O10 0.000000 0.247172 0.500000
O O11 0.028311 0.000000 0.347270
O O12 0.780292 0.500000 0.109357
O O13 0.820407 0.242217 0.146975
O O14 0.750000 0.250000 0.000000
O O15 0.353083 0.500000 0.481504
O O16 0.387852 0.284533 0.301111
O O17 0.627782 0.500000 0.885911
#
# Coordination Sequence:
#
# PCOD8111687 Si02
#       6
#     8   8   8   8   8   8
#     4  11  25  43  64  93 131 171 212 262 320 384
#     4  12  24  41  65  94 129 173 220 266 320 380
#     4  10  22  42  68  97 126 163 211 264 318 382
#     4  12  26  44  66  94 131 172 218 268 323 386
#     4  10  22  40  65  95 128 164 213 267 322 383
#     4  11  23  42  68  95 127 169 215 265 323 382
#
# _framework density 20.380379000000001
#
# number of rings (size 3 to 8) (size 9 to 14) (size 15 to 20)
#    0.000    1.000    1.667    5.000    2.333    4.333 
#    0.000    0.000    0.000    0.000    0.000    0.000 
#    0.000    0.000    0.000    0.000    0.000    0.000 
#
# Total GULP energy -297637.343364 kJ/mol
# GULP energy per Si atom -12401.555974 kJ/mol
# Density = 2.033399 g / cm^3
# Si number density = 20.380379 Si / 1000 Ang^3
#
#
#
# Elastic Constant Matrix: (Units=GPa)
#
#
# Indices 1 2 3 4 5 6 
#
# 1 86.9827 35.3775 49.8500 0.0000 -7.8448 0.0000
# 2 35.3775 75.8912 50.2777 0.0000 4.1398 0.0000
# 3 49.8500 50.2777 163.0505 0.0000 -1.3915 0.0000
# 4 0.0000 0.0000 0.0000 33.1529 0.0000 -0.5560
# 5 -7.8448 4.1398 -1.3915 0.0000 42.5048 0.0000
# 6 0.0000 0.0000 0.0000 -0.5560 0.0000 32.7268
#
#
#
# Elastic Compliance Matrix: (Units=1/GPa)
#
#
# Indices 1 2 3 4 5 6 
#
# 1 0.015818 -0.005494 -0.003113 0.000000 0.003352 0.000000
# 2 -0.005494 0.018604 -0.004082 0.000000 -0.002960 0.000000
# 3 -0.003113 -0.004082 0.008344 0.000000 0.000096 0.000000
# 4 0.000000 0.000000 0.000000 0.030172 0.000000 0.000513
# 5 0.003352 -0.002960 0.000096 0.000000 0.024437 0.000000
# 6 0.000000 0.000000 0.000000 0.000513 0.000000 0.030565
#
#
# Mechanical properties :
#
#
# Convention : Reuss Voigt Hill
#
# Bulk Modulus (GPa) = 57.51393 66.32610 61.92001
# Shear Modulus (GPa) = 31.42409 34.37150 32.89780
#
# Velocity S-wave (km/s) = 3.93094 4.11116 4.02206
# Velocity P-wave (km/s) = 6.99175 7.42632 7.21231
#
# Compressibility (1/GPa) = 0.01738709
#
# Stress axis : x y z
#
# Youngs Moduli (GPa) = 63.22077 53.75287 119.83957
#
# Poissons Ratio (x) = 0.29531 0.37309
# Poissons Ratio (y) = 0.34733 0.48920
# Poissons Ratio (z) = 0.19682 0.21943
#
# Static dielectric constant tensor:
#      x y z
#    x 3.610630 0.000000 0.043690 
#    y 0.000000 3.816090 0.000000 
#    z 0.043690 0.000000 3.857200 
# 
# 
# High freq. dielectric constant tensor:
#      x y z
#    x 1.807050 0.000000 0.000180 
#    y 0.000000 1.800000 0.000000 
#    z 0.000180 0.000000 1.816020 
# 
# From -- ./inp_files/108736.got.cif
#   From: 2010.06.25/outbox.cif.g09.slc.cpg/sg12_55_cif.got.tgz:108736.got - 2010.06.28 00:19:55.
