data_PCOD8111623
_publ_section_title
;
Structure prediction by ZEFSAII (Michael W. Deem and Ramdas Pophale) SiO2 
 PCOD8111623
Probable space group: C 2/M
;
_chemical_formula_sum "Si O2"
_cell_formula_units_Z 56
_cell_length_a 26.869284
_cell_length_b 17.132207
_cell_length_c 9.101181
_cell_angle_alpha 90.000000
_cell_angle_beta 41.269491
_cell_angle_gamma 90.000000
_cell_volume 2763.432233
_symmetry_space_group_name_H-M "C 2/M"
_symmetry_group_IT_number 12
_symmetry_cell_setting 'monoclinic'
loop_
_space_group_symop_operation_xyz
x,y,z
-x,y,-z
-x,-y,-z
x,-y,z
1/2+x,1/2+y,z
1/2-x,1/2+y,-z
1/2-x,1/2-y,-z
1/2+x,1/2-y,z
loop_
_atom_site_type_symbol
_atom_site_label
_atom_site_fract_x
_atom_site_fract_y
_atom_site_fract_z
Si Si1 0.664197 0.242067 0.221608
Si Si2 0.589052 0.086365 0.296814
Si Si3 0.980233 0.088271 0.202826
Si Si4 0.325094 0.088238 0.198361
Si Si5 0.446022 0.293430 0.749265
Si Si6 0.663686 0.331813 0.513271
Si Si7 0.419448 0.215371 0.102704
O O1 0.633305 0.153648 0.285870
O O2 0.631575 0.301195 0.168742
O O3 0.649050 0.268738 0.419825
O O4 0.750000 0.250000 0.000000
O O5 0.500000 0.103726 0.500000
O O6 0.604232 0.000000 0.332791
O O7 0.622166 0.085633 0.059853
O O8 0.889939 0.095545 0.414374
O O9 0.024258 0.127903 0.240377
O O10 0.007554 0.000000 0.146581
O O11 0.000000 0.127044 0.000000
O O12 0.247784 0.136105 0.341235
O O13 0.371123 0.135196 0.222511
O O14 0.306726 0.000000 0.293410
O O15 0.500000 0.261894 0.500000
O O16 0.436690 0.227195 0.892005
O O17 0.632592 0.287832 0.727355
O O18 0.500000 0.206325 0.000000
#
# Coordination Sequence:
#
# PCOD8111623 Si02
#       7
#     8   8   8   8   8   8   8
#     4  12  23  39  65  97 124 166 217 268 320 381
#     4  10  22  40  64  91 126 167 212 263 317 377
#     4  11  23  41  65  95 131 170 211 260 325 387
#     4  11  25  42  64  94 130 174 213 263 327 383
#     4  12  21  40  64  95 130 164 217 264 311 383
#     4  12  22  43  66  95 129 171 215 266 320 391
#     4  12  23  41  68  99 126 167 222 265 320 382
#
# _framework density 20.264654
#
# number of rings (size 3 to 8) (size 9 to 14) (size 15 to 20)
#    0.000    0.571    7.143    1.286    2.000    0.571 
#    0.000    1.429    0.000    0.000    0.000    0.000 
#    0.000    0.000    0.000    0.000    0.000    0.000 
#
# Total GULP energy -346906.333183 kJ/mol
# GULP energy per Si atom -12389.511899 kJ/mol
# Density = 2.021853 g / cm^3
# Si number density = 20.264654 Si / 1000 Ang^3
#
#
#
# Elastic Constant Matrix: (Units=GPa)
#
#
# Indices 1 2 3 4 5 6 
#
# 1 122.0452 59.0968 61.4901 0.0000 -23.3096 0.0000
# 2 59.0968 140.6100 42.2734 0.0000 -13.5530 0.0000
# 3 61.4901 42.2734 108.0251 0.0000 -14.3604 0.0000
# 4 0.0000 0.0000 0.0000 129.2404 0.0000 -825.1975
# 5 -23.3096 -13.5530 -14.3604 0.0000 42.5734 0.0000
# 6 0.0000 0.0000 0.0000 -825.1975 0.0000 6550.5032
#
#
#
# Elastic Compliance Matrix: (Units=1/GPa)
#
#
# Indices 1 2 3 4 5 6 
#
# 1 0.013697 -0.003586 -0.005808 0.000000 0.004398 0.000000
# 2 -0.003586 0.009101 -0.001461 0.000000 0.000441 0.000000
# 3 -0.005808 -0.001461 0.013245 0.000000 0.000822 0.000000
# 4 0.000000 0.000000 0.000000 0.039547 0.000000 0.004982
# 5 0.004398 0.000441 0.000822 0.000000 0.026315 0.000000
# 6 0.000000 0.000000 0.000000 0.004982 0.000000 0.000780
#
#
# Mechanical properties :
#
#
# Convention : Reuss Voigt Hill
#
# Bulk Modulus (GPa) = 69.78400 77.37788 73.58094
# Shear Modulus (GPa) = 38.70777 1358.31809 698.51293
#
# Velocity S-wave (km/s) = 4.37522 25.91803 18.58611
# Velocity P-wave (km/s) = 7.74820 30.56020 22.29305
#
# Compressibility (1/GPa) = 0.01432993
#
# Stress axis : x y z
#
# Youngs Moduli (GPa) = 73.01011 109.87738 75.50300
#
# Poissons Ratio (x) = 0.39407 0.43854
# Poissons Ratio (y) = 0.26185 0.11034
# Poissons Ratio (z) = 0.42406 0.16058
#
# Static dielectric constant tensor:
#      x y z
#    x 3.715560 0.000000 -0.034100 
#    y 0.000000 3.816560 0.000000 
#    z -0.034100 0.000000 3.937780 
# 
# 
# High freq. dielectric constant tensor:
#      x y z
#    x 1.784470 0.000000 -0.011140 
#    y 0.000000 1.792420 0.000000 
#    z -0.011140 0.000000 1.805510 
# 
# From -- ./inp_files/105921.got.cif
#   From: 2010.06.25/outbox.cif.g09.slc.cpg/sg12_53_cif.got.tgz:105921.got - 2010.06.28 00:19:55.
