data_PCOD8111551
_publ_section_title
;
Structure prediction by ZEFSAII (Michael W. Deem and Ramdas Pophale) SiO2 
 PCOD8111551
Probable space group: C 2/M
;
_chemical_formula_sum "Si O2"
_cell_formula_units_Z 36
_cell_length_a 18.872854
_cell_length_b 14.036225
_cell_length_c 17.060270
_cell_angle_alpha 90.000000
_cell_angle_beta 21.472452
_cell_angle_gamma 90.000000
_cell_volume 1654.317122
_symmetry_space_group_name_H-M "C 2/M"
_symmetry_group_IT_number 12
_symmetry_cell_setting 'monoclinic'
loop_
_space_group_symop_operation_xyz
x,y,z
-x,y,-z
-x,-y,-z
x,-y,z
1/2+x,1/2+y,z
1/2-x,1/2+y,-z
1/2-x,1/2-y,-z
1/2+x,1/2-y,z
loop_
_atom_site_type_symbol
_atom_site_label
_atom_site_fract_x
_atom_site_fract_y
_atom_site_fract_z
Si Si1 0.558608 0.000000 0.648111
Si Si2 0.481931 0.840923 0.434361
Si Si3 0.352272 0.298930 0.968057
Si Si4 0.778373 0.000000 0.578776
Si Si5 0.122919 0.000000 0.126954
Si Si6 0.137159 0.302229 0.783894
O O1 0.586371 0.090963 0.564576
O O2 0.720686 0.000000 0.546714
O O3 0.353298 0.000000 0.904591
O O4 0.500000 0.893908 0.500000
O O5 0.333034 0.754933 0.596026
O O6 0.695325 0.801300 0.198308
O O7 0.430300 0.404822 0.867428
O O8 0.531097 0.235991 0.814703
O O9 0.250000 0.250000 0.000000
O O10 0.699454 0.089447 0.706988
O O11 0.013056 0.000000 0.324909
O O12 0.000000 0.293701 0.000000
#
# Coordination Sequence:
#
# PCOD8111551 Si02
#       6
#     4   8   8   4   4   8
#     4  10  23  41  68  98 127 165 209 270 326 389
#     4  11  22  42  66  97 133 167 211 264 333 391
#     4  11  23  42  68  96 133 171 219 269 320 393
#     4  12  25  43  64  93 128 172 227 265 318 386
#     4  10  22  40  63 100 123 163 216 265 324 373
#     4  12  25  43  64  95 131 174 218 270 325 383
#
# _framework density 21.761244999999999
#
# number of rings (size 3 to 8) (size 9 to 14) (size 15 to 20)
#    0.000    0.889    2.222    6.000    0.000    2.667 
#    0.000    1.667    0.000    0.000    0.000    0.000 
#    0.000    0.000    0.000    0.000    0.000    0.000 
#
# Total GULP energy -223205.520897 kJ/mol
# GULP energy per Si atom -12400.306717 kJ/mol
# Density = 2.171172 g / cm^3
# Si number density = 21.761245 Si / 1000 Ang^3
#
#
#
# Elastic Constant Matrix: (Units=GPa)
#
#
# Indices 1 2 3 4 5 6 
#
# 1 60.2769 8.8819 -15.8580 -0.0065 1.3002 -0.0171
# 2 8.8819 145.0995 36.4416 -0.0064 -3.0716 -0.0299
# 3 -15.8580 36.4416 92.4181 -0.0051 7.1513 -0.0574
# 4 -0.0065 -0.0064 -0.0051 24.9569 0.0068 8.0530
# 5 1.3002 -3.0716 7.1513 0.0068 21.7306 0.0078
# 6 -0.0171 -0.0299 -0.0574 8.0530 0.0078 9.7174
#
#
#
# Elastic Compliance Matrix: (Units=1/GPa)
#
#
# Indices 1 2 3 4 5 6 
#
# 1 0.018080 -0.002218 0.004192 -0.000015 -0.002775 0.000064
# 2 -0.002218 0.008019 -0.003736 0.000002 0.002495 -0.000005
# 3 0.004192 -0.003736 0.013415 -0.000029 -0.005193 0.000103
# 4 -0.000015 0.000002 -0.000029 0.054695 0.000010 -0.045328
# 5 -0.002775 0.002495 -0.005193 0.000010 0.048246 -0.000074
# 6 0.000064 -0.000005 0.000103 -0.045328 -0.000074 0.140473
#
#
# Mechanical properties :
#
#
# Convention : Reuss Voigt Hill
#
# Bulk Modulus (GPa) = 27.78651 39.63617 33.71134
# Shear Modulus (GPa) = 16.75335 29.16956 22.96146
#
# Velocity S-wave (km/s) = 2.77767 3.66517 3.25184
# Velocity P-wave (km/s) = 4.80456 6.01373 5.44283
#
# Compressibility (1/GPa) = 0.03598868
#
# Stress axis : x y z
#
# Youngs Moduli (GPa) = 55.31099 124.70984 74.54585
#
# Poissons Ratio (x) = 0.27663 -0.31247
# Poissons Ratio (y) = 0.12269 0.27847
# Poissons Ratio (z) = -0.23185 0.46586
#
# Static dielectric constant tensor:
#      x y z
#    x 3.775990 0.000000 0.138110 
#    y 0.000000 3.965020 0.000140 
#    z 0.138110 0.000140 4.268640 
# 
# 
# High freq. dielectric constant tensor:
#      x y z
#    x 1.844060 0.000000 0.003900 
#    y 0.000000 1.861200 0.000010 
#    z 0.003900 0.000010 1.877210 
# 
# From -- ./inp_files/284216.got.cif
#   From: 2010.06.25/outbox.cif.g09.slc.cpg/sg12_143_cif.got.tgz:284216.got - 2010.06.28 00:19:55.
