data_PCOD8111628
_publ_section_title
;
Structure prediction by ZEFSAII (Michael W. Deem and Ramdas Pophale) SiO2 
 PCOD8111628
Probable space group: C 2/M
;
_chemical_formula_sum "Si O2"
_cell_formula_units_Z 32
_cell_length_a 8.635937
_cell_length_b 26.717765
_cell_length_c 8.008224
_cell_angle_alpha 90.000000
_cell_angle_beta 130.875792
_cell_angle_gamma 90.000000
_cell_volume 1397.147614
_symmetry_space_group_name_H-M "C 2/M"
_symmetry_group_IT_number 12
_symmetry_cell_setting 'monoclinic'
loop_
_space_group_symop_operation_xyz
x,y,z
-x,y,-z
-x,-y,-z
x,-y,z
1/2+x,1/2+y,z
1/2-x,1/2+y,-z
1/2-x,1/2-y,-z
1/2+x,1/2-y,z
loop_
_atom_site_type_symbol
_atom_site_label
_atom_site_fract_x
_atom_site_fract_y
_atom_site_fract_z
Si Si1 0.872419 0.819049 0.633524
Si Si2 0.500000 0.611145 0.000000
Si Si3 0.500000 0.764437 0.500000
Si Si4 0.142867 0.557961 0.890290
Si Si5 0.727535 0.593543 0.666820
O O1 0.011410 0.856130 0.839834
O O2 0.694830 0.800575 0.632569
O O3 0.001280 0.770645 0.665776
O O4 0.789823 0.848958 0.411372
O O5 0.705449 0.576911 0.149375
O O6 0.183583 0.500000 0.955906
O O7 0.901419 0.566085 0.674929
O O8 0.195491 0.590835 0.089854
O O9 0.500000 0.568148 0.500000
#
# Coordination Sequence:
#
# PCOD8111628 Si02
#       5
#     8   4   4   8   8
#     4  11  22  41  64  92 127 171 203 268 317 379
#     4  12  23  44  62  94 136 166 210 262 331 366
#     4  10  22  40  64  92 124 162 222 254 318 384
#     4  11  25  41  66  98 127 168 221 262 307 385
#     4  11  21  44  66  91 127 175 207 261 322 372
#
# _framework density 22.903807
#
# number of rings (size 3 to 8) (size 9 to 14) (size 15 to 20)
#    0.000    1.000    3.750    3.375    0.000    3.000 
#    0.000   11.250    0.000    0.000    0.000    0.000 
#    0.000    0.000    0.000    0.000    0.000    0.000 
#
# Total GULP energy -198263.607758 kJ/mol
# GULP energy per Si atom -12391.475485 kJ/mol
# Density = 2.285168 g / cm^3
# Si number density = 22.903807 Si / 1000 Ang^3
#
#
#
# Elastic Constant Matrix: (Units=GPa)
#
#
# Indices 1 2 3 4 5 6 
#
# 1 155.0551 51.1893 32.8026 0.0000 52.2518 0.0000
# 2 51.1893 118.6212 36.9668 0.0000 7.0455 0.0000
# 3 32.8026 36.9668 71.4299 0.0000 15.7148 0.0000
# 4 0.0000 0.0000 0.0000 17.7187 0.0000 5.1667
# 5 52.2518 7.0455 15.7148 0.0000 42.5650 0.0000
# 6 0.0000 0.0000 0.0000 5.1667 0.0000 34.7899
#
#
#
# Elastic Compliance Matrix: (Units=1/GPa)
#
#
# Indices 1 2 3 4 5 6 
#
# 1 0.013248 -0.004724 -0.000254 0.000000 -0.015387 0.000000
# 2 -0.004724 0.011739 -0.005174 0.000000 0.005766 0.000000
# 3 -0.000254 -0.005174 0.017999 0.000000 -0.005477 0.000000
# 4 0.000000 0.000000 0.000000 0.058992 0.000000 -0.008761
# 5 -0.015387 0.005766 -0.005477 0.000000 0.043450 0.000000
# 6 0.000000 0.000000 0.000000 -0.008761 0.000000 0.030045
#
#
# Mechanical properties :
#
#
# Convention : Reuss Voigt Hill
#
# Bulk Modulus (GPa) = 44.08865 65.22485 54.65675
# Shear Modulus (GPa) = 24.58961 33.95789 29.27375
#
# Velocity S-wave (km/s) = 3.28014 3.85467 3.57895
# Velocity P-wave (km/s) = 5.79975 6.95348 6.40265
#
# Compressibility (1/GPa) = 0.02268157
#
# Stress axis : x y z
#
# Youngs Moduli (GPa) = 75.48403 85.18773 55.55819
#
# Poissons Ratio (x) = 0.40242 0.01410
# Poissons Ratio (y) = 0.35658 0.28748
# Poissons Ratio (z) = 0.01916 0.44079
#
# Static dielectric constant tensor:
#      x y z
#    x 4.908220 0.000000 0.415860 
#    y 0.000000 4.001780 0.000000 
#    z 0.415860 0.000000 3.743350 
# 
# 
# High freq. dielectric constant tensor:
#      x y z
#    x 1.942470 0.000000 0.011600 
#    y 0.000000 1.899450 0.000000 
#    z 0.011600 0.000000 1.858520 
# 
# From -- ./inp_files/40101.got.cif
#   From: 2010.06.25/outbox.cif.g09.slc.cpg/sg12_21_cif.got.tgz:40101.got - 2010.06.28 00:19:55.
