data_PCOD8111809
_publ_section_title
;
Structure prediction by ZEFSAII (Michael W. Deem and Ramdas Pophale) SiO2 
 PCOD8111809
Probable space group: C 2/M
;
_chemical_formula_sum "Si O2"
_cell_formula_units_Z 56
_cell_length_a 15.232304
_cell_length_b 8.830890
_cell_length_c 23.842058
_cell_angle_alpha 90.000000
_cell_angle_beta 62.723929
_cell_angle_gamma 90.000000
_cell_volume 2850.507011
_symmetry_space_group_name_H-M "C 2/M"
_symmetry_group_IT_number 12
_symmetry_cell_setting 'monoclinic'
loop_
_space_group_symop_operation_xyz
x,y,z
-x,y,-z
-x,-y,-z
x,-y,z
1/2+x,1/2+y,z
1/2-x,1/2+y,-z
1/2-x,1/2-y,-z
1/2+x,1/2-y,z
loop_
_atom_site_type_symbol
_atom_site_label
_atom_site_fract_x
_atom_site_fract_y
_atom_site_fract_z
Si Si1 0.020569 0.821506 0.652827
Si Si2 0.493058 0.823357 0.879833
Si Si3 0.342439 0.678491 0.003319
Si Si4 0.320847 0.323584 0.137259
Si Si5 0.905696 0.675696 0.785440
Si Si6 0.273133 0.179492 0.433322
Si Si7 0.423678 0.320847 0.567654
O O1 0.125568 0.739694 0.621644
O O2 0.965498 0.780796 0.725871
O O3 0.953999 0.761995 0.620370
O O4 0.038542 0.000000 0.644011
O O5 0.443361 0.733520 0.945567
O O6 0.607163 0.771476 0.843140
O O7 0.438773 0.781021 0.838231
O O8 0.484735 0.000000 0.894582
O O9 0.333225 0.500000 0.001254
O O10 0.250000 0.750000 0.000000
O O11 0.340664 0.730327 0.068138
O O12 0.343889 0.500000 0.137659
O O13 0.209386 0.286456 0.187708
O O14 0.928107 0.500000 0.766284
O O15 0.250000 0.250000 0.500000
O O16 0.187174 0.230251 0.415198
O O17 0.277159 0.000000 0.438869
O O18 0.500000 0.251269 0.500000
O O19 0.431806 0.500000 0.563679
#
# Coordination Sequence:
#
# PCOD8111809 Si02
#       7
#     8   8   8   8   8   8   8
#     4  11  23  40  62  89 118 154 203 245 291 357
#     4  11  23  40  62  90 122 160 205 249 302 366
#     4  11  21  37  62  91 123 158 200 253 310 359
#     4  10  22  41  62  87 122 161 200 251 308 357
#     4  10  23  44  61  81 122 164 198 244 303 356
#     4  11  21  37  62  90 121 155 191 238 296 351
#     4   9  18  36  60  85 118 153 185 231 291 349
#
# _framework density 19.645626
#
# number of rings (size 3 to 8) (size 9 to 14) (size 15 to 20)
#    0.000    1.571    2.857    2.143    0.000    5.714 
#    0.000    7.857    0.000    0.000    0.000    0.000 
#    0.000    0.000    0.000    0.000    0.000    0.000 
#
# Total GULP energy -347309.187833 kJ/mol
# GULP energy per Si atom -12403.899565 kJ/mol
# Density = 1.960091 g / cm^3
# Si number density = 19.645626 Si / 1000 Ang^3
#
#
#
# Elastic Constant Matrix: (Units=GPa)
#
#
# Indices 1 2 3 4 5 6 
#
# 1 129.4836 33.7181 26.0976 0.0000 -19.9779 0.0000
# 2 33.7181 54.1018 25.4583 0.0000 -2.4228 0.0000
# 3 26.0976 25.4583 88.6834 0.0000 -18.2723 0.0000
# 4 0.0000 0.0000 0.0000 33.4243 0.0000 -2.7983
# 5 -19.9779 -2.4228 -18.2723 0.0000 22.2463 0.0000
# 6 0.0000 0.0000 0.0000 -2.7983 0.0000 35.4012
#
#
#
# Elastic Compliance Matrix: (Units=1/GPa)
#
#
# Indices 1 2 3 4 5 6 
#
# 1 0.010776 -0.006614 0.000690 0.000000 0.009523 0.000000
# 2 -0.006614 0.025629 -0.007294 0.000000 -0.009139 0.000000
# 3 0.000690 -0.007294 0.015806 0.000000 0.012807 0.000000
# 4 0.000000 0.000000 0.000000 0.030118 0.000000 0.002381
# 5 0.009523 -0.009139 0.012807 0.000000 0.063028 0.000000
# 6 0.000000 0.000000 0.000000 0.002381 0.000000 0.028436
#
#
# Mechanical properties :
#
#
# Convention : Reuss Voigt Hill
#
# Bulk Modulus (GPa) = 38.79887 49.20184 44.00035
# Shear Modulus (GPa) = 23.94425 30.68067 27.31246
#
# Velocity S-wave (km/s) = 3.49493 3.95613 3.73266
# Velocity P-wave (km/s) = 6.00652 6.77990 6.40489
#
# Compressibility (1/GPa) = 0.02577395
#
# Stress axis : x y z
#
# Youngs Moduli (GPa) = 92.80293 39.01889 63.26792
#
# Poissons Ratio (x) = 0.25806 -0.04364
# Poissons Ratio (y) = 0.61378 0.46147
# Poissons Ratio (z) = -0.06401 0.28460
#
# Static dielectric constant tensor:
#      x y z
#    x 3.915990 0.000000 -0.046610 
#    y 0.000000 3.452470 0.000000 
#    z -0.046610 0.000000 3.607090 
# 
# 
# High freq. dielectric constant tensor:
#      x y z
#    x 1.785040 0.000000 -0.004260 
#    y 0.000000 1.755600 0.000000 
#    z -0.004260 0.000000 1.761290 
# 
# From -- ./inp_files/338461.got.cif
#   From: 2010.06.25/outbox.cif.g09.slc.cpg/sg12_170_cif.got.tgz:338461.got - 2010.06.28 00:19:55.
