data_PCOD8111232
_publ_section_title
;
Structure prediction by ZEFSAII (Michael W. Deem and Ramdas Pophale) SiO2 
 PCOD8111232
Probable space group: C 2/M
;
_chemical_formula_sum "Si O2"
_cell_formula_units_Z 56
_cell_length_a 23.431394
_cell_length_b 8.649614
_cell_length_c 15.010420
_cell_angle_alpha 90.000000
_cell_angle_beta 118.564344
_cell_angle_gamma 90.000000
_cell_volume 2671.905159
_symmetry_space_group_name_H-M "C 2/M"
_symmetry_group_IT_number 12
_symmetry_cell_setting 'monoclinic'
loop_
_space_group_symop_operation_xyz
x,y,z
-x,y,-z
-x,-y,-z
x,-y,z
1/2+x,1/2+y,z
1/2-x,1/2+y,-z
1/2-x,1/2-y,-z
1/2+x,1/2-y,z
loop_
_atom_site_type_symbol
_atom_site_label
_atom_site_fract_x
_atom_site_fract_y
_atom_site_fract_z
Si Si1 0.189882 0.819294 0.510843
Si Si2 0.430384 0.176074 0.670969
Si Si3 0.265725 0.819734 0.285606
Si Si4 0.362989 0.177001 0.798667
Si Si5 0.064936 0.827312 0.993459
Si Si6 0.209579 0.818661 0.886707
Si Si7 0.571732 0.179548 0.814492
O O1 0.250000 0.750000 0.500000
O O2 0.119369 0.788364 0.415489
O O3 0.182906 0.748961 0.605486
O O4 0.202522 0.000000 0.526579
O O5 0.420502 0.192357 0.770085
O O6 0.506202 0.219107 0.708502
O O7 0.416001 0.000000 0.630398
O O8 0.197104 0.779497 0.281214
O O9 0.264665 0.741952 0.188064
O O10 0.278069 0.000000 0.283500
O O11 0.341185 0.000000 0.794713
O O12 0.380725 0.246769 0.906969
O O13 0.054352 0.716934 0.902596
O O14 0.088115 0.000000 0.982222
O O15 0.000000 0.839995 0.000000
O O16 0.133149 0.779327 0.830721
O O17 0.219261 0.000000 0.898753
O O18 0.250000 0.750000 0.000000
O O19 0.589430 0.000000 0.817442
#
# Coordination Sequence:
#
# PCOD8111232 Si02
#       7
#     8   8   8   8   8   8   8
#     4  12  24  40  65  97 134 173 216 269 326 386
#     4  10  22  39  62  92 129 168 210 261 322 385
#     4  12  25  43  67  95 128 169 218 270 324 384
#     4  11  21  36  59  89 126 166 209 259 319 382
#     4  11  22  34  53  85 125 164 208 257 314 380
#     4  12  26  47  71  97 130 171 220 270 322 386
#     4  11  23  42  65  91 127 170 215 266 325 385
#
# _framework density 20.958828
#
# number of rings (size 3 to 8) (size 9 to 14) (size 15 to 20)
#    0.000    0.714    2.857    6.000    0.000    2.286 
#    0.000    0.714    0.000    4.286    0.000    0.000 
#    0.000    0.000    0.000    0.000    0.000    0.000 
#
# Total GULP energy -347154.708459 kJ/mol
# GULP energy per Si atom -12398.382445 kJ/mol
# Density = 2.091113 g / cm^3
# Si number density = 20.958828 Si / 1000 Ang^3
#
#
#
# Elastic Constant Matrix: (Units=GPa)
#
#
# Indices 1 2 3 4 5 6 
#
# 1 81.3034 41.8844 35.7141 0.0000 12.7780 0.0000
# 2 41.8844 144.6616 51.3798 0.0000 5.7577 0.0000
# 3 35.7141 51.3798 116.2733 0.0000 10.0120 0.0000
# 4 0.0000 0.0000 0.0000 36.5449 0.0000 2.4773
# 5 12.7780 5.7577 10.0120 0.0000 31.7309 0.0000
# 6 0.0000 0.0000 0.0000 2.4773 0.0000 32.8144
#
#
#
# Elastic Compliance Matrix: (Units=1/GPa)
#
#
# Indices 1 2 3 4 5 6 
#
# 1 0.016162 -0.003405 -0.003035 0.000000 -0.004933 0.000000
# 2 -0.003405 0.008921 -0.002955 0.000000 0.000685 0.000000
# 3 -0.003035 -0.002955 0.010985 0.000000 -0.001708 0.000000
# 4 0.000000 0.000000 0.000000 0.027504 0.000000 -0.002076
# 5 -0.004933 0.000685 -0.001708 0.000000 0.033916 0.000000
# 6 0.000000 0.000000 0.000000 -0.002076 0.000000 0.030631
#
#
# Mechanical properties :
#
#
# Convention : Reuss Voigt Hill
#
# Bulk Modulus (GPa) = 57.87604 66.68833 62.28219
# Shear Modulus (GPa) = 32.75031 34.43536 33.59284
#
# Velocity S-wave (km/s) = 3.95726 4.05779 4.00784
# Velocity P-wave (km/s) = 6.96807 7.33771 7.15528
#
# Compressibility (1/GPa) = 0.01727831
#
# Stress axis : x y z
#
# Youngs Moduli (GPa) = 61.87237 112.09587 91.02938
#
# Poissons Ratio (x) = 0.38172 0.27626
# Poissons Ratio (y) = 0.21069 0.26900
# Poissons Ratio (z) = 0.18777 0.33125
#
# Static dielectric constant tensor:
#      x y z
#    x 3.876900 0.000000 0.171210 
#    y 0.000000 3.894250 0.000000 
#    z 0.171210 0.000000 3.982090 
# 
# 
# High freq. dielectric constant tensor:
#      x y z
#    x 1.810490 0.000000 0.013670 
#    y 0.000000 1.830600 0.000000 
#    z 0.013670 0.000000 1.825060 
# 
# From -- ./inp_files/238948.got.cif
#   From: 2010.06.25/outbox.cif.g09.slc.cpg/sg12_120_cif.got.tgz:238948.got - 2010.06.28 00:19:55.
