data_PCOD8111478
_publ_section_title
;
Structure prediction by ZEFSAII (Michael W. Deem and Ramdas Pophale) SiO2 
 PCOD8111478
Probable space group: C 2/M
;
_chemical_formula_sum "Si O2"
_cell_formula_units_Z 64
_cell_length_a 21.495724
_cell_length_b 13.974076
_cell_length_c 16.636823
_cell_angle_alpha 90.000000
_cell_angle_beta 41.274021
_cell_angle_gamma 90.000000
_cell_volume 3296.600791
_symmetry_space_group_name_H-M "C 2/M"
_symmetry_group_IT_number 12
_symmetry_cell_setting 'monoclinic'
loop_
_space_group_symop_operation_xyz
x,y,z
-x,y,-z
-x,-y,-z
x,-y,z
1/2+x,1/2+y,z
1/2-x,1/2+y,-z
1/2-x,1/2-y,-z
1/2+x,1/2-y,z
loop_
_atom_site_type_symbol
_atom_site_label
_atom_site_fract_x
_atom_site_fract_y
_atom_site_fract_z
Si Si1 0.098622 0.111345 0.609769
Si Si2 0.581002 0.890955 0.359436
Si Si3 0.758561 0.390121 0.158132
Si Si4 0.706526 0.609388 0.813444
Si Si5 0.909636 0.782387 0.762131
Si Si6 0.886046 0.235021 0.970183
Si Si7 0.103715 0.214499 0.769114
Si Si8 0.722551 0.107807 0.671820
O O1 0.127502 0.152547 0.668033
O O2 0.181987 0.131819 0.467283
O O3 0.007726 0.162587 0.662164
O O4 0.076149 0.000000 0.641682
O O5 0.500000 0.859703 0.500000
O O6 0.681347 0.880959 0.306871
O O7 0.575865 0.823859 0.286553
O O8 0.565558 0.000000 0.344911
O O9 0.761689 0.500000 0.128030
O O10 0.664324 0.341298 0.217858
O O11 0.756760 0.377783 0.254974
O O12 0.851321 0.339127 0.032599
O O13 0.672985 0.500000 0.842955
O O14 0.655194 0.667564 0.794090
O O15 0.678061 0.652898 0.927300
O O16 0.872102 0.773961 0.888874
O O17 0.993017 0.219834 0.893891
O O18 0.140724 0.322220 0.720428
O O19 0.688426 0.000000 0.686425
#
# Coordination Sequence:
#
# PCOD8111478 Si02
#       8
#     8   8   8   8   8   8   8   8
#     4  10  23  40  61  92 124 156 200 259 307 359
#     4  10  23  42  65  95 126 157 200 253 306 366
#     4  11  23  39  61  88 121 162 204 246 302 366
#     4  11  23  40  66  91 120 161 204 253 306 362
#     4  11  23  39  64  91 122 162 202 252 305 365
#     4  11  24  40  57  91 123 158 207 251 302 356
#     4  11  22  40  64  87 124 160 208 251 306 362
#     4  10  22  40  61  89 122 158 204 249 305 366
#
# _framework density 19.413937000000001
#
# number of rings (size 3 to 8) (size 9 to 14) (size 15 to 20)
#    0.000    1.375    2.500    1.875    3.500    4.500 
#    0.000    5.000    0.000    0.000    0.000    0.000 
#    0.000    0.000    0.000    0.000    0.000    0.000 
#
# Total GULP energy -396965.634761 kJ/mol
# GULP energy per Si atom -12405.176086 kJ/mol
# Density = 1.936975 g / cm^3
# Si number density = 19.413937 Si / 1000 Ang^3
#
#
#
# Elastic Constant Matrix: (Units=GPa)
#
#
# Indices 1 2 3 4 5 6 
#
# 1 52.7964 27.9420 14.5596 0.0000 -9.0320 0.0000
# 2 27.9420 127.3227 37.1572 0.0000 -8.6399 0.0000
# 3 14.5596 37.1572 79.4590 0.0000 -17.9705 0.0000
# 4 0.0000 0.0000 0.0000 13.9350 0.0000 -7.5331
# 5 -9.0320 -8.6399 -17.9705 0.0000 18.7808 0.0000
# 6 0.0000 0.0000 0.0000 -7.5331 0.0000 27.7428
#
#
#
# Elastic Compliance Matrix: (Units=1/GPa)
#
#
# Indices 1 2 3 4 5 6 
#
# 1 0.022798 -0.004363 -0.000142 0.000000 0.008821 0.000000
# 2 -0.004363 0.009931 -0.004193 0.000000 -0.001542 0.000000
# 3 -0.000142 -0.004193 0.018020 0.000000 0.015245 0.000000
# 4 0.000000 0.000000 0.000000 0.084107 0.000000 0.022838
# 5 0.008821 -0.001542 0.015245 0.000000 0.071366 0.000000
# 6 0.000000 0.000000 0.000000 0.022838 0.000000 0.042247
#
#
# Mechanical properties :
#
#
# Convention : Reuss Voigt Hill
#
# Bulk Modulus (GPa) = 29.98361 46.54398 38.26380
# Shear Modulus (GPa) = 18.05171 24.08635 21.06903
#
# Velocity S-wave (km/s) = 3.05262 3.52614 3.29789
# Velocity P-wave (km/s) = 5.28229 6.37219 5.85266
#
# Compressibility (1/GPa) = 0.03335155
#
# Stress axis : x y z
#
# Youngs Moduli (GPa) = 43.86349 100.69831 55.49468
#
# Poissons Ratio (x) = 0.43936 0.00789
# Poissons Ratio (y) = 0.19138 0.23269
# Poissons Ratio (z) = 0.00624 0.42224
#
# Static dielectric constant tensor:
#      x y z
#    x 3.515230 0.000000 0.002100 
#    y 0.000000 3.838830 0.000000 
#    z 0.002100 0.000000 3.704920 
# 
# 
# High freq. dielectric constant tensor:
#      x y z
#    x 1.757050 0.000000 -0.002380 
#    y 0.000000 1.772020 0.000000 
#    z -0.002380 0.000000 1.767440 
# 
# From -- ./inp_files/225669.got.cif
#   From: 2010.06.25/outbox.cif.g09.slc.cpg/sg12_113_cif.got.tgz:225669.got - 2010.06.28 00:19:55.
