data_PCOD8111145
_publ_section_title
;
Structure prediction by ZEFSAII (Michael W. Deem and Ramdas Pophale) SiO2 
 PCOD8111145
Probable space group: C 2/M
;
_chemical_formula_sum "Si O2"
_cell_formula_units_Z 48
_cell_length_a 30.793401
_cell_length_b 17.849189
_cell_length_c 9.126133
_cell_angle_alpha 90.000000
_cell_angle_beta 28.025371
_cell_angle_gamma 90.000000
_cell_volume 2356.859630
_symmetry_space_group_name_H-M "C 2/M"
_symmetry_group_IT_number 12
_symmetry_cell_setting 'monoclinic'
loop_
_space_group_symop_operation_xyz
x,y,z
-x,y,-z
-x,-y,-z
x,-y,z
1/2+x,1/2+y,z
1/2-x,1/2+y,-z
1/2-x,1/2-y,-z
1/2+x,1/2-y,z
loop_
_atom_site_type_symbol
_atom_site_label
_atom_site_fract_x
_atom_site_fract_y
_atom_site_fract_z
Si Si1 0.715515 0.145262 0.940255
Si Si2 0.588758 0.297461 0.665152
Si Si3 0.075938 0.415646 0.160692
Si Si4 0.093086 0.363498 0.791943
Si Si5 0.242037 0.914035 0.876182
Si Si6 0.406020 0.290352 0.688122
O O1 0.822790 0.150297 0.579160
O O2 0.672826 0.083601 0.959148
O O3 0.705900 0.120517 0.137419
O O4 0.663394 0.223297 0.064346
O O5 0.605974 0.221172 0.701724
O O6 0.567249 0.281185 0.560473
O O7 0.500000 0.339140 0.000000
O O8 0.049692 0.500000 0.192162
O O9 0.000000 0.381932 0.500000
O O10 0.081825 0.363903 0.000797
O O11 0.183590 0.410555 0.476915
O O12 0.000000 0.399120 0.000000
O O13 0.212923 0.000000 0.989456
O O14 0.149180 0.867688 0.116431
O O15 0.500000 0.289309 0.500000
#
# Coordination Sequence:
#
# PCOD8111145 Si02
#       6
#     8   8   8   8   8   8
#     4  11  21  41  63  89 121 161 205 253 303 360
#     4  10  22  39  60  91 122 153 203 254 305 353
#     4  11  25  39  57  91 128 163 198 245 309 371
#     4  11  22  38  60  89 122 157 202 250 302 364
#     4  11  22  41  65  90 124 165 203 249 306 365
#     4  11  23  40  63  92 125 159 206 255 302 360
#
# _framework density 20.366081999999999
#
# number of rings (size 3 to 8) (size 9 to 14) (size 15 to 20)
#    0.000    1.167    3.333    3.500    7.000    5.000 
#    0.000    0.000    0.000   12.500    0.000    0.000 
#    0.000    0.000    0.000    0.000    0.000    0.000 
#
# Total GULP energy -297634.707629 kJ/mol
# GULP energy per Si atom -12401.446151 kJ/mol
# Density = 2.031973 g / cm^3
# Si number density = 20.366082 Si / 1000 Ang^3
#
#
#
# Elastic Constant Matrix: (Units=GPa)
#
#
# Indices 1 2 3 4 5 6 
#
# 1 126.9965 22.1337 60.5638 0.0000 1.0273 0.0000
# 2 22.1337 87.3701 34.6762 0.0000 -1.2914 0.0000
# 3 60.5638 34.6762 144.3229 0.0000 6.7825 0.0000
# 4 0.0000 0.0000 0.0000 21.9171 0.0000 -3.9142
# 5 1.0273 -1.2914 6.7825 0.0000 36.8776 0.0000
# 6 0.0000 0.0000 0.0000 -3.9142 0.0000 20.6270
#
#
#
# Elastic Compliance Matrix: (Units=1/GPa)
#
#
# Indices 1 2 3 4 5 6 
#
# 1 0.009922 -0.000936 -0.003958 0.000000 0.000419 0.000000
# 2 -0.000936 0.012778 -0.002723 0.000000 0.000974 0.000000
# 3 -0.003958 -0.002723 0.009324 0.000000 -0.001700 0.000000
# 4 0.000000 0.000000 0.000000 0.047227 0.000000 0.008962
# 5 0.000419 0.000974 -0.001700 0.000000 0.027452 0.000000
# 6 0.000000 0.000000 0.000000 0.008962 0.000000 0.050181
#
#
# Mechanical properties :
#
#
# Convention : Reuss Voigt Hill
#
# Bulk Modulus (GPa) = 59.56444 65.93743 62.75094
# Shear Modulus (GPa) = 28.13498 31.97205 30.05351
#
# Velocity S-wave (km/s) = 3.72084 3.96645 3.84561
# Velocity P-wave (km/s) = 6.91157 7.30913 7.11313
#
# Compressibility (1/GPa) = 0.01678854
#
# Stress axis : x y z
#
# Youngs Moduli (GPa) = 100.78919 78.26015 107.24900
#
# Poissons Ratio (x) = 0.07328 0.42452
# Poissons Ratio (y) = 0.09437 0.29204
# Poissons Ratio (z) = 0.39895 0.21310
#
# Static dielectric constant tensor:
#      x y z
#    x 3.675330 0.000000 -0.039920 
#    y 0.000000 3.462210 0.000000 
#    z -0.039920 0.000000 4.009830 
# 
# 
# High freq. dielectric constant tensor:
#      x y z
#    x 1.795080 0.000000 0.000340 
#    y 0.000000 1.777070 0.000000 
#    z 0.000340 0.000000 1.806190 
# 
# From -- ./inp_files/112722.got.cif
#   From: 2010.06.25/outbox.cif.g09.slc.cpg/sg12_57_cif.got.tgz:112722.got - 2010.06.28 00:19:55.
