data_PCOD8111148
_publ_section_title
;
Structure prediction by ZEFSAII (Michael W. Deem and Ramdas Pophale) SiO2 
 PCOD8111148
Probable space group: C 2/M
;
_chemical_formula_sum "Si O2"
_cell_formula_units_Z 40
_cell_length_a 11.015044
_cell_length_b 22.531058
_cell_length_c 11.176617
_cell_angle_alpha 90.000000
_cell_angle_beta 38.434109
_cell_angle_gamma 90.000000
_cell_volume 1724.245604
_symmetry_space_group_name_H-M "C 2/M"
_symmetry_group_IT_number 12
_symmetry_cell_setting 'monoclinic'
loop_
_space_group_symop_operation_xyz
x,y,z
-x,y,-z
-x,-y,-z
x,-y,z
1/2+x,1/2+y,z
1/2-x,1/2+y,-z
1/2-x,1/2-y,-z
1/2+x,1/2-y,z
loop_
_atom_site_type_symbol
_atom_site_label
_atom_site_fract_x
_atom_site_fract_y
_atom_site_fract_z
Si Si1 0.470870 0.375043 0.802819
Si Si2 0.758511 0.790178 0.109816
Si Si3 0.790763 0.179900 0.716385
Si Si4 0.910322 0.500000 0.439180
Si Si5 0.489893 0.500000 0.865227
Si Si6 0.104031 0.627003 0.635169
O O1 0.321246 0.356853 0.814116
O O2 0.388968 0.439964 0.899829
O O3 0.698621 0.367601 0.595849
O O4 0.436759 0.335574 0.948505
O O5 0.799895 0.745444 0.188714
O O6 0.557018 0.826882 0.288450
O O7 0.750000 0.750000 0.000000
O O8 0.650131 0.142685 0.737832
O O9 0.000000 0.191630 0.500000
O O10 0.683867 0.500000 0.637063
O O11 0.973431 0.559041 0.316500
O O12 0.000000 0.500000 0.500000
O O13 0.500000 0.500000 0.000000
#
# Coordination Sequence:
#
# PCOD8111148 Si02
#       6
#     8   8   8   4   4   8
#     4   9  21  40  61  92 125 162 209 257 312 367
#     4  10  22  39  60  92 127 166 206 251 309 374
#     4   9  20  40  62  91 126 162 207 257 306 373
#     4  10  24  43  67  94 122 163 209 262 319 371
#     4  10  22  41  61  90 122 163 209 260 316 374
#     4  10  22  43  65  93 126 163 210 257 315 367
#
# _framework density 23.198553
#
# number of rings (size 3 to 8) (size 9 to 14) (size 15 to 20)
#    0.000    2.400    0.000    0.000    2.800   12.000 
#   10.800    6.000    0.000    6.000    0.000    0.000 
#    0.000    0.000    0.000    0.000    0.000    0.000 
#
# Total GULP energy -247793.820404 kJ/mol
# GULP energy per Si atom -12389.691020 kJ/mol
# Density = 2.314575 g / cm^3
# Si number density = 23.198553 Si / 1000 Ang^3
#
#
#
# Elastic Constant Matrix: (Units=GPa)
#
#
# Indices 1 2 3 4 5 6 
#
# 1 88.9872 72.8647 30.9634 0.0000 19.8586 0.0000
# 2 72.8647 233.3866 64.2255 0.0000 22.5676 0.0000
# 3 30.9634 64.2255 83.7103 0.0000 -0.2678 0.0000
# 4 0.0000 0.0000 0.0000 34.6970 0.0000 12.5300
# 5 19.8586 22.5676 -0.2678 0.0000 31.4219 0.0000
# 6 0.0000 0.0000 0.0000 12.5300 0.0000 40.5138
#
#
#
# Elastic Compliance Matrix: (Units=1/GPa)
#
#
# Indices 1 2 3 4 5 6 
#
# 1 0.017332 -0.003582 -0.003689 0.000000 -0.008412 0.000000
# 2 -0.003582 0.006707 -0.003829 0.000000 -0.002585 0.000000
# 3 -0.003689 -0.003829 0.016265 0.000000 0.005220 0.000000
# 4 0.000000 0.000000 0.000000 0.032445 0.000000 -0.010034
# 5 -0.008412 -0.002585 0.005220 0.000000 0.039043 0.000000
# 6 0.000000 0.000000 0.000000 -0.010034 0.000000 0.027786
#
#
# Mechanical properties :
#
#
# Convention : Reuss Voigt Hill
#
# Bulk Modulus (GPa) = 55.24067 82.46571 68.85319
# Shear Modulus (GPa) = 29.79505 37.19522 33.49514
#
# Velocity S-wave (km/s) = 3.58767 4.00852 3.80392
# Velocity P-wave (km/s) = 6.40513 7.55310 7.00267
#
# Compressibility (1/GPa) = 0.01810260
#
# Stress axis : x y z
#
# Youngs Moduli (GPa) = 57.69693 149.10023 61.48198
#
# Poissons Ratio (x) = 0.53415 0.22682
# Poissons Ratio (y) = 0.20670 0.23541
# Poissons Ratio (z) = 0.21285 0.57089
#
# Static dielectric constant tensor:
#      x y z
#    x 4.057320 0.000000 0.151570 
#    y 0.000000 5.053700 0.000000 
#    z 0.151570 0.000000 4.474440 
# 
# 
# High freq. dielectric constant tensor:
#      x y z
#    x 1.898800 0.000000 0.001490 
#    y 0.000000 1.935460 0.000000 
#    z 0.001490 0.000000 1.931450 
# 
# From -- ./inp_files/135145.got.cif
#   From: 2010.06.25/outbox.cif.g09.slc.cpg/sg12_68_cif.got.tgz:135145.got - 2010.06.28 00:19:55.
