data_PCOD8111577
_publ_section_title
;
Structure prediction by ZEFSAII (Michael W. Deem and Ramdas Pophale) SiO2 
 PCOD8111577
Probable space group: C 2/M
;
_chemical_formula_sum "Si O2"
_cell_formula_units_Z 56
_cell_length_a 30.968023
_cell_length_b 8.796920
_cell_length_c 11.808395
_cell_angle_alpha 90.000000
_cell_angle_beta 60.800975
_cell_angle_gamma 90.000000
_cell_volume 2808.113150
_symmetry_space_group_name_H-M "C 2/M"
_symmetry_group_IT_number 12
_symmetry_cell_setting 'monoclinic'
loop_
_space_group_symop_operation_xyz
x,y,z
-x,y,-z
-x,-y,-z
x,-y,z
1/2+x,1/2+y,z
1/2-x,1/2+y,-z
1/2-x,1/2-y,-z
1/2+x,1/2-y,z
loop_
_atom_site_type_symbol
_atom_site_label
_atom_site_fract_x
_atom_site_fract_y
_atom_site_fract_z
Si Si1 0.398466 0.820461 0.854947
Si Si2 0.823987 0.175368 0.437699
Si Si3 0.255272 0.325290 0.313430
Si Si4 0.512291 0.179365 0.107592
Si Si5 0.578714 0.820093 0.628634
Si Si6 0.786647 0.321350 0.043314
Si Si7 0.056974 0.820996 0.425219
O O1 0.433136 0.774447 0.917770
O O2 0.417074 0.731905 0.721945
O O3 0.401987 0.000000 0.827072
O O4 0.342885 0.766018 0.951651
O O5 0.796711 0.266911 0.572124
O O6 0.797351 0.197903 0.352630
O O7 0.877963 0.246078 0.352459
O O8 0.826382 0.000000 0.470240
O O9 0.249412 0.500000 0.284317
O O10 0.270007 0.225034 0.188594
O O11 0.472501 0.237383 0.250482
O O12 0.507948 0.000000 0.102464
O O13 0.500000 0.252307 0.000000
O O14 0.583921 0.761564 0.494297
O O15 0.583732 0.000000 0.625137
O O16 0.783423 0.500000 0.034780
O O17 0.750000 0.250000 0.000000
O O18 0.000000 0.770405 0.500000
O O19 0.063132 0.000000 0.431376
#
# Coordination Sequence:
#
# PCOD8111577 Si02
#       7
#     8   8   8   8   8   8   8
#     4  10  22  41  64  89 118 159 208 252 301 362
#     4  10  22  40  63  91 124 158 199 254 307 362
#     4  10  22  42  65  89 121 160 205 251 307 371
#     4   9  19  36  60  91 123 156 199 248 297 360
#     4  11  22  36  63  92 121 159 201 249 301 365
#     4  11  25  42  64  90 123 163 208 260 309 367
#     4  11  23  39  60  86 122 159 199 250 303 358
#
# _framework density 19.942215999999998
#
# number of rings (size 3 to 8) (size 9 to 14) (size 15 to 20)
#    0.000    1.714    1.429    2.143    4.000    3.429 
#    0.000    0.000    0.000    2.143    0.000    0.000 
#    0.000    0.000    0.000    0.000    0.000    0.000 
#
# Total GULP energy -347304.043147 kJ/mol
# GULP energy per Si atom -12403.715827 kJ/mol
# Density = 1.989683 g / cm^3
# Si number density = 19.942216 Si / 1000 Ang^3
#
#
#
# Elastic Constant Matrix: (Units=GPa)
#
#
# Indices 1 2 3 4 5 6 
#
# 1 141.2351 47.4686 62.8972 0.0000 -14.8556 0.0000
# 2 47.4686 46.1209 14.9444 0.0000 3.9275 0.0000
# 3 62.8972 14.9444 103.1390 0.0000 8.3638 0.0000
# 4 0.0000 0.0000 0.0000 28.1360 0.0000 -1.5348
# 5 -14.8556 3.9275 8.3638 0.0000 29.6971 0.0000
# 6 0.0000 0.0000 0.0000 -1.5348 0.0000 31.8232
#
#
#
# Elastic Compliance Matrix: (Units=1/GPa)
#
#
# Indices 1 2 3 4 5 6 
#
# 1 0.019181 -0.017654 -0.010343 0.000000 0.014843 0.000000
# 2 -0.017654 0.039132 0.006378 0.000000 -0.015803 0.000000
# 3 -0.010343 0.006378 0.015931 0.000000 -0.010504 0.000000
# 4 0.000000 0.000000 0.000000 0.035635 0.000000 0.001719
# 5 0.014843 -0.015803 -0.010504 0.000000 0.046147 0.000000
# 6 0.000000 0.000000 0.000000 0.001719 0.000000 0.031507
#
#
# Mechanical properties :
#
#
# Convention : Reuss Voigt Hill
#
# Bulk Modulus (GPa) = 32.25358 60.12395 46.18876
# Shear Modulus (GPa) = 20.73775 28.94359 24.84067
#
# Velocity S-wave (km/s) = 3.22823 3.81382 3.53318
# Velocity P-wave (km/s) = 5.48671 7.04331 6.31317
#
# Compressibility (1/GPa) = 0.03100431
#
# Stress axis : x y z
#
# Youngs Moduli (GPa) = 52.13419 25.55482 62.77162
#
# Poissons Ratio (x) = 0.45115 0.64924
# Poissons Ratio (y) = 0.92040 -0.40033
# Poissons Ratio (z) = 0.53922 -0.16298
#
# Static dielectric constant tensor:
#      x y z
#    x 3.951160 0.000000 -0.065280 
#    y 0.000000 3.518660 0.000000 
#    z -0.065280 0.000000 3.763010 
# 
# 
# High freq. dielectric constant tensor:
#      x y z
#    x 1.792950 0.000000 0.000170 
#    y 0.000000 1.770350 0.000000 
#    z 0.000170 0.000000 1.781460 
# 
# From -- ./inp_files/187183.got.cif
#   From: 2010.06.25/outbox.cif.g09.slc.cpg/sg12_94_cif.got.tgz:187183.got - 2010.06.28 00:19:55.
