data_PCOD8111301
_publ_section_title
;
Structure prediction by ZEFSAII (Michael W. Deem and Ramdas Pophale) SiO2 
 PCOD8111301
Probable space group: C 2/M
;
_chemical_formula_sum "Si O2"
_cell_formula_units_Z 48
_cell_length_a 30.186053
_cell_length_b 16.582280
_cell_length_c 8.971364
_cell_angle_alpha 90.000000
_cell_angle_beta 29.609234
_cell_angle_gamma 90.000000
_cell_volume 2218.748500
_symmetry_space_group_name_H-M "C 2/M"
_symmetry_group_IT_number 12
_symmetry_cell_setting 'monoclinic'
loop_
_space_group_symop_operation_xyz
x,y,z
-x,y,-z
-x,-y,-z
x,-y,z
1/2+x,1/2+y,z
1/2-x,1/2+y,-z
1/2-x,1/2-y,-z
1/2+x,1/2-y,z
loop_
_atom_site_type_symbol
_atom_site_label
_atom_site_fract_x
_atom_site_fract_y
_atom_site_fract_z
Si Si1 0.266124 0.635503 0.319913
Si Si2 0.847476 0.851512 0.679178
Si Si3 0.160678 0.592916 0.366977
Si Si4 0.527938 0.500000 0.750520
Si Si5 0.743085 0.180348 0.708166
Si Si6 0.404562 0.500000 0.866273
Si Si7 0.415755 0.804983 0.638776
O O1 0.172646 0.613456 0.508634
O O2 0.288124 0.729586 0.242831
O O3 0.257389 0.621750 0.523812
O O4 0.344361 0.580166 0.015566
O O5 0.830483 0.818779 0.560016
O O6 0.888380 0.784349 0.667778
O O7 0.917282 0.923274 0.464702
O O8 0.754262 0.879432 0.020999
O O9 0.140552 0.500000 0.401160
O O10 0.077665 0.641578 0.533040
O O11 0.430280 0.500000 0.963213
O O12 0.500000 0.500000 0.000000
O O13 0.659250 0.147233 0.046778
O O14 0.500000 0.500000 0.500000
O O15 0.500000 0.800979 0.500000
#
# Coordination Sequence:
#
# PCOD8111301 Si02
#       7
#     8   8   8   4   8   4   8
#     4  11  21  39  63  95 127 171 216 263 320 401
#     4  11  21  42  62  90 131 176 218 261 324 407
#     4  11  20  41  68  90 121 168 224 270 320 399
#     4  12  26  38  58 100 143 171 200 265 345 398
#     4  10  22  39  65  89 128 174 224 261 319 397
#     4  12  26  38  64 104 139 167 206 269 341 402
#     4  11  24  41  65  94 125 169 223 283 330 378
#
# _framework density 21.633817000000001
#
# number of rings (size 3 to 8) (size 9 to 14) (size 15 to 20)
#    0.000    1.000    5.000    3.000    2.333    0.333 
#    1.500    0.833    0.000    1.000    0.000    0.000 
#    0.000    0.000    0.000    0.000    0.000    0.000 
#
# Total GULP energy -297350.941503 kJ/mol
# GULP energy per Si atom -12389.622563 kJ/mol
# Density = 2.158458 g / cm^3
# Si number density = 21.633817 Si / 1000 Ang^3
#
#
#
# Elastic Constant Matrix: (Units=GPa)
#
#
# Indices 1 2 3 4 5 6 
#
# 1 230.3591 75.1887 36.5581 0.0000 -32.0075 0.0000
# 2 75.1887 143.4050 26.5709 0.0000 -26.7995 0.0000
# 3 36.5581 26.5709 47.8482 0.0000 1.7409 0.0000
# 4 0.0000 0.0000 0.0000 29.1680 0.0000 -13.3643
# 5 -32.0075 -26.7995 1.7409 0.0000 46.9303 0.0000
# 6 0.0000 0.0000 0.0000 -13.3643 0.0000 55.2926
#
#
#
# Elastic Compliance Matrix: (Units=1/GPa)
#
#
# Indices 1 2 3 4 5 6 
#
# 1 0.005963 -0.001867 -0.003633 0.000000 0.003135 0.000000
# 2 -0.001867 0.009497 -0.004004 0.000000 0.004299 0.000000
# 3 -0.003633 -0.004004 0.026107 0.000000 -0.005733 0.000000
# 4 0.000000 0.000000 0.000000 0.038554 0.000000 0.009319
# 5 0.003135 0.004299 -0.005733 0.000000 0.026114 0.000000
# 6 0.000000 0.000000 0.000000 0.009319 0.000000 0.020338
#
#
# Mechanical properties :
#
#
# Convention : Reuss Voigt Hill
#
# Bulk Modulus (GPa) = 44.32770 77.58308 60.95539
# Shear Modulus (GPa) = 32.65833 45.16447 38.91140
#
# Velocity S-wave (km/s) = 3.88957 4.57407 4.24564
# Velocity P-wave (km/s) = 6.38014 7.98974 7.22987
#
# Compressibility (1/GPa) = 0.02255926
#
# Stress axis : x y z
#
# Youngs Moduli (GPa) = 167.70983 105.29152 38.30383
#
# Poissons Ratio (x) = 0.19661 0.13915
# Poissons Ratio (y) = 0.31316 0.15336
# Poissons Ratio (z) = 0.60927 0.42157
#
# Static dielectric constant tensor:
#      x y z
#    x 5.040560 0.000000 0.215010 
#    y 0.000000 3.906900 0.000000 
#    z 0.215010 0.000000 3.860060 
# 
# 
# High freq. dielectric constant tensor:
#      x y z
#    x 1.890150 0.000000 0.014590 
#    y 0.000000 1.847750 0.000000 
#    z 0.014590 0.000000 1.800120 
# 
# From -- ./inp_files/112778.got.cif
#   From: 2010.06.25/outbox.cif.g09.slc.cpg/sg12_57_cif.got.tgz:112778.got - 2010.06.28 00:19:55.
