data_PCOD8111319
_publ_section_title
;
Structure prediction by ZEFSAII (Michael W. Deem and Ramdas Pophale) SiO2 
 PCOD8111319
Probable space group: C 2/M
;
_chemical_formula_sum "Si O2"
_cell_formula_units_Z 44
_cell_length_a 10.690793
_cell_length_b 15.051357
_cell_length_c 23.136865
_cell_angle_alpha 90.000000
_cell_angle_beta 145.535230
_cell_angle_gamma 90.000000
_cell_volume 2106.829142
_symmetry_space_group_name_H-M "C 2/M"
_symmetry_group_IT_number 12
_symmetry_cell_setting 'monoclinic'
loop_
_space_group_symop_operation_xyz
x,y,z
-x,y,-z
-x,-y,-z
x,-y,z
1/2+x,1/2+y,z
1/2-x,1/2+y,-z
1/2-x,1/2-y,-z
1/2+x,1/2-y,z
loop_
_atom_site_type_symbol
_atom_site_label
_atom_site_fract_x
_atom_site_fract_y
_atom_site_fract_z
Si Si1 0.112388 0.826717 0.748070
Si Si2 0.251962 0.500000 0.380829
Si Si3 0.981084 0.000000 0.355949
Si Si4 0.916274 0.310237 0.028639
Si Si5 0.571202 0.135960 0.688083
Si Si6 0.528394 0.401010 0.833867
Si Si7 0.531655 0.000000 0.443556
O O1 0.017311 0.912209 0.681085
O O2 0.378847 0.833785 0.852002
O O3 0.026403 0.740931 0.679074
O O4 0.017975 0.828695 0.777617
O O5 0.500000 0.500000 0.500000
O O6 0.274677 0.500000 0.320520
O O7 0.109287 0.586770 0.341728
O O8 0.212915 0.000000 0.478652
O O9 0.750000 0.250000 0.000000
O O10 0.767736 0.396562 0.956075
O O11 0.000000 0.265988 0.000000
O O12 0.564602 0.092010 0.620751
O O13 0.829577 0.120328 0.803853
O O14 0.501784 0.500000 0.798292
O O15 0.500000 0.000000 0.500000
#
# Coordination Sequence:
#
# PCOD8111319 Si02
#       7
#     8   4   4   8   8   8   4
#     4  11  25  41  67 103 133 179 225 272 333 397
#     4  11  24  48  65  91 132 170 219 284 347 397
#     4  12  25  43  63  95 140 165 226 282 327 401
#     4  10  22  39  66  98 141 175 224 277 328 405
#     4  11  23  43  71  95 130 180 220 277 341 403
#     4  11  21  42  69  98 135 180 227 271 332 399
#     4  11  23  46  69  95 126 168 223 287 326 399
#
# _framework density 20.884464999999999
#
# number of rings (size 3 to 8) (size 9 to 14) (size 15 to 20)
#    0.000    1.091    6.364    1.091    3.818    1.818 
#    0.000    0.000    0.000    1.636    0.000    0.000 
#    0.000    0.000    0.000    0.000    0.000    0.000 
#
# Total GULP energy -272544.588615 kJ/mol
# GULP energy per Si atom -12388.390392 kJ/mol
# Density = 2.083693 g / cm^3
# Si number density = 20.884465 Si / 1000 Ang^3
#
#
#
# Elastic Constant Matrix: (Units=GPa)
#
#
# Indices 1 2 3 4 5 6 
#
# 1 101.1839 33.8849 24.4952 0.0003 22.0842 0.0000
# 2 33.8849 161.3950 44.7467 0.0004 -1.2714 0.0000
# 3 24.4952 44.7467 89.7574 0.0011 20.4007 0.0000
# 4 0.0003 0.0004 0.0011 32.3913 -0.0001 3.3914
# 5 22.0842 -1.2714 20.4007 -0.0001 37.9825 0.0000
# 6 0.0000 0.0000 0.0000 3.3914 0.0000 32.4150
#
#
#
# Elastic Compliance Matrix: (Units=1/GPa)
#
#
# Indices 1 2 3 4 5 6 
#
# 1 0.012378 -0.002504 -0.000541 0.000000 -0.006990 0.000000
# 2 -0.002504 0.007905 -0.004156 0.000000 0.003953 0.000000
# 3 -0.000541 -0.004156 0.015173 0.000000 -0.007974 0.000000
# 4 0.000000 0.000000 0.000000 0.031214 0.000000 -0.003266
# 5 -0.006990 0.003953 -0.007974 0.000000 0.034808 0.000000
# 6 0.000000 0.000000 0.000000 -0.003266 0.000000 0.031192
#
#
# Mechanical properties :
#
#
# Convention : Reuss Voigt Hill
#
# Bulk Modulus (GPa) = 47.49554 62.06554 54.78054
# Shear Modulus (GPa) = 32.44861 37.17172 34.81016
#
# Velocity S-wave (km/s) = 3.94600 4.22343 4.08707
# Velocity P-wave (km/s) = 6.59944 7.31889 6.96846
#
# Compressibility (1/GPa) = 0.02105461
#
# Stress axis : x y z
#
# Youngs Moduli (GPa) = 80.78744 126.50149 65.90629
#
# Poissons Ratio (x) = 0.31674 0.03565
# Poissons Ratio (y) = 0.20228 0.27390
# Poissons Ratio (z) = 0.04371 0.52574
#
# Static dielectric constant tensor:
#      x y z
#    x 3.906120 0.000000 0.336510 
#    y 0.000000 3.747380 0.000000 
#    z 0.336510 0.000000 4.765200 
# 
# 
# High freq. dielectric constant tensor:
#      x y z
#    x 1.823370 0.000000 0.025060 
#    y 0.000000 1.801220 0.000000 
#    z 0.025060 0.000000 1.824800 
# 
# From -- ./inp_files/358290.got.cif
#   From: 2010.06.25/outbox.cif.g09.slc.cpg/sg12_180_cif.got.tgz:358290.got - 2010.06.28 00:19:55.
