data_PCOD8111460
_publ_section_title
;
Structure prediction by ZEFSAII (Michael W. Deem and Ramdas Pophale) SiO2 
 PCOD8111460
Probable space group: C 2/M
;
_chemical_formula_sum "Si O2"
_cell_formula_units_Z 64
_cell_length_a 15.341439
_cell_length_b 8.634900
_cell_length_c 28.425494
_cell_angle_alpha 90.000000
_cell_angle_beta 57.187327
_cell_angle_gamma 90.000000
_cell_volume 3164.766266
_symmetry_space_group_name_H-M "C 2/M"
_symmetry_group_IT_number 12
_symmetry_cell_setting 'monoclinic'
loop_
_space_group_symop_operation_xyz
x,y,z
-x,y,-z
-x,-y,-z
x,-y,z
1/2+x,1/2+y,z
1/2-x,1/2+y,-z
1/2-x,1/2-y,-z
1/2+x,1/2-y,z
loop_
_atom_site_type_symbol
_atom_site_label
_atom_site_fract_x
_atom_site_fract_y
_atom_site_fract_z
Si Si1 0.793098 0.822637 0.358344
Si Si2 0.283372 0.323062 0.867303
Si Si3 0.013106 0.822455 0.639403
Si Si4 0.986111 0.179685 0.859982
Si Si5 0.844272 0.679765 0.753972
Si Si6 0.339708 0.178993 0.248789
Si Si7 0.943895 0.318424 0.563667
Si Si8 0.937576 0.182126 0.062169
O O1 0.865904 0.801136 0.382727
O O2 0.836834 0.712698 0.304896
O O3 0.676723 0.773051 0.405637
O O4 0.795618 0.000000 0.339815
O O5 0.247107 0.500000 0.874051
O O6 0.363629 0.298789 0.886728
O O7 0.341460 0.277470 0.802454
O O8 0.183362 0.219855 0.906380
O O9 0.945475 0.720923 0.694689
O O10 0.997719 0.769785 0.590687
O O11 0.977570 0.000000 0.654846
O O12 0.046969 0.279994 0.803649
O O13 0.013876 0.246026 0.903459
O O14 0.018367 0.000000 0.845453
O O15 0.846389 0.500000 0.766522
O O16 0.743166 0.713918 0.752904
O O17 0.314225 0.000000 0.246997
O O18 0.958934 0.500000 0.567664
O O19 0.000000 0.262447 0.500000
O O20 0.951756 0.000000 0.057121
O O21 0.000000 0.256633 0.000000
#
# Coordination Sequence:
#
# PCOD8111460 Si02
#       8
#     8   8   8   8   8   8   8   8
#     4  10  22  40  61  87 124 162 194 243 305 356
#     4  11  23  39  61  91 122 157 201 248 300 354
#     4  11  23  39  61  91 122 157 201 248 300 354
#     4  10  22  40  61  87 124 162 194 243 305 356
#     4  12  23  38  61  88 122 160 193 241 306 361
#     4  12  23  36  61  94 122 154 199 245 292 361
#     4  10  22  41  63  86 117 163 210 249 298 358
#     4  10  22  41  63  86 117 163 210 249 298 358
#
# _framework density 20.222664000000002
#
# number of rings (size 3 to 8) (size 9 to 14) (size 15 to 20)
#    0.000    1.250    2.500    3.750    0.000    6.500 
#    0.000    0.000    0.000    0.000    0.000    0.000 
#    0.000    0.000    0.000    0.000    0.000    0.000 
#
# Total GULP energy -396969.649813 kJ/mol
# GULP energy per Si atom -12405.301557 kJ/mol
# Density = 2.017664 g / cm^3
# Si number density = 20.222664 Si / 1000 Ang^3
#
#
#
# Elastic Constant Matrix: (Units=GPa)
#
#
# Indices 1 2 3 4 5 6 
#
# 1 136.2073 22.5580 54.3834 0.0000 -3.1153 0.0000
# 2 22.5580 38.7250 15.6811 0.0000 1.6240 -0.0001
# 3 54.3834 15.6811 132.1519 0.0000 5.5002 0.0000
# 4 0.0000 0.0000 0.0000 15.6434 0.0000 2.7594
# 5 -3.1153 1.6240 5.5002 0.0000 12.1513 0.0000
# 6 0.0000 -0.0001 0.0000 2.7594 0.0000 26.7262
#
#
#
# Elastic Compliance Matrix: (Units=1/GPa)
#
#
# Indices 1 2 3 4 5 6 
#
# 1 0.009619 -0.004326 -0.003640 0.000000 0.004692 0.000000
# 2 -0.004326 0.029130 -0.001496 0.000000 -0.004325 0.000000
# 3 -0.003640 -0.001496 0.009451 0.000000 -0.005011 0.000000
# 4 0.000000 0.000000 0.000000 0.065111 0.000000 -0.006722
# 5 0.004692 -0.004325 -0.005011 0.000000 0.086345 0.000000
# 6 0.000000 0.000000 0.000000 -0.006722 0.000000 0.038111
#
#
# Mechanical properties :
#
#
# Convention : Reuss Voigt Hill
#
# Bulk Modulus (GPa) = 34.15855 54.70326 44.43090
# Shear Modulus (GPa) = 18.76519 25.20161 21.98340
#
# Velocity S-wave (km/s) = 3.04950 3.53399 3.30065
# Velocity P-wave (km/s) = 5.41545 6.61524 6.04518
#
# Compressibility (1/GPa) = 0.02927525
#
# Stress axis : x y z
#
# Youngs Moduli (GPa) = 103.96086 34.32849 105.80566
#
# Poissons Ratio (x) = 0.14850 0.38518
# Poissons Ratio (y) = 0.44972 0.15833
# Poissons Ratio (z) = 0.37846 0.05137
#
# Static dielectric constant tensor:
#      x y z
#    x 3.798100 0.000000 0.056340 
#    y 0.000000 3.585200 0.000000 
#    z 0.056340 0.000000 3.700240 
# 
# 
# High freq. dielectric constant tensor:
#      x y z
#    x 1.803390 0.000000 -0.000980 
#    y 0.000000 1.784900 0.000000 
#    z -0.000980 0.000000 1.781970 
# 
# From -- ./inp_files/375454.got.cif
#   From: 2010.06.25/outbox.cif.g09.slc.cpg/sg12_188_cif.got.tgz:375454.got - 2010.06.28 00:19:55.
