data_PCOD8111969
_publ_section_title
;
Structure prediction by ZEFSAII (Michael W. Deem and Ramdas Pophale) SiO2 
 PCOD8111969
Probable space group: C 2/M
;
_chemical_formula_sum "Si O2"
_cell_formula_units_Z 56
_cell_length_a 26.845484
_cell_length_b 8.722670
_cell_length_c 11.834343
_cell_angle_alpha 90.000000
_cell_angle_beta 103.655365
_cell_angle_gamma 90.000000
_cell_volume 2692.848568
_symmetry_space_group_name_H-M "C 2/M"
_symmetry_group_IT_number 12
_symmetry_cell_setting 'monoclinic'
loop_
_space_group_symop_operation_xyz
x,y,z
-x,y,-z
-x,-y,-z
x,-y,z
1/2+x,1/2+y,z
1/2-x,1/2+y,-z
1/2-x,1/2-y,-z
1/2+x,1/2-y,z
loop_
_atom_site_type_symbol
_atom_site_label
_atom_site_fract_x
_atom_site_fract_y
_atom_site_fract_z
Si Si1 0.899025 0.820133 0.715284
Si Si2 0.113696 0.677731 0.057591
Si Si3 0.494936 0.681754 0.623083
Si Si4 0.232779 0.679050 0.107585
Si Si5 0.680552 0.818889 0.713238
Si Si6 0.407311 0.680879 0.184899
Si Si7 0.694257 0.680043 0.488657
O O1 0.909987 0.730843 0.836719
O O2 0.941709 0.762833 0.649233
O O3 0.842790 0.780410 0.636147
O O4 0.904595 0.000000 0.741999
O O5 0.102077 0.500000 0.031183
O O6 0.173625 0.713414 0.094251
O O7 0.087479 0.773235 0.943145
O O8 0.500000 0.752409 0.500000
O O9 0.496014 0.500000 0.616459
O O10 0.542191 0.740104 0.723999
O O11 0.245704 0.500000 0.115316
O O12 0.262546 0.762232 0.224902
O O13 0.250000 0.750000 0.000000
O O14 0.641670 0.764001 0.788355
O O15 0.666654 0.748789 0.584431
O O16 0.679797 0.000000 0.705601
O O17 0.399824 0.500000 0.192630
O O18 0.700054 0.500000 0.508444
O O19 0.750000 0.750000 0.500000
#
# Coordination Sequence:
#
# PCOD8111969 Si02
#       7
#     8   8   8   8   8   8   8
#     4  10  22  41  65  90 120 160 206 253 304 364
#     4  11  24  40  59  88 127 163 199 248 307 371
#     4   9  19  39  66  93 118 150 201 259 307 360
#     4  11  22  37  59  86 121 164 207 252 302 358
#     4  12  24  38  59  89 126 163 204 254 306 367
#     4  11  22  38  64  91 118 156 204 257 307 360
#     4  11  23  40  63  91 123 161 204 252 307 367
#
# _framework density 20.795822000000001
#
# number of rings (size 3 to 8) (size 9 to 14) (size 15 to 20)
#    0.000    1.286    1.429    4.714    0.000    8.000 
#    0.000    4.286    0.000    3.000    0.000    0.000 
#    0.000    0.000    0.000    0.000    0.000    0.000 
#
# Total GULP energy -347357.529930 kJ/mol
# GULP energy per Si atom -12405.626069 kJ/mol
# Density = 2.074849 g / cm^3
# Si number density = 20.795822 Si / 1000 Ang^3
#
#
#
# Elastic Constant Matrix: (Units=GPa)
#
#
# Indices 1 2 3 4 5 6 
#
# 1 105.3894 32.8949 52.9212 0.0000 -0.6364 0.0000
# 2 32.8949 89.3510 47.6088 0.0000 7.6049 0.0000
# 3 52.9212 47.6088 149.1944 0.0000 -2.9311 0.0000
# 4 0.0000 0.0000 0.0000 33.0248 0.0000 -5.0228
# 5 -0.6364 7.6049 -2.9311 0.0000 39.8922 0.0000
# 6 0.0000 0.0000 0.0000 -5.0228 0.0000 25.5700
#
#
#
# Elastic Compliance Matrix: (Units=1/GPa)
#
#
# Indices 1 2 3 4 5 6 
#
# 1 0.012032 -0.002649 -0.003414 0.000000 0.000446 0.000000
# 2 -0.002649 0.014409 -0.003719 0.000000 -0.003062 0.000000
# 3 -0.003414 -0.003719 0.009126 0.000000 0.001325 0.000000
# 4 0.000000 0.000000 0.000000 0.031213 0.000000 0.006131
# 5 0.000446 -0.003062 0.001325 0.000000 0.025756 0.000000
# 6 0.000000 0.000000 0.000000 0.006131 0.000000 0.040313
#
#
# Mechanical properties :
#
#
# Convention : Reuss Voigt Hill
#
# Bulk Modulus (GPa) = 62.48043 67.86495 65.17269
# Shear Modulus (GPa) = 31.69638 33.73140 32.71389
#
# Velocity S-wave (km/s) = 3.90830 4.03181 3.97053
# Velocity P-wave (km/s) = 7.10467 7.37420 7.24069
#
# Compressibility (1/GPa) = 0.01600501
#
# Stress axis : x y z
#
# Youngs Moduli (GPa) = 83.10895 69.40129 109.57270
#
# Poissons Ratio (x) = 0.18382 0.37409
# Poissons Ratio (y) = 0.22012 0.40746
# Poissons Ratio (z) = 0.28374 0.25808
#
# Static dielectric constant tensor:
#      x y z
#    x 3.625860 0.000000 -0.012080 
#    y 0.000000 3.637130 0.000000 
#    z -0.012080 0.000000 3.979820 
# 
# 
# High freq. dielectric constant tensor:
#      x y z
#    x 1.813990 0.000000 -0.001760 
#    y 0.000000 1.804050 0.000000 
#    z -0.001760 0.000000 1.831350 
# 
# From -- ./inp_files/181093.got.cif
#   From: 2010.06.25/outbox.cif.g09.slc.cpg/sg12_91_cif.got.tgz:181093.got - 2010.06.28 00:19:55.
