data_PCOD8111038
_publ_section_title
;
Structure prediction by ZEFSAII (Michael W. Deem and Ramdas Pophale) SiO2 
 PCOD8111038
Probable space group: C 2/M
;
_chemical_formula_sum "Si O2"
_cell_formula_units_Z 56
_cell_length_a 10.763849
_cell_length_b 13.440839
_cell_length_c 23.897546
_cell_angle_alpha 90.000000
_cell_angle_beta 57.563075
_cell_angle_gamma 90.000000
_cell_volume 2917.969091
_symmetry_space_group_name_H-M "C 2/M"
_symmetry_group_IT_number 12
_symmetry_cell_setting 'monoclinic'
loop_
_space_group_symop_operation_xyz
x,y,z
-x,y,-z
-x,-y,-z
x,-y,z
1/2+x,1/2+y,z
1/2-x,1/2+y,-z
1/2-x,1/2-y,-z
1/2+x,1/2-y,z
loop_
_atom_site_type_symbol
_atom_site_label
_atom_site_fract_x
_atom_site_fract_y
_atom_site_fract_z
Si Si1 0.689706 0.386032 0.860032
Si Si2 0.067511 0.890941 0.351114
Si Si3 0.665292 0.110046 0.630564
Si Si4 0.427906 0.245283 0.745238
Si Si5 0.124956 0.881806 0.508372
Si Si6 0.827639 0.735697 0.040933
Si Si7 0.418341 0.386172 0.848244
O O1 0.739523 0.500000 0.853537
O O2 0.800425 0.331058 0.791675
O O3 0.692757 0.339162 0.921002
O O4 0.525876 0.375758 0.875257
O O5 0.184083 0.899438 0.372242
O O6 0.129892 0.817464 0.289238
O O7 0.912315 0.853875 0.417513
O O8 0.044831 0.000000 0.329018
O O9 0.564171 0.185799 0.687930
O O10 0.713082 0.148625 0.555997
O O11 0.590298 0.000000 0.645253
O O12 0.477905 0.313535 0.785270
O O13 0.000000 0.830868 0.500000
O O14 0.115672 0.000000 0.505598
O O15 0.744861 0.646971 0.093609
O O16 0.750000 0.750000 0.000000
O O17 0.000000 0.706304 0.000000
O O18 0.412262 0.500000 0.828430
#
# Coordination Sequence:
#
# PCOD8111038 Si02
#       7
#     8   8   8   8   8   8   8
#     4  10  22  39  58  80 113 154 184 212 267 335
#     4   9  17  30  48  70 100 136 175 225 285 331
#     4   9  17  30  48  70  99 135 178 228 277 327
#     4  11  20  31  52  78 105 138 185 232 266 315
#     4   7  12  25  44  66  94 131 173 220 278 337
#     4  11  22  40  67  94 116 141 181 226 266 317
#     4  10  22  39  57  80 115 151 182 219 269 327
#
# _framework density 19.191428999999999
#
# number of rings (size 3 to 8) (size 9 to 14) (size 15 to 20)
#    0.000    2.429    1.429    3.429    0.000    1.714 
#    0.000    0.000    0.000    0.000    0.000    0.000 
#    0.000   18.286    0.000    0.000    0.000    0.000 
#
# Total GULP energy -346875.177526 kJ/mol
# GULP energy per Si atom -12388.399197 kJ/mol
# Density = 1.914775 g / cm^3
# Si number density = 19.191429 Si / 1000 Ang^3
#
#
#
# Elastic Constant Matrix: (Units=GPa)
#
#
# Indices 1 2 3 4 5 6 
#
# 1 60.3008 29.3683 34.1117 0.0000 -5.9193 0.0000
# 2 29.3683 110.2381 54.8852 0.0000 -11.4468 0.0000
# 3 34.1117 54.8852 126.7502 0.0000 -15.5875 0.0000
# 4 0.0000 0.0000 0.0000 26.5402 0.0000 -9.2396
# 5 -5.9193 -11.4468 -15.5875 0.0000 23.3056 0.0000
# 6 0.0000 0.0000 0.0000 -9.2396 0.0000 1.9843
#
#
#
# Elastic Compliance Matrix: (Units=1/GPa)
#
#
# Indices 1 2 3 4 5 6 
#
# 1 0.020570 -0.003423 -0.003942 0.000000 0.000907 0.000000
# 2 -0.003423 0.012274 -0.004096 0.000000 0.002419 0.000000
# 3 -0.003942 -0.004096 0.011281 0.000000 0.004532 0.000000
# 4 0.000000 0.000000 0.000000 -0.060671 0.000000 -0.282504
# 5 0.000907 0.002419 0.004532 0.000000 0.047358 0.000000
# 6 0.000000 0.000000 0.000000 -0.282504 0.000000 -0.811475
#
#
# Mechanical properties :
#
#
# Convention : Reuss Voigt Hill
#
# Bulk Modulus (GPa) = 47.16413 59.33552 53.24983
# Shear Modulus (GPa) = -6.66069 22.29430 7.81680
#
# Velocity S-wave (km/s) = -1.86499 3.41204 2.02037
# Velocity P-wave (km/s) = 4.47117 6.81964 5.76623
#
# Compressibility (1/GPa) = 0.02120255
#
# Stress axis : x y z
#
# Youngs Moduli (GPa) = 48.61521 81.47472 88.64104
#
# Poissons Ratio (x) = 0.27890 0.34943
# Poissons Ratio (y) = 0.16642 0.36307
# Poissons Ratio (z) = 0.19164 0.33372
#
# Static dielectric constant tensor:
#      x y z
#    x 3.148460 0.000000 -0.010970 
#    y 0.000000 3.494530 0.000000 
#    z -0.010970 0.000000 3.866610 
# 
# 
# High freq. dielectric constant tensor:
#      x y z
#    x 1.708420 0.000000 0.000470 
#    y 0.000000 1.743100 0.000000 
#    z 0.000470 0.000000 1.769880 
# 
# From -- ./inp_files/357755.got.cif
#   From: 2010.06.25/outbox.cif.g09.slc.cpg/sg12_179_cif.got.tgz:357755.got - 2010.06.28 00:19:55.
