data_PCOD8111862
_publ_section_title
;
Structure prediction by ZEFSAII (Michael W. Deem and Ramdas Pophale) SiO2 
 PCOD8111862
Probable space group: C 2/M
;
_chemical_formula_sum "Si O2"
_cell_formula_units_Z 56
_cell_length_a 15.194463
_cell_length_b 8.648312
_cell_length_c 23.750547
_cell_angle_alpha 90.000000
_cell_angle_beta 117.460275
_cell_angle_gamma 90.000000
_cell_volume 2769.337335
_symmetry_space_group_name_H-M "C 2/M"
_symmetry_group_IT_number 12
_symmetry_cell_setting 'monoclinic'
loop_
_space_group_symop_operation_xyz
x,y,z
-x,y,-z
-x,-y,-z
x,-y,z
1/2+x,1/2+y,z
1/2-x,1/2+y,-z
1/2-x,1/2-y,-z
1/2+x,1/2-y,z
loop_
_atom_site_type_symbol
_atom_site_label
_atom_site_fract_x
_atom_site_fract_y
_atom_site_fract_z
Si Si1 0.093511 0.320242 0.783287
Si Si2 0.731710 0.816899 0.433208
Si Si3 0.990961 0.679780 0.121199
Si Si4 0.519995 0.681133 0.351085
Si Si5 0.418917 0.182641 0.429599
Si Si6 0.320788 0.680389 0.861948
Si Si7 0.842014 0.818382 0.994739
O O1 0.068908 0.500000 0.764348
O O2 0.209331 0.285383 0.809559
O O3 0.062334 0.272411 0.836870
O O4 0.033933 0.211487 0.723559
O O5 0.750000 0.750000 0.500000
O O6 0.625541 0.764420 0.379562
O O7 0.814115 0.756983 0.414375
O O8 0.735591 0.000000 0.438016
O O9 0.977094 0.500000 0.105728
O O10 0.106568 0.726559 0.158504
O O11 0.943692 0.771658 0.054980
O O12 0.535509 0.500000 0.365606
O O13 0.452306 0.750420 0.380118
O O14 0.500000 0.228516 0.500000
O O15 0.406089 0.000000 0.421056
O O16 0.345151 0.500000 0.864918
O O17 0.339867 0.744059 0.930453
O O18 0.829569 0.000000 0.990173
O O19 0.750000 0.750000 0.000000
#
# Coordination Sequence:
#
# PCOD8111862 Si02
#       7
#     8   8   8   8   8   8   8
#     4  10  23  45  64  84 126 172 212 260 316 375
#     4  12  24  41  67  98 131 167 208 258 314 374
#     4  11  23  40  63  93 125 164 211 262 315 372
#     4  12  26  43  66  97 131 169 214 261 317 380
#     4  11  23  41  68  98 129 167 207 255 315 375
#     4  10  22  41  63  89 124 167 208 258 319 375
#     4  11  21  37  62  92 125 163 207 260 319 377
#
# _framework density 20.221444000000002
#
# number of rings (size 3 to 8) (size 9 to 14) (size 15 to 20)
#    0.000    1.000    2.857    4.286    0.000    6.286 
#    0.000    2.857    0.000    0.000    0.000    0.000 
#    0.000    0.000    0.000    0.000    0.000    0.000 
#
# Total GULP energy -347387.574723 kJ/mol
# GULP energy per Si atom -12406.699097 kJ/mol
# Density = 2.017542 g / cm^3
# Si number density = 20.221444 Si / 1000 Ang^3
#
#
#
# Elastic Constant Matrix: (Units=GPa)
#
#
# Indices 1 2 3 4 5 6 
#
# 1 135.4953 38.4634 24.3475 0.0000 17.9905 0.0000
# 2 38.4634 88.0256 31.6858 0.0000 2.1103 0.0000
# 3 24.3475 31.6858 90.0242 0.0000 16.7354 0.0000
# 4 0.0000 0.0000 0.0000 33.9619 0.0000 1.5070
# 5 17.9905 2.1103 16.7354 0.0000 23.0520 0.0000
# 6 0.0000 0.0000 0.0000 1.5070 0.0000 37.4482
#
#
#
# Elastic Compliance Matrix: (Units=1/GPa)
#
#
# Indices 1 2 3 4 5 6 
#
# 1 0.009434 -0.004019 0.000189 0.000000 -0.007132 0.000000
# 2 -0.004019 0.014843 -0.005165 0.000000 0.005528 0.000000
# 3 0.000189 -0.005165 0.014814 0.000000 -0.010429 0.000000
# 4 0.000000 0.000000 0.000000 0.029497 0.000000 -0.001187
# 5 -0.007132 0.005528 -0.010429 0.000000 0.056012 0.000000
# 6 0.000000 0.000000 0.000000 -0.001187 0.000000 0.026751
#
#
# Mechanical properties :
#
#
# Convention : Reuss Voigt Hill
#
# Bulk Modulus (GPa) = 47.39198 55.83762 51.61480
# Shear Modulus (GPa) = 28.34851 33.49565 30.92208
#
# Velocity S-wave (km/s) = 3.74826 4.07436 3.91471
# Velocity P-wave (km/s) = 6.49769 7.05740 6.78332
#
# Compressibility (1/GPa) = 0.02110062
#
# Stress axis : x y z
#
# Youngs Moduli (GPa) = 105.99550 67.37037 67.50522
#
# Poissons Ratio (x) = 0.27079 -0.01276
# Poissons Ratio (y) = 0.42605 0.34866
# Poissons Ratio (z) = -0.02003 0.34796
#
# Static dielectric constant tensor:
#      x y z
#    x 3.820100 0.000000 0.024250 
#    y 0.000000 3.712800 0.000000 
#    z 0.024250 0.000000 3.634070 
# 
# 
# High freq. dielectric constant tensor:
#      x y z
#    x 1.809540 0.000000 0.003920 
#    y 0.000000 1.794760 0.000000 
#    z 0.003920 0.000000 1.786160 
# 
# From -- ./inp_files/339014.got.cif
#   From: 2010.06.25/outbox.cif.g09.slc.cpg/sg12_170_cif.got.tgz:339014.got - 2010.06.28 00:19:55.
