data_PCOD8111854
_publ_section_title
;
Structure prediction by ZEFSAII (Michael W. Deem and Ramdas Pophale) SiO2 
 PCOD8111854
Probable space group: C 2/M
;
_chemical_formula_sum "Si O2"
_cell_formula_units_Z 48
_cell_length_a 23.757184
_cell_length_b 8.682895
_cell_length_c 11.889697
_cell_angle_alpha 90.000000
_cell_angle_beta 90.702491
_cell_angle_gamma 90.000000
_cell_volume 2452.435837
_symmetry_space_group_name_H-M "C 2/M"
_symmetry_group_IT_number 12
_symmetry_cell_setting 'monoclinic'
loop_
_space_group_symop_operation_xyz
x,y,z
-x,y,-z
-x,-y,-z
x,-y,z
1/2+x,1/2+y,z
1/2-x,1/2+y,-z
1/2-x,1/2-y,-z
1/2+x,1/2-y,z
loop_
_atom_site_type_symbol
_atom_site_label
_atom_site_fract_x
_atom_site_fract_y
_atom_site_fract_z
Si Si1 0.664845 0.178556 0.014838
Si Si2 0.731871 0.678094 0.825282
Si Si3 0.549593 0.679012 0.086378
Si Si4 0.585565 0.181834 0.539318
Si Si5 0.708892 0.181187 0.590059
Si Si6 0.480656 0.182277 0.679011
O O1 0.708898 0.216366 0.114547
O O2 0.603316 0.220757 0.055208
O O3 0.667295 0.000000 0.981795
O O4 0.680184 0.276213 0.904769
O O5 0.726405 0.500000 0.793156
O O6 0.730669 0.778523 0.713659
O O7 0.565408 0.500000 0.080492
O O8 0.529967 0.721250 0.210128
O O9 0.500000 0.722083 0.000000
O O10 0.646585 0.252445 0.568718
O O11 0.540573 0.238428 0.630803
O O12 0.567234 0.228005 0.412765
O O13 0.586852 0.000000 0.547295
O O14 0.750000 0.250000 0.500000
O O15 0.707538 0.000000 0.574132
O O16 0.479779 0.000000 0.704870
#
# Coordination Sequence:
#
# PCOD8111854 Si02
#       6
#     8   8   8   8   8   8
#     4  10  22  41  65  88 114 156 203 244 292 358
#     4  10  22  41  63  89 120 154 195 248 303 353
#     4  11  25  40  56  87 126 156 190 245 300 349
#     4   8  18  37  61  86 114 148 194 245 289 339
#     4  11  23  38  58  89 123 159 200 242 292 352
#     4   9  18  38  64  86 110 150 198 245 292 346
#
# _framework density 19.572376999999999
#
# number of rings (size 3 to 8) (size 9 to 14) (size 15 to 20)
#    0.000    2.167    0.000    3.000    4.667    3.333 
#    0.000    3.333    0.000    0.000    0.000    0.000 
#    0.000    0.000    0.000    0.000    0.000    0.000 
#
# Total GULP energy -297665.694165 kJ/mol
# GULP energy per Si atom -12402.737257 kJ/mol
# Density = 1.952783 g / cm^3
# Si number density = 19.572377 Si / 1000 Ang^3
#
#
#
# Elastic Constant Matrix: (Units=GPa)
#
#
# Indices 1 2 3 4 5 6 
#
# 1 129.6210 31.4039 59.8976 0.0000 -4.5447 0.0000
# 2 31.4039 43.3466 24.2443 0.0000 5.4749 0.0000
# 3 59.8976 24.2443 125.0176 0.0000 -3.0500 0.0000
# 4 0.0000 0.0000 0.0000 34.3033 0.0000 -4.7971
# 5 -4.5447 5.4749 -3.0500 0.0000 22.9262 0.0000
# 6 0.0000 0.0000 0.0000 -4.7971 0.0000 28.7088
#
#
#
# Elastic Compliance Matrix: (Units=1/GPa)
#
#
# Indices 1 2 3 4 5 6 
#
# 1 0.011231 -0.006249 -0.004092 0.000000 0.003174 0.000000
# 2 -0.006249 0.030479 -0.003135 0.000000 -0.008934 0.000000
# 3 -0.004092 -0.003135 0.010600 0.000000 0.001348 0.000000
# 4 0.000000 0.000000 0.000000 0.029849 0.000000 0.004988
# 5 0.003174 -0.008934 0.001348 0.000000 0.046560 0.000000
# 6 0.000000 0.000000 0.000000 0.004988 0.000000 0.035666
#
#
# Mechanical properties :
#
#
# Convention : Reuss Voigt Hill
#
# Bulk Modulus (GPa) = 39.43341 58.78634 49.10987
# Shear Modulus (GPa) = 25.02646 29.35028 27.18837
#
# Velocity S-wave (km/s) = 3.57972 3.87664 3.73113
# Velocity P-wave (km/s) = 6.10549 7.08084 6.61118
#
# Compressibility (1/GPa) = 0.02535921
#
# Stress axis : x y z
#
# Youngs Moduli (GPa) = 89.04119 32.80961 94.34009
#
# Poissons Ratio (x) = 0.20503 0.38599
# Poissons Ratio (y) = 0.55642 0.29573
# Poissons Ratio (z) = 0.36431 0.10285
#
# Static dielectric constant tensor:
#      x y z
#    x 4.058020 0.000000 0.208830 
#    y 0.000000 3.392260 0.000000 
#    z 0.208830 0.000000 3.832100 
# 
# 
# High freq. dielectric constant tensor:
#      x y z
#    x 1.772270 0.000000 -0.000710 
#    y 0.000000 1.750720 0.000000 
#    z -0.000710 0.000000 1.771330 
# 
# From -- ./inp_files/172284.got.cif
#   From: 2010.06.25/outbox.cif.g09.slc.cpg/sg12_87_cif.got.tgz:172284.got - 2010.06.28 00:19:55.
