data_PCOD8111581
_publ_section_title
;
Structure prediction by ZEFSAII (Michael W. Deem and Ramdas Pophale) SiO2 
 PCOD8111581
Probable space group: C 2/M
;
_chemical_formula_sum "Si O2"
_cell_formula_units_Z 64
_cell_length_a 28.437629
_cell_length_b 8.744680
_cell_length_c 15.138257
_cell_angle_alpha 90.000000
_cell_angle_beta 53.764302
_cell_angle_gamma 90.000000
_cell_volume 3036.457360
_symmetry_space_group_name_H-M "C 2/M"
_symmetry_group_IT_number 12
_symmetry_cell_setting 'monoclinic'
loop_
_space_group_symop_operation_xyz
x,y,z
-x,y,-z
-x,-y,-z
x,-y,z
1/2+x,1/2+y,z
1/2-x,1/2+y,-z
1/2-x,1/2-y,-z
1/2+x,1/2-y,z
loop_
_atom_site_type_symbol
_atom_site_label
_atom_site_fract_x
_atom_site_fract_y
_atom_site_fract_z
Si Si1 0.133693 0.178704 0.997436
Si Si2 0.673113 0.177122 0.313797
Si Si3 0.984659 0.673678 0.915186
Si Si4 0.188993 0.320835 0.093660
Si Si5 0.307993 0.678473 0.395448
Si Si6 0.565759 0.321159 0.684189
Si Si7 0.954095 0.320403 0.477208
Si Si8 0.711522 0.179583 0.763105
O O1 0.182740 0.259315 0.884093
O O2 0.146241 0.000000 0.980608
O O3 0.069384 0.213945 0.036496
O O4 0.138972 0.242239 0.090747
O O5 0.673943 0.218504 0.210331
O O6 0.609983 0.221738 0.418831
O O7 0.720166 0.277834 0.314021
O O8 0.687887 0.000000 0.313793
O O9 0.968593 0.500000 0.905867
O O10 0.038142 0.731274 0.796870
O O11 0.000000 0.681701 0.000000
O O12 0.190078 0.500000 0.074040
O O13 0.250000 0.250000 0.000000
O O14 0.297055 0.500000 0.398556
O O15 0.250000 0.750000 0.500000
O O16 0.364701 0.713688 0.392769
O O17 0.320580 0.746548 0.284901
O O18 0.553340 0.500000 0.710199
O O19 0.536018 0.265424 0.626385
O O20 0.962449 0.500000 0.451561
O O21 0.000000 0.262478 0.500000
O O22 0.703540 0.000000 0.766139
#
# Coordination Sequence:
#
# PCOD8111581 Si02
#       8
#     8   8   8   8   8   8   8   8
#     4  12  25  41  63  93 130 169 211 262 324 389
#     4  10  22  40  63  91 128 169 216 270 328 385
#     4  11  25  45  70  98 129 170 219 270 324 392
#     4  11  22  38  62  94 130 170 215 267 326 391
#     4  11  24  42  66  95 130 166 210 263 323 388
#     4  11  25  44  66  97 132 171 214 268 328 387
#     4  10  23  43  67  94 125 171 221 270 323 380
#     4  12  24  39  63  94 127 166 213 263 320 387
#
# _framework density 21.077193000000001
#
# number of rings (size 3 to 8) (size 9 to 14) (size 15 to 20)
#    0.000    1.000    1.250    5.250    1.750    8.250 
#    0.000    0.000    0.000    0.000    0.000    0.000 
#    0.000    0.000    0.000    0.000    0.000    0.000 
#
# Total GULP energy -397006.203585 kJ/mol
# GULP energy per Si atom -12406.443862 kJ/mol
# Density = 2.102922 g / cm^3
# Si number density = 21.077193 Si / 1000 Ang^3
#
#
#
# Elastic Constant Matrix: (Units=GPa)
#
#
# Indices 1 2 3 4 5 6 
#
# 1 116.7842 49.0749 29.8656 0.0000 9.3929 -0.0001
# 2 49.0749 109.4600 38.8921 0.0000 8.4042 -0.0003
# 3 29.8656 38.8921 100.7301 0.0000 5.8255 0.0000
# 4 0.0000 0.0000 0.0000 33.0750 0.0000 0.8626
# 5 9.3929 8.4042 5.8255 0.0000 34.7988 0.0000
# 6 -0.0001 -0.0003 0.0000 0.8626 0.0000 36.8963
#
#
#
# Elastic Compliance Matrix: (Units=1/GPa)
#
#
# Indices 1 2 3 4 5 6 
#
# 1 0.010845 -0.004203 -0.001497 0.000000 -0.001662 0.000000
# 2 -0.004203 0.012342 -0.003446 0.000000 -0.001269 0.000000
# 3 -0.001497 -0.003446 0.011744 0.000000 -0.000730 0.000000
# 4 0.000000 0.000000 0.000000 0.030253 0.000000 -0.000707
# 5 -0.001662 -0.001269 -0.000730 0.000000 0.029614 0.000000
# 6 0.000000 0.000000 0.000000 -0.000707 0.000000 0.027120
#
#
# Mechanical properties :
#
#
# Convention : Reuss Voigt Hill
#
# Bulk Modulus (GPa) = 60.09459 62.51551 61.30505
# Shear Modulus (GPa) = 34.30420 34.89680 34.60050
#
# Velocity S-wave (km/s) = 4.03867 4.07340 4.05607
# Velocity P-wave (km/s) = 7.09375 7.20056 7.14736
#
# Compressibility (1/GPa) = 0.01664043
#
# Stress axis : x y z
#
# Youngs Moduli (GPa) = 92.20511 81.02516 85.15093
#
# Poissons Ratio (x) = 0.34055 0.12744
# Poissons Ratio (y) = 0.38754 0.29340
# Poissons Ratio (z) = 0.13800 0.27918
#
# Static dielectric constant tensor:
#      x y z
#    x 4.071760 0.000000 0.364750 
#    y 0.000000 3.846800 0.000000 
#    z 0.364750 0.000000 4.710170 
# 
# 
# High freq. dielectric constant tensor:
#      x y z
#    x 1.839010 0.000000 0.005630 
#    y 0.000000 1.830970 0.000000 
#    z 0.005630 0.000000 1.832990 
# 
# From -- ./inp_files/249779.got.cif
#   From: 2010.06.25/outbox.cif.g09.slc.cpg/sg12_125_cif.got.tgz:249779.got - 2010.06.28 00:19:55.
