data_PCOD8111323
_publ_section_title
;
Structure prediction by ZEFSAII (Michael W. Deem and Ramdas Pophale) SiO2 
 PCOD8111323
Probable space group: C 2/M
;
_chemical_formula_sum "Si O2"
_cell_formula_units_Z 64
_cell_length_a 17.389968
_cell_length_b 16.921069
_cell_length_c 14.317910
_cell_angle_alpha 90.000000
_cell_angle_beta 49.379341
_cell_angle_gamma 90.000000
_cell_volume 3197.929835
_symmetry_space_group_name_H-M "C 2/M"
_symmetry_group_IT_number 12
_symmetry_cell_setting 'monoclinic'
loop_
_space_group_symop_operation_xyz
x,y,z
-x,y,-z
-x,-y,-z
x,-y,z
1/2+x,1/2+y,z
1/2-x,1/2+y,-z
1/2-x,1/2-y,-z
1/2+x,1/2-y,z
loop_
_atom_site_type_symbol
_atom_site_label
_atom_site_fract_x
_atom_site_fract_y
_atom_site_fract_z
Si Si1 0.744531 0.316489 0.838174
Si Si2 0.979542 0.822101 0.238282
Si Si3 0.152199 0.655305 0.934897
Si Si4 0.690939 0.407860 0.052718
Si Si5 0.559275 0.843199 0.815236
Si Si6 0.706440 0.408239 0.681292
Si Si7 0.594695 0.091347 0.589156
Si Si8 0.467467 0.769965 0.626563
O O1 0.665858 0.249649 0.934429
O O2 0.759437 0.377767 0.911753
O O3 0.704148 0.361647 0.780006
O O4 0.847501 0.270398 0.733600
O O5 0.980522 0.789680 0.342656
O O6 0.948342 0.750868 0.194139
O O7 0.893994 0.888930 0.298050
O O8 0.086286 0.860834 0.129161
O O9 0.136843 0.636506 0.837478
O O10 0.249200 0.608592 0.898269
O O11 0.053772 0.627332 0.070589
O O12 0.668377 0.500000 0.060988
O O13 0.602662 0.889671 0.692384
O O14 0.709168 0.500000 0.703421
O O15 0.801475 0.383142 0.542878
O O16 0.504635 0.140321 0.612913
O O17 0.569594 0.000000 0.593240
O O18 0.500000 0.738576 0.500000
#
# Coordination Sequence:
#
# PCOD8111323 Si02
#       8
#     8   8   8   8   8   8   8   8
#     4  12  22  41  63  93 126 160 208 252 310 372
#     4  11  22  41  63  90 127 161 212 253 304 370
#     4  11  22  41  64  92 125 162 206 259 305 361
#     4  12  25  40  62  93 131 168 201 253 314 373
#     4  10  22  39  68  91 117 165 211 255 304 364
#     4  11  24  41  64  92 127 164 203 259 314 367
#     4  10  23  41  61  91 128 162 203 261 315 365
#     4  11  23  39  66  95 119 164 210 258 308 369
#
# _framework density 20.012947
#
# number of rings (size 3 to 8) (size 9 to 14) (size 15 to 20)
#    0.000    1.000    5.000    2.625    0.000    6.750 
#    0.000    2.500    0.000    0.750    0.000    0.000 
#    0.000    0.000    0.000    0.000    0.000    0.000 
#
# Total GULP energy -396905.194062 kJ/mol
# GULP energy per Si atom -12403.287314 kJ/mol
# Density = 1.996740 g / cm^3
# Si number density = 20.012947 Si / 1000 Ang^3
#
#
#
# Elastic Constant Matrix: (Units=GPa)
#
#
# Indices 1 2 3 4 5 6 
#
# 1 103.5432 21.6952 34.8715 0.0000 8.8350 0.0000
# 2 21.6952 63.1932 24.2788 0.0000 5.5554 0.0000
# 3 34.8715 24.2788 89.2519 0.0000 13.8025 0.0000
# 4 0.0000 0.0000 0.0000 24.5929 0.0000 -3.7509
# 5 8.8350 5.5554 13.8025 0.0000 33.7238 0.0000
# 6 0.0000 0.0000 0.0000 -3.7509 0.0000 26.0907
#
#
#
# Elastic Compliance Matrix: (Units=1/GPa)
#
#
# Indices 1 2 3 4 5 6 
#
# 1 0.011496 -0.002445 -0.003654 0.000000 -0.001113 0.000000
# 2 -0.002445 0.018223 -0.003883 0.000000 -0.000772 0.000000
# 3 -0.003654 -0.003883 0.014349 0.000000 -0.004276 0.000000
# 4 0.000000 0.000000 0.000000 0.041574 0.000000 0.005977
# 5 -0.001113 -0.000772 -0.004276 0.000000 0.031822 0.000000
# 6 0.000000 0.000000 0.000000 0.005977 0.000000 0.039187
#
#
# Mechanical properties :
#
#
# Convention : Reuss Voigt Hill
#
# Bulk Modulus (GPa) = 41.48470 46.40880 43.94675
# Shear Modulus (GPa) = 27.07834 28.55767 27.81800
#
# Velocity S-wave (km/s) = 3.68236 3.78161 3.73232
# Velocity P-wave (km/s) = 6.23327 6.50440 6.37027
#
# Compressibility (1/GPa) = 0.02410527
#
# Stress axis : x y z
#
# Youngs Moduli (GPa) = 86.98864 54.87440 69.68923
#
# Poissons Ratio (x) = 0.13416 0.25466
# Poissons Ratio (y) = 0.21267 0.27057
# Poissons Ratio (z) = 0.31788 0.21305
#
# Static dielectric constant tensor:
#      x y z
#    x 3.645720 0.000000 0.054620 
#    y 0.000000 3.481590 0.000000 
#    z 0.054620 0.000000 3.685460 
# 
# 
# High freq. dielectric constant tensor:
#      x y z
#    x 1.789670 0.000000 0.004160 
#    y 0.000000 1.769690 0.000000 
#    z 0.004160 0.000000 1.784710 
# 
# From -- ./inp_files/225662.got.cif
#   From: 2010.06.25/outbox.cif.g09.slc.cpg/sg12_113_cif.got.tgz:225662.got - 2010.06.28 00:19:55.
