data_PCOD8111056
_publ_section_title
;
Structure prediction by ZEFSAII (Michael W. Deem and Ramdas Pophale) SiO2 
 PCOD8111056
Probable space group: C 2/M
;
_chemical_formula_sum "Si O2"
_cell_formula_units_Z 48
_cell_length_a 20.179383
_cell_length_b 8.918597
_cell_length_c 14.537755
_cell_angle_alpha 90.000000
_cell_angle_beta 107.723357
_cell_angle_gamma 90.000000
_cell_volume 2492.205404
_symmetry_space_group_name_H-M "C 2/M"
_symmetry_group_IT_number 12
_symmetry_cell_setting 'monoclinic'
loop_
_space_group_symop_operation_xyz
x,y,z
-x,y,-z
-x,-y,-z
x,-y,z
1/2+x,1/2+y,z
1/2-x,1/2+y,-z
1/2-x,1/2-y,-z
1/2+x,1/2-y,z
loop_
_atom_site_type_symbol
_atom_site_label
_atom_site_fract_x
_atom_site_fract_y
_atom_site_fract_z
Si Si1 0.847541 0.172415 0.381980
Si Si2 0.393668 0.177522 0.905922
Si Si3 0.387601 0.327400 0.602500
Si Si4 0.207887 0.823574 0.268504
Si Si5 0.966454 0.323070 0.322814
Si Si6 0.036924 0.676605 0.883386
O O1 0.844690 0.192420 0.490446
O O2 0.785100 0.260761 0.308816
O O3 0.920351 0.237078 0.377105
O O4 0.841992 0.000000 0.350969
O O5 0.325656 0.259491 0.838901
O O6 0.460590 0.238874 0.877653
O O7 0.383628 0.000000 0.891324
O O8 0.404783 0.225919 0.017612
O O9 0.411217 0.500000 0.625824
O O10 0.337445 0.272819 0.662981
O O11 0.453839 0.220174 0.628004
O O12 0.213236 0.000000 0.263001
O O13 0.958161 0.500000 0.333398
O O14 0.942369 0.271579 0.210170
O O15 0.029228 0.500000 0.885399
#
# Coordination Sequence:
#
# PCOD8111056 Si02
#       6
#     8   8   8   8   8   8
#     4  11  24  40  56  77 112 155 189 224 276 334
#     4   9  16  33  58  83 110 144 182 221 273 332
#     4  10  22  39  58  81 111 147 188 230 275 328
#     4  11  22  37  57  85 114 142 184 236 279 322
#     4  11  21  36  59  87 114 144 184 230 275 324
#     4   8  16  31  56  85 111 141 181 224 269 327
#
# _framework density 19.260048999999999
#
# number of rings (size 3 to 8) (size 9 to 14) (size 15 to 20)
#    0.000    2.000    1.667    3.500    0.000    4.000 
#    0.000    4.167    0.000    0.000    0.000    0.000 
#    0.000    0.000    0.000    0.000    0.000    0.000 
#
# Total GULP energy -297630.280767 kJ/mol
# GULP energy per Si atom -12401.261699 kJ/mol
# Density = 1.921621 g / cm^3
# Si number density = 19.260049 Si / 1000 Ang^3
#
#
#
# Elastic Constant Matrix: (Units=GPa)
#
#
# Indices 1 2 3 4 5 6 
#
# 1 58.1254 24.5389 9.7242 0.0000 13.7441 0.0000
# 2 24.5389 67.6291 29.2009 0.0000 10.1479 0.0000
# 3 9.7242 29.2009 84.4034 0.0000 16.7697 0.0000
# 4 0.0000 0.0000 0.0000 28.3558 0.0000 4.9468
# 5 13.7441 10.1479 16.7697 0.0000 29.3244 0.0000
# 6 0.0000 0.0000 0.0000 4.9468 0.0000 28.8887
#
#
#
# Elastic Compliance Matrix: (Units=1/GPa)
#
#
# Indices 1 2 3 4 5 6 
#
# 1 0.022150 -0.007487 0.001790 0.000000 -0.008814 0.000000
# 2 -0.007487 0.020136 -0.006111 0.000000 0.000035 0.000000
# 3 0.001790 -0.006111 0.015233 0.000000 -0.007435 0.000000
# 4 0.000000 0.000000 0.000000 0.036352 0.000000 -0.006225
# 5 -0.008814 0.000035 -0.007435 0.000000 0.042472 0.000000
# 6 0.000000 0.000000 0.000000 -0.006225 0.000000 0.035682
#
#
# Mechanical properties :
#
#
# Convention : Reuss Voigt Hill
#
# Bulk Modulus (GPa) = 29.49648 37.45398 33.47523
# Shear Modulus (GPa) = 24.16125 27.09337 25.62731
#
# Velocity S-wave (km/s) = 3.54570 3.75469 3.65169
# Velocity P-wave (km/s) = 5.66663 6.18753 5.93280
#
# Compressibility (1/GPa) = 0.03390235
#
# Stress axis : x y z
#
# Youngs Moduli (GPa) = 45.14735 49.66111 65.64601
#
# Poissons Ratio (x) = 0.37182 -0.11748
# Poissons Ratio (y) = 0.33802 0.40116
# Poissons Ratio (z) = -0.08079 0.30348
#
# Static dielectric constant tensor:
#      x y z
#    x 3.317970 0.000000 -0.112510 
#    y 0.000000 3.342230 0.000000 
#    z -0.112510 0.000000 3.911530 
# 
# 
# High freq. dielectric constant tensor:
#      x y z
#    x 1.730560 0.000000 0.004530 
#    y 0.000000 1.737300 0.000000 
#    z 0.004530 0.000000 1.764470 
# 
# From -- ./inp_files/229955.got.cif
#   From: 2010.06.25/outbox.cif.g09.slc.cpg/sg12_115_cif.got.tgz:229955.got - 2010.06.28 00:19:55.
