data_PCOD8111316
_publ_section_title
;
Structure prediction by ZEFSAII (Michael W. Deem and Ramdas Pophale) SiO2 
 PCOD8111316
Probable space group: C 2/M
;
_chemical_formula_sum "Si O2"
_cell_formula_units_Z 28
_cell_length_a 7.413878
_cell_length_b 19.033084
_cell_length_c 9.953360
_cell_angle_alpha 90.000000
_cell_angle_beta 92.403819
_cell_angle_gamma 90.000000
_cell_volume 1403.272390
_symmetry_space_group_name_H-M "C 2/M"
_symmetry_group_IT_number 12
_symmetry_cell_setting 'monoclinic'
loop_
_space_group_symop_operation_xyz
x,y,z
-x,y,-z
-x,-y,-z
x,-y,z
1/2+x,1/2+y,z
1/2-x,1/2+y,-z
1/2-x,1/2-y,-z
1/2+x,1/2-y,z
loop_
_atom_site_type_symbol
_atom_site_label
_atom_site_fract_x
_atom_site_fract_y
_atom_site_fract_z
Si Si1 0.181808 0.317928 0.759578
Si Si2 0.500000 0.131033 0.000000
Si Si3 0.118505 0.579470 0.270786
Si Si4 0.557938 0.328724 0.653406
O O1 0.384657 0.343842 0.740473
O O2 0.168067 0.238752 0.707347
O O3 0.042530 0.370378 0.677364
O O4 0.138068 0.320308 0.918067
O O5 0.384291 0.083239 0.892893
O O6 0.086028 0.500000 0.318262
O O7 0.311018 0.604508 0.332737
O O8 0.500000 0.315509 0.500000
#
# Coordination Sequence:
#
# PCOD8111316 Si02
#       4
#     8   4   8   8
#     4  10  22  39  66  92 122 162 205 257 306 362
#     4   8  21  42  66  88 129 154 210 250 321 362
#     4  10  23  42  64  94 128 161 202 259 315 366
#     4  12  24  40  65  93 126 166 212 250 305 366
#
# _framework density 19.953361000000001
#
# number of rings (size 3 to 8) (size 9 to 14) (size 15 to 20)
#    1.714    0.000    2.857    1.286    0.000    7.429 
#    0.000    2.857    0.000    0.000    0.000    0.000 
#    0.000    0.000    0.000    0.000    0.000    0.000 
#
# Total GULP energy -173526.352404 kJ/mol
# GULP energy per Si atom -12394.739457 kJ/mol
# Density = 1.990795 g / cm^3
# Si number density = 19.953361 Si / 1000 Ang^3
#
#
#
# Elastic Constant Matrix: (Units=GPa)
#
#
# Indices 1 2 3 4 5 6 
#
# 1 103.1214 18.9016 -9.8142 0.0000 1.3401 0.0000
# 2 18.9016 106.3686 -1.6461 0.0000 5.7710 0.0000
# 3 -9.8142 -1.6461 23.9487 0.0000 -4.1292 0.0000
# 4 0.0000 0.0000 0.0000 0.6938 0.0000 26.6163
# 5 1.3401 5.7710 -4.1292 0.0000 26.1997 0.0000
# 6 0.0000 0.0000 0.0000 26.6163 0.0000 3.5887
#
#
#
# Elastic Compliance Matrix: (Units=1/GPa)
#
#
# Indices 1 2 3 4 5 6 
#
# 1 0.010427 -0.001816 0.004240 0.000000 0.000535 0.000000
# 2 -0.001816 0.009833 -0.000438 0.000000 -0.002142 0.000000
# 3 0.004240 -0.000438 0.044656 0.000000 0.006918 0.000000
# 4 0.000000 0.000000 0.000000 -0.005084 0.000000 0.037703
# 5 0.000535 -0.002142 0.006918 0.000000 0.039703 0.000000
# 6 0.000000 0.000000 0.000000 0.037703 0.000000 -0.000983
#
#
# Mechanical properties :
#
#
# Convention : Reuss Voigt Hill
#
# Bulk Modulus (GPa) = 14.51603 27.59125 21.05364
# Shear Modulus (GPa) = 42.53733 21.16293 31.85013
#
# Velocity S-wave (km/s) = 4.62219 3.26025 3.99962
# Velocity P-wave (km/s) = 5.98139 5.29435 5.64833
#
# Compressibility (1/GPa) = 0.06888937
#
# Stress axis : x y z
#
# Youngs Moduli (GPa) = 95.90651 101.69358 22.39323
#
# Poissons Ratio (x) = 0.18470 -0.09496
# Poissons Ratio (y) = 0.17419 0.00980
# Poissons Ratio (z) = -0.40668 0.04452
#
# Static dielectric constant tensor:
#      x y z
#    x 3.560260 0.000000 0.011940 
#    y 0.000000 3.316480 0.000000 
#    z 0.011940 0.000000 3.471930 
# 
# 
# High freq. dielectric constant tensor:
#      x y z
#    x 1.779170 0.000000 0.002820 
#    y 0.000000 1.762830 0.000000 
#    z 0.002820 0.000000 1.769130 
# 
# From -- ./inp_files/117228.got.cif
#   From: 2010.06.25/outbox.cif.g09.slc.cpg/sg12_59_cif.got.tgz:117228.got - 2010.06.28 00:19:55.
