data_PCOD8111705
_publ_section_title
;
Structure prediction by ZEFSAII (Michael W. Deem and Ramdas Pophale) SiO2 
 PCOD8111705
Probable space group: C 2/M
;
_chemical_formula_sum "Si O2"
_cell_formula_units_Z 64
_cell_length_a 8.942625
_cell_length_b 30.518041
_cell_length_c 13.892275
_cell_angle_alpha 90.000000
_cell_angle_beta 55.208008
_cell_angle_gamma 90.000000
_cell_volume 3113.574797
_symmetry_space_group_name_H-M "C 2/M"
_symmetry_group_IT_number 12
_symmetry_cell_setting 'monoclinic'
loop_
_space_group_symop_operation_xyz
x,y,z
-x,y,-z
-x,-y,-z
x,-y,z
1/2+x,1/2+y,z
1/2-x,1/2+y,-z
1/2-x,1/2-y,-z
1/2+x,1/2-y,z
loop_
_atom_site_type_symbol
_atom_site_label
_atom_site_fract_x
_atom_site_fract_y
_atom_site_fract_z
Si Si1 0.856146 0.450377 0.317016
Si Si2 0.817618 0.128216 0.519638
Si Si3 0.568744 0.381438 0.732317
Si Si4 0.859699 0.451063 0.630650
Si Si5 0.652575 0.259546 0.201803
Si Si6 0.152148 0.310032 0.721586
Si Si7 0.039514 0.808554 0.883607
Si Si8 0.862533 0.611853 0.138509
O O1 0.779297 0.500000 0.335689
O O2 0.721247 0.421984 0.434349
O O3 0.878755 0.429492 0.203567
O O4 0.051545 0.450931 0.296677
O O5 0.841839 0.135262 0.398669
O O6 0.672949 0.162074 0.616541
O O7 0.000000 0.144295 0.500000
O O8 0.665976 0.427606 0.715406
O O9 0.637734 0.345774 0.784437
O O10 0.350134 0.385938 0.814853
O O11 0.816404 0.500000 0.609776
O O12 0.000000 0.429318 0.500000
O O13 0.666203 0.288719 0.295113
O O14 0.479795 0.228179 0.264911
O O15 0.634720 0.291029 0.114088
O O16 0.837063 0.232321 0.130039
O O17 0.074082 0.343433 0.831505
O O18 0.000000 0.831790 0.000000
O O19 0.000000 0.603952 0.000000
#
# Coordination Sequence:
#
# PCOD8111705 Si02
#       8
#     8   8   8   8   8   8   8   8
#     4  10  22  41  67  96 127 167 209 256 315 377
#     4  11  20  40  63  93 133 163 206 263 314 387
#     4  12  24  40  64 100 129 168 213 260 321 380
#     4  10  22  40  65  98 131 161 206 259 310 378
#     4  10  22  42  62  91 119 165 219 264 317 373
#     4  10  22  41  65  90 125 164 211 267 324 372
#     4  11  24  39  61  89 124 167 218 263 310 375
#     4  11  25  43  66  91 131 171 216 264 313 373
#
# _framework density 20.555150999999999
#
# number of rings (size 3 to 8) (size 9 to 14) (size 15 to 20)
#    0.000    1.375    5.000    0.375    5.250    3.000 
#    0.000    6.875    0.000    1.875    0.000    0.000 
#    0.000    0.000    0.000    0.000    0.000    0.000 
#
# Total GULP energy -396480.190713 kJ/mol
# GULP energy per Si atom -12390.005960 kJ/mol
# Density = 2.050837 g / cm^3
# Si number density = 20.555151 Si / 1000 Ang^3
#
#
#
# Elastic Constant Matrix: (Units=GPa)
#
#
# Indices 1 2 3 4 5 6 
#
# 1 91.3055 41.1162 43.2312 0.0000 8.4616 0.0000
# 2 41.1162 118.7554 57.2830 0.0000 14.5333 0.0000
# 3 43.2312 57.2830 135.8652 0.0000 16.2839 0.0000
# 4 0.0000 0.0000 0.0000 19.4148 0.0000 -1.4649
# 5 8.4616 14.5333 16.2839 0.0000 27.6933 0.0000
# 6 0.0000 0.0000 0.0000 -1.4649 0.0000 33.2660
#
#
#
# Elastic Compliance Matrix: (Units=1/GPa)
#
#
# Indices 1 2 3 4 5 6 
#
# 1 0.013902 -0.003300 -0.002938 0.000000 -0.000789 0.000000
# 2 -0.003300 0.011615 -0.003483 0.000000 -0.003039 0.000000
# 3 -0.002938 -0.003483 0.010152 0.000000 -0.003244 0.000000
# 4 0.000000 0.000000 0.000000 0.051679 0.000000 0.002276
# 5 -0.000789 -0.003039 -0.003244 0.000000 0.039853 0.000000
# 6 0.000000 0.000000 0.000000 0.002276 0.000000 0.030161
#
#
# Mechanical properties :
#
#
# Convention : Reuss Voigt Hill
#
# Bulk Modulus (GPa) = 61.61904 69.90965 65.76435
# Shear Modulus (GPa) = 27.44039 29.69455 28.56747
#
# Velocity S-wave (km/s) = 3.65768 3.80495 3.73204
# Velocity P-wave (km/s) = 6.91959 7.30672 7.11578
#
# Compressibility (1/GPa) = 0.01622875
#
# Stress axis : x y z
#
# Youngs Moduli (GPa) = 71.93086 86.09499 98.49976
#
# Poissons Ratio (x) = 0.28409 0.28938
# Poissons Ratio (y) = 0.23735 0.34306
# Poissons Ratio (z) = 0.21132 0.29986
#
# Static dielectric constant tensor:
#      x y z
#    x 3.934640 0.000000 0.168430 
#    y 0.000000 3.897140 0.000000 
#    z 0.168430 0.000000 3.489510 
# 
# 
# High freq. dielectric constant tensor:
#      x y z
#    x 1.813060 0.000000 0.016500 
#    y 0.000000 1.810660 0.000000 
#    z 0.016500 0.000000 1.777100 
# 
# From -- ./inp_files/201240.got.cif
#   From: 2010.06.25/outbox.cif.g09.slc.cpg/sg12_101_cif.got.tgz:201240.got - 2010.06.28 00:19:55.
