data_PCOD8111938
_publ_section_title
;
Structure prediction by ZEFSAII (Michael W. Deem and Ramdas Pophale) SiO2 
 PCOD8111938
Probable space group: C 2/M
;
_chemical_formula_sum "Si O2"
_cell_formula_units_Z 40
_cell_length_a 30.781000
_cell_length_b 12.175009
_cell_length_c 9.405207
_cell_angle_alpha 90.000000
_cell_angle_beta 34.021917
_cell_angle_gamma 90.000000
_cell_volume 1972.096757
_symmetry_space_group_name_H-M "C 2/M"
_symmetry_group_IT_number 12
_symmetry_cell_setting 'monoclinic'
loop_
_space_group_symop_operation_xyz
x,y,z
-x,y,-z
-x,-y,-z
x,-y,z
1/2+x,1/2+y,z
1/2-x,1/2+y,-z
1/2-x,1/2-y,-z
1/2+x,1/2-y,z
loop_
_atom_site_type_symbol
_atom_site_label
_atom_site_fract_x
_atom_site_fract_y
_atom_site_fract_z
Si Si1 0.548792 0.000000 0.502947
Si Si2 0.158998 0.317770 0.111961
Si Si3 0.661826 0.791720 0.769555
Si Si4 0.909847 0.878080 0.222974
Si Si5 0.829791 0.875723 0.720087
Si Si6 0.570254 0.000000 0.925061
O O1 0.500000 0.000000 0.500000
O O2 0.598838 0.110810 0.366080
O O3 0.482373 0.000000 0.796809
O O4 0.151418 0.193776 0.189843
O O5 0.147507 0.318831 0.973478
O O6 0.239714 0.373245 0.930259
O O7 0.750000 0.750000 0.500000
O O8 0.608334 0.690343 0.868762
O O9 0.630110 0.895561 0.761756
O O10 0.872597 0.825111 0.465877
O O11 0.874752 0.000000 0.296491
O O12 0.000000 0.883130 0.000000
O O13 0.857580 0.000000 0.674865
O O14 0.500000 0.000000 0.000000
#
# Coordination Sequence:
#
# PCOD8111938 Si02
#       6
#     4   8   8   8   8   4
#     4  12  24  44  70  94 136 177 225 278 347 399
#     4  11  23  40  65  98 128 180 223 277 342 409
#     4  12  25  43  70  98 137 177 230 282 341 415
#     4  10  23  42  65  92 131 177 219 277 342 405
#     4  10  22  41  64  92 136 170 223 279 342 414
#     4  12  30  46  72 110 144 182 230 299 352 411
#
# _framework density 20.282980999999999
#
# number of rings (size 3 to 8) (size 9 to 14) (size 15 to 20)
#    0.000    1.000    5.000    0.600    7.000    0.800 
#    0.000    0.000    0.000    4.200    0.000    0.000 
#    0.000    0.000    0.000    0.000    0.000    0.000 
#
# Total GULP energy -247811.689491 kJ/mol
# GULP energy per Si atom -12390.584475 kJ/mol
# Density = 2.023682 g / cm^3
# Si number density = 20.282981 Si / 1000 Ang^3
#
#
#
# Elastic Constant Matrix: (Units=GPa)
#
#
# Indices 1 2 3 4 5 6 
#
# 1 100.1786 55.9426 10.8779 0.0000 -3.8660 0.0000
# 2 55.9426 118.6620 30.5194 0.0000 -4.4320 0.0000
# 3 10.8779 30.5194 87.4689 0.0000 -14.7845 0.0000
# 4 0.0000 0.0000 0.0000 49.1955 0.0000 -12.0623
# 5 -3.8660 -4.4320 -14.7845 0.0000 29.6127 0.0000
# 6 0.0000 0.0000 0.0000 -12.0623 0.0000 -9.6312
#
#
#
# Elastic Compliance Matrix: (Units=1/GPa)
#
#
# Indices 1 2 3 4 5 6 
#
# 1 0.013616 -0.006582 0.000805 0.000000 0.001194 0.000000
# 2 -0.006582 0.012441 -0.003662 0.000000 -0.000826 0.000000
# 3 0.000805 -0.003662 0.013691 0.000000 0.006392 0.000000
# 4 0.000000 0.000000 0.000000 0.015551 0.000000 -0.019477
# 5 0.001194 -0.000826 0.006392 0.000000 0.036993 0.000000
# 6 0.000000 0.000000 0.000000 -0.019477 0.000000 -0.079436
#
#
# Mechanical properties :
#
#
# Convention : Reuss Voigt Hill
#
# Bulk Modulus (GPa) = 47.91380 55.66549 51.78965
# Shear Modulus (GPa) = 129.22821 27.76672 78.49746
#
# Velocity S-wave (km/s) = 7.99068 3.70397 6.22777
# Velocity P-wave (km/s) = 10.43113 6.76731 8.79219
#
# Compressibility (1/GPa) = 0.02087081
#
# Stress axis : x y z
#
# Youngs Moduli (GPa) = 73.44146 80.37787 73.04230
#
# Poissons Ratio (x) = 0.52903 -0.05880
# Poissons Ratio (y) = 0.48337 0.26748
# Poissons Ratio (z) = -0.05912 0.29434
#
# Static dielectric constant tensor:
#      x y z
#    x 3.755270 0.000000 -0.302420 
#    y 0.000000 4.049790 0.000000 
#    z -0.302420 0.000000 3.375550 
# 
# 
# High freq. dielectric constant tensor:
#      x y z
#    x 1.793770 0.000000 -0.008210 
#    y 0.000000 1.801270 0.000000 
#    z -0.008210 0.000000 1.800060 
# 
# From -- ./inp_files/109719.got.cif
#   From: 2010.06.25/outbox.cif.g09.slc.cpg/sg12_55_cif.got.tgz:109719.got - 2010.06.28 00:19:55.
