data_PCOD8111562
_publ_section_title
;
Structure prediction by ZEFSAII (Michael W. Deem and Ramdas Pophale) SiO2 
 PCOD8111562
Probable space group: C 2/M
;
_chemical_formula_sum "Si O2"
_cell_formula_units_Z 64
_cell_length_a 23.940977
_cell_length_b 18.828332
_cell_length_c 8.630069
_cell_angle_alpha 90.000000
_cell_angle_beta 125.223067
_cell_angle_gamma 90.000000
_cell_volume 3177.925168
_symmetry_space_group_name_H-M "C 2/M"
_symmetry_group_IT_number 12
_symmetry_cell_setting 'monoclinic'
loop_
_space_group_symop_operation_xyz
x,y,z
-x,y,-z
-x,-y,-z
x,-y,z
1/2+x,1/2+y,z
1/2-x,1/2+y,-z
1/2-x,1/2-y,-z
1/2+x,1/2-y,z
loop_
_atom_site_type_symbol
_atom_site_label
_atom_site_fract_x
_atom_site_fract_y
_atom_site_fract_z
Si Si1 0.457055 0.678501 0.798600
Si Si2 0.833236 0.081601 0.979367
Si Si3 0.690134 0.080695 0.888173
Si Si4 0.056534 0.178505 0.689157
Si Si5 0.070415 0.668384 0.192234
Si Si6 0.195210 0.418328 0.256472
Si Si7 0.927505 0.672966 0.439887
Si Si8 0.661951 0.581968 0.374480
O O1 0.511989 0.707815 0.762270
O O2 0.422396 0.747201 0.823659
O O3 0.397950 0.626990 0.636529
O O4 0.500000 0.636421 0.000000
O O5 0.881487 0.129604 0.162255
O O6 0.847588 0.000000 0.046377
O O7 0.755806 0.102461 0.892848
O O8 0.846423 0.095992 0.820951
O O9 0.629380 0.131082 0.743778
O O10 0.668591 0.000000 0.818015
O O11 0.708221 0.091099 0.096122
O O12 0.082189 0.244145 0.623298
O O13 0.000000 0.133668 0.500000
O O14 0.132431 0.629515 0.207783
O O15 0.076971 0.655395 0.385998
O O16 0.000000 0.640176 0.000000
O O17 0.179470 0.500000 0.275731
O O18 0.263914 0.391679 0.451771
O O19 0.000000 0.643646 0.500000
O O20 0.651877 0.500000 0.403358
#
# Coordination Sequence:
#
# PCOD8111562 Si02
#       8
#     8   8   8   8   8   8   8   8
#     4  11  22  39  62  90 122 159 199 249 299 353
#     4  10  22  41  62  88 122 162 203 247 298 355
#     4  10  23  41  63  91 124 158 198 246 301 359
#     4  11  23  40  60  89 125 157 201 251 299 355
#     4  11  23  40  66  89 121 158 200 249 298 355
#     4  10  23  41  62  92 122 155 201 250 298 356
#     4  11  22  41  64  89 122 159 198 245 302 358
#     4  10  22  40  63  89 122 161 204 248 295 354
#
# _framework density 20.138926000000001
#
# number of rings (size 3 to 8) (size 9 to 14) (size 15 to 20)
#    0.000    1.500    3.750    1.500    3.500    4.000 
#    0.000    0.000    0.000    0.000    0.000    0.000 
#    0.000    0.000    0.000    0.000    0.000    0.000 
#
# Total GULP energy -396709.553890 kJ/mol
# GULP energy per Si atom -12397.173559 kJ/mol
# Density = 2.009309 g / cm^3
# Si number density = 20.138926 Si / 1000 Ang^3
#
#
#
# Elastic Constant Matrix: (Units=GPa)
#
#
# Indices 1 2 3 4 5 6 
#
# 1 63.2379 28.8134 1.7649 0.0000 12.0983 0.0000
# 2 28.8134 66.0602 34.5492 0.0000 22.5671 0.0000
# 3 1.7649 34.5492 107.5831 0.0000 21.3070 0.0000
# 4 0.0000 0.0000 0.0000 37.1743 0.0000 2.4548
# 5 12.0983 22.5671 21.3070 0.0000 38.7106 0.0000
# 6 0.0000 0.0000 0.0000 2.4548 0.0000 29.7499
#
#
#
# Elastic Compliance Matrix: (Units=1/GPa)
#
#
# Indices 1 2 3 4 5 6 
#
# 1 0.020728 -0.009927 0.003350 0.000000 -0.002535 0.000000
# 2 -0.009927 0.025676 -0.006434 0.000000 -0.008325 0.000000
# 3 0.003350 -0.006434 0.012089 0.000000 -0.003950 0.000000
# 4 0.000000 0.000000 0.000000 0.027048 0.000000 -0.002232
# 5 -0.002535 -0.008325 -0.003950 0.000000 0.033652 0.000000
# 6 0.000000 0.000000 0.000000 -0.002232 0.000000 0.033798
#
#
# Mechanical properties :
#
#
# Convention : Reuss Voigt Hill
#
# Bulk Modulus (GPa) = 30.79701 40.79291 35.79496
# Shear Modulus (GPa) = 26.33854 32.57721 29.45788
#
# Velocity S-wave (km/s) = 3.62033 4.02633 3.82872
# Velocity P-wave (km/s) = 5.72724 6.47417 6.11212
#
# Compressibility (1/GPa) = 0.03247069
#
# Stress axis : x y z
#
# Youngs Moduli (GPa) = 48.24439 38.94644 82.72177
#
# Poissons Ratio (x) = 0.38662 -0.27711
# Poissons Ratio (y) = 0.47891 0.53224
# Poissons Ratio (z) = -0.16161 0.25059
#
# Static dielectric constant tensor:
#      x y z
#    x 3.643400 0.000000 -0.053490 
#    y 0.000000 3.496190 0.000000 
#    z -0.053490 0.000000 3.934860 
# 
# 
# High freq. dielectric constant tensor:
#      x y z
#    x 1.789610 0.000000 -0.002600 
#    y 0.000000 1.768380 0.000000 
#    z -0.002600 0.000000 1.808940 
# 
# From -- ./inp_files/99132.got.cif
#   From: 2010.06.25/outbox.cif.g09.slc.cpg/sg12_50_cif.got.tgz:99132.got - 2010.06.28 00:19:55.
