data_PCOD8111178
_publ_section_title
;
Structure prediction by ZEFSAII (Michael W. Deem and Ramdas Pophale) SiO2 
 PCOD8111178
Probable space group: C 2/M
;
_chemical_formula_sum "Si O2"
_cell_formula_units_Z 48
_cell_length_a 20.010467
_cell_length_b 14.908852
_cell_length_c 17.171354
_cell_angle_alpha 90.000000
_cell_angle_beta 154.525163
_cell_angle_gamma 90.000000
_cell_volume 2203.384120
_symmetry_space_group_name_H-M "C 2/M"
_symmetry_group_IT_number 12
_symmetry_cell_setting 'monoclinic'
loop_
_space_group_symop_operation_xyz
x,y,z
-x,y,-z
-x,-y,-z
x,-y,z
1/2+x,1/2+y,z
1/2-x,1/2+y,-z
1/2-x,1/2-y,-z
1/2+x,1/2-y,z
loop_
_atom_site_type_symbol
_atom_site_label
_atom_site_fract_x
_atom_site_fract_y
_atom_site_fract_z
Si Si1 0.682424 0.500000 0.117517
Si Si2 0.168069 0.100635 0.675171
Si Si3 0.169589 0.152248 0.399686
Si Si4 0.854302 0.599943 0.730305
Si Si5 0.174333 0.653701 0.009948
Si Si6 0.195835 0.851194 0.012895
Si Si7 0.817099 0.000000 0.707097
O O1 0.755606 0.500000 0.281749
O O2 0.740451 0.412188 0.132923
O O3 0.498193 0.500000 0.916693
O O4 0.290138 0.145986 0.742807
O O5 0.000000 0.149902 0.500000
O O6 0.142906 0.000000 0.616017
O O7 0.239446 0.094592 0.835562
O O8 0.250000 0.250000 0.500000
O O9 0.211776 0.094903 0.520165
O O10 0.230008 0.092203 0.388756
O O11 0.984672 0.155644 0.200236
O O12 0.920331 0.500000 0.815482
O O13 0.991559 0.659712 0.837984
O O14 0.250845 0.752091 0.093886
O O15 0.205240 0.612367 0.957008
#
# Coordination Sequence:
#
# PCOD8111178 Si02
#       7
#     4   8   8   8   8   8   4
#     4   9  20  40  61  86 115 168 209 255 304 369
#     4  10  22  39  61  90 122 158 197 246 313 378
#     4  11  20  38  61  91 118 163 203 260 316 371
#     4  11  22  37  61  91 123 155 202 253 318 380
#     4  11  22  39  58  90 124 160 202 259 306 371
#     4  10  23  38  61  88 121 162 212 250 310 370
#     4   9  20  38  61  88 125 150 217 261 302 383
#
# _framework density 21.784670999999999
#
# number of rings (size 3 to 8) (size 9 to 14) (size 15 to 20)
#    0.000    1.667    2.500    2.000    2.333    2.667 
#    6.000    0.000    0.000    1.000    0.000    0.000 
#    0.000    0.000    0.000    0.000    0.000    0.000 
#
# Total GULP energy -297371.042822 kJ/mol
# GULP energy per Si atom -12390.460118 kJ/mol
# Density = 2.173509 g / cm^3
# Si number density = 21.784671 Si / 1000 Ang^3
#
#
#
# Elastic Constant Matrix: (Units=GPa)
#
#
# Indices 1 2 3 4 5 6 
#
# 1 193.6075 49.5221 43.5462 -0.0011 -13.3737 -0.0006
# 2 49.5221 88.5220 16.4287 -0.0025 -15.0216 -0.0018
# 3 43.5462 16.4287 63.6662 -0.0008 -7.8732 -0.0006
# 4 -0.0011 -0.0025 -0.0008 18.8778 -0.0034 1.1070
# 5 -13.3737 -15.0216 -7.8732 -0.0034 42.3402 -0.0021
# 6 -0.0006 -0.0018 -0.0006 1.1070 -0.0021 24.9269
#
#
#
# Elastic Compliance Matrix: (Units=1/GPa)
#
#
# Indices 1 2 3 4 5 6 
#
# 1 0.006834 -0.003049 -0.003843 0.000000 0.000362 0.000000
# 2 -0.003049 0.013828 -0.001019 0.000002 0.003754 0.000001
# 3 -0.003843 -0.001019 0.018837 0.000001 0.001927 0.000000
# 4 0.000000 0.000002 0.000001 0.053111 0.000005 -0.002359
# 5 0.000362 0.003754 0.001927 0.000005 0.025423 0.000002
# 6 0.000000 0.000001 0.000000 -0.002359 0.000002 0.040222
#
#
# Mechanical properties :
#
#
# Convention : Reuss Voigt Hill
#
# Bulk Modulus (GPa) = 42.23307 62.75441 52.49374
# Shear Modulus (GPa) = 27.47730 32.98223 30.22976
#
# Velocity S-wave (km/s) = 3.55535 3.89525 3.72918
# Velocity P-wave (km/s) = 6.02351 7.00713 6.53386
#
# Compressibility (1/GPa) = 0.02367813
#
# Stress axis : x y z
#
# Youngs Moduli (GPa) = 146.32113 72.31612 53.08786
#
# Poissons Ratio (x) = 0.22046 0.20402
# Poissons Ratio (y) = 0.44607 0.05409
# Poissons Ratio (z) = 0.56231 0.07369
#
# Static dielectric constant tensor:
#      x y z
#    x 4.227280 0.000000 -0.106920 
#    y 0.000000 3.855520 0.000000 
#    z -0.106920 0.000000 3.738170 
# 
# 
# High freq. dielectric constant tensor:
#      x y z
#    x 1.863260 0.000000 -0.009170 
#    y 0.000000 1.841760 0.000000 
#    z -0.009170 0.000000 1.840940 
# 
# From -- ./inp_files/226962.got.cif
#   From: 2010.06.25/outbox.cif.g09.slc.cpg/sg12_114_cif.got.tgz:226962.got - 2010.06.28 00:19:55.
