data_PCOD8111312
_publ_section_title
;
Structure prediction by ZEFSAII (Michael W. Deem and Ramdas Pophale) SiO2 
 PCOD8111312
Probable space group: C 2/M
;
_chemical_formula_sum "Si O2"
_cell_formula_units_Z 64
_cell_length_a 18.296478
_cell_length_b 23.090345
_cell_length_c 13.988147
_cell_angle_alpha 90.000000
_cell_angle_beta 149.383490
_cell_angle_gamma 90.000000
_cell_volume 3009.696908
_symmetry_space_group_name_H-M "C 2/M"
_symmetry_group_IT_number 12
_symmetry_cell_setting 'monoclinic'
loop_
_space_group_symop_operation_xyz
x,y,z
-x,y,-z
-x,-y,-z
x,-y,z
1/2+x,1/2+y,z
1/2-x,1/2+y,-z
1/2-x,1/2-y,-z
1/2+x,1/2-y,z
loop_
_atom_site_type_symbol
_atom_site_label
_atom_site_fract_x
_atom_site_fract_y
_atom_site_fract_z
Si Si1 0.648424 0.433243 0.717060
Si Si2 0.604927 0.834385 0.706521
Si Si3 0.520691 0.435242 0.131390
Si Si4 0.867165 0.338771 0.910995
Si Si5 0.471754 0.214657 0.736452
Si Si6 0.679732 0.328339 0.378912
Si Si7 0.670894 0.716337 0.175142
Si Si8 0.258146 0.436137 0.968534
O O1 0.500000 0.415632 0.500000
O O2 0.684047 0.500000 0.735201
O O3 0.766564 0.393813 0.801112
O O4 0.651048 0.420318 0.833693
O O5 0.500000 0.847942 0.500000
O O6 0.529450 0.788594 0.692591
O O7 0.759584 0.810492 0.843180
O O8 0.630936 0.891750 0.800195
O O9 0.588990 0.500000 0.207643
O O10 0.619482 0.393611 0.307875
O O11 0.363576 0.436952 0.997834
O O12 0.500000 0.411376 0.000000
O O13 0.791841 0.284453 0.773786
O O14 0.000000 0.361627 0.000000
O O15 0.907280 0.311664 0.059071
O O16 0.443337 0.282848 0.726662
O O17 0.327431 0.178380 0.603903
O O18 0.745185 0.313845 0.348190
O O19 0.500000 0.706005 0.000000
O O20 0.188533 0.500000 0.903391
#
# Coordination Sequence:
#
# PCOD8111312 Si02
#       8
#     8   8   8   8   8   8   8   8
#     4  10  23  45  68  92 127 170 221 281 338 390
#     4  12  24  40  65  99 131 166 223 264 321 412
#     4  10  22  39  65  96 127 174 227 265 318 397
#     4  11  23  42  64  95 127 165 219 267 332 401
#     4  11  24  39  63  99 131 175 214 267 340 394
#     4  11  21  41  63  90 139 175 207 275 334 386
#     4  11  22  40  61  90 128 170 206 264 327 381
#     4  10  22  41  64  91 128 171 215 272 333 391
#
# _framework density 21.264599
#
# number of rings (size 3 to 8) (size 9 to 14) (size 15 to 20)
#    0.000    1.250    5.000    1.875    0.000    3.500 
#    0.000    1.250    0.000    0.000    0.000    0.000 
#    0.000    0.000    0.000    0.000    0.000    0.000 
#
# Total GULP energy -396591.243265 kJ/mol
# GULP energy per Si atom -12393.476352 kJ/mol
# Density = 2.121620 g / cm^3
# Si number density = 21.264599 Si / 1000 Ang^3
#
#
#
# Elastic Constant Matrix: (Units=GPa)
#
#
# Indices 1 2 3 4 5 6 
#
# 1 104.4587 39.1328 29.6421 0.0000 3.4970 0.0000
# 2 39.1328 125.9309 50.8095 0.0000 7.2278 0.0000
# 3 29.6421 50.8095 85.6979 0.0000 -0.5346 0.0000
# 4 0.0000 0.0000 0.0000 32.6467 0.0000 -0.9646
# 5 3.4970 7.2278 -0.5346 0.0000 29.9337 0.0000
# 6 0.0000 0.0000 0.0000 -0.9646 0.0000 29.7793
#
#
#
# Elastic Compliance Matrix: (Units=1/GPa)
#
#
# Indices 1 2 3 4 5 6 
#
# 1 0.011208 -0.002462 -0.002422 0.000000 -0.000758 0.000000
# 2 -0.002462 0.011190 -0.005798 0.000000 -0.002518 0.000000
# 3 -0.002422 -0.005798 0.015957 0.000000 0.001968 0.000000
# 4 0.000000 0.000000 0.000000 0.030660 0.000000 0.000993
# 5 -0.000758 -0.002518 0.001968 0.000000 0.034139 0.000000
# 6 0.000000 0.000000 0.000000 0.000993 0.000000 0.033613
#
#
# Mechanical properties :
#
#
# Convention : Reuss Voigt Hill
#
# Bulk Modulus (GPa) = 58.85825 61.69514 60.27669
# Shear Modulus (GPa) = 30.52599 31.57215 31.04907
#
# Velocity S-wave (km/s) = 3.79295 3.85740 3.82531
# Velocity P-wave (km/s) = 6.84989 6.99396 6.92230
#
# Compressibility (1/GPa) = 0.01698997
#
# Stress axis : x y z
#
# Youngs Moduli (GPa) = 89.22056 89.36490 62.66973
#
# Poissons Ratio (x) = 0.22005 0.15176
# Poissons Ratio (y) = 0.21969 0.36339
# Poissons Ratio (z) = 0.21606 0.51818
#
# Static dielectric constant tensor:
#      x y z
#    x 3.929810 0.000000 -0.241620 
#    y 0.000000 3.963330 0.000000 
#    z -0.241620 0.000000 3.923210 
# 
# 
# High freq. dielectric constant tensor:
#      x y z
#    x 1.839880 0.000000 -0.009880 
#    y 0.000000 1.831030 0.000000 
#    z -0.009880 0.000000 1.822150 
# 
# From -- ./inp_files/228160.got.cif
#   From: 2010.06.25/outbox.cif.g09.slc.cpg/sg12_115_cif.got.tgz:228160.got - 2010.06.28 00:19:55.
