data_PCOD8111117
_publ_section_title
;
Structure prediction by ZEFSAII (Michael W. Deem and Ramdas Pophale) SiO2 
 PCOD8111117
Probable space group: C 2/M
;
_chemical_formula_sum "Si O2"
_cell_formula_units_Z 64
_cell_length_a 14.622277
_cell_length_b 8.826944
_cell_length_c 34.044444
_cell_angle_alpha 90.000000
_cell_angle_beta 130.314370
_cell_angle_gamma 90.000000
_cell_volume 3350.541023
_symmetry_space_group_name_H-M "C 2/M"
_symmetry_group_IT_number 12
_symmetry_cell_setting 'monoclinic'
loop_
_space_group_symop_operation_xyz
x,y,z
-x,y,-z
-x,-y,-z
x,-y,z
1/2+x,1/2+y,z
1/2-x,1/2+y,-z
1/2-x,1/2-y,-z
1/2+x,1/2-y,z
loop_
_atom_site_type_symbol
_atom_site_label
_atom_site_fract_x
_atom_site_fract_y
_atom_site_fract_z
Si Si1 0.783016 0.178666 0.271808
Si Si2 0.484287 0.822738 0.808471
Si Si3 0.601007 0.174706 0.620406
Si Si4 0.951577 0.323806 0.259882
Si Si5 0.834837 0.825830 0.637986
Si Si6 0.369958 0.179395 0.077251
Si Si7 0.856514 0.821883 0.553796
Si Si8 0.096483 0.178893 0.994727
O O1 0.649157 0.246738 0.231635
O O2 0.854759 0.256023 0.326638
O O3 0.849289 0.219603 0.249974
O O4 0.783630 0.000000 0.279299
O O5 0.555181 0.788506 0.788237
O O6 0.557660 0.753259 0.865395
O O7 0.470081 0.000000 0.811496
O O8 0.698545 0.197028 0.613545
O O9 0.482024 0.258620 0.572412
O O10 0.571330 0.000000 0.619568
O O11 0.927825 0.500000 0.262069
O O12 0.082300 0.281055 0.312559
O O13 0.843535 0.774357 0.595526
O O14 0.876480 0.000000 0.654779
O O15 0.231083 0.227626 0.044516
O O16 0.380335 0.000000 0.077215
O O17 0.430364 0.248638 0.055113
O O18 0.750000 0.750000 0.500000
O O19 0.852370 0.000000 0.546923
O O20 0.084374 0.000000 0.987065
O O21 0.000000 0.239301 0.000000
#
# Coordination Sequence:
#
# PCOD8111117 Si02
#       8
#     8   8   8   8   8   8   8   8
#     4  11  21  36  55  80 112 148 187 230 281 334
#     4   9  20  36  54  79 114 151 186 230 282 337
#     4  11  22  38  61  87 112 146 189 231 280 338
#     4  11  21  35  57  84 111 147 191 229 275 338
#     4  10  22  39  60  84 115 149 185 229 282 333
#     4   9  18  35  55  77 110 149 188 231 281 336
#     4  11  24  42  62  86 117 152 187 238 289 336
#     4   9  18  33  55  81 109 145 187 235 288 337
#
# _framework density 19.101391
#
# number of rings (size 3 to 8) (size 9 to 14) (size 15 to 20)
#    0.000    1.875    2.500    1.500    0.000    2.750 
#    0.000    6.250    0.000    0.000    0.000    0.000 
#    0.000    0.000    0.000    0.000    0.000    0.000 
#
# Total GULP energy -396883.961019 kJ/mol
# GULP energy per Si atom -12402.623782 kJ/mol
# Density = 1.905792 g / cm^3
# Si number density = 19.101391 Si / 1000 Ang^3
#
#
#
# Elastic Constant Matrix: (Units=GPa)
#
#
# Indices 1 2 3 4 5 6 
#
# 1 92.7486 16.5565 14.0897 0.0000 -0.9510 0.0000
# 2 16.5565 48.2528 22.6527 0.0000 -2.0563 0.0000
# 3 14.0897 22.6527 88.0804 0.0000 0.9889 0.0000
# 4 0.0000 0.0000 0.0000 26.0389 0.0000 -2.6028
# 5 -0.9510 -2.0563 0.9889 0.0000 26.9122 0.0000
# 6 0.0000 0.0000 0.0000 -2.6028 0.0000 28.5348
#
#
#
# Elastic Compliance Matrix: (Units=1/GPa)
#
#
# Indices 1 2 3 4 5 6 
#
# 1 0.011554 -0.003513 -0.000947 0.000000 0.000175 0.000000
# 2 -0.003513 0.024749 -0.005825 0.000000 0.001981 0.000000
# 3 -0.000947 -0.005825 0.013014 0.000000 -0.000957 0.000000
# 4 0.000000 0.000000 0.000000 0.038757 0.000000 0.003535
# 5 0.000175 0.001981 -0.000957 0.000000 0.037351 0.000000
# 6 0.000000 0.000000 0.000000 0.003535 0.000000 0.035367
#
#
# Mechanical properties :
#
#
# Convention : Reuss Voigt Hill
#
# Bulk Modulus (GPa) = 34.78598 37.29773 36.04185
# Shear Modulus (GPa) = 26.18570 28.01604 27.10087
#
# Velocity S-wave (km/s) = 3.70656 3.83391 3.77077
# Velocity P-wave (km/s) = 6.04722 6.25836 6.15369
#
# Compressibility (1/GPa) = 0.02874722
#
# Stress axis : x y z
#
# Youngs Moduli (GPa) = 86.54638 40.40643 76.84253
#
# Poissons Ratio (x) = 0.14193 0.07276
# Poissons Ratio (y) = 0.30400 0.44763
# Poissons Ratio (z) = 0.08195 0.23538
#
# Static dielectric constant tensor:
#      x y z
#    x 4.543020 0.000000 -0.202880 
#    y 0.000000 3.402680 0.000000 
#    z -0.202880 0.000000 3.653260 
# 
# 
# High freq. dielectric constant tensor:
#      x y z
#    x 1.755080 0.000000 -0.000480 
#    y 0.000000 1.733280 0.000000 
#    z -0.000480 0.000000 1.739730 
# 
# From -- ./inp_files/375629.got.cif
#   From: 2010.06.25/outbox.cif.g09.slc.cpg/sg12_188_cif.got.tgz:375629.got - 2010.06.28 00:19:55.
