data_PCOD8111277
_publ_section_title
;
Structure prediction by ZEFSAII (Michael W. Deem and Ramdas Pophale) SiO2 
 PCOD8111277
Probable space group: C 2/M
;
_chemical_formula_sum "Si O2"
_cell_formula_units_Z 36
_cell_length_a 19.128219
_cell_length_b 20.641074
_cell_length_c 8.349654
_cell_angle_alpha 90.000000
_cell_angle_beta 144.626589
_cell_angle_gamma 90.000000
_cell_volume 1908.450867
_symmetry_space_group_name_H-M "C 2/M"
_symmetry_group_IT_number 12
_symmetry_cell_setting 'monoclinic'
loop_
_space_group_symop_operation_xyz
x,y,z
-x,y,-z
-x,-y,-z
x,-y,z
1/2+x,1/2+y,z
1/2-x,1/2+y,-z
1/2-x,1/2-y,-z
1/2+x,1/2-y,z
loop_
_atom_site_type_symbol
_atom_site_label
_atom_site_fract_x
_atom_site_fract_y
_atom_site_fract_z
Si Si1 0.500000 0.782200 0.000000
Si Si2 0.687762 0.000000 0.558505
Si Si3 0.306646 0.500000 0.095953
Si Si4 0.811651 0.391305 0.698356
Si Si5 0.949157 0.841779 0.737678
Si Si6 0.500000 0.396651 0.500000
Si Si7 0.083877 0.500000 0.890339
O O1 0.382997 0.825216 0.807911
O O2 0.464147 0.736119 0.782317
O O3 0.703918 0.933748 0.490377
O O4 0.798830 0.000000 0.889607
O O5 0.558722 0.000000 0.409600
O O6 0.378774 0.438291 0.295713
O O7 0.167586 0.500000 0.891223
O O8 0.685283 0.368568 0.534167
O O9 0.887087 0.435020 0.959798
O O10 0.017712 0.857092 0.698803
O O11 0.000000 0.873718 0.000000
#
# Coordination Sequence:
#
# PCOD8111277 Si02
#       7
#     4   4   4   8   8   4   4
#     4  10  22  39  64  87 122 170 200 252 298 364
#     4  11  22  35  67  90 119 158 209 253 315 362
#     4  11  23  37  62  87 131 159 191 272 307 354
#     4  11  19  41  61  91 120 158 209 253 305 361
#     4  10  23  38  65  87 123 166 206 243 304 365
#     4  11  22  44  58  94 130 153 212 252 306 363
#     4  11  20  38  63  90 121 159 196 264 311 356
#
# _framework density 18.863467
#
# number of rings (size 3 to 8) (size 9 to 14) (size 15 to 20)
#    0.667    0.667    4.444    3.000    0.000    0.000 
#    0.000    6.667    0.000    0.000    0.000    0.000 
#    0.000    0.000    0.000    0.000    0.000    0.000 
#
# Total GULP energy -223003.356327 kJ/mol
# GULP energy per Si atom -12389.075352 kJ/mol
# Density = 1.882053 g / cm^3
# Si number density = 18.863467 Si / 1000 Ang^3
#
#
#
# Elastic Constant Matrix: (Units=GPa)
#
#
# Indices 1 2 3 4 5 6 
#
# 1 101.2297 41.8188 19.8786 0.0000 -12.6412 0.0000
# 2 41.8188 123.3296 29.6430 0.0000 -8.0583 0.0000
# 3 19.8786 29.6430 64.2478 0.0000 -18.9150 0.0000
# 4 0.0000 0.0000 0.0000 -39.9380 0.0000 3.8055
# 5 -12.6412 -8.0583 -18.9150 0.0000 32.8711 0.0000
# 6 0.0000 0.0000 0.0000 3.8055 0.0000 12.4486
#
#
#
# Elastic Compliance Matrix: (Units=1/GPa)
#
#
# Indices 1 2 3 4 5 6 
#
# 1 0.011966 -0.003581 -0.001148 0.000000 0.003063 0.000000
# 2 -0.003581 0.010193 -0.003930 0.000000 -0.001140 0.000000
# 3 -0.001148 -0.003930 0.020852 0.000000 0.010594 0.000000
# 4 0.000000 0.000000 0.000000 -0.024330 0.000000 0.007438
# 5 0.003063 -0.001140 0.010594 0.000000 0.037416 0.000000
# 6 0.000000 0.000000 0.000000 0.007438 0.000000 0.078057
#
#
# Mechanical properties :
#
#
# Convention : Reuss Voigt Hill
#
# Bulk Modulus (GPa) = 38.92359 52.38756 45.65558
# Shear Modulus (GPa) = 31.24258 14.24079 22.74168
#
# Velocity S-wave (km/s) = 4.07412 2.75060 3.47593
# Velocity P-wave (km/s) = 6.54297 6.15792 6.35336
#
# Compressibility (1/GPa) = 0.02569136
#
# Stress axis : x y z
#
# Youngs Moduli (GPa) = 83.57031 98.10723 47.95609
#
# Poissons Ratio (x) = 0.35135 0.05506
# Poissons Ratio (y) = 0.29929 0.18849
# Poissons Ratio (z) = 0.09595 0.38561
#
# Static dielectric constant tensor:
#      x y z
#    x 3.399340 0.000000 0.024630 
#    y 0.000000 3.112160 0.000000 
#    z 0.024630 0.000000 3.361510 
# 
# 
# High freq. dielectric constant tensor:
#      x y z
#    x 1.730400 0.000000 0.007470 
#    y 0.000000 1.727460 0.000000 
#    z 0.007470 0.000000 1.736460 
# 
# From -- ./inp_files/47953.got.cif
#   From: 2010.06.25/outbox.cif.g09.slc.cpg/sg12_24_cif.got.tgz:47953.got - 2010.06.28 00:19:55.
