data_PCOD8111941
_publ_section_title
;
Structure prediction by ZEFSAII (Michael W. Deem and Ramdas Pophale) SiO2 
 PCOD8111941
Probable space group: C 2/M
;
_chemical_formula_sum "Si O2"
_cell_formula_units_Z 32
_cell_length_a 13.080658
_cell_length_b 24.698579
_cell_length_c 8.958903
_cell_angle_alpha 90.000000
_cell_angle_beta 32.303795
_cell_angle_gamma 90.000000
_cell_volume 1546.783802
_symmetry_space_group_name_H-M "C 2/M"
_symmetry_group_IT_number 12
_symmetry_cell_setting 'monoclinic'
loop_
_space_group_symop_operation_xyz
x,y,z
-x,y,-z
-x,-y,-z
x,-y,z
1/2+x,1/2+y,z
1/2-x,1/2+y,-z
1/2-x,1/2-y,-z
1/2+x,1/2-y,z
loop_
_atom_site_type_symbol
_atom_site_label
_atom_site_fract_x
_atom_site_fract_y
_atom_site_fract_z
Si Si1 0.495511 0.500000 0.263815
Si Si2 0.000000 0.404406 0.500000
Si Si3 0.500000 0.588703 0.500000
Si Si4 0.255057 0.834964 0.019195
Si Si5 0.524989 0.743063 0.799206
Si Si6 0.286101 0.000000 0.659202
O O1 0.453292 0.552806 0.413401
O O2 0.362545 0.500000 0.286771
O O3 0.705517 0.500000 0.930330
O O4 0.842453 0.366538 0.771020
O O5 0.905686 0.444459 0.493518
O O6 0.314904 0.624844 0.764786
O O7 0.417790 0.798800 0.894332
O O8 0.068079 0.802194 0.193200
O O9 0.750000 0.750000 0.500000
O O10 0.500000 0.725262 0.000000
#
# Coordination Sequence:
#
# PCOD8111941 Si02
#       6
#     4   4   4   8   8   4
#     4  10  22  41  64  93 128 163 215 261 316 377
#     4  11  22  41  64  92 128 171 210 259 318 378
#     4  11  22  41  66  94 130 165 204 271 316 366
#     4  11  24  41  65  95 129 167 213 261 318 377
#     4  11  24  43  64  93 130 167 212 263 314 378
#     4  10  22  41  64  93 126 167 212 262 311 385
#
# _framework density 20.688089000000002
#
# number of rings (size 3 to 8) (size 9 to 14) (size 15 to 20)
#    0.000    1.250    2.500    3.000    0.000   10.000 
#    0.000    1.250    0.000    0.000    0.000    0.000 
#    0.000    0.000    0.000    0.000    0.000    0.000 
#
# Total GULP energy -198378.728530 kJ/mol
# GULP energy per Si atom -12398.670533 kJ/mol
# Density = 2.064100 g / cm^3
# Si number density = 20.688089 Si / 1000 Ang^3
#
#
#
# Elastic Constant Matrix: (Units=GPa)
#
#
# Indices 1 2 3 4 5 6 
#
# 1 106.0013 41.3632 49.2563 0.0000 -7.7006 0.0000
# 2 41.3632 127.4851 55.8237 0.0000 -8.1339 0.0000
# 3 49.2563 55.8237 140.7407 0.0000 -10.7172 0.0000
# 4 0.0000 0.0000 0.0000 40.2159 0.0000 -1.8285
# 5 -7.7006 -8.1339 -10.7172 0.0000 39.5625 0.0000
# 6 0.0000 0.0000 0.0000 -1.8285 0.0000 6.5640
#
#
#
# Elastic Compliance Matrix: (Units=1/GPa)
#
#
# Indices 1 2 3 4 5 6 
#
# 1 0.011907 -0.002431 -0.003129 0.000000 0.000970 0.000000
# 2 -0.002431 0.010024 -0.003068 0.000000 0.000757 0.000000
# 3 -0.003129 -0.003068 0.009519 0.000000 0.001339 0.000000
# 4 0.000000 0.000000 0.000000 0.025185 0.000000 0.007016
# 5 0.000970 0.000757 0.001339 0.000000 0.025984 0.000000
# 6 0.000000 0.000000 0.000000 0.007016 0.000000 0.154301
#
#
# Mechanical properties :
#
#
# Convention : Reuss Voigt Hill
#
# Bulk Modulus (GPa) = 70.44839 74.12371 72.28605
# Shear Modulus (GPa) = 19.31196 32.45408 25.88302
#
# Velocity S-wave (km/s) = 3.05861 3.96502 3.54094
# Velocity P-wave (km/s) = 6.82642 7.54114 7.19266
#
# Compressibility (1/GPa) = 0.01419479
#
# Stress axis : x y z
#
# Youngs Moduli (GPa) = 83.98419 99.75637 105.05269
#
# Poissons Ratio (x) = 0.24253 0.32871
# Poissons Ratio (y) = 0.20419 0.32226
# Poissons Ratio (z) = 0.26279 0.30601
#
# Static dielectric constant tensor:
#      x y z
#    x 3.567900 0.000000 -0.022330 
#    y 0.000000 3.970870 0.000000 
#    z -0.022330 0.000000 3.945240 
# 
# 
# High freq. dielectric constant tensor:
#      x y z
#    x 1.800950 0.000000 -0.002250 
#    y 0.000000 1.825630 0.000000 
#    z -0.002250 0.000000 1.822260 
# 
# From -- ./inp_files/38771.got.cif
#   From: 2010.06.25/outbox.cif.g09.slc.cpg/sg12_20_cif.got.tgz:38771.got - 2010.06.28 00:19:55.
