data_PCOD8111506
_publ_section_title
;
Structure prediction by ZEFSAII (Michael W. Deem and Ramdas Pophale) SiO2 
 PCOD8111506
Probable space group: C 2/M
;
_chemical_formula_sum "Si O2"
_cell_formula_units_Z 40
_cell_length_a 10.334306
_cell_length_b 18.232711
_cell_length_c 10.565213
_cell_angle_alpha 90.000000
_cell_angle_beta 101.749064
_cell_angle_gamma 90.000000
_cell_volume 1949.014909
_symmetry_space_group_name_H-M "C 2/M"
_symmetry_group_IT_number 12
_symmetry_cell_setting 'monoclinic'
loop_
_space_group_symop_operation_xyz
x,y,z
-x,y,-z
-x,-y,-z
x,-y,z
1/2+x,1/2+y,z
1/2-x,1/2+y,-z
1/2-x,1/2-y,-z
1/2+x,1/2-y,z
loop_
_atom_site_type_symbol
_atom_site_label
_atom_site_fract_x
_atom_site_fract_y
_atom_site_fract_z
Si Si1 0.124493 0.418196 0.934902
Si Si2 0.907755 0.727608 0.213862
Si Si3 0.684076 0.274155 0.360227
Si Si4 0.551482 0.582594 0.369344
Si Si5 0.597265 0.374796 0.906624
O O1 0.130843 0.500000 0.875728
O O2 0.107336 0.356971 0.825145
O O3 0.256892 0.403718 0.039764
O O4 0.000000 0.411628 0.000000
O O5 0.778447 0.750603 0.266206
O O6 0.909380 0.785538 0.097887
O O7 0.041441 0.735743 0.321147
O O8 0.750000 0.250000 0.500000
O O9 0.670089 0.362511 0.358317
O O10 0.500000 0.602067 0.500000
O O11 0.606388 0.500000 0.377676
O O12 0.440460 0.592597 0.238519
O O13 0.500000 0.401626 0.000000
#
# Coordination Sequence:
#
# PCOD8111506 Si02
#       5
#     8   8   8   8   8
#     4  11  23  37  55  85 124 156 186 236 303 361
#     4  11  22  38  61  86 118 155 198 245 294 353
#     4  11  22  39  62  87 117 155 200 246 294 352
#     4  10  22  40  62  88 118 155 202 251 296 347
#     4  11  22  39  64  89 116 155 205 251 290 345
#
# _framework density 20.523187
#
# number of rings (size 3 to 8) (size 9 to 14) (size 15 to 20)
#    0.000    1.200    0.000    8.400    0.000    4.000 
#    0.000    3.000    0.000    2.400    0.000    0.000 
#    0.000    0.000    0.000    0.000    0.000    0.000 
#
# Total GULP energy -247960.917708 kJ/mol
# GULP energy per Si atom -12398.045885 kJ/mol
# Density = 2.047648 g / cm^3
# Si number density = 20.523187 Si / 1000 Ang^3
#
#
#
# Elastic Constant Matrix: (Units=GPa)
#
#
# Indices 1 2 3 4 5 6 
#
# 1 140.3878 35.4691 48.4899 0.0000 12.1014 0.0000
# 2 35.4691 122.4017 46.3232 0.0000 12.8947 0.0000
# 3 48.4899 46.3232 103.0136 0.0000 0.8548 0.0000
# 4 0.0000 0.0000 0.0000 20.6433 0.0000 -23.6485
# 5 12.1014 12.8947 0.8548 0.0000 30.8148 0.0000
# 6 0.0000 0.0000 0.0000 -23.6485 0.0000 -46.9528
#
#
#
# Elastic Compliance Matrix: (Units=1/GPa)
#
#
# Indices 1 2 3 4 5 6 
#
# 1 0.008905 -0.000823 -0.003796 0.000000 -0.003048 0.000000
# 2 -0.000823 0.010440 -0.004275 0.000000 -0.003927 0.000000
# 3 -0.003796 -0.004275 0.013393 0.000000 0.002908 0.000000
# 4 0.000000 0.000000 0.000000 0.030718 0.000000 -0.015472
# 5 -0.003048 -0.003927 0.002908 0.000000 0.035211 0.000000
# 6 0.000000 0.000000 0.000000 -0.015472 0.000000 -0.013505
#
#
# Mechanical properties :
#
#
# Convention : Reuss Voigt Hill
#
# Bulk Modulus (GPa) = 66.89122 69.59639 68.24380
# Shear Modulus (GPa) = 46.32548 16.60245 31.46396
#
# Velocity S-wave (km/s) = 4.75618 2.84731 3.91972
# Velocity P-wave (km/s) = 7.92625 6.69285 7.33552
#
# Compressibility (1/GPa) = 0.01494964
#
# Stress axis : x y z
#
# Youngs Moduli (GPa) = 112.29690 95.78859 74.66786
#
# Poissons Ratio (x) = 0.07880 0.28348
# Poissons Ratio (y) = 0.09238 0.31918
# Poissons Ratio (z) = 0.42634 0.40947
#
# Static dielectric constant tensor:
#      x y z
#    x 3.804380 0.000000 -0.031640 
#    y 0.000000 4.095590 0.000000 
#    z -0.031640 0.000000 3.786810 
# 
# 
# High freq. dielectric constant tensor:
#      x y z
#    x 1.807050 0.000000 0.001050 
#    y 0.000000 1.814490 0.000000 
#    z 0.001050 0.000000 1.799330 
# 
# From -- ./inp_files/119155.got.cif
#   From: 2010.06.25/outbox.cif.g09.slc.cpg/sg12_60_cif.got.tgz:119155.got - 2010.06.28 00:19:55.
