data_PCOD8111625
_publ_section_title
;
Structure prediction by ZEFSAII (Michael W. Deem and Ramdas Pophale) SiO2 
 PCOD8111625
Probable space group: C 2/M
;
_chemical_formula_sum "Si O2"
_cell_formula_units_Z 48
_cell_length_a 14.756591
_cell_length_b 8.517935
_cell_length_c 18.617688
_cell_angle_alpha 90.000000
_cell_angle_beta 89.336614
_cell_angle_gamma 90.000000
_cell_volume 2340.006153
_symmetry_space_group_name_H-M "C 2/M"
_symmetry_group_IT_number 12
_symmetry_cell_setting 'monoclinic'
loop_
_space_group_symop_operation_xyz
x,y,z
-x,y,-z
-x,-y,-z
x,-y,z
1/2+x,1/2+y,z
1/2-x,1/2+y,-z
1/2-x,1/2-y,-z
1/2+x,1/2-y,z
loop_
_atom_site_type_symbol
_atom_site_label
_atom_site_fract_x
_atom_site_fract_y
_atom_site_fract_z
Si Si1 0.626651 0.818835 0.807259
Si Si2 0.310461 0.680964 0.339546
Si Si3 0.969232 0.682599 0.422091
Si Si4 0.725562 0.315110 0.077242
Si Si5 0.080446 0.318624 0.175251
Si Si6 0.378743 0.319444 0.675528
O O1 0.642650 0.714921 0.737006
O O2 0.694441 0.766737 0.869175
O O3 0.525542 0.787786 0.836573
O O4 0.641290 0.000000 0.785397
O O5 0.282903 0.500000 0.343747
O O6 0.380117 0.720410 0.402379
O O7 0.221154 0.784135 0.353047
O O8 0.944332 0.500000 0.422177
O O9 0.048668 0.710491 0.364353
O O10 0.000000 0.740914 0.500000
O O11 0.712061 0.500000 0.073702
O O12 0.632146 0.234610 0.103029
O O13 0.750000 0.250000 0.000000
O O14 0.100048 0.500000 0.192055
O O15 0.119730 0.215529 0.239881
O O16 0.403154 0.500000 0.660999
#
# Coordination Sequence:
#
# PCOD8111625 Si02
#       6
#     8   8   8   8   8   8
#     4  10  22  40  64  91 127 167 210 260 317 379
#     4  12  24  39  66  97 128 168 215 263 316 379
#     4  11  25  45  67  94 131 170 211 265 325 380
#     4  11  24  42  63  91 129 170 211 265 324 378
#     4  11  22  39  65  94 125 164 212 263 316 380
#     4  12  24  40  65  96 130 168 214 264 316 380
#
# _framework density 20.512767
#
# number of rings (size 3 to 8) (size 9 to 14) (size 15 to 20)
#    0.000    0.833    3.333    4.500    0.000    4.000 
#    0.000    3.333    0.000    0.000    0.000    0.000 
#    0.000    0.000    0.000    0.000    0.000    0.000 
#
# Total GULP energy -297814.799859 kJ/mol
# GULP energy per Si atom -12408.949994 kJ/mol
# Density = 2.046608 g / cm^3
# Si number density = 20.512767 Si / 1000 Ang^3
#
#
#
# Elastic Constant Matrix: (Units=GPa)
#
#
# Indices 1 2 3 4 5 6 
#
# 1 87.4301 15.9416 -3.2280 0.0000 6.0805 0.0000
# 2 15.9416 82.1767 15.0953 0.0000 8.5413 0.0000
# 3 -3.2280 15.0953 60.9640 0.0000 10.1334 0.0000
# 4 0.0000 0.0000 0.0000 31.7748 0.0000 0.1061
# 5 6.0805 8.5413 10.1334 0.0000 32.1230 0.0000
# 6 0.0000 0.0000 0.0000 0.1061 0.0000 32.5928
#
#
#
# Elastic Compliance Matrix: (Units=1/GPa)
#
#
# Indices 1 2 3 4 5 6 
#
# 1 0.012086 -0.002414 0.001595 0.000000 -0.002149 0.000000
# 2 -0.002414 0.013428 -0.003098 0.000000 -0.002136 0.000000
# 3 0.001595 -0.003098 0.018118 0.000000 -0.005194 0.000000
# 4 0.000000 0.000000 0.000000 0.031472 0.000000 -0.000102
# 5 -0.002149 -0.002136 -0.005194 0.000000 0.033744 0.000000
# 6 0.000000 0.000000 0.000000 -0.000102 0.000000 0.030682
#
#
# Mechanical properties :
#
#
# Convention : Reuss Voigt Hill
#
# Bulk Modulus (GPa) = 27.93418 31.79873 29.86646
# Shear Modulus (GPa) = 31.38800 32.81559 32.10180
#
# Velocity S-wave (km/s) = 3.91598 4.00404 3.96026
# Velocity P-wave (km/s) = 5.83901 6.07553 5.95844
#
# Compressibility (1/GPa) = 0.03579843
#
# Stress axis : x y z
#
# Youngs Moduli (GPa) = 82.73864 74.46957 55.19410
#
# Poissons Ratio (x) = 0.17979 -0.08803
# Poissons Ratio (y) = 0.19975 0.17098
# Poissons Ratio (z) = -0.13196 0.23068
#
# Static dielectric constant tensor:
#      x y z
#    x 3.877170 0.000000 0.083770 
#    y 0.000000 3.712560 0.000000 
#    z 0.083770 0.000000 3.638710 
# 
# 
# High freq. dielectric constant tensor:
#      x y z
#    x 1.818130 0.000000 0.000820 
#    y 0.000000 1.808940 0.000000 
#    z 0.000820 0.000000 1.793530 
# 
# From -- ./inp_files/267605.got.cif
#   From: 2010.06.25/outbox.cif.g09.slc.cpg/sg12_134_cif.got.tgz:267605.got - 2010.06.28 00:19:55.
