data_PCOD8111541
_publ_section_title
;
Structure prediction by ZEFSAII (Michael W. Deem and Ramdas Pophale) SiO2 
 PCOD8111541
Probable space group: C 2/M
;
_chemical_formula_sum "Si O2"
_cell_formula_units_Z 56
_cell_length_a 9.768992
_cell_length_b 22.269000
_cell_length_c 14.243412
_cell_angle_alpha 90.000000
_cell_angle_beta 112.816312
_cell_angle_gamma 90.000000
_cell_volume 2856.136547
_symmetry_space_group_name_H-M "C 2/M"
_symmetry_group_IT_number 12
_symmetry_cell_setting 'monoclinic'
loop_
_space_group_symop_operation_xyz
x,y,z
-x,y,-z
-x,-y,-z
x,-y,z
1/2+x,1/2+y,z
1/2-x,1/2+y,-z
1/2-x,1/2-y,-z
1/2+x,1/2-y,z
loop_
_atom_site_type_symbol
_atom_site_label
_atom_site_fract_x
_atom_site_fract_y
_atom_site_fract_z
Si Si1 0.418260 0.240186 0.072879
Si Si2 0.282606 0.803166 0.380343
Si Si3 0.027517 0.623290 0.198019
Si Si4 0.735626 0.567644 0.087072
Si Si5 0.603031 0.189739 0.390651
Si Si6 0.941161 0.139775 0.812293
Si Si7 0.221180 0.070447 0.865343
O O1 0.439463 0.184118 0.147714
O O2 0.482963 0.297662 0.142716
O O3 0.500000 0.224347 0.000000
O O4 0.250000 0.250000 0.000000
O O5 0.310492 0.829772 0.491920
O O6 0.437442 0.787715 0.371019
O O7 0.188951 0.742440 0.360232
O O8 0.193363 0.852319 0.296638
O O9 0.100096 0.632723 0.320014
O O10 0.152813 0.605353 0.157632
O O11 0.902392 0.572007 0.172372
O O12 0.677547 0.500000 0.084548
O O13 0.619270 0.610453 0.108021
O O14 0.744513 0.585949 0.980629
O O15 0.059926 0.095866 0.793803
O O16 0.231350 0.000000 0.846096
#
# Coordination Sequence:
#
# PCOD8111541 Si02
#       7
#     8   8   8   8   8   8   8
#     4  12  24  34  53  88 127 155 187 237 309 366
#     4  10  22  40  62  93 123 159 202 246 305 379
#     4  12  22  39  62  88 124 161 199 255 309 361
#     4  11  23  41  62  84 118 168 215 249 290 357
#     4  10  22  40  63  91 125 158 201 247 307 377
#     4  12  22  39  63  88 126 160 201 254 308 363
#     4  11  25  41  60  88 121 167 217 252 292 359
#
# _framework density 19.606905000000001
#
# number of rings (size 3 to 8) (size 9 to 14) (size 15 to 20)
#    0.000    0.857    2.857    6.000    2.000    2.286 
#    0.000    0.000    0.000    5.143    0.000    0.000 
#    0.000    0.000    0.000    0.000    0.000    0.000 
#
# Total GULP energy -347320.211256 kJ/mol
# GULP energy per Si atom -12404.293259 kJ/mol
# Density = 1.956228 g / cm^3
# Si number density = 19.606905 Si / 1000 Ang^3
#
#
#
# Elastic Constant Matrix: (Units=GPa)
#
#
# Indices 1 2 3 4 5 6 
#
# 1 116.1859 36.6677 24.7225 0.0000 7.1129 0.0000
# 2 36.6677 78.1067 41.9576 0.0000 -1.4841 0.0000
# 3 24.7225 41.9576 94.5953 0.0000 10.4955 0.0000
# 4 0.0000 0.0000 0.0000 18.7260 0.0000 -3.3849
# 5 7.1129 -1.4841 10.4955 0.0000 29.8143 0.0000
# 6 0.0000 0.0000 0.0000 -3.3849 0.0000 22.3054
#
#
#
# Elastic Compliance Matrix: (Units=1/GPa)
#
#
# Indices 1 2 3 4 5 6 
#
# 1 0.010324 -0.004727 -0.000314 0.000000 -0.002588 0.000000
# 2 -0.004727 0.019352 -0.007888 0.000000 0.004868 0.000000
# 3 -0.000314 -0.007888 0.014764 0.000000 -0.005515 0.000000
# 4 0.000000 0.000000 0.000000 0.054908 0.000000 0.008333
# 5 -0.002588 0.004868 -0.005515 0.000000 0.036342 0.000000
# 6 0.000000 0.000000 0.000000 0.008333 0.000000 0.046097
#
#
# Mechanical properties :
#
#
# Convention : Reuss Voigt Hill
#
# Bulk Modulus (GPa) = 53.81847 55.06485 54.44166
# Shear Modulus (GPa) = 23.38198 26.53848 24.96023
#
# Velocity S-wave (km/s) = 3.45706 3.68302 3.57183
# Velocity P-wave (km/s) = 6.59116 6.79938 6.69608
#
# Compressibility (1/GPa) = 0.01858098
#
# Stress axis : x y z
#
# Youngs Moduli (GPa) = 96.86148 51.67416 67.73103
#
# Poissons Ratio (x) = 0.24426 0.02130
# Poissons Ratio (y) = 0.45786 0.53428
# Poissons Ratio (z) = 0.03046 0.40762
#
# Static dielectric constant tensor:
#      x y z
#    x 3.733780 0.000000 0.098330 
#    y 0.000000 3.473570 0.000000 
#    z 0.098330 0.000000 3.728260 
# 
# 
# High freq. dielectric constant tensor:
#      x y z
#    x 1.786250 0.000000 0.004600 
#    y 0.000000 1.747900 0.000000 
#    z 0.004600 0.000000 1.759480 
# 
# From -- ./inp_files/198525.got.cif
#   From: 2010.06.25/outbox.cif.g09.slc.cpg/sg12_100_cif.got.tgz:198525.got - 2010.06.28 00:19:55.
