data_PCOD8111639
_publ_section_title
;
Structure prediction by ZEFSAII (Michael W. Deem and Ramdas Pophale) SiO2 
 PCOD8111639
Probable space group: C 2/M
;
_chemical_formula_sum "Si O2"
_cell_formula_units_Z 40
_cell_length_a 18.144393
_cell_length_b 18.234844
_cell_length_c 5.752399
_cell_angle_alpha 90.000000
_cell_angle_beta 111.819133
_cell_angle_gamma 90.000000
_cell_volume 1766.895004
_symmetry_space_group_name_H-M "C 2/M"
_symmetry_group_IT_number 12
_symmetry_cell_setting 'monoclinic'
loop_
_space_group_symop_operation_xyz
x,y,z
-x,y,-z
-x,-y,-z
x,-y,z
1/2+x,1/2+y,z
1/2-x,1/2+y,-z
1/2-x,1/2-y,-z
1/2+x,1/2-y,z
loop_
_atom_site_type_symbol
_atom_site_label
_atom_site_fract_x
_atom_site_fract_y
_atom_site_fract_z
Si Si1 0.711378 0.320735 0.844745
Si Si2 0.302272 0.082290 0.633530
Si Si3 0.963118 0.649380 0.710843
Si Si4 0.562489 0.687050 0.385606
Si Si5 0.357475 0.582968 0.847958
O O1 0.784248 0.370176 0.841430
O O2 0.651382 0.293653 0.576586
O O3 0.750000 0.250000 0.000000
O O4 0.654865 0.369611 0.938086
O O5 0.374254 0.119335 0.581116
O O6 0.224916 0.082255 0.384758
O O7 0.324730 0.000000 0.736513
O O8 0.969758 0.736690 0.753883
O O9 0.000000 0.626883 0.500000
O O10 0.000000 0.616763 0.000000
O O11 0.500000 0.656592 0.500000
O O12 0.571011 0.622499 0.206403
O O13 0.383603 0.500000 0.939344
#
# Coordination Sequence:
#
# PCOD8111639 Si02
#       5
#     8   8   8   8   8
#     4  11  22  38  68  95 124 171 226 270 330 394
#     4  10  23  42  63  94 133 170 218 276 333 399
#     4  11  26  43  68  99 134 176 225 273 336 397
#     4  10  24  40  62  93 131 169 216 281 330 391
#     4  10  22  40  64  93 127 171 221 273 338 400
#
# _framework density 22.638584000000002
#
# number of rings (size 3 to 8) (size 9 to 14) (size 15 to 20)
#    0.000    1.600    0.000    3.000   14.000    5.200 
#    0.000    1.000    0.000    0.000    0.000    0.000 
#    0.000    0.000    0.000    0.000    0.000    0.000 
#
# Total GULP energy -247902.411243 kJ/mol
# GULP energy per Si atom -12395.120562 kJ/mol
# Density = 2.258706 g / cm^3
# Si number density = 22.638584 Si / 1000 Ang^3
#
#
#
# Elastic Constant Matrix: (Units=GPa)
#
#
# Indices 1 2 3 4 5 6 
#
# 1 128.5920 32.5836 20.3087 0.0000 -40.1419 0.0000
# 2 32.5836 85.6241 13.4426 0.0000 -20.3914 0.0000
# 3 20.3087 13.4426 80.8749 0.0000 -23.3107 0.0000
# 4 0.0000 0.0000 0.0000 19.5887 0.0000 5.0375
# 5 -40.1419 -20.3914 -23.3107 0.0000 32.2982 0.0000
# 6 0.0000 0.0000 0.0000 5.0375 0.0000 22.5199
#
#
#
# Elastic Compliance Matrix: (Units=1/GPa)
#
#
# Indices 1 2 3 4 5 6 
#
# 1 0.013014 -0.001265 0.001735 0.000000 0.016628 0.000000
# 2 -0.001265 0.013873 0.000105 0.000000 0.007263 0.000000
# 3 0.001735 0.000105 0.015849 0.000000 0.013662 0.000000
# 4 0.000000 0.000000 0.000000 0.054166 0.000000 -0.012116
# 5 0.016628 0.007263 0.013662 0.000000 0.066073 0.000000
# 6 0.000000 0.000000 0.000000 -0.012116 0.000000 0.047115
#
#
# Mechanical properties :
#
#
# Convention : Reuss Voigt Hill
#
# Bulk Modulus (GPa) = 22.78585 47.52897 35.15741
# Shear Modulus (GPa) = 22.36449 30.13176 26.24813
#
# Velocity S-wave (km/s) = 3.14649 3.65223 3.40875
# Velocity P-wave (km/s) = 4.82570 6.23100 5.57282
#
# Compressibility (1/GPa) = 0.04388688
#
# Stress axis : x y z
#
# Youngs Moduli (GPa) = 76.84295 72.08030 63.09406
#
# Poissons Ratio (x) = 0.09116 -0.10946
# Poissons Ratio (y) = 0.09718 -0.00663
# Poissons Ratio (z) = -0.13332 -0.00757
#
# Static dielectric constant tensor:
#      x y z
#    x 4.124300 0.000000 -0.139690 
#    y 0.000000 4.147830 0.000000 
#    z -0.139690 0.000000 4.088610 
# 
# 
# High freq. dielectric constant tensor:
#      x y z
#    x 1.904190 0.000000 -0.004510 
#    y 0.000000 1.891120 0.000000 
#    z -0.004510 0.000000 1.887030 
# 
# From -- ./inp_files/15109.got.cif
#   From: 2010.06.25/outbox.cif.g09.slc.cpg/sg12_8_cif.got.tgz:15109.got - 2010.06.28 00:19:55.
