data_PCOD8111133
_publ_section_title
;
Structure prediction by ZEFSAII (Michael W. Deem and Ramdas Pophale) SiO2 
 PCOD8111133
Probable space group: C 2/M
;
_chemical_formula_sum "Si O2"
_cell_formula_units_Z 48
_cell_length_a 9.884669
_cell_length_b 13.870414
_cell_length_c 18.778084
_cell_angle_alpha 90.000000
_cell_angle_beta 97.045664
_cell_angle_gamma 90.000000
_cell_volume 2555.117657
_symmetry_space_group_name_H-M "C 2/M"
_symmetry_group_IT_number 12
_symmetry_cell_setting 'monoclinic'
loop_
_space_group_symop_operation_xyz
x,y,z
-x,y,-z
-x,-y,-z
x,-y,z
1/2+x,1/2+y,z
1/2-x,1/2+y,-z
1/2-x,1/2-y,-z
1/2+x,1/2-y,z
loop_
_atom_site_type_symbol
_atom_site_label
_atom_site_fract_x
_atom_site_fract_y
_atom_site_fract_z
Si Si1 0.655219 0.387578 0.988628
Si Si2 0.318723 0.888532 0.670094
Si Si3 0.111625 0.254132 0.449238
Si Si4 0.957065 0.258340 0.788259
Si Si5 0.727880 0.233001 0.883587
Si Si6 0.501461 0.612837 0.666967
O O1 0.680281 0.500000 0.978796
O O2 0.692458 0.335870 0.916903
O O3 0.500000 0.364543 0.000000
O O4 0.759292 0.349436 0.055625
O O5 0.388818 0.841162 0.606440
O O6 0.386922 0.848493 0.745694
O O7 0.158754 0.865995 0.660729
O O8 0.350660 0.000000 0.668258
O O9 0.250000 0.250000 0.500000
O O10 0.000000 0.277745 0.500000
O O11 0.084252 0.154205 0.405251
O O12 0.871776 0.234402 0.852935
O O13 0.108338 0.291669 0.820267
O O14 0.959476 0.164745 0.737475
O O15 0.469556 0.500000 0.672920
#
# Coordination Sequence:
#
# PCOD8111133 Si02
#       6
#     8   8   8   8   8   8
#     4  10  22  39  61  89 118 154 201 243 286 351
#     4  10  22  39  60  89 120 152 197 245 289 347
#     4  11  22  39  61  88 120 155 192 241 295 344
#     4  11  22  39  61  88 120 155 192 243 298 345
#     4  11  22  39  61  88 120 155 192 243 298 345
#     4  10  22  39  62  89 116 155 202 239 284 355
#
# _framework density 18.785827999999999
#
# number of rings (size 3 to 8) (size 9 to 14) (size 15 to 20)
#    0.000    1.500    5.000    0.000    0.000    4.000 
#    0.000    2.500    0.000    0.000    0.000    0.000 
#    0.000    0.000    0.000    0.000    0.000    0.000 
#
# Total GULP energy -297698.733052 kJ/mol
# GULP energy per Si atom -12404.113877 kJ/mol
# Density = 1.874307 g / cm^3
# Si number density = 18.785828 Si / 1000 Ang^3
#
#
#
# Elastic Constant Matrix: (Units=GPa)
#
#
# Indices 1 2 3 4 5 6 
#
# 1 92.3980 45.3740 38.0169 0.0000 5.5414 0.0000
# 2 45.3740 126.0688 49.5849 0.0000 0.9512 0.0000
# 3 38.0169 49.5849 100.8479 0.0000 2.4718 0.0000
# 4 0.0000 0.0000 0.0000 18.3792 0.0000 -0.0509
# 5 5.5414 0.9512 2.4718 0.0000 52.6641 0.0000
# 6 0.0000 0.0000 0.0000 -0.0509 0.0000 27.7602
#
#
#
# Elastic Compliance Matrix: (Units=1/GPa)
#
#
# Indices 1 2 3 4 5 6 
#
# 1 0.014154 -0.003717 -0.003477 0.000000 -0.001259 0.000000
# 2 -0.003717 0.010810 -0.003923 0.000000 0.000380 0.000000
# 3 -0.003477 -0.003923 0.013160 0.000000 -0.000181 0.000000
# 4 0.000000 0.000000 0.000000 0.054410 0.000000 0.000100
# 5 -0.001259 0.000380 -0.000181 0.000000 0.019122 0.000000
# 6 0.000000 0.000000 0.000000 0.000100 0.000000 0.036023
#
#
# Mechanical properties :
#
#
# Convention : Reuss Voigt Hill
#
# Bulk Modulus (GPa) = 62.93505 65.02960 63.98233
# Shear Modulus (GPa) = 28.53689 32.18327 30.36008
#
# Velocity S-wave (km/s) = 3.90175 4.14353 4.02446
# Velocity P-wave (km/s) = 7.33977 7.58836 7.46510
#
# Compressibility (1/GPa) = 0.01588940
#
# Stress axis : x y z
#
# Youngs Moduli (GPa) = 70.64947 92.50475 75.98679
#
# Poissons Ratio (x) = 0.34386 0.26423
# Poissons Ratio (y) = 0.26262 0.29811
# Poissons Ratio (z) = 0.24567 0.36292
#
# Static dielectric constant tensor:
#      x y z
#    x 3.487910 0.000000 0.037710 
#    y 0.000000 3.311190 0.000000 
#    z 0.037710 0.000000 3.786770 
# 
# 
# High freq. dielectric constant tensor:
#      x y z
#    x 1.736870 0.000000 0.002750 
#    y 0.000000 1.720190 0.000000 
#    z 0.002750 0.000000 1.747180 
# 
# From -- ./inp_files/255762.got.cif
#   From: 2010.06.25/outbox.cif.g09.slc.cpg/sg12_128_cif.got.tgz:255762.got - 2010.06.28 00:19:55.
