data_PCOD8111130
_publ_section_title
;
Structure prediction by ZEFSAII (Michael W. Deem and Ramdas Pophale) SiO2 
 PCOD8111130
Probable space group: C 2/M
;
_chemical_formula_sum "Si O2"
_cell_formula_units_Z 64
_cell_length_a 29.006620
_cell_length_b 14.059267
_cell_length_c 9.339245
_cell_angle_alpha 90.000000
_cell_angle_beta 126.264008
_cell_angle_gamma 90.000000
_cell_volume 3070.918140
_symmetry_space_group_name_H-M "C 2/M"
_symmetry_group_IT_number 12
_symmetry_cell_setting 'monoclinic'
loop_
_space_group_symop_operation_xyz
x,y,z
-x,y,-z
-x,-y,-z
x,-y,z
1/2+x,1/2+y,z
1/2-x,1/2+y,-z
1/2-x,1/2-y,-z
1/2+x,1/2-y,z
loop_
_atom_site_type_symbol
_atom_site_label
_atom_site_fract_x
_atom_site_fract_y
_atom_site_fract_z
Si Si1 0.552762 0.392852 0.015253
Si Si2 0.650618 0.890459 0.988773
Si Si3 0.765802 0.890974 0.804700
Si Si4 0.656953 0.260429 0.238045
Si Si5 0.069308 0.701820 0.620090
Si Si6 0.556738 0.601046 0.694576
Si Si7 0.220154 0.891082 0.848547
Si Si8 0.338993 0.776730 0.425395
O O1 0.562918 0.500000 0.087978
O O2 0.607469 0.335746 0.158983
O O3 0.500000 0.345254 0.000000
O O4 0.537922 0.388440 0.822394
O O5 0.638858 0.829301 0.109212
O O6 0.712882 0.863332 0.041635
O O7 0.647643 0.000000 0.028673
O O8 0.600479 0.873113 0.780261
O O9 0.790034 0.817434 0.732496
O O10 0.699495 0.863861 0.702948
O O11 0.771936 0.000000 0.763079
O O12 0.797352 0.878878 0.016244
O O13 0.668572 0.224319 0.418510
O O14 0.091442 0.805819 0.714164
O O15 0.096072 0.697358 0.508367
O O16 0.000000 0.688639 0.500000
O O17 0.500000 0.597171 0.500000
O O18 0.590959 0.500000 0.735228
O O19 0.182146 0.823763 0.678767
O O20 0.210591 0.000000 0.781015
#
# Coordination Sequence:
#
# PCOD8111130 Si02
#       8
#     8   8   8   8   8   8   8   8
#     4  10  22  39  60  88 129 173 211 256 322 396
#     4  11  23  44  69  94 128 172 221 272 325 384
#     4  11  23  42  65  92 128 167 213 267 326 387
#     4  12  25  40  62  96 134 174 212 263 329 398
#     4  11  24  42  68  98 128 172 223 275 329 387
#     4   9  19  36  60  89 119 159 211 265 317 372
#     4  10  22  41  68  95 125 170 221 272 323 381
#     4  12  25  41  64  97 134 167 217 272 327 391
#
# _framework density 20.840671
#
# number of rings (size 3 to 8) (size 9 to 14) (size 15 to 20)
#    0.000    1.250    3.750    1.875    3.500    2.250 
#    0.000    0.000    0.000    2.625    0.000    0.000 
#    0.000    0.000    0.000    0.000    0.000    0.000 
#
# Total GULP energy -396626.427943 kJ/mol
# GULP energy per Si atom -12394.575873 kJ/mol
# Density = 2.079324 g / cm^3
# Si number density = 20.840671 Si / 1000 Ang^3
#
#
#
# Elastic Constant Matrix: (Units=GPa)
#
#
# Indices 1 2 3 4 5 6 
#
# 1 96.5642 24.2105 17.4462 0.0000 7.7082 0.0000
# 2 24.2105 78.3804 21.8994 0.0000 -4.5037 0.0000
# 3 17.4462 21.8994 74.1779 0.0000 -3.5306 0.0000
# 4 0.0000 0.0000 0.0000 27.4237 0.0000 -3.7007
# 5 7.7082 -4.5037 -3.5306 0.0000 36.9789 0.0000
# 6 0.0000 0.0000 0.0000 -3.7007 0.0000 22.4343
#
#
#
# Elastic Compliance Matrix: (Units=1/GPa)
#
#
# Indices 1 2 3 4 5 6 
#
# 1 0.011769 -0.003265 -0.001949 0.000000 -0.003037 0.000000
# 2 -0.003265 0.014874 -0.003521 0.000000 0.002156 0.000000
# 3 -0.001949 -0.003521 0.015046 0.000000 0.001414 0.000000
# 4 0.000000 0.000000 0.000000 0.037295 0.000000 0.006152
# 5 -0.003037 0.002156 0.001414 0.000000 0.028073 0.000000
# 6 0.000000 0.000000 0.000000 0.006152 0.000000 0.045589
#
#
# Mechanical properties :
#
#
# Convention : Reuss Voigt Hill
#
# Bulk Modulus (GPa) = 41.28761 41.80383 41.54572
# Shear Modulus (GPa) = 28.05999 29.73848 28.89923
#
# Velocity S-wave (km/s) = 3.67332 3.78159 3.72785
# Velocity P-wave (km/s) = 6.15184 6.25856 6.20543
#
# Compressibility (1/GPa) = 0.02422034
#
# Stress axis : x y z
#
# Youngs Moduli (GPa) = 84.96937 67.22923 66.46237
#
# Poissons Ratio (x) = 0.21953 0.12950
# Poissons Ratio (y) = 0.27745 0.23400
# Poissons Ratio (z) = 0.16556 0.23670
#
# Static dielectric constant tensor:
#      x y z
#    x 3.953870 0.000000 0.016030 
#    y 0.000000 4.126810 0.000000 
#    z 0.016030 0.000000 3.460780 
# 
# 
# High freq. dielectric constant tensor:
#      x y z
#    x 1.819720 0.000000 -0.002130 
#    y 0.000000 1.819720 0.000000 
#    z -0.002130 0.000000 1.805810 
# 
# From -- ./inp_files/112000.got.cif
#   From: 2010.06.25/outbox.cif.g09.slc.cpg/sg12_56_cif.got.tgz:112000.got - 2010.06.28 00:19:55.
