data_PCOD8111842
_publ_section_title
;
Structure prediction by ZEFSAII (Michael W. Deem and Ramdas Pophale) SiO2 
 PCOD8111842
Probable space group: C 2/M
;
_chemical_formula_sum "Si O2"
_cell_formula_units_Z 48
_cell_length_a 19.737584
_cell_length_b 8.677063
_cell_length_c 13.756897
_cell_angle_alpha 90.000000
_cell_angle_beta 89.756864
_cell_angle_gamma 90.000000
_cell_volume 2356.043569
_symmetry_space_group_name_H-M "C 2/M"
_symmetry_group_IT_number 12
_symmetry_cell_setting 'monoclinic'
loop_
_space_group_symop_operation_xyz
x,y,z
-x,y,-z
-x,-y,-z
x,-y,z
1/2+x,1/2+y,z
1/2-x,1/2+y,-z
1/2-x,1/2-y,-z
1/2+x,1/2-y,z
loop_
_atom_site_type_symbol
_atom_site_label
_atom_site_fract_x
_atom_site_fract_y
_atom_site_fract_z
Si Si1 0.297855 0.818585 0.081100
Si Si2 0.549377 0.183273 0.915999
Si Si3 0.859807 0.819703 0.627687
Si Si4 0.487577 0.819011 0.713482
Si Si5 0.400080 0.679351 0.410442
Si Si6 0.770450 0.179423 0.284297
O O1 0.374429 0.752917 0.068747
O O2 0.267859 0.775325 0.185540
O O3 0.298087 0.000000 0.069564
O O4 0.250000 0.750000 0.000000
O O5 0.522198 0.240966 0.812294
O O6 0.550216 0.000000 0.918768
O O7 0.500000 0.249307 0.000000
O O8 0.883431 0.773353 0.520077
O O9 0.792301 0.724871 0.648483
O O10 0.916872 0.770132 0.704180
O O11 0.844498 0.000000 0.636967
O O12 0.535648 0.778547 0.622772
O O13 0.473036 0.000000 0.716431
O O14 0.419127 0.500000 0.402942
O O15 0.337522 0.723023 0.342597
O O16 0.767378 0.000000 0.258919
#
# Coordination Sequence:
#
# PCOD8111842 Si02
#       6
#     8   8   8   8   8   8
#     4  11  23  41  65  93 124 162 202 252 309 366
#     4   9  20  39  62  88 120 158 199 247 302 356
#     4  11  24  40  60  90 126 164 205 256 311 367
#     4  11  22  38  63  92 123 162 207 254 305 368
#     4  10  22  41  63  87 123 165 206 255 312 366
#     4  11  23  41  64  90 122 163 208 258 308 366
#
# _framework density 20.373137
#
# number of rings (size 3 to 8) (size 9 to 14) (size 15 to 20)
#    0.000    1.500    1.667    3.000    2.333    4.000 
#    0.000    0.000    0.000    4.000    0.000    0.000 
#    0.000    0.000    0.000    0.000    0.000    0.000 
#
# Total GULP energy -297747.067899 kJ/mol
# GULP energy per Si atom -12406.127829 kJ/mol
# Density = 2.032677 g / cm^3
# Si number density = 20.373137 Si / 1000 Ang^3
#
#
#
# Elastic Constant Matrix: (Units=GPa)
#
#
# Indices 1 2 3 4 5 6 
#
# 1 60.6499 27.0220 15.6798 0.0000 -7.6099 0.0000
# 2 27.0220 41.0448 21.0335 0.0000 6.7739 0.0000
# 3 15.6798 21.0335 100.5816 0.0000 2.0751 0.0000
# 4 0.0000 0.0000 0.0000 31.5343 0.0000 -0.3152
# 5 -7.6099 6.7739 2.0751 0.0000 38.0815 0.0000
# 6 0.0000 0.0000 0.0000 -0.3152 0.0000 33.6017
#
#
#
# Elastic Compliance Matrix: (Units=1/GPa)
#
#
# Indices 1 2 3 4 5 6 
#
# 1 0.025708 -0.018106 -0.000394 0.000000 0.008380 0.000000
# 2 -0.018106 0.040850 -0.005502 0.000000 -0.010585 0.000000
# 3 -0.000394 -0.005502 0.011148 0.000000 0.000292 0.000000
# 4 0.000000 0.000000 0.000000 0.031715 0.000000 0.000298
# 5 0.008380 -0.010585 0.000292 0.000000 0.029801 0.000000
# 6 0.000000 0.000000 0.000000 0.000298 0.000000 0.029763
#
#
# Mechanical properties :
#
#
# Convention : Reuss Voigt Hill
#
# Bulk Modulus (GPa) = 33.66704 36.63856 35.15280
# Shear Modulus (GPa) = 22.03714 29.87956 25.95835
#
# Velocity S-wave (km/s) = 3.29245 3.83380 3.57339
# Velocity P-wave (km/s) = 5.56909 6.13352 5.85811
#
# Compressibility (1/GPa) = 0.02970264
#
# Stress axis : x y z
#
# Youngs Moduli (GPa) = 38.89781 24.47983 89.70153
#
# Poissons Ratio (x) = 0.44323 0.03537
# Poissons Ratio (y) = 0.70429 0.49350
# Poissons Ratio (z) = 0.01534 0.13468
#
# Static dielectric constant tensor:
#      x y z
#    x 4.152780 0.000000 -0.147190 
#    y 0.000000 3.500460 0.000000 
#    z -0.147190 0.000000 3.911380 
# 
# 
# High freq. dielectric constant tensor:
#      x y z
#    x 1.812080 0.000000 0.002930 
#    y 0.000000 1.782720 0.000000 
#    z 0.002930 0.000000 1.805790 
# 
# From -- ./inp_files/221507.got.cif
#   From: 2010.06.25/outbox.cif.g09.slc.cpg/sg12_111_cif.got.tgz:221507.got - 2010.06.28 00:19:55.
