data_PCOD8111341
_publ_section_title
;
Structure prediction by ZEFSAII (Michael W. Deem and Ramdas Pophale) SiO2 
 PCOD8111341
Probable space group: C 2/M
;
_chemical_formula_sum "Si O2"
_cell_formula_units_Z 48
_cell_length_a 29.006966
_cell_length_b 9.101975
_cell_length_c 9.797089
_cell_angle_alpha 90.000000
_cell_angle_beta 99.657892
_cell_angle_gamma 90.000000
_cell_volume 2549.973805
_symmetry_space_group_name_H-M "C 2/M"
_symmetry_group_IT_number 12
_symmetry_cell_setting 'monoclinic'
loop_
_space_group_symop_operation_xyz
x,y,z
-x,y,-z
-x,-y,-z
x,-y,z
1/2+x,1/2+y,z
1/2-x,1/2+y,-z
1/2-x,1/2-y,-z
1/2+x,1/2-y,z
loop_
_atom_site_type_symbol
_atom_site_label
_atom_site_fract_x
_atom_site_fract_y
_atom_site_fract_z
Si Si1 0.713794 0.329926 0.884582
Si Si2 0.231329 0.331728 0.360366
Si Si3 0.559137 0.331236 0.389660
Si Si4 0.451421 0.330377 0.304202
Si Si5 0.870121 0.326491 0.771207
Si Si6 0.120334 0.326004 0.914806
O O1 0.710355 0.500000 0.926127
O O2 0.730763 0.313040 0.738814
O O3 0.663716 0.254042 0.866125
O O4 0.750000 0.250000 0.000000
O O5 0.224428 0.500000 0.397380
O O6 0.250000 0.250000 0.500000
O O7 0.181560 0.264930 0.288020
O O8 0.572077 0.500000 0.370519
O O9 0.506333 0.299892 0.317325
O O10 0.565699 0.291817 0.551864
O O11 0.593130 0.232183 0.318673
O O12 0.439977 0.500000 0.265191
O O13 0.426468 0.223989 0.184751
O O14 0.870427 0.500000 0.762819
O O15 0.883826 0.275726 0.930144
O O16 0.127234 0.500000 0.905071
#
# Coordination Sequence:
#
# PCOD8111341 Si02
#       6
#     8   8   8   8   8   8
#     4  11  22  40  62  85 117 154 193 237 283 337
#     4  10  23  41  58  83 118 153 191 237 283 337
#     4   9  20  39  62  85 115 151 189 236 290 344
#     4   9  20  40  61  86 116 148 190 239 288 342
#     4  10  22  40  57  82 120 152 188 238 287 338
#     4  11  23  39  59  86 118 154 194 235 286 342
#
# _framework density 18.823723999999999
#
# number of rings (size 3 to 8) (size 9 to 14) (size 15 to 20)
#    0.000    2.000    1.667    2.000    2.333    5.333 
#    0.000    5.000    0.000    0.000    0.000    0.000 
#    0.000    0.000    0.000    0.000    0.000    0.000 
#
# Total GULP energy -297671.670015 kJ/mol
# GULP energy per Si atom -12402.986251 kJ/mol
# Density = 1.878088 g / cm^3
# Si number density = 18.823724 Si / 1000 Ang^3
#
#
#
# Elastic Constant Matrix: (Units=GPa)
#
#
# Indices 1 2 3 4 5 6 
#
# 1 91.3086 35.2892 54.7507 0.0000 -3.2386 0.0000
# 2 35.2892 67.1460 51.3150 0.0000 4.4958 0.0000
# 3 54.7507 51.3150 122.3565 0.0000 12.1696 0.0000
# 4 0.0000 0.0000 0.0000 38.4870 0.0000 1.0140
# 5 -3.2386 4.4958 12.1696 0.0000 36.4591 0.0000
# 6 0.0000 0.0000 0.0000 1.0140 0.0000 38.9369
#
#
#
# Elastic Compliance Matrix: (Units=1/GPa)
#
#
# Indices 1 2 3 4 5 6 
#
# 1 0.016282 -0.004347 -0.005854 0.000000 0.003936 0.000000
# 2 -0.004347 0.023083 -0.007669 0.000000 -0.000673 0.000000
# 3 -0.005854 -0.007669 0.014446 0.000000 -0.004396 0.000000
# 4 0.000000 0.000000 0.000000 0.026001 0.000000 -0.000677
# 5 0.003936 -0.000673 -0.004396 0.000000 0.029328 0.000000
# 6 0.000000 0.000000 0.000000 -0.000677 0.000000 0.025700
#
#
# Mechanical properties :
#
#
# Convention : Reuss Voigt Hill
#
# Bulk Modulus (GPa) = 55.33619 62.61344 58.97481
# Shear Modulus (GPa) = 28.31213 32.07368 30.19291
#
# Velocity S-wave (km/s) = 3.88244 4.13231 4.00932
# Velocity P-wave (km/s) = 7.03979 7.49021 7.26849
#
# Compressibility (1/GPa) = 0.01807136
#
# Stress axis : x y z
#
# Youngs Moduli (GPa) = 61.41893 43.32146 69.22391
#
# Poissons Ratio (x) = 0.18830 0.40524
# Poissons Ratio (y) = 0.26697 0.53088
# Poissons Ratio (z) = 0.35955 0.33223
#
# Static dielectric constant tensor:
#      x y z
#    x 5.393290 0.000000 -0.458130 
#    y 0.000000 3.351550 0.000000 
#    z -0.458130 0.000000 3.632140 
# 
# 
# High freq. dielectric constant tensor:
#      x y z
#    x 1.740100 0.000000 0.001780 
#    y 0.000000 1.729140 0.000000 
#    z 0.001780 0.000000 1.739250 
# 
# From -- ./inp_files/108704.got.cif
#   From: 2010.06.25/outbox.cif.g09.slc.cpg/sg12_55_cif.got.tgz:108704.got - 2010.06.28 00:19:55.
