data_PCOD8111664
_publ_section_title
;
Structure prediction by ZEFSAII (Michael W. Deem and Ramdas Pophale) SiO2 
 PCOD8111664
Probable space group: C 2/M
;
_chemical_formula_sum "Si O2"
_cell_formula_units_Z 64
_cell_length_a 28.095764
_cell_length_b 14.575105
_cell_length_c 9.357387
_cell_angle_alpha 90.000000
_cell_angle_beta 55.002786
_cell_angle_gamma 90.000000
_cell_volume 3138.964723
_symmetry_space_group_name_H-M "C 2/M"
_symmetry_group_IT_number 12
_symmetry_cell_setting 'monoclinic'
loop_
_space_group_symop_operation_xyz
x,y,z
-x,y,-z
-x,-y,-z
x,-y,z
1/2+x,1/2+y,z
1/2-x,1/2+y,-z
1/2-x,1/2-y,-z
1/2+x,1/2-y,z
loop_
_atom_site_type_symbol
_atom_site_label
_atom_site_fract_x
_atom_site_fract_y
_atom_site_fract_z
Si Si1 0.418596 0.607923 0.504327
Si Si2 0.740376 0.843541 0.094378
Si Si3 0.187908 0.267677 0.677199
Si Si4 0.857608 0.284466 0.534623
Si Si5 0.567426 0.107559 0.382075
Si Si6 0.955259 0.893107 0.749634
Si Si7 0.345393 0.396194 0.096241
Si Si8 0.159714 0.602047 0.994337
O O1 0.399467 0.500000 0.530282
O O2 0.367170 0.673996 0.536760
O O3 0.478672 0.625628 0.312178
O O4 0.436365 0.647251 0.629218
O O5 0.703444 0.819526 0.298427
O O6 0.800846 0.888656 0.039066
O O7 0.707240 0.908259 0.039077
O O8 0.750000 0.750000 0.000000
O O9 0.250000 0.250000 0.500000
O O10 0.144474 0.307033 0.631089
O O11 0.171265 0.164134 0.741403
O O12 0.182393 0.330525 0.829506
O O13 0.908921 0.340478 0.519797
O O14 0.500000 0.133380 0.500000
O O15 0.600275 0.137586 0.176826
O O16 0.577875 0.000000 0.386282
O O17 0.946972 0.000000 0.738042
O O18 0.909104 0.858451 0.944452
O O19 0.347434 0.500000 0.146836
O O20 0.150485 0.500000 0.945248
#
# Coordination Sequence:
#
# PCOD8111664 Si02
#       8
#     8   8   8   8   8   8   8   8
#     4   9  18  34  57  88 124 153 195 245 295 365
#     4  11  19  38  62  87 119 148 205 269 302 358
#     4  12  25  43  55  87 130 164 206 251 298 374
#     4  11  23  36  62  89 121 163 202 249 318 367
#     4   9  21  42  67  95 121 153 209 269 317 368
#     4   8  17  33  56  88 116 151 197 245 296 352
#     4  11  22  37  61  85 121 165 202 248 308 362
#     4  10  22  40  65  88 116 161 205 253 312 363
#
# _framework density 20.388888000000001
#
# number of rings (size 3 to 8) (size 9 to 14) (size 15 to 20)
#    0.000    1.875    2.500    1.875    3.500    2.000 
#    0.000    5.625    0.000    4.500    0.000    0.000 
#    0.000    0.000    0.000    0.000    0.000    0.000 
#
# Total GULP energy -396449.473723 kJ/mol
# GULP energy per Si atom -12389.046054 kJ/mol
# Density = 2.034248 g / cm^3
# Si number density = 20.388888 Si / 1000 Ang^3
#
#
#
# Elastic Constant Matrix: (Units=GPa)
#
#
# Indices 1 2 3 4 5 6 
#
# 1 56.6401 27.2204 42.3519 0.0000 10.7752 0.0000
# 2 27.2204 77.0585 50.3664 0.0000 0.2204 0.0000
# 3 42.3519 50.3664 127.8681 0.0000 1.3013 0.0000
# 4 0.0000 0.0000 0.0000 28.9806 0.0000 -1.1644
# 5 10.7752 0.2204 1.3013 0.0000 34.0441 0.0000
# 6 0.0000 0.0000 0.0000 -1.1644 0.0000 25.0531
#
#
#
# Elastic Compliance Matrix: (Units=1/GPa)
#
#
# Indices 1 2 3 4 5 6 
#
# 1 0.026671 -0.004954 -0.006800 0.000000 -0.008149 0.000000
# 2 -0.004954 0.018397 -0.005623 0.000000 0.001664 0.000000
# 3 -0.006800 -0.005623 0.012270 0.000000 0.001720 0.000000
# 4 0.000000 0.000000 0.000000 0.034570 0.000000 0.001607
# 5 -0.008149 0.001664 0.001720 0.000000 0.031876 0.000000
# 6 0.000000 0.000000 0.000000 0.001607 0.000000 0.039990
#
#
# Mechanical properties :
#
#
# Convention : Reuss Voigt Hill
#
# Bulk Modulus (GPa) = 44.27536 55.71599 49.99568
# Shear Modulus (GPa) = 24.26533 27.05745 25.66139
#
# Velocity S-wave (km/s) = 3.45356 3.64685 3.55152
# Velocity P-wave (km/s) = 6.13721 6.71704 6.43366
#
# Compressibility (1/GPa) = 0.02258593
#
# Stress axis : x y z
#
# Youngs Moduli (GPa) = 37.49450 54.35562 81.49978
#
# Poissons Ratio (x) = 0.26926 0.55416
# Poissons Ratio (y) = 0.18573 0.45826
# Poissons Ratio (z) = 0.25495 0.30563
#
# Static dielectric constant tensor:
#      x y z
#    x 4.435740 0.000000 -1.192980 
#    y 0.000000 4.402470 0.000000 
#    z -1.192980 0.000000 5.041660 
# 
# 
# High freq. dielectric constant tensor:
#      x y z
#    x 1.780440 0.000000 -0.017240 
#    y 0.000000 1.797440 0.000000 
#    z -0.017240 0.000000 1.794380 
# 
# From -- ./inp_files/111969.got.cif
#   From: 2010.06.25/outbox.cif.g09.slc.cpg/sg12_56_cif.got.tgz:111969.got - 2010.06.28 00:19:55.
