data_PCOD8111115
_publ_section_title
;
Structure prediction by ZEFSAII (Michael W. Deem and Ramdas Pophale) SiO2 
 PCOD8111115
Probable space group: C 2/M
;
_chemical_formula_sum "Si O2"
_cell_formula_units_Z 56
_cell_length_a 9.183900
_cell_length_b 21.729559
_cell_length_c 18.569314
_cell_angle_alpha 90.000000
_cell_angle_beta 55.050970
_cell_angle_gamma 90.000000
_cell_volume 3037.446970
_symmetry_space_group_name_H-M "C 2/M"
_symmetry_group_IT_number 12
_symmetry_cell_setting 'monoclinic'
loop_
_space_group_symop_operation_xyz
x,y,z
-x,y,-z
-x,-y,-z
x,-y,z
1/2+x,1/2+y,z
1/2-x,1/2+y,-z
1/2-x,1/2-y,-z
1/2+x,1/2-y,z
loop_
_atom_site_type_symbol
_atom_site_label
_atom_site_fract_x
_atom_site_fract_y
_atom_site_fract_z
Si Si1 0.901871 0.197520 0.953078
Si Si2 0.063253 0.932265 0.564427
Si Si3 0.692321 0.312876 0.479744
Si Si4 0.811674 0.629573 0.086103
Si Si5 0.219663 0.568726 0.758872
Si Si6 0.408690 0.179430 0.279722
Si Si7 0.768544 0.747158 0.194843
O O1 0.818467 0.133606 0.946310
O O2 0.053580 0.212734 0.851994
O O3 0.750000 0.250000 0.000000
O O4 0.000000 0.184643 0.000000
O O5 0.191541 0.872119 0.535044
O O6 0.000000 0.931871 0.500000
O O7 0.904111 0.921322 0.664986
O O8 0.151711 0.000000 0.555057
O O9 0.500000 0.302486 0.500000
O O10 0.750000 0.250000 0.500000
O O11 0.839522 0.329743 0.379271
O O12 0.751404 0.581157 0.164115
O O13 0.806779 0.697823 0.121492
O O14 0.000000 0.610889 0.000000
O O15 0.148530 0.500000 0.768575
O O16 0.070890 0.613573 0.766396
O O17 0.597675 0.212384 0.225974
O O18 0.257215 0.216357 0.277176
#
# Coordination Sequence:
#
# PCOD8111115 Si02
#       7
#     8   8   8   8   8   8   8
#     4  12  19  33  54  83 117 151 193 235 291 360
#     4   9  17  35  59  84 111 154 207 247 282 347
#     4  11  21  34  53  86 127 153 185 242 309 350
#     4  11  22  36  58  86 119 149 195 243 295 357
#     4  10  22  39  60  83 113 156 207 250 286 340
#     4  11  21  33  54  87 118 154 191 239 297 358
#     4  11  20  32  53  84 121 150 187 233 298 356
#
# _framework density 18.436536
#
# number of rings (size 3 to 8) (size 9 to 14) (size 15 to 20)
#    0.000    1.286    7.143    0.857    4.000    0.286 
#    0.000    0.000    0.000    1.714    0.000    1.000 
#    0.000    0.000    0.000    0.000    0.000    0.000 
#
# Total GULP energy -346896.962011 kJ/mol
# GULP energy per Si atom -12389.177215 kJ/mol
# Density = 1.839457 g / cm^3
# Si number density = 18.436536 Si / 1000 Ang^3
#
#
#
# Elastic Constant Matrix: (Units=GPa)
#
#
# Indices 1 2 3 4 5 6 
#
# 1 84.1391 46.8441 35.4253 0.0000 1.3954 0.0000
# 2 46.8441 143.4833 44.0773 0.0000 -0.6197 0.0000
# 3 35.4253 44.0773 117.8056 0.0000 4.0851 0.0000
# 4 0.0000 0.0000 0.0000 2.9103 0.0000 -0.3653
# 5 1.3954 -0.6197 4.0851 0.0000 21.5010 0.0000
# 6 0.0000 0.0000 0.0000 -0.3653 0.0000 15.6068
#
#
#
# Elastic Compliance Matrix: (Units=1/GPa)
#
#
# Indices 1 2 3 4 5 6 
#
# 1 0.015486 -0.004105 -0.003102 0.000000 -0.000534 0.000000
# 2 -0.004105 0.008976 -0.002156 0.000000 0.000935 0.000000
# 3 -0.003102 -0.002156 0.010291 0.000000 -0.001816 0.000000
# 4 0.000000 0.000000 0.000000 0.344624 0.000000 0.008066
# 5 -0.000534 0.000935 -0.001816 0.000000 0.046916 0.000000
# 6 0.000000 0.000000 0.000000 0.008066 0.000000 0.064263
#
#
# Mechanical properties :
#
#
# Convention : Reuss Voigt Hill
#
# Bulk Modulus (GPa) = 62.40042 66.45794 64.42918
# Shear Modulus (GPa) = 9.71580 22.60905 16.16242
#
# Velocity S-wave (km/s) = 2.29811 3.50568 2.96404
# Velocity P-wave (km/s) = 6.40010 7.24648 6.83640
#
# Compressibility (1/GPa) = 0.01602553
#
# Stress axis : x y z
#
# Youngs Moduli (GPa) = 64.57644 111.40666 97.16992
#
# Poissons Ratio (x) = 0.45732 0.30144
# Poissons Ratio (y) = 0.26509 0.20954
# Poissons Ratio (z) = 0.20033 0.24024
#
# Static dielectric constant tensor:
#      x y z
#    x 3.372220 0.000000 0.164070 
#    y 0.000000 3.774860 0.000000 
#    z 0.164070 0.000000 3.615510 
# 
# 
# High freq. dielectric constant tensor:
#      x y z
#    x 1.681130 0.000000 0.009950 
#    y 0.000000 1.700500 0.000000 
#    z 0.009950 0.000000 1.735320 
# 
# From -- ./inp_files/258853.got.cif
#   From: 2010.06.25/outbox.cif.g09.slc.cpg/sg12_130_cif.got.tgz:258853.got - 2010.06.28 00:19:55.
