data_PCOD8111037
_publ_section_title
;
Structure prediction by ZEFSAII (Michael W. Deem and Ramdas Pophale) SiO2 
 PCOD8111037
Probable space group: C 2/M
;
_chemical_formula_sum "Si O2"
_cell_formula_units_Z 56
_cell_length_a 19.305554
_cell_length_b 8.576004
_cell_length_c 24.121090
_cell_angle_alpha 90.000000
_cell_angle_beta 47.887107
_cell_angle_gamma 90.000000
_cell_volume 2962.549491
_symmetry_space_group_name_H-M "C 2/M"
_symmetry_group_IT_number 12
_symmetry_cell_setting 'monoclinic'
loop_
_space_group_symop_operation_xyz
x,y,z
-x,y,-z
-x,-y,-z
x,-y,z
1/2+x,1/2+y,z
1/2-x,1/2+y,-z
1/2-x,1/2-y,-z
1/2+x,1/2-y,z
loop_
_atom_site_type_symbol
_atom_site_label
_atom_site_fract_x
_atom_site_fract_y
_atom_site_fract_z
Si Si1 0.630188 0.817828 0.903771
Si Si2 0.204159 0.319349 0.248965
Si Si3 0.473456 0.684301 0.704015
Si Si4 0.550390 0.316473 0.052395
Si Si5 0.315667 0.679953 0.296062
Si Si6 0.013225 0.317720 0.185433
Si Si7 0.317267 0.319292 0.418569
O O1 0.733400 0.779907 0.826988
O O2 0.556200 0.720208 0.907470
O O3 0.608196 0.000000 0.909013
O O4 0.622086 0.768283 0.972300
O O5 0.215163 0.500000 0.228102
O O6 0.097532 0.265711 0.300262
O O7 0.233409 0.286007 0.296790
O O8 0.465430 0.500000 0.702768
O O9 0.449453 0.732961 0.779664
O O10 0.577088 0.746064 0.632907
O O11 0.567138 0.500000 0.041321
O O12 0.570604 0.251660 0.102868
O O13 0.349878 0.500000 0.275161
O O14 0.403488 0.787524 0.234391
O O15 0.278193 0.718657 0.377926
O O16 0.032471 0.500000 0.180255
O O17 0.320348 0.500000 0.428343
O O18 0.250000 0.250000 0.500000
#
# Coordination Sequence:
#
# PCOD8111037 Si02
#       7
#     8   8   8   8   8   8   8
#     4  11  21  33  51  79 111 145 187 236 282 326
#     4  11  21  36  57  82 112 148 187 228 280 335
#     4  10  22  39  57  80 114 149 182 226 280 333
#     4  11  20  33  52  77 109 147 189 235 283 326
#     4   9  19  35  56  81 112 146 183 226 275 327
#     4  11  20  33  55  82 108 142 191 236 278 330
#     4   9  19  37  60  85 111 144 181 224 273 326
#
# _framework density 18.902639000000001
#
# number of rings (size 3 to 8) (size 9 to 14) (size 15 to 20)
#    0.000    1.714    1.429    6.429    0.000    3.429 
#    0.000    1.429    0.000    4.286    0.000    0.000 
#    0.000    0.000    0.000    0.000    0.000    0.000 
#
# Total GULP energy -347264.413656 kJ/mol
# GULP energy per Si atom -12402.300488 kJ/mol
# Density = 1.885962 g / cm^3
# Si number density = 18.902639 Si / 1000 Ang^3
#
#
#
# Elastic Constant Matrix: (Units=GPa)
#
#
# Indices 1 2 3 4 5 6 
#
# 1 110.7373 23.7642 46.6179 0.0000 4.6862 0.0003
# 2 23.7642 73.4320 29.1229 0.0001 3.8755 0.0006
# 3 46.6179 29.1229 118.7087 0.0000 8.3798 0.0000
# 4 0.0000 0.0001 0.0000 32.9680 0.0000 1.0231
# 5 4.6862 3.8755 8.3798 0.0000 20.7410 0.0000
# 6 0.0003 0.0006 0.0000 1.0231 0.0000 28.9163
#
#
#
# Elastic Compliance Matrix: (Units=1/GPa)
#
#
# Indices 1 2 3 4 5 6 
#
# 1 0.011101 -0.002048 -0.003816 0.000000 -0.000584 0.000000
# 2 -0.002048 0.015501 -0.002910 0.000000 -0.001258 0.000000
# 3 -0.003816 -0.002910 0.010846 0.000000 -0.002976 0.000000
# 4 0.000000 0.000000 0.000000 0.030366 0.000000 -0.001074
# 5 -0.000584 -0.001258 -0.002976 0.000000 0.049783 0.000000
# 6 0.000000 0.000000 0.000000 -0.001074 0.000000 0.034621
#
#
# Mechanical properties :
#
#
# Convention : Reuss Voigt Hill
#
# Bulk Modulus (GPa) = 50.24862 55.76533 53.00698
# Shear Modulus (GPa) = 28.34470 30.08323 29.21397
#
# Velocity S-wave (km/s) = 3.87655 3.99367 3.93555
# Velocity P-wave (km/s) = 6.83209 7.12960 6.98243
#
# Compressibility (1/GPa) = 0.01990104
#
# Stress axis : x y z
#
# Youngs Moduli (GPa) = 90.08191 64.51057 92.19652
#
# Poissons Ratio (x) = 0.13214 0.35180
# Poissons Ratio (y) = 0.18453 0.26827
# Poissons Ratio (z) = 0.34373 0.18771
#
# Static dielectric constant tensor:
#      x y z
#    x 3.480340 0.000000 -0.176940 
#    y 0.000000 3.472190 0.000000 
#    z -0.176940 0.000000 4.986840 
# 
# 
# High freq. dielectric constant tensor:
#      x y z
#    x 1.718000 0.000000 0.017240 
#    y 0.000000 1.743400 0.000000 
#    z 0.017240 0.000000 1.724720 
# 
# From -- ./inp_files/345474.got.cif
#   From: 2010.06.25/outbox.cif.g09.slc.cpg/sg12_173_cif.got.tgz:345474.got - 2010.06.28 00:19:55.
