data_PCOD8111054
_publ_section_title
;
Structure prediction by ZEFSAII (Michael W. Deem and Ramdas Pophale) SiO2 
 PCOD8111054
Probable space group: C 2/M
;
_chemical_formula_sum "Si O2"
_cell_formula_units_Z 48
_cell_length_a 14.293521
_cell_length_b 9.315560
_cell_length_c 19.119739
_cell_angle_alpha 90.000000
_cell_angle_beta 116.320486
_cell_angle_gamma 90.000000
_cell_volume 2281.902541
_symmetry_space_group_name_H-M "C 2/M"
_symmetry_group_IT_number 12
_symmetry_cell_setting 'monoclinic'
loop_
_space_group_symop_operation_xyz
x,y,z
-x,y,-z
-x,-y,-z
x,-y,z
1/2+x,1/2+y,z
1/2-x,1/2+y,-z
1/2-x,1/2-y,-z
1/2+x,1/2-y,z
loop_
_atom_site_type_symbol
_atom_site_label
_atom_site_fract_x
_atom_site_fract_y
_atom_site_fract_z
Si Si1 0.876670 0.660681 0.974440
Si Si2 0.354346 0.664862 0.841362
Si Si3 0.556076 0.169448 0.858092
Si Si4 0.015386 0.831955 0.715182
Si Si5 0.280054 0.662139 0.670636
Si Si6 0.083785 0.831543 0.583429
O O1 0.836002 0.500000 0.945325
O O2 0.814569 0.771223 0.902799
O O3 0.859745 0.698744 0.051474
O O4 0.000000 0.670551 0.000000
O O5 0.389575 0.500000 0.863933
O O6 0.448513 0.761770 0.846805
O O7 0.267931 0.674642 0.751381
O O8 0.586979 0.244356 0.794827
O O9 0.541655 0.000000 0.841716
O O10 0.894574 0.788502 0.684355
O O11 0.047163 0.786707 0.648242
O O12 0.032178 0.000000 0.735339
O O13 0.259860 0.500000 0.639415
O O14 0.195313 0.760789 0.604418
O O15 0.000000 0.773034 0.500000
O O16 0.098048 0.000000 0.579994
#
# Coordination Sequence:
#
# PCOD8111054 Si02
#       6
#     8   8   8   8   8   8
#     4   8  14  23  37  64 101 135 172 218 258 296
#     4   9  16  26  43  69 102 139 176 214 257 305
#     4   9  16  26  43  70 102 136 176 218 257 301
#     4   9  19  36  55  77 108 141 173 214 263 313
#     4   9  19  35  54  78 108 140 174 214 259 308
#     4  10  22  39  58  81 107 135 170 214 265 320
#
# _framework density 21.035079
#
# number of rings (size 3 to 8) (size 9 to 14) (size 15 to 20)
#    0.000    3.000    0.000    3.000    0.000    8.667 
#    0.000    0.000    0.000    1.000    0.000    0.000 
#    0.000    0.000    0.000    0.000    0.000    0.000 
#
# Total GULP energy -297425.961166 kJ/mol
# GULP energy per Si atom -12392.748382 kJ/mol
# Density = 2.098720 g / cm^3
# Si number density = 21.035079 Si / 1000 Ang^3
#
#
#
# Elastic Constant Matrix: (Units=GPa)
#
#
# Indices 1 2 3 4 5 6 
#
# 1 21.3434 4.4568 5.5931 0.0000 -3.7539 0.0000
# 2 4.4568 66.9913 36.7638 0.0000 -3.1133 0.0000
# 3 5.5931 36.7638 70.3278 0.0000 -6.0992 0.0000
# 4 0.0000 0.0000 0.0000 37.4256 0.0000 3.6694
# 5 -3.7539 -3.1133 -6.0992 0.0000 28.6007 0.0000
# 6 0.0000 0.0000 0.0000 3.6694 0.0000 12.3608
#
#
#
# Elastic Compliance Matrix: (Units=1/GPa)
#
#
# Indices 1 2 3 4 5 6 
#
# 1 0.048856 -0.001577 -0.002568 0.000000 0.005693 0.000000
# 2 -0.001577 0.020983 -0.010864 0.000000 -0.000240 0.000000
# 3 -0.002568 -0.010864 0.020347 0.000000 0.002819 0.000000
# 4 0.000000 0.000000 0.000000 0.027521 0.000000 -0.008170
# 5 0.005693 -0.000240 0.002819 0.000000 0.036287 0.000000
# 6 0.000000 0.000000 0.000000 -0.008170 0.000000 0.083326
#
#
# Mechanical properties :
#
#
# Convention : Reuss Voigt Hill
#
# Bulk Modulus (GPa) = 16.61974 28.03224 22.32599
# Shear Modulus (GPa) = 17.39773 23.13399 20.26586
#
# Velocity S-wave (km/s) = 2.87902 3.31989 3.10729
# Velocity P-wave (km/s) = 4.35543 5.29631 4.84875
#
# Compressibility (1/GPa) = 0.06016942
#
# Stress axis : x y z
#
# Youngs Moduli (GPa) = 20.46822 47.65700 49.14681
#
# Poissons Ratio (x) = 0.07514 0.12619
# Poissons Ratio (y) = 0.03227 0.53395
# Poissons Ratio (z) = 0.05255 0.51776
#
# Static dielectric constant tensor:
#      x y z
#    x 3.369680 0.000000 -0.326740 
#    y 0.000000 3.762090 0.000000 
#    z -0.326740 0.000000 4.484470 
# 
# 
# High freq. dielectric constant tensor:
#      x y z
#    x 1.793590 0.000000 -0.011920 
#    y 0.000000 1.817910 0.000000 
#    z -0.011920 0.000000 1.830130 
# 
# From -- ./inp_files/313368.got.cif
#   From: 2010.06.25/outbox.cif.g09.slc.cpg/sg12_157_cif.got.tgz:313368.got - 2010.06.28 00:19:55.
