data_PCOD8111480
_publ_section_title
;
Structure prediction by ZEFSAII (Michael W. Deem and Ramdas Pophale) SiO2 
 PCOD8111480
Probable space group: C 2/M
;
_chemical_formula_sum "Si O2"
_cell_formula_units_Z 48
_cell_length_a 9.227146
_cell_length_b 22.766562
_cell_length_c 12.558427
_cell_angle_alpha 90.000000
_cell_angle_beta 122.088920
_cell_angle_gamma 90.000000
_cell_volume 2235.108875
_symmetry_space_group_name_H-M "C 2/M"
_symmetry_group_IT_number 12
_symmetry_cell_setting 'monoclinic'
loop_
_space_group_symop_operation_xyz
x,y,z
-x,y,-z
-x,-y,-z
x,-y,z
1/2+x,1/2+y,z
1/2-x,1/2+y,-z
1/2-x,1/2-y,-z
1/2+x,1/2-y,z
loop_
_atom_site_type_symbol
_atom_site_label
_atom_site_fract_x
_atom_site_fract_y
_atom_site_fract_z
Si Si1 0.386847 0.873825 0.054997
Si Si2 0.139420 0.719281 0.785285
Si Si3 0.327078 0.933132 0.703237
Si Si4 0.094963 0.819128 0.275777
Si Si5 0.128662 0.652601 0.458722
Si Si6 0.903999 0.932209 0.186177
O O1 0.326579 0.814683 0.090971
O O2 0.492697 0.914032 0.177091
O O3 0.500000 0.852915 0.000000
O O4 0.230143 0.914457 0.957362
O O5 0.311024 0.713822 0.784322
O O6 0.091213 0.787942 0.784694
O O7 0.972275 0.695378 0.659421
O O8 0.290159 0.899675 0.578806
O O9 0.174894 0.922801 0.727557
O O10 0.340944 0.000000 0.675816
O O11 0.212845 0.813001 0.426355
O O12 0.066234 0.888407 0.239711
O O13 0.000000 0.628430 0.500000
O O14 0.960363 0.000000 0.190805
#
# Coordination Sequence:
#
# PCOD8111480 Si02
#       6
#     8   8   8   8   8   8
#     4   9  19  38  63  90 121 160 202 249 300 359
#     4  10  23  41  62  90 121 160 205 248 306 358
#     4   9  18  35  62  90 120 161 206 248 296 359
#     4  11  24  40  62  91 123 161 199 254 303 360
#     4   9  20  39  58  87 125 159 203 246 302 364
#     4  10  22  40  61  89 124 161 202 249 303 359
#
# _framework density 21.475465
#
# number of rings (size 3 to 8) (size 9 to 14) (size 15 to 20)
#    0.000    2.333    0.000    1.000    7.000    5.000 
#    0.000   10.000    0.000    0.000    0.000    0.000 
#    0.000    0.000    0.000    0.000    0.000    0.000 
#
# Total GULP energy -297612.490422 kJ/mol
# GULP energy per Si atom -12400.520434 kJ/mol
# Density = 2.142659 g / cm^3
# Si number density = 21.475465 Si / 1000 Ang^3
#
#
#
# Elastic Constant Matrix: (Units=GPa)
#
#
# Indices 1 2 3 4 5 6 
#
# 1 71.0232 42.4415 28.3531 0.0000 -3.5452 0.0000
# 2 42.4415 126.5835 28.2276 0.0000 -12.6044 0.0000
# 3 28.3531 28.2276 67.7762 0.0000 -21.2211 0.0000
# 4 0.0000 0.0000 0.0000 24.8660 0.0000 -2.8105
# 5 -3.5452 -12.6044 -21.2211 0.0000 25.1452 0.0000
# 6 0.0000 0.0000 0.0000 -2.8105 0.0000 34.7822
#
#
#
# Elastic Compliance Matrix: (Units=1/GPa)
#
#
# Indices 1 2 3 4 5 6 
#
# 1 0.020490 -0.005698 -0.008411 0.000000 -0.007065 0.000000
# 2 -0.005698 0.010352 -0.000754 0.000000 0.003750 0.000000
# 3 -0.008411 -0.000754 0.024597 0.000000 0.019195 0.000000
# 4 0.000000 0.000000 0.000000 0.040586 0.000000 0.003279
# 5 -0.007065 0.003750 0.019195 0.000000 0.056851 0.000000
# 6 0.000000 0.000000 0.000000 0.003279 0.000000 0.029015
#
#
# Mechanical properties :
#
#
# Convention : Reuss Voigt Hill
#
# Bulk Modulus (GPa) = 38.88988 51.49190 45.19089
# Shear Modulus (GPa) = 22.70797 28.04940 25.37869
#
# Velocity S-wave (km/s) = 3.25528 3.61794 3.44139
# Velocity P-wave (km/s) = 5.68133 6.44064 6.07286
#
# Compressibility (1/GPa) = 0.02571363
#
# Stress axis : x y z
#
# Youngs Moduli (GPa) = 48.80484 96.60191 40.65579
#
# Poissons Ratio (x) = 0.55043 0.34195
# Poissons Ratio (y) = 0.27808 0.03064
# Poissons Ratio (z) = 0.41049 0.07281
#
# Static dielectric constant tensor:
#      x y z
#    x 3.665680 0.000000 -0.091880 
#    y 0.000000 3.812020 0.000000 
#    z -0.091880 0.000000 3.958790 
# 
# 
# High freq. dielectric constant tensor:
#      x y z
#    x 1.824900 0.000000 -0.002740 
#    y 0.000000 1.839750 0.000000 
#    z -0.002740 0.000000 1.850330 
# 
# From -- ./inp_files/122010.got.cif
#   From: 2010.06.25/outbox.cif.g09.slc.cpg/sg12_62_cif.got.tgz:122010.got - 2010.06.28 00:19:55.
