data_PCOD8111098
_publ_section_title
;
Structure prediction by ZEFSAII (Michael W. Deem and Ramdas Pophale) SiO2 
 PCOD8111098
Probable space group: C 2/M
;
_chemical_formula_sum "Si O2"
_cell_formula_units_Z 56
_cell_length_a 19.806550
_cell_length_b 16.830433
_cell_length_c 16.383285
_cell_angle_alpha 90.000000
_cell_angle_beta 34.097634
_cell_angle_gamma 90.000000
_cell_volume 3061.694978
_symmetry_space_group_name_H-M "C 2/M"
_symmetry_group_IT_number 12
_symmetry_cell_setting 'monoclinic'
loop_
_space_group_symop_operation_xyz
x,y,z
-x,y,-z
-x,-y,-z
x,-y,z
1/2+x,1/2+y,z
1/2-x,1/2+y,-z
1/2-x,1/2-y,-z
1/2+x,1/2-y,z
loop_
_atom_site_type_symbol
_atom_site_label
_atom_site_fract_x
_atom_site_fract_y
_atom_site_fract_z
Si Si1 0.496528 0.910044 0.408181
Si Si2 0.264422 0.148168 0.904231
Si Si3 0.353525 0.815204 0.989054
Si Si4 0.741269 0.147240 0.428655
Si Si5 0.857477 0.411392 0.143097
Si Si6 0.637040 0.500000 0.768847
Si Si7 0.355997 0.500000 0.054659
Si Si8 0.141250 0.685136 0.700361
O O1 0.500000 0.919402 0.500000
O O2 0.607469 0.857172 0.267756
O O3 0.379848 0.859998 0.501723
O O4 0.497066 0.000000 0.368897
O O5 0.286371 0.146089 0.979198
O O6 0.183149 0.075567 0.957684
O O7 0.193562 0.226644 0.948247
O O8 0.497372 0.815210 0.832128
O O9 0.312453 0.866776 0.107454
O O10 0.812940 0.225890 0.332507
O O11 0.707177 0.144822 0.557888
O O12 0.828080 0.075426 0.319493
O O13 0.802069 0.500000 0.199952
O O14 0.814996 0.364500 0.265524
O O15 0.000000 0.415793 0.000000
O O16 0.699758 0.500000 0.796814
O O17 0.496892 0.500000 0.922539
#
# Coordination Sequence:
#
# PCOD8111098 Si02
#       8
#     8   8   8   8   8   4   4   8
#     4  11  22  36  58  89 121 155 196 236 300 372
#     4  11  22  38  60  85 122 158 193 242 300 357
#     4  10  22  39  59  87 117 155 202 252 291 348
#     4  11  22  38  60  85 122 158 193 242 300 357
#     4   9  20  36  60  84 111 148 200 248 291 331
#     4  11  24  39  61  90 121 155 194 243 303 363
#     4  11  24  39  61  90 121 155 194 243 303 363
#     4  10  22  39  59  87 117 155 202 252 291 348
#
# _framework density 18.290521999999999
#
# number of rings (size 3 to 8) (size 9 to 14) (size 15 to 20)
#    0.000    1.571    2.857    1.714    6.000    0.000 
#    0.000    0.000    0.000    0.000    0.000    2.000 
#    0.000    0.000    0.000    0.000    0.000    0.000 
#
# Total GULP energy -347221.202789 kJ/mol
# GULP energy per Si atom -12400.757242 kJ/mol
# Density = 1.824889 g / cm^3
# Si number density = 18.290522 Si / 1000 Ang^3
#
#
#
# Elastic Constant Matrix: (Units=GPa)
#
#
# Indices 1 2 3 4 5 6 
#
# 1 102.6625 69.7537 31.3308 0.0000 15.2640 0.0000
# 2 69.7537 132.7990 35.0299 0.0000 19.0945 -0.0001
# 3 31.3308 35.0299 49.2645 0.0000 5.0723 0.0000
# 4 0.0000 0.0000 0.0000 41.5129 0.0001 -7.4631
# 5 15.2640 19.0945 5.0723 0.0001 29.4042 -0.0001
# 6 0.0000 -0.0001 0.0000 -7.4631 -0.0001 45.1832
#
#
#
# Elastic Compliance Matrix: (Units=1/GPa)
#
#
# Indices 1 2 3 4 5 6 
#
# 1 0.016441 -0.006772 -0.005309 0.000000 -0.003221 0.000000
# 2 -0.006772 0.012831 -0.004399 0.000000 -0.004058 0.000000
# 3 -0.005309 -0.004399 0.026699 0.000000 0.001007 0.000000
# 4 0.000000 0.000000 0.000000 0.024826 0.000000 0.004101
# 5 -0.003221 -0.004058 0.001007 0.000000 0.038142 0.000000
# 6 0.000000 0.000000 0.000000 0.004101 0.000000 0.022809
#
#
# Mechanical properties :
#
#
# Convention : Reuss Voigt Hill
#
# Bulk Modulus (GPa) = 43.45717 61.88384 52.67051
# Shear Modulus (GPa) = 27.41526 33.12752 30.27139
#
# Velocity S-wave (km/s) = 3.87573 4.26042 4.07262
# Velocity P-wave (km/s) = 6.62113 7.62292 7.13962
#
# Compressibility (1/GPa) = 0.02301116
#
# Stress axis : x y z
#
# Youngs Moduli (GPa) = 60.82278 77.93490 37.45437
#
# Poissons Ratio (x) = 0.52780 0.19884
# Poissons Ratio (y) = 0.41191 0.16476
# Poissons Ratio (z) = 0.32291 0.34283
#
# Static dielectric constant tensor:
#      x y z
#    x 3.479460 0.000000 0.093520 
#    y 0.000000 3.433040 0.000000 
#    z 0.093520 0.000000 3.412360 
# 
# 
# High freq. dielectric constant tensor:
#      x y z
#    x 1.714500 0.000000 0.009410 
#    y 0.000000 1.717430 0.000000 
#    z 0.009410 0.000000 1.708590 
# 
# From -- ./inp_files/226568.got.cif
#   From: 2010.06.25/outbox.cif.g09.slc.cpg/sg12_114_cif.got.tgz:226568.got - 2010.06.28 00:19:55.
