data_PCOD8111304
_publ_section_title
;
Structure prediction by ZEFSAII (Michael W. Deem and Ramdas Pophale) SiO2 
 PCOD8111304
Probable space group: C 2/M
;
_chemical_formula_sum "Si O2"
_cell_formula_units_Z 44
_cell_length_a 10.956853
_cell_length_b 31.117486
_cell_length_c 8.556584
_cell_angle_alpha 90.000000
_cell_angle_beta 46.275158
_cell_angle_gamma 90.000000
_cell_volume 2108.284896
_symmetry_space_group_name_H-M "C 2/M"
_symmetry_group_IT_number 12
_symmetry_cell_setting 'monoclinic'
loop_
_space_group_symop_operation_xyz
x,y,z
-x,y,-z
-x,-y,-z
x,-y,z
1/2+x,1/2+y,z
1/2-x,1/2+y,-z
1/2-x,1/2-y,-z
1/2+x,1/2-y,z
loop_
_atom_site_type_symbol
_atom_site_label
_atom_site_fract_x
_atom_site_fract_y
_atom_site_fract_z
Si Si1 0.244014 0.820719 0.691375
Si Si2 0.806886 0.949716 0.627810
Si Si3 0.898520 0.813197 0.843211
Si Si4 0.858820 0.381683 0.020153
Si Si5 0.500000 0.752622 0.500000
Si Si6 0.601455 0.908261 0.542826
O O1 0.372932 0.784119 0.517676
O O2 0.320036 0.868178 0.621085
O O3 0.092641 0.823591 0.702581
O O4 0.193161 0.804933 0.910740
O O5 0.748210 0.933727 0.506253
O O6 0.000000 0.938548 0.500000
O O7 0.773554 0.000000 0.667543
O O8 0.688444 0.926977 0.858551
O O9 0.895270 0.774355 0.721799
O O10 0.809390 0.853531 0.840252
O O11 0.946663 0.390933 0.780810
O O12 0.000000 0.357239 0.000000
O O13 0.500000 0.936380 0.500000
#
# Coordination Sequence:
#
# PCOD8111304 Si02
#       6
#     8   8   8   8   4   8
#     4  11  23  43  61  88 130 163 212 265 323 366
#     4  10  23  43  67  97 131 166 210 259 311 380
#     4  11  24  40  63  92 120 170 214 263 314 381
#     4  10  22  39  65  92 125 166 212 257 312 380
#     4  12  24  40  62  90 124 166 216 264 314 374
#     4  11  21  40  68  90 129 169 207 263 318 380
#
# _framework density 20.870045999999999
#
# number of rings (size 3 to 8) (size 9 to 14) (size 15 to 20)
#    0.000    1.273    2.727    2.182    6.364    3.636 
#    6.545    0.000    0.000    2.182    0.000    0.000 
#    0.000    0.000    0.000    0.000    0.000    0.000 
#
# Total GULP energy -272584.248550 kJ/mol
# GULP energy per Si atom -12390.193116 kJ/mol
# Density = 2.082255 g / cm^3
# Si number density = 20.870046 Si / 1000 Ang^3
#
#
#
# Elastic Constant Matrix: (Units=GPa)
#
#
# Indices 1 2 3 4 5 6 
#
# 1 198.0453 69.4808 46.1274 0.0000 -5.9474 0.0000
# 2 69.4808 99.4169 24.8660 0.0000 -10.6748 0.0000
# 3 46.1274 24.8660 56.3631 0.0000 -9.9645 0.0000
# 4 0.0000 0.0000 0.0000 3.1968 0.0000 -5.1211
# 5 -5.9474 -10.6748 -9.9645 0.0000 31.1647 0.0000
# 6 0.0000 0.0000 0.0000 -5.1211 0.0000 37.9548
#
#
#
# Elastic Compliance Matrix: (Units=1/GPa)
#
#
# Indices 1 2 3 4 5 6 
#
# 1 0.007582 -0.004318 -0.004564 0.000000 -0.001491 0.000000
# 2 -0.004318 0.013939 -0.002032 0.000000 0.003301 0.000000
# 3 -0.004564 -0.002032 0.023421 0.000000 0.005921 0.000000
# 4 0.000000 0.000000 0.000000 0.399069 0.000000 0.053844
# 5 -0.001491 0.003301 0.005921 0.000000 0.034827 0.000000
# 6 0.000000 0.000000 0.000000 0.053844 0.000000 0.033612
#
#
# Mechanical properties :
#
#
# Convention : Reuss Voigt Hill
#
# Bulk Modulus (GPa) = 43.26442 70.53043 56.89743
# Shear Modulus (GPa) = 9.22538 28.68667 18.95602
#
# Velocity S-wave (km/s) = 2.10475 3.71150 3.01705
# Velocity P-wave (km/s) = 5.16547 7.22740 6.28162
#
# Compressibility (1/GPa) = 0.02311368
#
# Stress axis : x y z
#
# Youngs Moduli (GPa) = 131.88347 71.74110 42.69692
#
# Poissons Ratio (x) = 0.30976 0.19488
# Poissons Ratio (y) = 0.56944 0.08678
# Poissons Ratio (z) = 0.60194 0.14580
#
# Static dielectric constant tensor:
#      x y z
#    x 4.322280 0.000000 0.021370 
#    y 0.000000 3.502960 0.000000 
#    z 0.021370 0.000000 3.888550 
# 
# 
# High freq. dielectric constant tensor:
#      x y z
#    x 1.847130 0.000000 -0.005170 
#    y 0.000000 1.794740 0.000000 
#    z -0.005170 0.000000 1.816490 
# 
# From -- ./inp_files/52999.got.cif
#   From: 2010.06.25/outbox.cif.g09.slc.cpg/sg12_27_cif.got.tgz:52999.got - 2010.06.28 00:19:55.
