data_PCOD8111184
_publ_section_title
;
Structure prediction by ZEFSAII (Michael W. Deem and Ramdas Pophale) SiO2 
 PCOD8111184
Probable space group: C 2/M
;
_chemical_formula_sum "Si O2"
_cell_formula_units_Z 64
_cell_length_a 23.570768
_cell_length_b 8.810628
_cell_length_c 28.370574
_cell_angle_alpha 90.000000
_cell_angle_beta 32.352631
_cell_angle_gamma 90.000000
_cell_volume 3152.875759
_symmetry_space_group_name_H-M "C 2/M"
_symmetry_group_IT_number 12
_symmetry_cell_setting 'monoclinic'
loop_
_space_group_symop_operation_xyz
x,y,z
-x,y,-z
-x,-y,-z
x,-y,z
1/2+x,1/2+y,z
1/2-x,1/2+y,-z
1/2-x,1/2-y,-z
1/2+x,1/2-y,z
loop_
_atom_site_type_symbol
_atom_site_label
_atom_site_fract_x
_atom_site_fract_y
_atom_site_fract_z
Si Si1 0.159686 0.676659 0.837781
Si Si2 0.693924 0.321696 0.410848
Si Si3 0.970945 0.175891 0.921867
Si Si4 0.851296 0.321284 0.652008
Si Si5 0.221231 0.323112 0.900767
Si Si6 0.418675 0.325424 0.252787
Si Si7 0.960503 0.679121 0.412396
Si Si8 0.962720 0.822823 0.734623
O O1 0.178087 0.500000 0.814016
O O2 0.040274 0.724597 0.909498
O O3 0.235839 0.774600 0.751160
O O4 0.182049 0.715290 0.875980
O O5 0.680299 0.500000 0.421016
O O6 0.627930 0.254735 0.413135
O O7 0.816940 0.280656 0.320594
O O8 0.646283 0.252880 0.492237
O O9 0.004415 0.208418 0.844850
O O10 0.983043 0.000000 0.926462
O O11 0.849520 0.228574 0.012801
O O12 0.855590 0.500000 0.641833
O O13 0.939182 0.264304 0.627274
O O14 0.210657 0.500000 0.920095
O O15 0.341584 0.266782 0.821777
O O16 0.380827 0.500000 0.279594
O O17 0.483595 0.283876 0.253713
O O18 0.948462 0.500000 0.422363
O O19 0.974005 0.732059 0.349516
O O20 0.967364 0.000000 0.718819
#
# Coordination Sequence:
#
# PCOD8111184 Si02
#       8
#     8   8   8   8   8   8   8   8
#     4  11  21  36  61  91 123 159 199 248 305 364
#     4  12  25  40  64  93 123 162 205 248 299 364
#     4  11  23  38  60  90 124 163 205 248 302 365
#     4  11  22  38  62  92 126 160 195 245 307 366
#     4  10  22  39  61  90 124 159 201 252 304 360
#     4  10  23  43  64  87 121 162 206 258 308 355
#     4  11  24  41  64  93 126 160 198 250 307 363
#     4  10  22  43  66  88 119 162 208 255 306 360
#
# _framework density 20.298929999999999
#
# number of rings (size 3 to 8) (size 9 to 14) (size 15 to 20)
#    0.000    1.250    2.500    3.375    0.000    8.000 
#    0.000    0.000    0.000    0.000    0.000    0.000 
#    0.000    0.000    0.000    0.000    0.000    0.000 
#
# Total GULP energy -397053.056745 kJ/mol
# GULP energy per Si atom -12407.908023 kJ/mol
# Density = 2.025273 g / cm^3
# Si number density = 20.298930 Si / 1000 Ang^3
#
#
#
# Elastic Constant Matrix: (Units=GPa)
#
#
# Indices 1 2 3 4 5 6 
#
# 1 108.7806 43.5673 29.9729 -0.0453 13.9359 0.0491
# 2 43.5673 87.0107 41.5636 -0.0139 12.6281 0.0166
# 3 29.9729 41.5636 106.7949 0.0102 19.3729 -0.0203
# 4 -0.0453 -0.0139 0.0102 37.3098 -0.0100 5.7964
# 5 13.9359 12.6281 19.3729 -0.0100 13.7998 0.0131
# 6 0.0491 0.0166 -0.0203 5.7964 0.0131 21.6408
#
#
#
# Elastic Compliance Matrix: (Units=1/GPa)
#
#
# Indices 1 2 3 4 5 6 
#
# 1 0.012178 -0.004937 -0.000114 0.000015 -0.007620 -0.000023
# 2 -0.004937 0.016639 -0.004337 0.000001 -0.004152 -0.000003
# 3 -0.000114 -0.004337 0.013877 -0.000014 -0.015397 0.000030
# 4 0.000015 0.000001 -0.000014 0.027966 0.000032 -0.007491
# 5 -0.007620 -0.004152 -0.015397 0.000032 0.105574 -0.000067
# 6 -0.000023 -0.000003 0.000030 -0.007491 -0.000067 0.048216
#
#
# Mechanical properties :
#
#
# Convention : Reuss Voigt Hill
#
# Bulk Modulus (GPa) = 41.81068 59.19932 50.50500
# Shear Modulus (GPa) = 19.90453 27.04891 23.47672
#
# Velocity S-wave (km/s) = 3.13480 3.65434 3.40450
# Velocity P-wave (km/s) = 5.80903 6.85804 6.35522
#
# Compressibility (1/GPa) = 0.02391733
#
# Stress axis : x y z
#
# Youngs Moduli (GPa) = 82.11666 60.09883 72.06311
#
# Poissons Ratio (x) = 0.29672 0.00822
# Poissons Ratio (y) = 0.40543 0.31253
# Poissons Ratio (z) = 0.00937 0.26065
#
# Static dielectric constant tensor:
#      x y z
#    x 3.693330 -0.000060 0.020510 
#    y -0.000060 3.587990 0.000060 
#    z 0.020510 0.000060 3.741180 
# 
# 
# High freq. dielectric constant tensor:
#      x y z
#    x 1.790340 0.000000 0.004450 
#    y 0.000000 1.792570 0.000000 
#    z 0.004450 0.000000 1.804880 
# 
# From -- ./inp_files/382382.got.cif
#   From: 2010.06.25/outbox.cif.g09.slc.cpg/sg12_192_cif.got.tgz:382382.got - 2010.06.28 00:19:55.
