data_PCOD8111428
_publ_section_title
;
Structure prediction by ZEFSAII (Michael W. Deem and Ramdas Pophale) SiO2 
 PCOD8111428
Probable space group: C 2/M
;
_chemical_formula_sum "Si O2"
_cell_formula_units_Z 56
_cell_length_a 19.812154
_cell_length_b 9.048816
_cell_length_c 17.194395
_cell_angle_alpha 90.000000
_cell_angle_beta 65.643951
_cell_angle_gamma 90.000000
_cell_volume 2808.205352
_symmetry_space_group_name_H-M "C 2/M"
_symmetry_group_IT_number 12
_symmetry_cell_setting 'monoclinic'
loop_
_space_group_symop_operation_xyz
x,y,z
-x,y,-z
-x,-y,-z
x,-y,z
1/2+x,1/2+y,z
1/2-x,1/2+y,-z
1/2-x,1/2-y,-z
1/2+x,1/2-y,z
loop_
_atom_site_type_symbol
_atom_site_label
_atom_site_fract_x
_atom_site_fract_y
_atom_site_fract_z
Si Si1 0.107485 0.830069 0.235390
Si Si2 0.336955 0.330910 0.092761
Si Si3 0.941202 0.832520 0.307344
Si Si4 0.244956 0.169602 0.266436
Si Si5 0.020575 0.164497 0.882556
Si Si6 0.626139 0.173352 0.071204
Si Si7 0.703804 0.825937 0.588855
O O1 0.157590 0.810618 0.288377
O O2 0.144778 0.737956 0.147358
O O3 0.023646 0.776813 0.292863
O O4 0.103904 0.000000 0.209280
O O5 0.313381 0.500000 0.092924
O O6 0.291191 0.265551 0.184931
O O7 0.424735 0.315200 0.070404
O O8 0.320838 0.245117 0.019913
O O9 0.931320 0.821410 0.219097
O O10 0.881153 0.727226 0.376026
O O11 0.927862 0.000000 0.342703
O O12 0.259253 0.223385 0.347154
O O13 0.269932 0.000000 0.244729
O O14 0.958422 0.289668 0.911171
O O15 0.983890 0.000000 0.902702
O O16 0.639245 0.000000 0.065817
O O17 0.750000 0.750000 0.500000
O O18 0.706279 0.000000 0.575851
#
# Coordination Sequence:
#
# PCOD8111428 Si02
#       7
#     8   8   8   8   8   8   8
#     4   9  20  40  61  81 114 157 196 233 281 341
#     4  11  21  34  54  79 113 155 196 239 289 339
#     4   9  17  35  61  86 112 148 189 231 281 339
#     4  10  22  40  61  86 114 148 192 241 286 333
#     4   9  18  33  53  78 111 152 195 236 285 341
#     4  11  22  33  50  80 115 153 198 244 283 328
#     4  11  23  39  63  92 119 145 180 230 286 343
#
# _framework density 19.941559999999999
#
# number of rings (size 3 to 8) (size 9 to 14) (size 15 to 20)
#    0.000    2.000    1.429    3.429    0.000    6.857 
#    0.000    0.714    0.000    4.286    0.000    0.000 
#    0.000    0.000    0.000    0.000    0.000    0.000 
#
# Total GULP energy -347220.706645 kJ/mol
# GULP energy per Si atom -12400.739523 kJ/mol
# Density = 1.989617 g / cm^3
# Si number density = 19.941560 Si / 1000 Ang^3
#
#
#
# Elastic Constant Matrix: (Units=GPa)
#
#
# Indices 1 2 3 4 5 6 
#
# 1 86.5100 35.4128 42.1936 0.0000 9.9603 0.0000
# 2 35.4128 107.2386 64.8243 0.0000 -2.1630 0.0000
# 3 42.1936 64.8243 124.6719 0.0000 -0.6943 0.0000
# 4 0.0000 0.0000 0.0000 34.8565 0.0000 -4.3568
# 5 9.9603 -2.1630 -0.6943 0.0000 11.9075 0.0000
# 6 0.0000 0.0000 0.0000 -4.3568 0.0000 23.4764
#
#
#
# Elastic Compliance Matrix: (Units=1/GPa)
#
#
# Indices 1 2 3 4 5 6 
#
# 1 0.016551 -0.003393 -0.003919 0.000000 -0.014689 0.000000
# 2 -0.003393 0.014345 -0.006283 0.000000 0.005077 0.000000
# 3 -0.003919 -0.006283 0.012630 0.000000 0.002873 0.000000
# 4 0.000000 0.000000 0.000000 0.029370 0.000000 0.005451
# 5 -0.014689 0.005077 0.002873 0.000000 0.097358 0.000000
# 6 0.000000 0.000000 0.000000 0.005451 0.000000 0.043607
#
#
# Mechanical properties :
#
#
# Convention : Reuss Voigt Hill
#
# Bulk Modulus (GPa) = 61.20844 67.03134 64.11989
# Shear Modulus (GPa) = 20.28423 25.78073 23.03248
#
# Velocity S-wave (km/s) = 3.19279 3.59947 3.40221
# Velocity P-wave (km/s) = 6.65976 7.13875 6.90341
#
# Compressibility (1/GPa) = 0.01633762
#
# Stress axis : x y z
#
# Youngs Moduli (GPa) = 60.41967 69.70828 79.17569
#
# Poissons Ratio (x) = 0.23650 0.31030
# Poissons Ratio (y) = 0.20499 0.49743
# Poissons Ratio (z) = 0.23680 0.43795
#
# Static dielectric constant tensor:
#      x y z
#    x 3.757910 0.000000 0.063000 
#    y 0.000000 3.530470 0.000000 
#    z 0.063000 0.000000 3.442710 
# 
# 
# High freq. dielectric constant tensor:
#      x y z
#    x 1.781130 0.000000 -0.000390 
#    y 0.000000 1.771910 0.000000 
#    z -0.000390 0.000000 1.759840 
# 
# From -- ./inp_files/280977.got.cif
#   From: 2010.06.25/outbox.cif.g09.slc.cpg/sg12_141_cif.got.tgz:280977.got - 2010.06.28 00:19:55.
