data_PCOD8111165
_publ_section_title
;
Structure prediction by ZEFSAII (Michael W. Deem and Ramdas Pophale) SiO2 
 PCOD8111165
Probable space group: C 2/M
;
_chemical_formula_sum "Si O2"
_cell_formula_units_Z 56
_cell_length_a 15.772456
_cell_length_b 17.632613
_cell_length_c 10.490593
_cell_angle_alpha 90.000000
_cell_angle_beta 109.345105
_cell_angle_gamma 90.000000
_cell_volume 2752.812110
_symmetry_space_group_name_H-M "C 2/M"
_symmetry_group_IT_number 12
_symmetry_cell_setting 'monoclinic'
loop_
_space_group_symop_operation_xyz
x,y,z
-x,y,-z
-x,-y,-z
x,-y,z
1/2+x,1/2+y,z
1/2-x,1/2+y,-z
1/2-x,1/2-y,-z
1/2+x,1/2-y,z
loop_
_atom_site_type_symbol
_atom_site_label
_atom_site_fract_x
_atom_site_fract_y
_atom_site_fract_z
Si Si1 0.562482 0.810995 0.413017
Si Si2 0.714657 0.913485 0.571004
Si Si3 0.899888 0.136266 0.571052
Si Si4 0.951158 0.676612 0.101763
Si Si5 0.169906 0.190061 0.957271
Si Si6 0.905560 0.913393 0.290859
Si Si7 0.707522 0.086135 0.857030
O O1 0.500000 0.836206 0.500000
O O2 0.650356 0.863721 0.450229
O O3 0.592968 0.725368 0.450205
O O4 0.515873 0.822605 0.254778
O O5 0.816100 0.882681 0.618845
O O6 0.678357 0.905858 0.696568
O O7 0.710911 0.000000 0.521793
O O8 0.883563 0.095581 0.428332
O O9 0.989618 0.104961 0.682959
O O10 0.920069 0.763060 0.056072
O O11 0.867246 0.622595 0.089015
O O12 0.000000 0.644843 0.000000
O O13 0.157091 0.145795 0.816878
O O14 0.250000 0.250000 0.000000
O O15 0.195710 0.127146 0.075379
O O16 0.885376 0.000000 0.239137
O O17 0.719238 0.000000 0.904528
#
# Coordination Sequence:
#
# PCOD8111165 Si02
#       7
#     8   8   8   8   8   8   8
#     4  12  22  43  70  95 132 176 218 265 333 391
#     4  11  25  41  64  97 132 169 218 271 327 394
#     4  11  22  40  65  96 130 165 218 272 329 390
#     4  11  24  42  65  94 126 168 217 267 315 383
#     4  10  22  39  61  87 128 166 210 256 320 383
#     4  11  21  38  66  96 131 170 213 275 334 386
#     4  10  23  42  63  90 127 168 211 264 322 384
#
# _framework density 20.342835000000001
#
# number of rings (size 3 to 8) (size 9 to 14) (size 15 to 20)
#    0.000    1.143    4.286    2.571    4.000    3.429 
#    0.000    1.429    0.000    3.429    0.000    0.000 
#    0.000    0.000    0.000    0.000    0.000    0.000 
#
# Total GULP energy -347185.414412 kJ/mol
# GULP energy per Si atom -12399.479086 kJ/mol
# Density = 2.029653 g / cm^3
# Si number density = 20.342835 Si / 1000 Ang^3
#
#
#
# Elastic Constant Matrix: (Units=GPa)
#
#
# Indices 1 2 3 4 5 6 
#
# 1 97.9721 38.5832 40.3726 0.0000 -6.7633 0.0000
# 2 38.5832 120.6794 52.9911 0.0000 14.1434 0.0000
# 3 40.3726 52.9911 113.5585 0.0000 15.7465 0.0000
# 4 0.0000 0.0000 0.0000 32.8588 0.0000 8.5424
# 5 -6.7633 14.1434 15.7465 0.0000 25.2342 0.0000
# 6 0.0000 0.0000 0.0000 8.5424 0.0000 21.6975
#
#
#
# Elastic Compliance Matrix: (Units=1/GPa)
#
#
# Indices 1 2 3 4 5 6 
#
# 1 0.014051 -0.003498 -0.004551 0.000000 0.008567 0.000000
# 2 -0.003498 0.011515 -0.003399 0.000000 -0.005271 0.000000
# 3 -0.004551 -0.003399 0.013044 0.000000 -0.007454 0.000000
# 4 0.000000 0.000000 0.000000 0.033903 0.000000 -0.013348
# 5 0.008567 -0.005271 -0.007454 0.000000 0.049530 0.000000
# 6 0.000000 0.000000 0.000000 -0.013348 0.000000 0.051343
#
#
# Mechanical properties :
#
#
# Convention : Reuss Voigt Hill
#
# Bulk Modulus (GPa) = 63.63750 66.23375 64.93563
# Shear Modulus (GPa) = 24.81126 29.30899 27.06013
#
# Velocity S-wave (km/s) = 3.49615 3.79984 3.65115
# Velocity P-wave (km/s) = 6.90274 7.20286 7.05440
#
# Compressibility (1/GPa) = 0.01571400
#
# Stress axis : x y z
#
# Youngs Moduli (GPa) = 71.16728 86.84347 76.66496
#
# Poissons Ratio (x) = 0.30378 0.34891
# Poissons Ratio (y) = 0.24894 0.26058
# Poissons Ratio (z) = 0.32389 0.29517
#
# Static dielectric constant tensor:
#      x y z
#    x 3.647060 0.000000 0.181310 
#    y 0.000000 3.955440 0.000000 
#    z 0.181310 0.000000 3.682130 
# 
# 
# High freq. dielectric constant tensor:
#      x y z
#    x 1.781000 0.000000 0.013750 
#    y 0.000000 1.809370 0.000000 
#    z 0.013750 0.000000 1.795030 
# 
# From -- ./inp_files/146257.got.cif
#   From: 2010.06.25/outbox.cif.g09.slc.cpg/sg12_74_cif.got.tgz:146257.got - 2010.06.28 00:19:55.
