data_PCOD8111048
_publ_section_title
;
Structure prediction by ZEFSAII (Michael W. Deem and Ramdas Pophale) SiO2 
 PCOD8111048
Probable space group: C 2/M
;
_chemical_formula_sum "Si O2"
_cell_formula_units_Z 64
_cell_length_a 14.309419
_cell_length_b 18.353236
_cell_length_c 23.045823
_cell_angle_alpha 90.000000
_cell_angle_beta 146.163936
_cell_angle_gamma 90.000000
_cell_volume 3370.082805
_symmetry_space_group_name_H-M "C 2/M"
_symmetry_group_IT_number 12
_symmetry_cell_setting 'monoclinic'
loop_
_space_group_symop_operation_xyz
x,y,z
-x,y,-z
-x,-y,-z
x,-y,z
1/2+x,1/2+y,z
1/2-x,1/2+y,-z
1/2-x,1/2-y,-z
1/2+x,1/2-y,z
loop_
_atom_site_type_symbol
_atom_site_label
_atom_site_fract_x
_atom_site_fract_y
_atom_site_fract_z
Si Si1 0.201202 0.851182 0.791535
Si Si2 0.172359 0.203892 0.118596
Si Si3 0.696438 0.917346 0.593133
Si Si4 0.447222 0.083147 0.837865
Si Si5 0.720797 0.416402 0.926389
Si Si6 0.487039 0.790472 0.775406
Si Si7 0.155541 0.207472 0.401060
Si Si8 0.092645 0.849970 0.196306
O O1 0.338035 0.786996 0.864951
O O2 0.280326 0.913329 0.791711
O O3 0.165297 0.877490 0.838179
O O4 0.029533 0.819754 0.675350
O O5 0.326974 0.195355 0.154028
O O6 0.189302 0.154046 0.184841
O O7 0.000000 0.180792 0.000000
O O8 0.500000 0.917816 0.500000
O O9 0.740970 0.864861 0.562402
O O10 0.777418 0.885533 0.692745
O O11 0.761870 0.000000 0.614964
O O12 0.423319 0.133302 0.769022
O O13 0.473523 0.000000 0.831031
O O14 0.605762 0.112416 0.956939
O O15 0.744383 0.500000 0.923460
O O16 0.570252 0.402215 0.893930
O O17 0.360322 0.765394 0.659491
O O18 0.481060 0.728510 0.821756
O O19 0.250000 0.250000 0.500000
#
# Coordination Sequence:
#
# PCOD8111048 Si02
#       8
#     8   8   8   8   8   8   8   8
#     4  11  21  35  59  89 118 157 193 249 298 346
#     4  11  21  33  56  87 118 152 197 239 285 352
#     4  10  22  39  62  87 112 148 196 251 305 350
#     4  11  23  37  58  87 127 167 198 236 294 365
#     4  11  21  36  58  90 125 159 200 246 294 350
#     4  10  22  39  57  86 116 159 198 240 304 350
#     4  10  23  40  64  89 117 148 197 258 304 352
#     4  11  21  36  60  85 118 154 196 254 291 356
#
# _framework density 18.990631
#
# number of rings (size 3 to 8) (size 9 to 14) (size 15 to 20)
#    0.000    1.375    5.000    2.625    3.500    2.500 
#    0.000    1.875    0.000    4.125    0.000    0.000 
#    0.000    0.000    0.000    0.000    0.000    0.000 
#
# Total GULP energy -396746.127850 kJ/mol
# GULP energy per Si atom -12398.316495 kJ/mol
# Density = 1.894741 g / cm^3
# Si number density = 18.990631 Si / 1000 Ang^3
#
#
#
# Elastic Constant Matrix: (Units=GPa)
#
#
# Indices 1 2 3 4 5 6 
#
# 1 90.6950 40.2560 31.9582 0.0001 3.6045 0.0000
# 2 40.2560 100.2462 47.3687 0.0000 -5.5204 -0.0001
# 3 31.9582 47.3687 88.6399 -0.0004 -4.2919 -0.0003
# 4 0.0001 0.0000 -0.0004 22.5462 -0.0001 -3.5398
# 5 3.6045 -5.5204 -4.2919 -0.0001 21.5035 0.0000
# 6 0.0000 -0.0001 -0.0003 -3.5398 0.0000 26.1835
#
#
#
# Elastic Compliance Matrix: (Units=1/GPa)
#
#
# Indices 1 2 3 4 5 6 
#
# 1 0.014242 -0.004583 -0.002886 0.000000 -0.004140 0.000000
# 2 -0.004583 0.014908 -0.006151 0.000000 0.003368 0.000000
# 3 -0.002886 -0.006151 0.015708 0.000000 0.002040 0.000000
# 4 0.000000 0.000000 0.000000 0.045315 0.000000 0.006126
# 5 -0.004140 0.003368 0.002040 0.000000 0.048470 0.000000
# 6 0.000000 0.000000 0.000000 0.006126 0.000000 0.039020
#
#
# Mechanical properties :
#
#
# Convention : Reuss Voigt Hill
#
# Bulk Modulus (GPa) = 56.76368 57.63854 57.20111
# Shear Modulus (GPa) = 23.72184 24.71318 24.21751
#
# Velocity S-wave (km/s) = 3.53814 3.61132 3.57492
# Velocity P-wave (km/s) = 6.82983 6.91417 6.87213
#
# Compressibility (1/GPa) = 0.01761690
#
# Stress axis : x y z
#
# Youngs Moduli (GPa) = 70.21596 67.07774 63.66190
#
# Poissons Ratio (x) = 0.30745 0.18372
# Poissons Ratio (y) = 0.32183 0.39160
# Poissons Ratio (z) = 0.20263 0.41261
#
# Static dielectric constant tensor:
#      x y z
#    x 3.461260 0.000000 0.094600 
#    y 0.000000 3.558130 0.000000 
#    z 0.094600 0.000000 3.352260 
# 
# 
# High freq. dielectric constant tensor:
#      x y z
#    x 1.735330 0.000000 0.012840 
#    y 0.000000 1.736220 0.000000 
#    z 0.012840 0.000000 1.727730 
# 
# From -- ./inp_files/340809.got.cif
#   From: 2010.06.25/outbox.cif.g09.slc.cpg/sg12_171_cif.got.tgz:340809.got - 2010.06.28 00:19:55.
