data_PCOD8111359
_publ_section_title
;
Structure prediction by ZEFSAII (Michael W. Deem and Ramdas Pophale) SiO2 
 PCOD8111359
Probable space group: C 2/M
;
_chemical_formula_sum "Si O2"
_cell_formula_units_Z 44
_cell_length_a 9.531122
_cell_length_b 28.154639
_cell_length_c 8.932545
_cell_angle_alpha 90.000000
_cell_angle_beta 72.373008
_cell_angle_gamma 90.000000
_cell_volume 2284.462491
_symmetry_space_group_name_H-M "C 2/M"
_symmetry_group_IT_number 12
_symmetry_cell_setting 'monoclinic'
loop_
_space_group_symop_operation_xyz
x,y,z
-x,y,-z
-x,-y,-z
x,-y,z
1/2+x,1/2+y,z
1/2-x,1/2+y,-z
1/2-x,1/2-y,-z
1/2+x,1/2-y,z
loop_
_atom_site_type_symbol
_atom_site_label
_atom_site_fract_x
_atom_site_fract_y
_atom_site_fract_z
Si Si1 0.000000 0.623688 0.000000
Si Si2 0.512838 0.712268 0.824840
Si Si3 0.962380 0.552680 0.756110
Si Si4 0.642903 0.651278 0.542980
Si Si5 0.234200 0.552730 0.467022
Si Si6 0.202429 0.694850 0.771212
O O1 0.136642 0.654520 0.899206
O O2 0.931347 0.590996 0.892972
O O3 0.627763 0.676045 0.709461
O O4 0.352747 0.713724 0.797983
O O5 0.581437 0.764455 0.793367
O O6 0.500000 0.695515 0.000000
O O7 0.930674 0.500000 0.830569
O O8 0.856380 0.563579 0.652635
O O9 0.130027 0.555318 0.645351
O O10 0.500000 0.665999 0.500000
O O11 0.646249 0.594278 0.558898
O O12 0.777259 0.672822 0.402354
O O13 0.307806 0.500000 0.435496
#
# Coordination Sequence:
#
# PCOD8111359 Si02
#       6
#     4   8   8   8   8   8
#     4  12  21  34  62  88 122 144 199 232 296 338
#     4  11  24  41  60  82 119 150 200 241 289 338
#     4   9  19  34  56  86 118 150 186 236 285 341
#     4  10  22  40  59  84 115 154 195 232 288 349
#     4   9  18  36  58  84 115 150 191 233 287 341
#     4  11  24  40  58  88 115 158 189 242 290 348
#
# _framework density 19.260548
#
# number of rings (size 3 to 8) (size 9 to 14) (size 15 to 20)
#    0.000    1.818    2.727    2.455    2.545    0.364 
#    0.000    0.000    0.000    0.545    0.000    0.000 
#    0.000    0.000    0.000    0.000    0.000    0.000 
#
# Total GULP energy -272748.346233 kJ/mol
# GULP energy per Si atom -12397.652102 kJ/mol
# Density = 1.921671 g / cm^3
# Si number density = 19.260548 Si / 1000 Ang^3
#
#
#
# Elastic Constant Matrix: (Units=GPa)
#
#
# Indices 1 2 3 4 5 6 
#
# 1 55.7773 37.1446 30.2082 0.0000 -3.4034 0.0000
# 2 37.1446 141.8396 81.8087 0.0000 0.4278 0.0000
# 3 30.2082 81.8087 144.8367 0.0000 -3.3958 0.0000
# 4 0.0000 0.0000 0.0000 41.4753 0.0000 -1.3456
# 5 -3.4034 0.4278 -3.3958 0.0000 19.3411 0.0000
# 6 0.0000 0.0000 0.0000 -1.3456 0.0000 28.5733
#
#
#
# Elastic Compliance Matrix: (Units=1/GPa)
#
#
# Indices 1 2 3 4 5 6 
#
# 1 0.022356 -0.004786 -0.001873 0.000000 0.003711 0.000000
# 2 -0.004786 0.011513 -0.005553 0.000000 -0.002072 0.000000
# 3 -0.001873 -0.005553 0.010470 0.000000 0.001632 0.000000
# 4 0.000000 0.000000 0.000000 0.024148 0.000000 0.001137
# 5 0.003711 -0.002072 0.001632 0.000000 0.052689 0.000000
# 6 0.000000 0.000000 0.000000 0.001137 0.000000 0.035051
#
#
# Mechanical properties :
#
#
# Convention : Reuss Voigt Hill
#
# Bulk Modulus (GPa) = 50.21209 71.19740 60.70474
# Shear Modulus (GPa) = 26.69694 30.76407 28.73051
#
# Velocity S-wave (km/s) = 3.72707 4.00091 3.86641
# Velocity P-wave (km/s) = 6.68191 7.64125 7.17762
#
# Compressibility (1/GPa) = 0.01991552
#
# Stress axis : x y z
#
# Youngs Moduli (GPa) = 44.73062 86.86128 95.51325
#
# Poissons Ratio (x) = 0.41569 0.17886
# Poissons Ratio (y) = 0.21407 0.53040
# Poissons Ratio (z) = 0.08376 0.48235
#
# Static dielectric constant tensor:
#      x y z
#    x 3.177100 0.000000 -0.051160 
#    y 0.000000 3.613400 0.000000 
#    z -0.051160 0.000000 3.875700 
# 
# 
# High freq. dielectric constant tensor:
#      x y z
#    x 1.723140 0.000000 0.003420 
#    y 0.000000 1.762850 0.000000 
#    z 0.003420 0.000000 1.757810 
# 
# From -- ./inp_files/51189.got.cif
#   From: 2010.06.25/outbox.cif.g09.slc.cpg/sg12_26_cif.got.tgz:51189.got - 2010.06.28 00:19:55.
