data_PCOD8111650
_publ_section_title
;
Structure prediction by ZEFSAII (Michael W. Deem and Ramdas Pophale) SiO2 
 PCOD8111650
Probable space group: C 2/M
;
_chemical_formula_sum "Si O2"
_cell_formula_units_Z 48
_cell_length_a 9.913946
_cell_length_b 26.313581
_cell_length_c 15.503330
_cell_angle_alpha 90.000000
_cell_angle_beta 37.084329
_cell_angle_gamma 90.000000
_cell_volume 2438.717383
_symmetry_space_group_name_H-M "C 2/M"
_symmetry_group_IT_number 12
_symmetry_cell_setting 'monoclinic'
loop_
_space_group_symop_operation_xyz
x,y,z
-x,y,-z
-x,-y,-z
x,-y,z
1/2+x,1/2+y,z
1/2-x,1/2+y,-z
1/2-x,1/2-y,-z
1/2+x,1/2-y,z
loop_
_atom_site_type_symbol
_atom_site_label
_atom_site_fract_x
_atom_site_fract_y
_atom_site_fract_z
Si Si1 0.286167 0.658636 0.668882
Si Si2 0.986571 0.141654 0.148333
Si Si3 0.250009 0.709438 0.858634
Si Si4 0.685366 0.825326 0.159380
Si Si5 0.246307 0.057927 0.628683
Si Si6 0.067643 0.055017 0.366622
O O1 0.500000 0.662110 0.500000
O O2 0.299848 0.703997 0.731405
O O3 0.271145 0.603986 0.726972
O O4 0.075938 0.664352 0.713514
O O5 0.062826 0.178040 0.186392
O O6 0.763370 0.163123 0.216569
O O7 0.920411 0.087220 0.221218
O O8 0.184584 0.139152 0.976201
O O9 0.259816 0.766703 0.888537
O O10 0.000000 0.687510 0.000000
O O11 0.500000 0.079817 0.500000
O O12 0.153135 0.062698 0.579013
O O13 0.248498 0.000000 0.660347
O O14 0.000000 0.053208 0.500000
O O15 0.180968 0.000000 0.284568
#
# Coordination Sequence:
#
# PCOD8111650 Si02
#       6
#     8   8   8   8   8   8
#     4  11  24  39  61  96 128 161 209 272 320 375
#     4  11  22  38  64  94 118 168 213 260 308 388
#     4  12  21  42  68  87 121 176 217 257 317 383
#     4  11  24  40  62  89 125 165 218 258 318 376
#     4  10  22  40  64  95 130 166 204 259 327 385
#     4   9  19  38  61  87 119 160 205 246 308 381
#
# _framework density 19.682478
#
# number of rings (size 3 to 8) (size 9 to 14) (size 15 to 20)
#    0.000    1.333    5.000    1.500    4.667    0.667 
#    0.000    4.167    0.000    3.000    0.000    0.000 
#    0.000    0.000    0.000    0.000    0.000    0.000 
#
# Total GULP energy -297494.984280 kJ/mol
# GULP energy per Si atom -12395.624345 kJ/mol
# Density = 1.963768 g / cm^3
# Si number density = 19.682478 Si / 1000 Ang^3
#
#
#
# Elastic Constant Matrix: (Units=GPa)
#
#
# Indices 1 2 3 4 5 6 
#
# 1 159.8387 37.5112 55.3702 0.0000 -19.2538 0.0000
# 2 37.5112 94.1346 47.7861 0.0000 -3.1352 0.0000
# 3 55.3702 47.7861 103.4912 0.0000 -8.4801 0.0000
# 4 0.0000 0.0000 0.0000 20.7985 0.0000 -6.8134
# 5 -19.2538 -3.1352 -8.4801 0.0000 31.4225 0.0000
# 6 0.0000 0.0000 0.0000 -6.8134 0.0000 25.3646
#
#
#
# Elastic Compliance Matrix: (Units=1/GPa)
#
#
# Indices 1 2 3 4 5 6 
#
# 1 0.008260 -0.001412 -0.003440 0.000000 0.003992 0.000000
# 2 -0.001412 0.014121 -0.005849 0.000000 -0.001035 0.000000
# 3 -0.003440 -0.005849 0.014300 0.000000 0.001168 0.000000
# 4 0.000000 0.000000 0.000000 0.052720 0.000000 0.014161
# 5 0.003992 -0.001035 0.001168 0.000000 0.034482 0.000000
# 6 0.000000 0.000000 0.000000 0.014161 0.000000 0.043229
#
#
# Mechanical properties :
#
#
# Convention : Reuss Voigt Hill
#
# Bulk Modulus (GPa) = 65.45711 70.97773 68.21742
# Shear Modulus (GPa) = 25.82537 29.97023 27.89780
#
# Velocity S-wave (km/s) = 3.62622 3.90639 3.76891
# Velocity P-wave (km/s) = 7.13172 7.51573 7.32624
#
# Compressibility (1/GPa) = 0.01527718
#
# Stress axis : x y z
#
# Youngs Moduli (GPa) = 121.05981 70.81796 69.93096
#
# Poissons Ratio (x) = 0.10001 0.24058
# Poissons Ratio (y) = 0.17097 0.40905
# Poissons Ratio (z) = 0.41648 0.41424
#
# Static dielectric constant tensor:
#      x y z
#    x 3.957080 0.000000 -0.076550 
#    y 0.000000 4.026580 0.000000 
#    z -0.076550 0.000000 3.245380 
# 
# 
# High freq. dielectric constant tensor:
#      x y z
#    x 1.797060 0.000000 -0.000700 
#    y 0.000000 1.764640 0.000000 
#    z -0.000700 0.000000 1.732240 
# 
# From -- ./inp_files/200131.got.cif
#   From: 2010.06.25/outbox.cif.g09.slc.cpg/sg12_101_cif.got.tgz:200131.got - 2010.06.28 00:19:55.
