data_PCOD8111624
_publ_section_title
;
Structure prediction by ZEFSAII (Michael W. Deem and Ramdas Pophale) SiO2 
 PCOD8111624
Probable space group: C 2/M
;
_chemical_formula_sum "Si O2"
_cell_formula_units_Z 40
_cell_length_a 21.740000
_cell_length_b 15.369458
_cell_length_c 5.264451
_cell_angle_alpha 90.000000
_cell_angle_beta 78.061736
_cell_angle_gamma 90.000000
_cell_volume 1720.975852
_symmetry_space_group_name_H-M "C 2/M"
_symmetry_group_IT_number 12
_symmetry_cell_setting 'monoclinic'
loop_
_space_group_symop_operation_xyz
x,y,z
-x,y,-z
-x,-y,-z
x,-y,z
1/2+x,1/2+y,z
1/2-x,1/2+y,-z
1/2-x,1/2-y,-z
1/2+x,1/2-y,z
loop_
_atom_site_type_symbol
_atom_site_label
_atom_site_fract_x
_atom_site_fract_y
_atom_site_fract_z
Si Si1 0.267009 0.156198 0.266951
Si Si2 0.564767 0.403112 0.095018
Si Si3 0.669036 0.097225 0.267405
Si Si4 0.842126 0.813827 0.312294
Si Si5 0.430780 0.232684 0.580181
O O1 0.302157 0.116149 0.481889
O O2 0.192390 0.153856 0.397553
O O3 0.290066 0.256763 0.202163
O O4 0.278352 0.102678 0.999889
O O5 0.567684 0.500000 0.215161
O O6 0.566071 0.328246 0.301673
O O7 0.500000 0.392720 0.000000
O O8 0.627567 0.393262 0.867676
O O9 0.612767 0.162991 0.236249
O O10 0.641559 0.000000 0.294323
O O11 0.900139 0.748955 0.330104
O O12 0.500000 0.191750 0.500000
#
# Coordination Sequence:
#
# PCOD8111624 Si02
#       5
#     8   8   8   8   8
#     4  10  23  41  68  94 131 172 215 266 322 381
#     4  11  23  39  61  92 127 166 217 267 321 386
#     4  11  24  43  67  99 133 170 217 268 322 386
#     4  10  22  40  64  91 126 171 219 260 323 386
#     4  11  23  41  66  91 129 172 213 269 327 382
#
# _framework density 23.242625
#
# number of rings (size 3 to 8) (size 9 to 14) (size 15 to 20)
#    0.000    1.400    4.000    0.600    2.800    5.600 
#    0.000    0.000    0.000    4.200    0.000    0.000 
#    0.000    0.000    0.000    0.000    0.000    0.000 
#
# Total GULP energy -247879.368323 kJ/mol
# GULP energy per Si atom -12393.968416 kJ/mol
# Density = 2.318972 g / cm^3
# Si number density = 23.242625 Si / 1000 Ang^3
#
#
#
# Elastic Constant Matrix: (Units=GPa)
#
#
# Indices 1 2 3 4 5 6 
#
# 1 84.4328 9.9277 8.8670 0.0000 -22.5889 0.0000
# 2 9.9277 123.6526 16.1449 0.0000 -3.9516 0.0000
# 3 8.8670 16.1449 75.3817 0.0000 -14.2402 0.0000
# 4 0.0000 0.0000 0.0000 24.5181 0.0000 0.2239
# 5 -22.5889 -3.9516 -14.2402 0.0000 37.4066 0.0000
# 6 0.0000 0.0000 0.0000 0.2239 0.0000 19.7348
#
#
#
# Elastic Compliance Matrix: (Units=1/GPa)
#
#
# Indices 1 2 3 4 5 6 
#
# 1 0.014220 -0.000886 0.000131 0.000000 0.008543 0.000000
# 2 -0.000886 0.008377 -0.001750 0.000000 -0.000316 0.000000
# 3 0.000131 -0.001750 0.014659 0.000000 0.005475 0.000000
# 4 0.000000 0.000000 0.000000 0.040790 0.000000 -0.000463
# 5 0.008543 -0.000316 0.005475 0.000000 0.033943 0.000000
# 6 0.000000 0.000000 0.000000 -0.000463 0.000000 0.050677
#
#
# Mechanical properties :
#
#
# Convention : Reuss Voigt Hill
#
# Bulk Modulus (GPa) = 31.01060 39.26070 35.13565
# Shear Modulus (GPa) = 28.02308 32.90039 30.46173
#
# Velocity S-wave (km/s) = 3.47605 3.76642 3.62415
# Velocity P-wave (km/s) = 5.42970 5.98690 5.71509
#
# Compressibility (1/GPa) = 0.03224703
#
# Stress axis : x y z
#
# Youngs Moduli (GPa) = 70.32458 119.37984 68.21572
#
# Poissons Ratio (x) = 0.10574 -0.00893
# Poissons Ratio (y) = 0.06229 0.11935
# Poissons Ratio (z) = -0.00921 0.20886
#
# Static dielectric constant tensor:
#      x y z
#    x 4.536540 0.000000 -0.334130 
#    y 0.000000 4.180520 0.000000 
#    z -0.334130 0.000000 4.063220 
# 
# 
# High freq. dielectric constant tensor:
#      x y z
#    x 1.924900 0.000000 -0.009050 
#    y 0.000000 1.901790 0.000000 
#    z -0.009050 0.000000 1.911470 
# 
# From -- ./inp_files/20271.got.cif
#   From: 2010.06.25/outbox.cif.g09.slc.cpg/sg12_11_cif.got.tgz:20271.got - 2010.06.28 00:19:55.
