data_PCOD8111824
_publ_section_title
;
Structure prediction by ZEFSAII (Michael W. Deem and Ramdas Pophale) SiO2 
 PCOD8111824
Probable space group: C 2/M
;
_chemical_formula_sum "Si O2"
_cell_formula_units_Z 36
_cell_length_a 15.902418
_cell_length_b 9.855013
_cell_length_c 13.199403
_cell_angle_alpha 90.000000
_cell_angle_beta 124.566928
_cell_angle_gamma 90.000000
_cell_volume 1703.410314
_symmetry_space_group_name_H-M "C 2/M"
_symmetry_group_IT_number 12
_symmetry_cell_setting 'monoclinic'
loop_
_space_group_symop_operation_xyz
x,y,z
-x,y,-z
-x,-y,-z
x,-y,z
1/2+x,1/2+y,z
1/2-x,1/2+y,-z
1/2-x,1/2-y,-z
1/2+x,1/2-y,z
loop_
_atom_site_type_symbol
_atom_site_label
_atom_site_fract_x
_atom_site_fract_y
_atom_site_fract_z
Si Si1 0.790099 0.212335 0.828262
Si Si2 0.926055 0.000000 0.242339
Si Si3 0.252906 0.500000 0.973075
Si Si4 0.565909 0.500000 0.145402
Si Si5 0.560536 0.776542 0.642852
Si Si6 0.478236 0.000000 0.224742
Si Si7 0.609384 0.000000 0.125108
O O1 0.787309 0.136052 0.935660
O O2 0.679406 0.196155 0.702422
O O3 0.825419 0.367919 0.862820
O O4 0.866754 0.135954 0.805431
O O5 0.952377 0.876619 0.332201
O O6 0.996457 0.000000 0.193997
O O7 0.809437 0.000000 0.120649
O O8 0.130670 0.500000 0.911147
O O9 0.500000 0.500000 0.000000
O O10 0.500000 0.808793 0.500000
O O11 0.516310 0.868083 0.701961
O O12 0.579373 0.000000 0.223830
O O13 0.500000 0.000000 0.000000
#
# Coordination Sequence:
#
# PCOD8111824 Si02
#       7
#     8   4   4   4   8   4   4
#     4  10  22  41  62  91 130 164 200 254 317 367
#     4  12  23  39  67  92 127 160 218 251 309 369
#     4   9  22  40  63  92 122 173 201 245 315 391
#     4  11  20  41  63  93 130 164 198 243 328 394
#     4  11  25  45  65  88 124 172 219 255 292 362
#     4  10  24  42  65  93 127 163 205 257 319 365
#     4  12  25  35  61 102 136 148 195 266 328 366
#
# _framework density 21.134073999999998
#
# number of rings (size 3 to 8) (size 9 to 14) (size 15 to 20)
#    0.000    1.333    2.222    4.000    6.222    1.778 
#    0.000    6.667    0.000    0.000    0.000    0.000 
#    0.000    0.000    0.000    0.000    0.000    0.000 
#
# Total GULP energy -223207.869572 kJ/mol
# GULP energy per Si atom -12400.437198 kJ/mol
# Density = 2.108597 g / cm^3
# Si number density = 21.134074 Si / 1000 Ang^3
#
#
#
# Elastic Constant Matrix: (Units=GPa)
#
#
# Indices 1 2 3 4 5 6 
#
# 1 91.0195 25.0344 9.0009 0.0000 6.5764 0.0000
# 2 25.0344 148.9585 14.9255 0.0000 4.9714 0.0000
# 3 9.0009 14.9255 79.0538 0.0000 15.3461 0.0000
# 4 0.0000 0.0000 0.0000 30.6646 0.0000 -9.1076
# 5 6.5764 4.9714 15.3461 0.0000 20.3322 0.0000
# 6 0.0000 0.0000 0.0000 -9.1076 0.0000 24.6684
#
#
#
# Elastic Compliance Matrix: (Units=1/GPa)
#
#
# Indices 1 2 3 4 5 6 
#
# 1 0.011751 -0.001833 -0.000400 0.000000 -0.003051 0.000000
# 2 -0.001833 0.007140 -0.001073 0.000000 -0.000343 0.000000
# 3 -0.000400 -0.001073 0.015023 0.000000 -0.010947 0.000000
# 4 0.000000 0.000000 0.000000 0.036627 0.000000 0.013523
# 5 -0.003051 -0.000343 -0.010947 0.000000 0.058516 0.000000
# 6 0.000000 0.000000 0.000000 0.013523 0.000000 0.045530
#
#
# Mechanical properties :
#
#
# Convention : Reuss Voigt Hill
#
# Bulk Modulus (GPa) = 36.62587 46.32814 41.47701
# Shear Modulus (GPa) = 26.27436 33.13778 29.70607
#
# Velocity S-wave (km/s) = 3.52976 3.96407 3.75320
# Velocity P-wave (km/s) = 5.82925 6.55137 6.20083
#
# Compressibility (1/GPa) = 0.02730311
#
# Stress axis : x y z
#
# Youngs Moduli (GPa) = 85.10079 140.05041 66.56580
#
# Poissons Ratio (x) = 0.25671 0.02660
# Poissons Ratio (y) = 0.15599 0.07141
# Poissons Ratio (z) = 0.03400 0.15024
#
# Static dielectric constant tensor:
#      x y z
#    x 4.084970 0.000000 0.207450 
#    y 0.000000 4.152430 0.000000 
#    z 0.207450 0.000000 3.540540 
# 
# 
# High freq. dielectric constant tensor:
#      x y z
#    x 1.842590 0.000000 0.007460 
#    y 0.000000 1.850530 0.000000 
#    z 0.007460 0.000000 1.800200 
# 
# From -- ./inp_files/220531.got.cif
#   From: 2010.06.25/outbox.cif.g09.slc.cpg/sg12_111_cif.got.tgz:220531.got - 2010.06.28 00:19:55.
