data_PCOD8111908
_publ_section_title
;
Structure prediction by ZEFSAII (Michael W. Deem and Ramdas Pophale) SiO2 
 PCOD8111908
Probable space group: C 2/M
;
_chemical_formula_sum "Si O2"
_cell_formula_units_Z 40
_cell_length_a 5.099249
_cell_length_b 17.352000
_cell_length_c 19.435583
_cell_angle_alpha 90.000000
_cell_angle_beta 89.393462
_cell_angle_gamma 90.000000
_cell_volume 1719.606174
_symmetry_space_group_name_H-M "C 2/M"
_symmetry_group_IT_number 12
_symmetry_cell_setting 'monoclinic'
loop_
_space_group_symop_operation_xyz
x,y,z
-x,y,-z
-x,-y,-z
x,-y,z
1/2+x,1/2+y,z
1/2-x,1/2+y,-z
1/2-x,1/2-y,-z
1/2+x,1/2-y,z
loop_
_atom_site_type_symbol
_atom_site_label
_atom_site_fract_x
_atom_site_fract_y
_atom_site_fract_z
Si Si1 0.464578 0.907990 0.577087
Si Si2 0.951080 0.303633 0.879694
Si Si3 0.857777 0.088250 0.196884
Si Si4 0.305657 0.587942 0.942277
Si Si5 0.959356 0.091508 0.656933
O O1 0.500000 0.875431 0.500000
O O2 0.193515 0.876854 0.608662
O O3 0.691965 0.875097 0.626145
O O4 0.472211 0.000000 0.575788
O O5 0.175491 0.240096 0.882764
O O6 0.031155 0.363814 0.940677
O O7 0.905780 0.359821 0.813610
O O8 0.005046 0.119006 0.264428
O O9 0.052521 0.097165 0.131759
O O10 0.762993 0.000000 0.206268
O O11 0.232661 0.500000 0.959202
O O12 0.500000 0.621945 0.000000
O O13 0.955751 0.000000 0.654664
#
# Coordination Sequence:
#
# PCOD8111908 Si02
#       5
#     8   8   8   8   8
#     4   9  16  27  44  74 116 155 189 231 294 365
#     4  12  25  44  65  91 126 162 206 259 319 371
#     4  10  22  41  64  90 124 164 213 258 305 370
#     4  10  23  44  68  93 124 166 212 258 310 369
#     4   9  18  29  50  78 110 156 197 238 294 356
#
# _framework density 23.261137999999999
#
# number of rings (size 3 to 8) (size 9 to 14) (size 15 to 20)
#    0.000    2.000    2.000    1.200    2.800    4.000 
#    0.000    3.000    0.000    0.000    0.000    0.000 
#    0.000   16.000    0.000    0.000    0.000    0.000 
#
# Total GULP energy -247768.332142 kJ/mol
# GULP energy per Si atom -12388.416607 kJ/mol
# Density = 2.320820 g / cm^3
# Si number density = 23.261138 Si / 1000 Ang^3
#
#
#
# Elastic Constant Matrix: (Units=GPa)
#
#
# Indices 1 2 3 4 5 6 
#
# 1 100.4859 19.3409 22.1074 0.0000 28.7362 0.0000
# 2 19.3409 72.7292 -0.6912 0.0000 24.5069 0.0000
# 3 22.1074 -0.6912 127.9213 0.0000 29.8644 0.0000
# 4 0.0000 0.0000 0.0000 5.4158 0.0000 17.7140
# 5 28.7362 24.5069 29.8644 0.0000 47.9611 0.0000
# 6 0.0000 0.0000 0.0000 17.7140 0.0000 36.3931
#
#
#
# Elastic Compliance Matrix: (Units=1/GPa)
#
#
# Indices 1 2 3 4 5 6 
#
# 1 0.012103 -0.001102 -0.000627 0.000000 -0.006297 0.000000
# 2 -0.001102 0.017378 0.002578 0.000000 -0.009824 0.000000
# 3 -0.000627 0.002578 0.009547 0.000000 -0.006886 0.000000
# 4 0.000000 0.000000 0.000000 -0.311878 0.000000 0.151804
# 5 -0.006297 -0.009824 -0.006886 0.000000 0.033931 0.000000
# 6 0.000000 0.000000 0.000000 0.151804 0.000000 -0.046412
#
#
# Mechanical properties :
#
#
# Convention : Reuss Voigt Hill
#
# Bulk Modulus (GPa) = 24.55543 42.51674 33.53608
# Shear Modulus (GPa) = -18.28470 35.31262 8.51396
#
# Velocity S-wave (km/s) = -2.80672 3.90050 1.91523
# Velocity P-wave (km/s) = 0.27523 6.21312 4.39765
#
# Compressibility (1/GPa) = 0.04072419
#
# Stress axis : x y z
#
# Youngs Moduli (GPa) = 82.62575 57.54501 104.74125
#
# Poissons Ratio (x) = 0.06344 0.06571
# Poissons Ratio (y) = 0.09109 -0.27002
# Poissons Ratio (z) = 0.05184 -0.14835
#
# Static dielectric constant tensor:
#      x y z
#    x 4.520280 0.000000 0.390860 
#    y 0.000000 4.187760 0.000000 
#    z 0.390860 0.000000 4.348280 
# 
# 
# High freq. dielectric constant tensor:
#      x y z
#    x 1.933250 0.000000 0.022800 
#    y 0.000000 1.880070 0.000000 
#    z 0.022800 0.000000 1.915290 
# 
# From -- ./inp_files/252823.got.cif
#   From: 2010.06.25/outbox.cif.g09.slc.cpg/sg12_127_cif.got.tgz:252823.got - 2010.06.28 00:19:55.
