data_PCOD8111692
_publ_section_title
;
Structure prediction by ZEFSAII (Michael W. Deem and Ramdas Pophale) SiO2 
 PCOD8111692
Probable space group: C 2/M
;
_chemical_formula_sum "Si O2"
_cell_formula_units_Z 44
_cell_length_a 10.512621
_cell_length_b 14.652044
_cell_length_c 26.888985
_cell_angle_alpha 90.000000
_cell_angle_beta 149.631957
_cell_angle_gamma 90.000000
_cell_volume 2093.871333
_symmetry_space_group_name_H-M "C 2/M"
_symmetry_group_IT_number 12
_symmetry_cell_setting 'monoclinic'
loop_
_space_group_symop_operation_xyz
x,y,z
-x,y,-z
-x,-y,-z
x,-y,z
1/2+x,1/2+y,z
1/2-x,1/2+y,-z
1/2-x,1/2-y,-z
1/2+x,1/2-y,z
loop_
_atom_site_type_symbol
_atom_site_label
_atom_site_fract_x
_atom_site_fract_y
_atom_site_fract_z
Si Si1 0.496443 0.836509 0.183193
Si Si2 0.233810 0.824770 0.313463
Si Si3 0.500000 0.856156 0.500000
Si Si4 0.000000 0.723819 0.000000
Si Si5 0.499742 0.000000 0.360315
Si Si6 0.687989 0.896557 0.146374
Si Si7 0.342552 0.500000 0.567031
Si Si8 0.591132 0.000000 0.276331
O O1 0.715760 0.765132 0.273184
O O2 0.244054 0.786213 0.082253
O O3 0.586893 0.896241 0.167791
O O4 0.443991 0.908297 0.210120
O O5 0.405667 0.799431 0.419949
O O6 0.956368 0.848713 0.237426
O O7 0.339451 0.909063 0.317102
O O8 0.742569 0.914388 0.565009
O O9 0.995104 0.659040 0.046597
O O10 0.739021 0.000000 0.476440
O O11 0.605636 0.000000 0.340500
O O12 0.708507 0.000000 0.134071
O O13 0.640822 0.500000 0.661794
#
# Coordination Sequence:
#
# PCOD8111692 Si02
#       8
#     8   8   4   4   4   8   4   4
#     4  11  25  42  65  90 131 164 211 256 320 371
#     4  10  22  40  65  96 125 169 208 262 305 371
#     4   9  18  38  68  95 128 162 218 253 310 357
#     4  10  25  43  62  96 122 160 202 274 318 376
#     4  10  22  41  63  94 132 165 210 253 319 365
#     4  11  21  43  68  93 120 159 215 261 314 374
#     4   9  19  38  65  93 125 171 212 263 296 367
#     4  12  24  42  60  93 131 177 201 254 315 376
#
# _framework density 21.013707
#
# number of rings (size 3 to 8) (size 9 to 14) (size 15 to 20)
#    0.000    1.636    1.818    2.727    5.091    0.364 
#    3.273    2.727    0.000    0.000    0.000    0.000 
#    0.000    0.000    0.000    0.000    0.000    0.000 
#
# Total GULP energy -272769.592201 kJ/mol
# GULP energy per Si atom -12398.617827 kJ/mol
# Density = 2.096588 g / cm^3
# Si number density = 21.013707 Si / 1000 Ang^3
#
#
#
# Elastic Constant Matrix: (Units=GPa)
#
#
# Indices 1 2 3 4 5 6 
#
# 1 81.2395 8.1298 25.8753 0.0000 -18.5483 -0.0001
# 2 8.1298 102.0309 40.7567 0.0001 -11.1578 0.0000
# 3 25.8753 40.7567 115.8194 0.0007 -11.5045 0.0001
# 4 0.0000 0.0001 0.0007 14.0504 0.0001 -2.8042
# 5 -18.5483 -11.1578 -11.5045 0.0001 26.8472 0.0000
# 6 -0.0001 0.0000 0.0001 -2.8042 0.0000 26.8819
#
#
#
# Elastic Compliance Matrix: (Units=1/GPa)
#
#
# Indices 1 2 3 4 5 6 
#
# 1 0.015340 0.000965 -0.002793 0.000000 0.009803 0.000000
# 2 0.000965 0.011726 -0.003960 0.000000 0.003843 0.000000
# 3 -0.002793 -0.003960 0.010754 -0.000001 0.001033 0.000000
# 4 0.000000 0.000000 -0.000001 0.072686 0.000000 0.007582
# 5 0.009803 0.003843 0.001033 0.000000 0.046060 0.000000
# 6 0.000000 0.000000 0.000000 0.007582 0.000000 0.037991
#
#
# Mechanical properties :
#
#
# Convention : Reuss Voigt Hill
#
# Bulk Modulus (GPa) = 38.10271 49.84591 43.97431
# Shear Modulus (GPa) = 23.26855 28.51112 25.88983
#
# Velocity S-wave (km/s) = 3.33123 3.68745 3.51386
# Velocity P-wave (km/s) = 5.74176 6.47317 6.11840
#
# Compressibility (1/GPa) = 0.02624485
#
# Stress axis : x y z
#
# Youngs Moduli (GPa) = 65.18704 85.27811 92.98505
#
# Poissons Ratio (x) = -0.08233 0.25973
# Poissons Ratio (y) = -0.06294 0.36826
# Poissons Ratio (z) = 0.18208 0.33774
#
# Static dielectric constant tensor:
#      x y z
#    x 3.587840 0.000000 -0.201060 
#    y 0.000000 3.815680 0.000000 
#    z -0.201060 0.000000 4.017200 
# 
# 
# High freq. dielectric constant tensor:
#      x y z
#    x 1.814690 0.000000 -0.014620 
#    y 0.000000 1.822480 0.000000 
#    z -0.014620 0.000000 1.834590 
# 
# From -- ./inp_files/358315.got.cif
#   From: 2010.06.25/outbox.cif.g09.slc.cpg/sg12_180_cif.got.tgz:358315.got - 2010.06.28 00:19:55.
