data_PCOD8111857
_publ_section_title
;
Structure prediction by ZEFSAII (Michael W. Deem and Ramdas Pophale) SiO2 
 PCOD8111857
Probable space group: C 2/M
;
_chemical_formula_sum "Si O2"
_cell_formula_units_Z 40
_cell_length_a 24.478226
_cell_length_b 8.827392
_cell_length_c 18.660483
_cell_angle_alpha 90.000000
_cell_angle_beta 150.111344
_cell_angle_gamma 90.000000
_cell_volume 2009.278543
_symmetry_space_group_name_H-M "C 2/M"
_symmetry_group_IT_number 12
_symmetry_cell_setting 'monoclinic'
loop_
_space_group_symop_operation_xyz
x,y,z
-x,y,-z
-x,-y,-z
x,-y,z
1/2+x,1/2+y,z
1/2-x,1/2+y,-z
1/2-x,1/2-y,-z
1/2+x,1/2-y,z
loop_
_atom_site_type_symbol
_atom_site_label
_atom_site_fract_x
_atom_site_fract_y
_atom_site_fract_z
Si Si1 0.474381 0.176276 0.835263
Si Si2 0.734384 0.325850 0.337897
Si Si3 0.809294 0.825851 0.875538
Si Si4 0.530681 0.176453 0.337107
Si Si5 0.183622 0.178116 0.859737
O O1 0.355553 0.219465 0.728773
O O2 0.483186 0.216096 0.761813
O O3 0.495011 0.000000 0.872768
O O4 0.564981 0.271526 0.980966
O O5 0.709268 0.500000 0.329597
O O6 0.738400 0.303468 0.257601
O O7 0.850031 0.272235 0.501175
O O8 0.735623 0.725768 0.843820
O O9 0.804266 0.000000 0.894255
O O10 0.442228 0.269930 0.281795
O O11 0.511435 0.000000 0.330386
O O12 0.192033 0.000000 0.877081
O O13 0.250000 0.250000 0.000000
#
# Coordination Sequence:
#
# PCOD8111857 Si02
#       5
#     8   8   8   8   8
#     4  11  22  37  62  91 122 161 205 253 298 350
#     4  10  23  41  61  88 124 164 203 245 298 359
#     4  11  23  40  63  89 121 162 204 248 298 356
#     4  10  22  41  63  89 122 161 203 246 299 357
#     4  12  24  40  64  91 119 155 200 250 301 359
#
# _framework density 19.907644999999999
#
# number of rings (size 3 to 8) (size 9 to 14) (size 15 to 20)
#    0.000    1.200    2.000    4.200    0.000    6.400 
#    0.000    4.000    0.000    0.000    0.000    0.000 
#    0.000    0.000    0.000    0.000    0.000    0.000 
#
# Total GULP energy -248160.217811 kJ/mol
# GULP energy per Si atom -12408.010891 kJ/mol
# Density = 1.986233 g / cm^3
# Si number density = 19.907645 Si / 1000 Ang^3
#
#
#
# Elastic Constant Matrix: (Units=GPa)
#
#
# Indices 1 2 3 4 5 6 
#
# 1 71.6485 44.2004 13.5535 0.0000 28.5267 0.0000
# 2 44.2004 95.7031 27.8229 0.0000 0.1149 0.0000
# 3 13.5535 27.8229 58.0378 0.0000 -1.8904 0.0000
# 4 0.0000 0.0000 0.0000 26.8289 0.0000 6.9417
# 5 28.5267 0.1149 -1.8904 0.0000 20.9538 0.0000
# 6 0.0000 0.0000 0.0000 6.9417 0.0000 38.7213
#
#
#
# Elastic Compliance Matrix: (Units=1/GPa)
#
#
# Indices 1 2 3 4 5 6 
#
# 1 0.081163 -0.035779 -0.005410 0.000000 -0.110789 0.000000
# 2 -0.035779 0.027921 -0.003458 0.000000 0.048245 0.000000
# 3 -0.005410 -0.003458 0.020452 0.000000 0.009229 0.000000
# 4 0.000000 0.000000 0.000000 0.039086 0.000000 -0.007007
# 5 -0.110789 0.048245 0.009229 0.000000 0.199122 0.000000
# 6 0.000000 0.000000 0.000000 -0.007007 0.000000 0.027082
#
#
# Mechanical properties :
#
#
# Convention : Reuss Voigt Hill
#
# Bulk Modulus (GPa) = 24.85023 44.06032 34.45527
# Shear Modulus (GPa) = 10.04954 26.62163 18.33558
#
# Velocity S-wave (km/s) = 2.24923 3.66082 3.03814
# Velocity P-wave (km/s) = 4.38808 6.32844 5.44539
#
# Compressibility (1/GPa) = 0.04024107
#
# Stress axis : x y z
#
# Youngs Moduli (GPa) = 12.32084 35.81520 48.89490
#
# Poissons Ratio (x) = 1.28144 0.26452
# Poissons Ratio (y) = 0.44083 0.16909
# Poissons Ratio (z) = 0.06666 0.12386
#
# Static dielectric constant tensor:
#      x y z
#    x 3.665860 0.000000 0.024180 
#    y 0.000000 3.699910 0.000000 
#    z 0.024180 0.000000 3.751350 
# 
# 
# High freq. dielectric constant tensor:
#      x y z
#    x 1.785160 0.000000 0.004320 
#    y 0.000000 1.780730 0.000000 
#    z 0.004320 0.000000 1.785660 
# 
# From -- ./inp_files/151716.got.cif
#   From: 2010.06.25/outbox.cif.g09.slc.cpg/sg12_76_cif.got.tgz:151716.got - 2010.06.28 00:19:55.
