data_PCOD8111865
_publ_section_title
;
Structure prediction by ZEFSAII (Michael W. Deem and Ramdas Pophale) SiO2 
 PCOD8111865
Probable space group: C 2/M
;
_chemical_formula_sum "Si O2"
_cell_formula_units_Z 64
_cell_length_a 24.875919
_cell_length_b 8.785101
_cell_length_c 14.403238
_cell_angle_alpha 90.000000
_cell_angle_beta 88.605869
_cell_angle_gamma 90.000000
_cell_volume 3146.715317
_symmetry_space_group_name_H-M "C 2/M"
_symmetry_group_IT_number 12
_symmetry_cell_setting 'monoclinic'
loop_
_space_group_symop_operation_xyz
x,y,z
-x,y,-z
-x,-y,-z
x,-y,z
1/2+x,1/2+y,z
1/2-x,1/2+y,-z
1/2-x,1/2-y,-z
1/2+x,1/2-y,z
loop_
_atom_site_type_symbol
_atom_site_label
_atom_site_fract_x
_atom_site_fract_y
_atom_site_fract_z
Si Si1 0.835767 0.677428 0.228396
Si Si2 0.909332 0.324500 0.510993
Si Si3 0.302815 0.678784 0.538797
Si Si4 0.308065 0.821223 0.018107
Si Si5 0.350450 0.319721 0.846858
Si Si6 0.943112 0.178650 0.701821
Si Si7 0.271015 0.820727 0.720685
Si Si8 0.448546 0.175396 0.309187
O O1 0.826995 0.500000 0.251728
O O2 0.828834 0.713271 0.120500
O O3 0.791139 0.772858 0.286777
O O4 0.893937 0.731897 0.262006
O O5 0.896674 0.500000 0.529884
O O6 0.854653 0.240251 0.482982
O O7 0.933789 0.256126 0.603183
O O8 0.948155 0.303340 0.421023
O O9 0.299946 0.500000 0.530715
O O10 0.250000 0.750000 0.500000
O O11 0.308020 0.732523 0.644733
O O12 0.304922 0.000000 0.998713
O O13 0.250000 0.750000 0.000000
O O14 0.354215 0.742607 0.951771
O O15 0.342774 0.500000 0.845663
O O16 0.401307 0.267253 0.782939
O O17 0.295318 0.237710 0.816159
O O18 0.002521 0.225310 0.733785
O O19 0.938356 0.000000 0.687116
O O20 0.276677 0.000000 0.707130
O O21 0.458889 0.000000 0.283518
#
# Coordination Sequence:
#
# PCOD8111865 Si02
#       8
#     8   8   8   8   8   8   8   8
#     4  10  22  41  63  89 126 164 200 253 315 371
#     4  11  22  38  62  90 120 160 208 255 306 365
#     4  12  24  38  56  84 124 165 205 252 306 367
#     4  11  22  37  63  94 124 160 203 251 310 375
#     4  11  23  40  61  88 123 160 201 253 308 363
#     4  11  24  41  63  89 121 164 208 256 309 360
#     4  12  23  36  60  90 121 161 203 248 307 369
#     4  10  23  42  63  88 120 161 206 254 308 365
#
# _framework density 20.338668999999999
#
# number of rings (size 3 to 8) (size 9 to 14) (size 15 to 20)
#    0.000    1.000    2.500    4.875    0.000    6.000 
#    0.000    0.625    0.000    3.750    0.000    0.000 
#    0.000    0.000    0.000    0.000    0.000    0.000 
#
# Total GULP energy -396882.026543 kJ/mol
# GULP energy per Si atom -12402.563329 kJ/mol
# Density = 2.029238 g / cm^3
# Si number density = 20.338669 Si / 1000 Ang^3
#
#
#
# Elastic Constant Matrix: (Units=GPa)
#
#
# Indices 1 2 3 4 5 6 
#
# 1 109.9134 46.7303 30.9883 0.0000 -7.1024 0.0000
# 2 46.7303 113.3514 28.0382 0.0000 -9.0116 0.0000
# 3 30.9883 28.0382 72.4631 0.0000 -9.4677 0.0000
# 4 0.0000 0.0000 0.0000 30.3064 0.0000 -2.4783
# 5 -7.1024 -9.0116 -9.4677 0.0000 25.0448 0.0000
# 6 0.0000 0.0000 0.0000 -2.4783 0.0000 37.9278
#
#
#
# Elastic Compliance Matrix: (Units=1/GPa)
#
#
# Indices 1 2 3 4 5 6 
#
# 1 0.011789 -0.003963 -0.003427 0.000000 0.000622 0.000000
# 2 -0.003963 0.011204 -0.002378 0.000000 0.002009 0.000000
# 3 -0.003427 -0.002378 0.016776 0.000000 0.004514 0.000000
# 4 0.000000 0.000000 0.000000 0.033174 0.000000 0.002168
# 5 0.000622 0.002009 0.004514 0.000000 0.042534 0.000000
# 6 0.000000 0.000000 0.000000 0.002168 0.000000 0.026508
#
#
# Mechanical properties :
#
#
# Convention : Reuss Voigt Hill
#
# Bulk Modulus (GPa) = 49.42469 56.36017 52.89243
# Shear Modulus (GPa) = 29.71519 31.32053 30.51786
#
# Velocity S-wave (km/s) = 3.82648 3.92848 3.87781
# Velocity P-wave (km/s) = 6.62391 6.95329 6.79060
#
# Compressibility (1/GPa) = 0.02023280
#
# Stress axis : x y z
#
# Youngs Moduli (GPa) = 84.82203 89.25501 59.61072
#
# Poissons Ratio (x) = 0.35374 0.20428
# Poissons Ratio (y) = 0.33617 0.14175
# Poissons Ratio (z) = 0.29068 0.21224
#
# Static dielectric constant tensor:
#      x y z
#    x 3.884650 0.000000 -0.286350 
#    y 0.000000 3.710100 0.000000 
#    z -0.286350 0.000000 4.162520 
# 
# 
# High freq. dielectric constant tensor:
#      x y z
#    x 1.794260 0.000000 -0.006460 
#    y 0.000000 1.798950 0.000000 
#    z -0.006460 0.000000 1.795810 
# 
# From -- ./inp_files/238589.got.cif
#   From: 2010.06.25/outbox.cif.g09.slc.cpg/sg12_120_cif.got.tgz:238589.got - 2010.06.28 00:19:55.
