data_PCOD8111776
_publ_section_title
;
Structure prediction by ZEFSAII (Michael W. Deem and Ramdas Pophale) SiO2 
 PCOD8111776
Probable space group: C 2/M
;
_chemical_formula_sum "Si O2"
_cell_formula_units_Z 56
_cell_length_a 20.285591
_cell_length_b 8.964226
_cell_length_c 17.458386
_cell_angle_alpha 90.000000
_cell_angle_beta 71.616216
_cell_angle_gamma 90.000000
_cell_volume 3012.693081
_symmetry_space_group_name_H-M "C 2/M"
_symmetry_group_IT_number 12
_symmetry_cell_setting 'monoclinic'
loop_
_space_group_symop_operation_xyz
x,y,z
-x,y,-z
-x,-y,-z
x,-y,z
1/2+x,1/2+y,z
1/2-x,1/2+y,-z
1/2-x,1/2-y,-z
1/2+x,1/2-y,z
loop_
_atom_site_type_symbol
_atom_site_label
_atom_site_fract_x
_atom_site_fract_y
_atom_site_fract_z
Si Si1 0.655967 0.674741 0.587144
Si Si2 0.309445 0.173214 0.571011
Si Si3 0.670560 0.172529 0.833169
Si Si4 0.677727 0.172391 0.008138
Si Si5 0.312889 0.174864 0.742181
Si Si6 0.932627 0.173955 0.237875
Si Si7 0.406111 0.325808 0.833974
O O1 0.654671 0.500000 0.575881
O O2 0.641287 0.746805 0.509335
O O3 0.730178 0.730999 0.592094
O O4 0.597455 0.725109 0.668901
O O5 0.336149 0.208488 0.646560
O O6 0.312523 0.000000 0.552027
O O7 0.734387 0.272435 0.782377
O O8 0.601484 0.228813 0.816528
O O9 0.685259 0.000000 0.808133
O O10 0.657518 0.194600 0.927709
O O11 0.616751 0.245778 0.079863
O O12 0.684815 0.000000 0.027955
O O13 0.750000 0.250000 0.000000
O O14 0.363992 0.264865 0.777478
O O15 0.316612 0.000000 0.759695
O O16 0.013718 0.208498 0.209199
O O17 0.916562 0.000000 0.228623
O O18 0.390114 0.500000 0.847787
#
# Coordination Sequence:
#
# PCOD8111776 Si02
#       7
#     8   8   8   8   8   8   8
#     4   9  17  33  55  81 113 149 188 234 286 338
#     4   9  18  32  54  85 113 144 190 237 284 340
#     4  11  23  37  60  89 115 147 195 243 285 342
#     4  11  23  39  60  87 118 151 191 243 292 339
#     4  11  21  37  60  85 117 154 192 238 291 343
#     4  10  22  41  60  83 119 158 193 235 291 348
#     4  11  24  40  60  86 117 154 197 239 287 348
#
# _framework density 18.58802
#
# number of rings (size 3 to 8) (size 9 to 14) (size 15 to 20)
#    0.000    1.714    2.857    1.714    0.000    5.143 
#    0.000    3.571    0.000    4.286    0.000    0.000 
#    0.000    0.000    0.000    0.000    0.000    0.000 
#
# Total GULP energy -347290.441374 kJ/mol
# GULP energy per Si atom -12403.230049 kJ/mol
# Density = 1.854571 g / cm^3
# Si number density = 18.588020 Si / 1000 Ang^3
#
#
#
# Elastic Constant Matrix: (Units=GPa)
#
#
# Indices 1 2 3 4 5 6 
#
# 1 58.2207 22.9760 30.3261 0.0000 -7.8824 0.0000
# 2 22.9760 68.0092 45.7656 0.0000 -4.6692 0.0000
# 3 30.3261 45.7656 129.3275 0.0000 -7.9674 0.0000
# 4 0.0000 0.0000 0.0000 35.8872 0.0000 2.4388
# 5 -7.8824 -4.6692 -7.9674 0.0000 27.3527 0.0000
# 6 0.0000 0.0000 0.0000 2.4388 0.0000 28.7071
#
#
#
# Elastic Compliance Matrix: (Units=1/GPa)
#
#
# Indices 1 2 3 4 5 6 
#
# 1 0.021252 -0.004864 -0.002990 0.000000 0.004423 0.000000
# 2 -0.004864 0.020461 -0.006080 0.000000 0.000320 0.000000
# 3 -0.002990 -0.006080 0.010659 0.000000 0.001205 0.000000
# 4 0.000000 0.000000 0.000000 0.028027 0.000000 -0.002381
# 5 0.004423 0.000320 0.001205 0.000000 0.038240 0.000000
# 6 0.000000 0.000000 0.000000 -0.002381 0.000000 0.035037
#
#
# Mechanical properties :
#
#
# Convention : Reuss Voigt Hill
#
# Bulk Modulus (GPa) = 40.81003 50.41030 45.61017
# Shear Modulus (GPa) = 26.35589 28.82204 27.58896
#
# Velocity S-wave (km/s) = 3.76958 3.94200 3.85675
# Velocity P-wave (km/s) = 6.39914 6.92082 6.66509
#
# Compressibility (1/GPa) = 0.02450378
#
# Stress axis : x y z
#
# Youngs Moduli (GPa) = 47.05521 48.87415 93.81568
#
# Poissons Ratio (x) = 0.23773 0.28046
# Poissons Ratio (y) = 0.22889 0.57042
# Poissons Ratio (z) = 0.14067 0.29716
#
# Static dielectric constant tensor:
#      x y z
#    x 3.282780 0.000000 0.077460 
#    y 0.000000 3.528200 0.000000 
#    z 0.077460 0.000000 3.718760 
# 
# 
# High freq. dielectric constant tensor:
#      x y z
#    x 1.701190 0.000000 0.007280 
#    y 0.000000 1.729000 0.000000 
#    z 0.007280 0.000000 1.737480 
# 
# From -- ./inp_files/275008.got.cif
#   From: 2010.06.25/outbox.cif.g09.slc.cpg/sg12_138_cif.got.tgz:275008.got - 2010.06.28 00:19:55.
