data_PCOD8111592
_publ_section_title
;
Structure prediction by ZEFSAII (Michael W. Deem and Ramdas Pophale) SiO2 
 PCOD8111592
Probable space group: C 2/M
;
_chemical_formula_sum "Si O2"
_cell_formula_units_Z 64
_cell_length_a 32.387546
_cell_length_b 8.639351
_cell_length_c 15.121575
_cell_angle_alpha 90.000000
_cell_angle_beta 133.398413
_cell_angle_gamma 90.000000
_cell_volume 3074.311139
_symmetry_space_group_name_H-M "C 2/M"
_symmetry_group_IT_number 12
_symmetry_cell_setting 'monoclinic'
loop_
_space_group_symop_operation_xyz
x,y,z
-x,y,-z
-x,-y,-z
x,-y,z
1/2+x,1/2+y,z
1/2-x,1/2+y,-z
1/2-x,1/2-y,-z
1/2+x,1/2-y,z
loop_
_atom_site_type_symbol
_atom_site_label
_atom_site_fract_x
_atom_site_fract_y
_atom_site_fract_z
Si Si1 0.702258 0.678382 0.089810
Si Si2 0.879536 0.182232 0.515847
Si Si3 0.653612 0.177074 0.182888
Si Si4 0.187675 0.181196 0.411173
Si Si5 0.026421 0.678631 0.951776
Si Si6 0.612816 0.316721 0.812718
Si Si7 0.499306 0.816286 0.720662
Si Si8 0.169338 0.678863 0.727649
O O1 0.689035 0.500000 0.090405
O O2 0.699552 0.768475 0.178908
O O3 0.765551 0.702795 0.145322
O O4 0.656764 0.743693 0.952307
O O5 0.847556 0.244375 0.556605
O O6 0.840716 0.222171 0.375209
O O7 0.939135 0.270395 0.591084
O O8 0.890900 0.000000 0.537827
O O9 0.654540 0.275594 0.273488
O O10 0.665366 0.000000 0.225775
O O11 0.593453 0.202696 0.047827
O O12 0.250000 0.250000 0.500000
O O13 0.194126 0.000000 0.429036
O O14 0.008800 0.500000 0.929026
O O15 0.000988 0.748386 0.824079
O O16 0.000000 0.761561 0.000000
O O17 0.617249 0.500000 0.808593
O O18 0.548882 0.267293 0.739640
O O19 0.628182 0.237462 0.743381
O O20 0.509053 0.000000 0.730584
O O21 0.156510 0.500000 0.688398
#
# Coordination Sequence:
#
# PCOD8111592 Si02
#       8
#     8   8   8   8   8   8   8   8
#     4  10  22  40  63  93 130 165 204 257 315 375
#     4  11  25  44  63  90 126 166 211 261 317 372
#     4  11  21  35  60  91 124 163 204 251 305 367
#     4  11  24  41  62  90 126 167 212 259 310 371
#     4   9  18  33  55  86 120 155 198 245 296 354
#     4  11  23  41  65  94 129 165 203 258 319 373
#     4  11  22  40  65  92 126 166 209 258 307 372
#     4  11  24  42  65  92 121 162 213 261 312 376
#
# _framework density 20.817672000000002
#
# number of rings (size 3 to 8) (size 9 to 14) (size 15 to 20)
#    0.000    1.375    1.250    4.125    0.000    7.000 
#    0.000    2.500    0.000    3.000    0.000    0.000 
#    0.000    0.000    0.000    0.000    0.000    0.000 
#
# Total GULP energy -396952.391893 kJ/mol
# GULP energy per Si atom -12404.762247 kJ/mol
# Density = 2.077029 g / cm^3
# Si number density = 20.817672 Si / 1000 Ang^3
#
#
#
# Elastic Constant Matrix: (Units=GPa)
#
#
# Indices 1 2 3 4 5 6 
#
# 1 134.8699 25.9443 32.7577 0.0000 -4.8630 0.0000
# 2 25.9443 39.6305 18.6150 0.0000 2.3721 0.0000
# 3 32.7577 18.6150 83.0178 0.0000 -3.6272 0.0000
# 4 0.0000 0.0000 0.0000 31.1828 0.0000 0.8009
# 5 -4.8630 2.3721 -3.6272 0.0000 37.3728 0.0000
# 6 0.0000 0.0000 0.0000 0.8009 0.0000 26.5552
#
#
#
# Elastic Compliance Matrix: (Units=1/GPa)
#
#
# Indices 1 2 3 4 5 6 
#
# 1 0.008970 -0.004817 -0.002405 0.000000 0.001239 0.000000
# 2 -0.004817 0.031009 -0.005188 0.000000 -0.003098 0.000000
# 3 -0.002405 -0.005188 0.014219 0.000000 0.001396 0.000000
# 4 0.000000 0.000000 0.000000 0.032094 0.000000 -0.000968
# 5 0.001239 -0.003098 0.001396 0.000000 0.027251 0.000000
# 6 0.000000 0.000000 0.000000 -0.000968 0.000000 0.037687
#
#
# Mechanical properties :
#
#
# Convention : Reuss Voigt Hill
#
# Bulk Modulus (GPa) = 34.03898 45.79470 39.91684
# Shear Modulus (GPa) = 26.90471 31.03557 28.97014
#
# Velocity S-wave (km/s) = 3.59889 3.86531 3.73448
# Velocity P-wave (km/s) = 5.80137 6.47816 6.14908
#
# Compressibility (1/GPa) = 0.02937809
#
# Stress axis : x y z
#
# Youngs Moduli (GPa) = 111.48278 32.24912 70.32868
#
# Poissons Ratio (x) = 0.15533 0.16916
# Poissons Ratio (y) = 0.53698 0.36485
# Poissons Ratio (z) = 0.26814 0.16730
#
# Static dielectric constant tensor:
#      x y z
#    x 3.916830 0.000000 -0.096340 
#    y 0.000000 3.705820 0.000000 
#    z -0.096340 0.000000 3.782010 
# 
# 
# High freq. dielectric constant tensor:
#      x y z
#    x 1.827860 0.000000 -0.000450 
#    y 0.000000 1.805640 0.000000 
#    z -0.000450 0.000000 1.819570 
# 
# From -- ./inp_files/249808.got.cif
#   From: 2010.06.25/outbox.cif.g09.slc.cpg/sg12_125_cif.got.tgz:249808.got - 2010.06.28 00:19:55.
