data_PCOD8111546
_publ_section_title
;
Structure prediction by ZEFSAII (Michael W. Deem and Ramdas Pophale) SiO2 
 PCOD8111546
Probable space group: C 2/M
;
_chemical_formula_sum "Si O2"
_cell_formula_units_Z 56
_cell_length_a 8.967629
_cell_length_b 23.683788
_cell_length_c 13.548393
_cell_angle_alpha 90.000000
_cell_angle_beta 70.164042
_cell_angle_gamma 90.000000
_cell_volume 2706.779959
_symmetry_space_group_name_H-M "C 2/M"
_symmetry_group_IT_number 12
_symmetry_cell_setting 'monoclinic'
loop_
_space_group_symop_operation_xyz
x,y,z
-x,y,-z
-x,-y,-z
x,-y,z
1/2+x,1/2+y,z
1/2-x,1/2+y,-z
1/2-x,1/2-y,-z
1/2+x,1/2-y,z
loop_
_atom_site_type_symbol
_atom_site_label
_atom_site_fract_x
_atom_site_fract_y
_atom_site_fract_z
Si Si1 0.065558 0.257161 0.259949
Si Si2 0.215605 0.628847 0.203171
Si Si3 0.647621 0.596058 0.405814
Si Si4 0.435402 0.630380 0.793286
Si Si5 0.517808 0.062710 0.608827
Si Si6 0.175547 0.063808 0.002463
Si Si7 0.768610 0.220494 0.598124
O O1 0.178840 0.305345 0.187816
O O2 0.100973 0.197383 0.198704
O O3 0.092403 0.250412 0.371525
O O4 0.882746 0.275798 0.294222
O O5 0.380860 0.620964 0.222625
O O6 0.076680 0.606762 0.303912
O O7 0.211273 0.594230 0.102146
O O8 0.500000 0.570376 0.500000
O O9 0.603392 0.599506 0.300517
O O10 0.801363 0.558452 0.393465
O O11 0.687128 0.657313 0.439633
O O12 0.321623 0.600662 0.898636
O O13 0.500000 0.083309 0.500000
O O14 0.443796 0.000000 0.635729
O O15 0.236888 0.000000 0.008967
O O16 0.000000 0.061819 0.000000
O O17 0.750000 0.250000 0.500000
#
# Coordination Sequence:
#
# PCOD8111546 Si02
#       7
#     8   8   8   8   8   8   8
#     4  11  21  34  58  90 126 163 201 251 316 366
#     4  11  21  40  66  89 125 162 212 264 304 373
#     4  11  23  39  60  90 127 164 206 251 307 375
#     4  10  22  40  62  94 127 160 209 257 310 371
#     4  11  25  41  61  90 126 167 209 257 313 370
#     4   9  20  40  67  91 113 159 217 264 310 366
#     4  11  21  34  54  89 122 165 206 244 297 377
#
# _framework density 20.688789
#
# number of rings (size 3 to 8) (size 9 to 14) (size 15 to 20)
#    0.000    1.429    2.857    3.429    2.000    2.000 
#    0.000    0.714    0.000    1.714    0.000    0.000 
#    0.000    0.000    0.000    0.000    0.000    0.000 
#
# Total GULP energy -347221.552904 kJ/mol
# GULP energy per Si atom -12400.769747 kJ/mol
# Density = 2.064170 g / cm^3
# Si number density = 20.688789 Si / 1000 Ang^3
#
#
#
# Elastic Constant Matrix: (Units=GPa)
#
#
# Indices 1 2 3 4 5 6 
#
# 1 84.3788 21.1192 38.8383 0.0000 3.7112 0.0000
# 2 21.1192 116.4327 62.0958 0.0000 0.3289 0.0000
# 3 38.8383 62.0958 137.8350 0.0000 5.8818 0.0000
# 4 0.0000 0.0000 0.0000 30.5582 0.0000 3.7815
# 5 3.7112 0.3289 5.8818 0.0000 24.7467 0.0000
# 6 0.0000 0.0000 0.0000 3.7815 0.0000 22.5522
#
#
#
# Elastic Compliance Matrix: (Units=1/GPa)
#
#
# Indices 1 2 3 4 5 6 
#
# 1 0.013680 -0.000592 -0.003537 0.000000 -0.001203 0.000000
# 2 -0.000592 0.011359 -0.004998 0.000000 0.001126 0.000000
# 3 -0.003537 -0.004998 0.010585 0.000000 -0.001919 0.000000
# 4 0.000000 0.000000 0.000000 0.033418 0.000000 -0.005604
# 5 -0.001203 0.001126 -0.001919 0.000000 0.041031 0.000000
# 6 0.000000 0.000000 0.000000 -0.005604 0.000000 0.045281
#
#
# Mechanical properties :
#
#
# Convention : Reuss Voigt Hill
#
# Bulk Modulus (GPa) = 57.56984 64.75036 61.16010
# Shear Modulus (GPa) = 27.87091 30.01095 28.94093
#
# Velocity S-wave (km/s) = 3.67434 3.81279 3.74420
# Velocity P-wave (km/s) = 6.77407 7.12379 6.95113
#
# Compressibility (1/GPa) = 0.01737021
#
# Stress axis : x y z
#
# Youngs Moduli (GPa) = 73.09785 88.03927 94.47008
#
# Poissons Ratio (x) = 0.05210 0.33412
# Poissons Ratio (y) = 0.04326 0.47220
# Poissons Ratio (z) = 0.25853 0.44006
#
# Static dielectric constant tensor:
#      x y z
#    x 3.836260 0.000000 0.020570 
#    y 0.000000 3.849780 0.000000 
#    z 0.020570 0.000000 3.615240 
# 
# 
# High freq. dielectric constant tensor:
#      x y z
#    x 1.808910 0.000000 0.002330 
#    y 0.000000 1.816940 0.000000 
#    z 0.002330 0.000000 1.795070 
# 
# From -- ./inp_files/124255.got.cif
#   From: 2010.06.25/outbox.cif.g09.slc.cpg/sg12_63_cif.got.tgz:124255.got - 2010.06.28 00:19:55.
