data_PCOD8111135
_publ_section_title
;
Structure prediction by ZEFSAII (Michael W. Deem and Ramdas Pophale) SiO2 
 PCOD8111135
Probable space group: C 2/M
;
_chemical_formula_sum "Si O2"
_cell_formula_units_Z 56
_cell_length_a 23.498503
_cell_length_b 8.786602
_cell_length_c 15.623346
_cell_angle_alpha 90.000000
_cell_angle_beta 123.190543
_cell_angle_gamma 90.000000
_cell_volume 2699.511931
_symmetry_space_group_name_H-M "C 2/M"
_symmetry_group_IT_number 12
_symmetry_cell_setting 'monoclinic'
loop_
_space_group_symop_operation_xyz
x,y,z
-x,y,-z
-x,-y,-z
x,-y,z
1/2+x,1/2+y,z
1/2-x,1/2+y,-z
1/2-x,1/2-y,-z
1/2+x,1/2-y,z
loop_
_atom_site_type_symbol
_atom_site_label
_atom_site_fract_x
_atom_site_fract_y
_atom_site_fract_z
Si Si1 0.956757 0.675221 0.385737
Si Si2 0.454300 0.678315 0.204472
Si Si3 0.681744 0.175609 0.641473
Si Si4 0.314990 0.178156 0.823747
Si Si5 0.315078 0.319611 0.008513
Si Si6 0.320634 0.676902 0.532906
Si Si7 0.410487 0.674895 0.771457
O O1 0.977172 0.500000 0.394077
O O2 0.975945 0.753291 0.312950
O O3 0.876184 0.695928 0.334926
O O4 0.000000 0.747284 0.500000
O O5 0.450680 0.500000 0.215818
O O6 0.382060 0.741888 0.112391
O O7 0.510640 0.717924 0.178827
O O8 0.747073 0.275270 0.717996
O O9 0.651009 0.236141 0.527023
O O10 0.704124 0.000000 0.650805
O O11 0.380615 0.217866 0.820592
O O12 0.313683 0.000000 0.842383
O O13 0.319026 0.270551 0.914148
O O14 0.310118 0.500000 0.008924
O O15 0.250000 0.250000 0.000000
O O16 0.310585 0.500000 0.503806
O O17 0.250000 0.750000 0.500000
O O18 0.373408 0.704337 0.651644
O O19 0.401966 0.500000 0.793654
#
# Coordination Sequence:
#
# PCOD8111135 Si02
#       7
#     8   8   8   8   8   8   8
#     4  10  22  39  60  89 124 162 200 246 303 359
#     4  10  23  42  65  91 120 160 204 250 303 362
#     4  11  22  37  59  87 123 163 205 255 309 362
#     4  12  25  40  62  91 121 158 206 253 305 365
#     4  11  24  44  68  93 123 157 201 254 307 363
#     4  11  21  34  57  87 123 163 205 249 302 362
#     4  10  22  41  62  88 124 163 203 249 306 364
#
# _framework density 20.744492000000001
#
# number of rings (size 3 to 8) (size 9 to 14) (size 15 to 20)
#    0.000    1.286    1.429    4.286    0.000    6.571 
#    0.000    2.857    0.000    0.000    0.000    0.000 
#    0.000    0.000    0.000    0.000    0.000    0.000 
#
# Total GULP energy -347333.584262 kJ/mol
# GULP energy per Si atom -12404.770867 kJ/mol
# Density = 2.069728 g / cm^3
# Si number density = 20.744492 Si / 1000 Ang^3
#
#
#
# Elastic Constant Matrix: (Units=GPa)
#
#
# Indices 1 2 3 4 5 6 
#
# 1 113.9847 37.1010 49.3809 0.0000 5.0090 0.0000
# 2 37.1010 63.4694 24.7201 0.0000 1.9736 0.0000
# 3 49.3809 24.7201 99.3366 0.0000 -2.5330 0.0000
# 4 0.0000 0.0000 0.0000 34.0805 0.0000 -6.6793
# 5 5.0090 1.9736 -2.5330 0.0000 38.3855 0.0000
# 6 0.0000 0.0000 0.0000 -6.6793 0.0000 30.0640
#
#
#
# Elastic Compliance Matrix: (Units=1/GPa)
#
#
# Indices 1 2 3 4 5 6 
#
# 1 0.012820 -0.005471 -0.005055 0.000000 -0.001725 0.000000
# 2 -0.005471 0.019836 -0.002228 0.000000 -0.000453 0.000000
# 3 -0.005055 -0.002228 0.013176 0.000000 0.001644 0.000000
# 4 0.000000 0.000000 0.000000 0.030678 0.000000 0.006816
# 5 -0.001725 -0.000453 0.001644 0.000000 0.026408 0.000000
# 6 0.000000 0.000000 0.000000 0.006816 0.000000 0.034777
#
#
# Mechanical properties :
#
#
# Convention : Reuss Voigt Hill
#
# Bulk Modulus (GPa) = 49.20593 55.46609 52.33601
# Shear Modulus (GPa) = 29.41561 31.54525 30.48043
#
# Velocity S-wave (km/s) = 3.76971 3.90379 3.83734
# Velocity P-wave (km/s) = 6.53599 6.86405 6.70203
#
# Compressibility (1/GPa) = 0.02032275
#
# Stress axis : x y z
#
# Youngs Moduli (GPa) = 78.00407 50.41430 75.89480
#
# Poissons Ratio (x) = 0.27583 0.38367
# Poissons Ratio (y) = 0.42678 0.16908
# Poissons Ratio (z) = 0.39433 0.11232
#
# Static dielectric constant tensor:
#      x y z
#    x 3.814650 0.000000 -0.200560 
#    y 0.000000 3.507930 0.000000 
#    z -0.200560 0.000000 3.257600 
# 
# 
# High freq. dielectric constant tensor:
#      x y z
#    x 1.827190 0.000000 -0.001400 
#    y 0.000000 1.808610 0.000000 
#    z -0.001400 0.000000 1.813880 
# 
# From -- ./inp_files/238979.got.cif
#   From: 2010.06.25/outbox.cif.g09.slc.cpg/sg12_120_cif.got.tgz:238979.got - 2010.06.28 00:19:55.
