data_PCOD8111215
_publ_section_title
;
Structure prediction by ZEFSAII (Michael W. Deem and Ramdas Pophale) SiO2 
 PCOD8111215
Probable space group: C 2/M
;
_chemical_formula_sum "Si O2"
_cell_formula_units_Z 64
_cell_length_a 15.807058
_cell_length_b 14.610668
_cell_length_c 23.147233
_cell_angle_alpha 90.000000
_cell_angle_beta 144.274437
_cell_angle_gamma 90.000000
_cell_volume 3121.485052
_symmetry_space_group_name_H-M "C 2/M"
_symmetry_group_IT_number 12
_symmetry_cell_setting 'monoclinic'
loop_
_space_group_symop_operation_xyz
x,y,z
-x,y,-z
-x,-y,-z
x,-y,z
1/2+x,1/2+y,z
1/2-x,1/2+y,-z
1/2-x,1/2-y,-z
1/2+x,1/2-y,z
loop_
_atom_site_type_symbol
_atom_site_label
_atom_site_fract_x
_atom_site_fract_y
_atom_site_fract_z
Si Si1 0.668511 0.605204 0.593126
Si Si2 0.872901 0.177849 0.081870
Si Si3 0.643528 0.603717 0.048821
Si Si4 0.112531 0.900003 0.789266
Si Si5 0.642148 0.106345 0.413174
Si Si6 0.347995 0.211828 0.239330
Si Si7 0.271241 0.601140 0.606716
Si Si8 0.299612 0.730230 0.724900
O O1 0.500000 0.632332 0.500000
O O2 0.689317 0.500000 0.623286
O O3 0.734230 0.623457 0.566071
O O4 0.751411 0.665473 0.687042
O O5 0.829294 0.121111 0.114248
O O6 0.026791 0.227694 0.176959
O O7 0.750000 0.250000 0.000000
O O8 0.880489 0.107790 0.032964
O O9 0.676579 0.500000 0.085809
O O10 0.774645 0.666721 0.142651
O O11 0.500000 0.641110 0.000000
O O12 0.161810 0.821606 0.772377
O O13 0.941393 0.903553 0.694057
O O14 0.173739 0.000000 0.804130
O O15 0.510537 0.174526 0.327990
O O16 0.704267 0.135589 0.509565
O O17 0.592183 0.000000 0.384660
O O18 0.265633 0.187658 0.252615
O O19 0.211556 0.500000 0.589310
O O20 0.229636 0.669848 0.634837
#
# Coordination Sequence:
#
# PCOD8111215 Si02
#       8
#     8   8   8   8   8   8   8   8
#     4  10  24  44  64  88 125 171 218 262 309 374
#     4  11  21  42  68  89 123 163 208 261 316 374
#     4  11  23  41  65  90 122 163 204 254 320 383
#     4  10  22  39  62  90 119 163 211 250 301 371
#     4  10  22  41  64  93 124 162 209 260 318 374
#     4  12  24  39  62  93 130 159 205 264 311 378
#     4   9  21  40  63  89 124 164 206 253 308 373
#     4  11  25  39  62  96 126 163 210 258 317 376
#
# _framework density 20.503060999999999
#
# number of rings (size 3 to 8) (size 9 to 14) (size 15 to 20)
#    0.000    1.500    2.500    2.250    3.500    3.000 
#    0.000    1.875    0.000    1.125    0.000    0.000 
#    0.000    0.000    0.000    0.000    0.000    0.000 
#
# Total GULP energy -396868.168818 kJ/mol
# GULP energy per Si atom -12402.130276 kJ/mol
# Density = 2.045640 g / cm^3
# Si number density = 20.503061 Si / 1000 Ang^3
#
#
#
# Elastic Constant Matrix: (Units=GPa)
#
#
# Indices 1 2 3 4 5 6 
#
# 1 86.9184 30.1487 35.4020 0.0000 -4.4341 0.0000
# 2 30.1487 111.3356 55.4966 0.0000 1.5973 0.0000
# 3 35.4020 55.4966 118.8465 0.0001 -8.7988 0.0001
# 4 0.0000 0.0000 0.0001 28.7465 0.0001 0.4235
# 5 -4.4341 1.5973 -8.7988 0.0001 31.5099 0.0000
# 6 0.0000 0.0000 0.0001 0.4235 0.0000 22.2986
#
#
#
# Elastic Compliance Matrix: (Units=1/GPa)
#
#
# Indices 1 2 3 4 5 6 
#
# 1 0.013521 -0.002236 -0.002894 0.000000 0.001208 0.000000
# 2 -0.002236 0.012223 -0.005219 0.000000 -0.002392 0.000000
# 3 -0.002894 -0.005219 0.011950 0.000000 0.003194 0.000000
# 4 0.000000 0.000000 0.000000 0.034797 0.000000 -0.000661
# 5 0.001208 -0.002392 0.003194 0.000000 0.032919 0.000000
# 6 0.000000 0.000000 0.000000 -0.000661 0.000000 0.044859
#
#
# Mechanical properties :
#
#
# Convention : Reuss Voigt Hill
#
# Bulk Modulus (GPa) = 58.83701 62.13281 60.48491
# Shear Modulus (GPa) = 28.30763 29.58120 28.94441
#
# Velocity S-wave (km/s) = 3.71975 3.80250 3.76135
# Velocity P-wave (km/s) = 6.87078 7.04618 6.95903
#
# Compressibility (1/GPa) = 0.01699611
#
# Stress axis : x y z
#
# Youngs Moduli (GPa) = 73.95874 81.81317 83.68446
#
# Poissons Ratio (x) = 0.18295 0.24219
# Poissons Ratio (y) = 0.16538 0.43672
# Poissons Ratio (z) = 0.21404 0.42695
#
# Static dielectric constant tensor:
#      x y z
#    x 3.732720 0.000000 -0.294340 
#    y 0.000000 4.056710 0.000000 
#    z -0.294340 0.000000 3.934690 
# 
# 
# High freq. dielectric constant tensor:
#      x y z
#    x 1.795110 0.000000 -0.012590 
#    y 0.000000 1.808570 0.000000 
#    z -0.012590 0.000000 1.804390 
# 
# From -- ./inp_files/270676.got.cif
#   From: 2010.06.25/outbox.cif.g09.slc.cpg/sg12_136_cif.got.tgz:270676.got - 2010.06.28 00:19:55.
