data_PCOD8111062
_publ_section_title
;
Structure prediction by ZEFSAII (Michael W. Deem and Ramdas Pophale) SiO2 
 PCOD8111062
Probable space group: C 2/M
;
_chemical_formula_sum "Si O2"
_cell_formula_units_Z 64
_cell_length_a 23.729285
_cell_length_b 8.992183
_cell_length_c 14.693033
_cell_angle_alpha 90.000000
_cell_angle_beta 93.810240
_cell_angle_gamma 90.000000
_cell_volume 3128.241113
_symmetry_space_group_name_H-M "C 2/M"
_symmetry_group_IT_number 12
_symmetry_cell_setting 'monoclinic'
loop_
_space_group_symop_operation_xyz
x,y,z
-x,y,-z
-x,-y,-z
x,-y,z
1/2+x,1/2+y,z
1/2-x,1/2+y,-z
1/2-x,1/2-y,-z
1/2+x,1/2-y,z
loop_
_atom_site_type_symbol
_atom_site_label
_atom_site_fract_x
_atom_site_fract_y
_atom_site_fract_z
Si Si1 0.564958 0.675427 0.000821
Si Si2 0.363880 0.328665 0.817212
Si Si3 0.121825 0.325530 0.834985
Si Si4 0.720487 0.670596 0.580490
Si Si5 0.739063 0.170110 0.769336
Si Si6 0.957483 0.828986 0.309041
Si Si7 0.928404 0.674267 0.673972
Si Si8 0.594429 0.666404 0.509830
O O1 0.567698 0.500000 0.987051
O O2 0.596027 0.749581 0.920158
O O3 0.500000 0.729867 0.000000
O O4 0.598697 0.726104 0.094077
O O5 0.377496 0.500000 0.795370
O O6 0.297389 0.307029 0.831152
O O7 0.377140 0.227018 0.731525
O O8 0.111452 0.500000 0.841460
O O9 0.188170 0.285061 0.831786
O O10 0.092288 0.263665 0.741752
O O11 0.738817 0.500000 0.579322
O O12 0.750000 0.750000 0.500000
O O13 0.741077 0.734446 0.678236
O O14 0.653617 0.691152 0.566058
O O15 0.731523 0.000000 0.737252
O O16 0.953279 0.814896 0.417895
O O17 0.016737 0.761001 0.284231
O O18 0.954014 0.000000 0.276539
O O19 0.938565 0.500000 0.683981
O O20 0.914192 0.711872 0.568376
O O21 0.590897 0.500000 0.466735
#
# Coordination Sequence:
#
# PCOD8111062 Si02
#       8
#     8   8   8   8   8   8   8   8
#     4  10  22  41  66  93 120 159 210 255 303 372
#     4  10  22  42  64  87 121 165 208 249 299 369
#     4  11  23  39  63  94 127 159 199 259 320 366
#     4  11  22  37  58  86 119 162 212 259 304 359
#     4  10  22  40  61  88 124 163 204 253 310 367
#     4  11  22  40  63  86 118 163 209 250 300 371
#     4  12  25  38  58  91 125 158 200 257 315 362
#     4  10  22  39  58  83 117 160 208 250 299 366
#
# _framework density 20.458781999999999
#
# number of rings (size 3 to 8) (size 9 to 14) (size 15 to 20)
#    0.000    1.375    1.250    4.125    0.000    9.750 
#    0.000    0.000    0.000    0.000    0.000    0.000 
#    0.000    0.000    0.000    0.000    0.000    0.000 
#
# Total GULP energy -396956.440965 kJ/mol
# GULP energy per Si atom -12404.888780 kJ/mol
# Density = 2.041222 g / cm^3
# Si number density = 20.458782 Si / 1000 Ang^3
#
#
#
# Elastic Constant Matrix: (Units=GPa)
#
#
# Indices 1 2 3 4 5 6 
#
# 1 130.6824 40.9207 52.4208 0.0000 -5.1852 0.0000
# 2 40.9207 60.8495 43.4872 0.0000 -11.0421 0.0000
# 3 52.4208 43.4872 104.3983 0.0000 -7.2348 0.0000
# 4 0.0000 0.0000 0.0000 31.5833 0.0000 1.9815
# 5 -5.1852 -11.0421 -7.2348 0.0000 36.9086 0.0000
# 6 0.0000 0.0000 0.0000 1.9815 0.0000 24.1035
#
#
#
# Elastic Compliance Matrix: (Units=1/GPa)
#
#
# Indices 1 2 3 4 5 6 
#
# 1 0.010447 -0.004780 -0.003297 0.000000 -0.000609 0.000000
# 2 -0.004780 0.026598 -0.008287 0.000000 0.005662 0.000000
# 3 -0.003297 -0.008287 0.014682 0.000000 -0.000065 0.000000
# 4 0.000000 0.000000 0.000000 0.031826 0.000000 -0.002616
# 5 -0.000609 0.005662 -0.000065 0.000000 0.028690 0.000000
# 6 0.000000 0.000000 0.000000 -0.002616 0.000000 0.041703
#
#
# Mechanical properties :
#
#
# Convention : Reuss Voigt Hill
#
# Bulk Modulus (GPa) = 52.63318 63.28751 57.96034
# Shear Modulus (GPa) = 25.90577 29.12585 27.51581
#
# Velocity S-wave (km/s) = 3.56229 3.77720 3.67132
# Velocity P-wave (km/s) = 6.53469 7.07279 6.80906
#
# Compressibility (1/GPa) = 0.01899942
#
# Stress axis : x y z
#
# Youngs Moduli (GPa) = 95.71934 37.59629 68.11206
#
# Poissons Ratio (x) = 0.17971 0.22456
# Poissons Ratio (y) = 0.45753 0.56445
# Poissons Ratio (z) = 0.31558 0.31157
#
# Static dielectric constant tensor:
#      x y z
#    x 4.009750 0.000000 0.009280 
#    y 0.000000 3.897290 0.000000 
#    z 0.009280 0.000000 3.586370 
# 
# 
# High freq. dielectric constant tensor:
#      x y z
#    x 1.817960 0.000000 -0.002110 
#    y 0.000000 1.797070 0.000000 
#    z -0.002110 0.000000 1.793470 
# 
# From -- ./inp_files/238613.got.cif
#   From: 2010.06.25/outbox.cif.g09.slc.cpg/sg12_120_cif.got.tgz:238613.got - 2010.06.28 00:19:55.
