data_PCOD8111383
_publ_section_title
;
Structure prediction by ZEFSAII (Michael W. Deem and Ramdas Pophale) SiO2 
 PCOD8111383
Probable space group: C 2/M
;
_chemical_formula_sum "Si O2"
_cell_formula_units_Z 48
_cell_length_a 10.177406
_cell_length_b 8.864367
_cell_length_c 27.016613
_cell_angle_alpha 90.000000
_cell_angle_beta 79.237901
_cell_angle_gamma 90.000000
_cell_volume 2394.467470
_symmetry_space_group_name_H-M "C 2/M"
_symmetry_group_IT_number 12
_symmetry_cell_setting 'monoclinic'
loop_
_space_group_symop_operation_xyz
x,y,z
-x,y,-z
-x,-y,-z
x,-y,z
1/2+x,1/2+y,z
1/2-x,1/2+y,-z
1/2-x,1/2-y,-z
1/2+x,1/2-y,z
loop_
_atom_site_type_symbol
_atom_site_label
_atom_site_fract_x
_atom_site_fract_y
_atom_site_fract_z
Si Si1 0.608634 0.673474 0.775081
Si Si2 0.781709 0.176796 0.445711
Si Si3 0.547642 0.823377 0.387642
Si Si4 0.704308 0.322496 0.053973
Si Si5 0.913062 0.824227 0.109086
Si Si6 0.629818 0.674491 0.281428
O O1 0.654059 0.500000 0.765665
O O2 0.582660 0.715732 0.833551
O O3 0.470134 0.704456 0.756826
O O4 0.721841 0.780661 0.745121
O O5 0.750000 0.250000 0.500000
O O6 0.668096 0.222075 0.414969
O O7 0.919924 0.233381 0.414425
O O8 0.789820 0.000000 0.453151
O O9 0.584162 0.777221 0.329833
O O10 0.516446 0.000000 0.391780
O O11 0.717002 0.500000 0.048274
O O12 0.794513 0.269214 0.093024
O O13 0.552428 0.273438 0.074993
O O14 0.750000 0.250000 0.000000
O O15 0.886468 0.000000 0.101725
O O16 0.629130 0.500000 0.297694
#
# Coordination Sequence:
#
# PCOD8111383 Si02
#       6
#     8   8   8   8   8   8
#     4  10  22  40  60  85 118 153 192 240 291 344
#     4  11  24  41  62  89 120 155 197 244 294 350
#     4  11  24  41  61  88 121 156 196 242 292 347
#     4  11  23  39  60  87 118 153 195 241 290 347
#     4  10  22  40  60  84 117 154 192 239 292 344
#     4  11  23  39  61  89 119 154 197 241 288 346
#
# _framework density 20.046212000000001
#
# number of rings (size 3 to 8) (size 9 to 14) (size 15 to 20)
#    0.000    1.333    0.000    5.000    0.000   15.333 
#    0.000    0.000    0.000    0.000    0.000    0.000 
#    0.000    0.000    0.000    0.000    0.000    0.000 
#
# Total GULP energy -297769.426660 kJ/mol
# GULP energy per Si atom -12407.059444 kJ/mol
# Density = 2.000059 g / cm^3
# Si number density = 20.046212 Si / 1000 Ang^3
#
#
#
# Elastic Constant Matrix: (Units=GPa)
#
#
# Indices 1 2 3 4 5 6 
#
# 1 89.4542 41.1078 13.3488 0.0000 -5.8283 0.0000
# 2 41.1078 53.1004 25.8169 0.0000 7.1814 0.0000
# 3 13.3488 25.8169 106.5237 0.0000 -0.1312 0.0000
# 4 0.0000 0.0000 0.0000 38.5308 0.0000 -1.1645
# 5 -5.8283 7.1814 -0.1312 0.0000 42.7231 0.0000
# 6 0.0000 0.0000 0.0000 -1.1645 0.0000 39.9579
#
#
#
# Elastic Compliance Matrix: (Units=1/GPa)
#
#
# Indices 1 2 3 4 5 6 
#
# 1 0.018552 -0.015798 0.001510 0.000000 0.005191 0.000000
# 2 -0.015798 0.035371 -0.006603 0.000000 -0.008121 0.000000
# 3 0.001510 -0.006603 0.010800 0.000000 0.001349 0.000000
# 4 0.000000 0.000000 0.000000 0.025976 0.000000 0.000757
# 5 0.005191 -0.008121 0.001349 0.000000 0.025484 0.000000
# 6 0.000000 0.000000 0.000000 0.000757 0.000000 0.025048
#
#
# Mechanical properties :
#
#
# Convention : Reuss Voigt Hill
#
# Bulk Modulus (GPa) = 43.58849 45.51391 44.55120
# Shear Modulus (GPa) = 26.22477 35.49601 30.86039
#
# Velocity S-wave (km/s) = 3.62085 4.21254 3.92785
# Velocity P-wave (km/s) = 6.26673 6.81282 6.54547
#
# Compressibility (1/GPa) = 0.02294184
#
# Stress axis : x y z
#
# Youngs Moduli (GPa) = 53.90364 28.27178 92.59095
#
# Poissons Ratio (x) = 0.44664 -0.13986
# Poissons Ratio (y) = 0.85158 0.61135
# Poissons Ratio (z) = -0.08142 0.18667
#
# Static dielectric constant tensor:
#      x y z
#    x 4.013030 0.000000 -0.087250 
#    y 0.000000 3.702450 0.000000 
#    z -0.087250 0.000000 3.907310 
# 
# 
# High freq. dielectric constant tensor:
#      x y z
#    x 1.798980 0.000000 0.001160 
#    y 0.000000 1.788620 0.000000 
#    z 0.001160 0.000000 1.801810 
# 
# From -- ./inp_files/334628.got.cif
#   From: 2010.06.25/outbox.cif.g09.slc.cpg/sg12_168_cif.got.tgz:334628.got - 2010.06.28 00:19:55.
