data_PCOD8111039
_publ_section_title
;
Structure prediction by ZEFSAII (Michael W. Deem and Ramdas Pophale) SiO2 
 PCOD8111039
Probable space group: C 2/M
;
_chemical_formula_sum "Si O2"
_cell_formula_units_Z 56
_cell_length_a 28.945810
_cell_length_b 9.121774
_cell_length_c 11.142747
_cell_angle_alpha 90.000000
_cell_angle_beta 76.178213
_cell_angle_gamma 90.000000
_cell_volume 2856.906145
_symmetry_space_group_name_H-M "C 2/M"
_symmetry_group_IT_number 12
_symmetry_cell_setting 'monoclinic'
loop_
_space_group_symop_operation_xyz
x,y,z
-x,y,-z
-x,-y,-z
x,-y,z
1/2+x,1/2+y,z
1/2-x,1/2+y,-z
1/2-x,1/2-y,-z
1/2+x,1/2-y,z
loop_
_atom_site_type_symbol
_atom_site_label
_atom_site_fract_x
_atom_site_fract_y
_atom_site_fract_z
Si Si1 0.806496 0.825756 0.223810
Si Si2 0.711481 0.330613 0.261515
Si Si3 0.612578 0.170456 0.685959
Si Si4 0.986656 0.329687 0.139354
Si Si5 0.934436 0.171465 0.772477
Si Si6 0.387831 0.667485 0.552793
Si Si7 0.338312 0.325887 0.944224
O O1 0.754086 0.767443 0.286456
O O2 0.842386 0.763193 0.299327
O O3 0.807091 0.000000 0.230400
O O4 0.821582 0.766289 0.083047
O O5 0.727369 0.500000 0.248180
O O6 0.666835 0.308833 0.376283
O O7 0.698142 0.272738 0.136275
O O8 0.568749 0.200882 0.802409
O O9 0.598395 0.223288 0.562215
O O10 0.625969 0.000000 0.674504
O O11 0.999024 0.500000 0.139044
O O12 0.017094 0.250959 0.222946
O O13 0.000000 0.266241 0.000000
O O14 0.922537 0.205342 0.641580
O O15 0.891392 0.232163 0.882625
O O16 0.941481 0.000000 0.788654
O O17 0.395671 0.500000 0.506577
O O18 0.339789 0.500000 0.938619
#
# Coordination Sequence:
#
# PCOD8111039 Si02
#       7
#     8   8   8   8   8   8   8
#     4  11  21  33  53  81 111 142 179 223 268 314
#     4   9  18  35  57  79 108 143 177 217 266 319
#     4  11  24  39  55  76 106 144 182 221 265 316
#     4  10  22  39  57  81 112 142 174 215 266 321
#     4   9  18  35  60  84 107 140 179 219 265 315
#     4   9  20  39  59  80 107 140 180 223 264 312
#     4   8  16  32  54  82 112 140 174 217 265 319
#
# _framework density 19.601624000000001
#
# number of rings (size 3 to 8) (size 9 to 14) (size 15 to 20)
#    0.000    2.429    0.000    3.857    0.000    3.714 
#    0.000    6.429    0.000    0.000    0.000    0.000 
#    0.000    0.000    0.000    0.000    0.000    0.000 
#
# Total GULP energy -347266.052914 kJ/mol
# GULP energy per Si atom -12402.359033 kJ/mol
# Density = 1.955701 g / cm^3
# Si number density = 19.601624 Si / 1000 Ang^3
#
#
#
# Elastic Constant Matrix: (Units=GPa)
#
#
# Indices 1 2 3 4 5 6 
#
# 1 106.7880 44.6514 21.7905 0.0000 15.5932 0.0000
# 2 44.6514 68.8348 35.1669 0.0000 5.3950 0.0000
# 3 21.7905 35.1669 85.0730 0.0000 9.5879 0.0000
# 4 0.0000 0.0000 0.0000 28.3133 0.0000 0.5806
# 5 15.5932 5.3950 9.5879 0.0000 18.6924 0.0000
# 6 0.0000 0.0000 0.0000 0.5806 0.0000 33.4991
#
#
#
# Elastic Compliance Matrix: (Units=1/GPa)
#
#
# Indices 1 2 3 4 5 6 
#
# 1 0.014421 -0.009203 0.001238 0.000000 -0.010009 0.000000
# 2 -0.009203 0.024329 -0.008251 0.000000 0.004887 0.000000
# 3 0.001238 -0.008251 0.015598 0.000000 -0.006652 0.000000
# 4 0.000000 0.000000 0.000000 0.035332 0.000000 -0.000612
# 5 -0.010009 0.004887 -0.006652 0.000000 0.063849 0.000000
# 6 0.000000 0.000000 0.000000 -0.000612 0.000000 0.029862
#
#
# Mechanical properties :
#
#
# Convention : Reuss Voigt Hill
#
# Bulk Modulus (GPa) = 45.62441 51.54594 48.58518
# Shear Modulus (GPa) = 22.40870 26.70677 24.55774
#
# Velocity S-wave (km/s) = 3.38480 3.69518 3.54339
# Velocity P-wave (km/s) = 6.21307 6.67530 6.44833
#
# Compressibility (1/GPa) = 0.02191809
#
# Stress axis : x y z
#
# Youngs Moduli (GPa) = 69.34227 41.10260 64.11189
#
# Poissons Ratio (x) = 0.37826 -0.07940
# Poissons Ratio (y) = 0.63815 0.52897
# Poissons Ratio (z) = -0.08588 0.33912
#
# Static dielectric constant tensor:
#      x y z
#    x 3.482960 0.000000 0.008720 
#    y 0.000000 3.302420 0.000000 
#    z 0.008720 0.000000 3.634290 
# 
# 
# High freq. dielectric constant tensor:
#      x y z
#    x 1.768320 0.000000 0.002010 
#    y 0.000000 1.744730 0.000000 
#    z 0.002010 0.000000 1.764190 
# 
# From -- ./inp_files/186486.got.cif
#   From: 2010.06.25/outbox.cif.g09.slc.cpg/sg12_94_cif.got.tgz:186486.got - 2010.06.28 00:19:55.
