data_PCOD8111690
_publ_section_title
;
Structure prediction by ZEFSAII (Michael W. Deem and Ramdas Pophale) SiO2 
 PCOD8111690
Probable space group: C 2/M
;
_chemical_formula_sum "Si O2"
_cell_formula_units_Z 64
_cell_length_a 32.061582
_cell_length_b 8.509479
_cell_length_c 14.979892
_cell_angle_alpha 90.000000
_cell_angle_beta 47.164354
_cell_angle_gamma 90.000000
_cell_volume 2996.970309
_symmetry_space_group_name_H-M "C 2/M"
_symmetry_group_IT_number 12
_symmetry_cell_setting 'monoclinic'
loop_
_space_group_symop_operation_xyz
x,y,z
-x,y,-z
-x,-y,-z
x,-y,z
1/2+x,1/2+y,z
1/2-x,1/2+y,-z
1/2-x,1/2-y,-z
1/2+x,1/2-y,z
loop_
_atom_site_type_symbol
_atom_site_label
_atom_site_fract_x
_atom_site_fract_y
_atom_site_fract_z
Si Si1 0.506906 0.181595 0.715561
Si Si2 0.608237 0.682432 0.187864
Si Si3 0.525999 0.682087 0.054939
Si Si4 0.332946 0.181510 0.734464
Si Si5 0.295052 0.683342 0.090451
Si Si6 0.186923 0.684667 0.586956
Si Si7 0.856924 0.681079 0.154895
Si Si8 0.875020 0.182741 0.493754
O O1 0.448434 0.222229 0.751435
O O2 0.503153 0.216168 0.826055
O O3 0.557883 0.282041 0.599443
O O4 0.521222 0.000000 0.680540
O O5 0.595020 0.500000 0.192912
O O6 0.625878 0.714363 0.263979
O O7 0.659352 0.739554 0.049504
O O8 0.513144 0.500000 0.092267
O O9 0.500000 0.740925 0.000000
O O10 0.593223 0.709111 0.955440
O O11 0.267781 0.221525 0.854189
O O12 0.343221 0.220351 0.616409
O O13 0.346630 0.000000 0.732448
O O14 0.301209 0.500000 0.103469
O O15 0.303200 0.781163 0.170077
O O16 0.188697 0.500000 0.565889
O O17 0.250000 0.750000 0.500000
O O18 0.156583 0.725361 0.724119
O O19 0.150732 0.768889 0.563665
O O20 0.874641 0.500000 0.120502
O O21 0.864412 0.000000 0.525396
#
# Coordination Sequence:
#
# PCOD8111690 Si02
#       8
#     8   8   8   8   8   8   8   8
#     4  12  25  43  67  95 129 170 215 270 324 386
#     4  11  23  42  67  98 132 171 215 265 325 392
#     4  11  23  39  61  90 124 164 209 257 315 381
#     4  11  24  43  67  97 129 170 218 271 328 389
#     4  10  22  40  65  95 133 171 211 264 324 386
#     4  11  24  42  64  95 132 174 221 271 323 385
#     4  11  23  37  60  92 126 165 211 260 315 378
#     4  12  26  45  67  94 129 174 221 273 328 389
#
# _framework density 21.354900000000001
#
# number of rings (size 3 to 8) (size 9 to 14) (size 15 to 20)
#    0.000    0.875    1.250    6.000    0.000    9.000 
#    0.000    2.500    0.000    0.000    0.000    0.000 
#    0.000    0.000    0.000    0.000    0.000    0.000 
#
# Total GULP energy -397062.034952 kJ/mol
# GULP energy per Si atom -12408.188592 kJ/mol
# Density = 2.130630 g / cm^3
# Si number density = 21.354900 Si / 1000 Ang^3
#
#
#
# Elastic Constant Matrix: (Units=GPa)
#
#
# Indices 1 2 3 4 5 6 
#
# 1 107.8745 25.2296 25.0035 0.0000 4.2890 0.0002
# 2 25.2296 54.5345 16.2436 0.0000 -2.7002 0.0004
# 3 25.0035 16.2436 84.3532 0.0000 -7.7689 0.0000
# 4 0.0000 0.0000 0.0000 29.6359 0.0000 3.4287
# 5 4.2890 -2.7002 -7.7689 0.0000 39.3824 0.0001
# 6 0.0002 0.0004 0.0000 3.4287 0.0001 37.8542
#
#
#
# Elastic Compliance Matrix: (Units=1/GPa)
#
#
# Indices 1 2 3 4 5 6 
#
# 1 0.010982 -0.004408 -0.002591 0.000000 -0.002009 0.000000
# 2 -0.004408 0.021236 -0.002653 0.000000 0.001413 0.000000
# 3 -0.002591 -0.002653 0.013386 0.000000 0.002741 0.000000
# 4 0.000000 0.000000 0.000000 0.034100 0.000000 -0.003089
# 5 -0.002009 0.001413 0.002741 0.000000 0.026248 0.000000
# 6 0.000000 0.000000 0.000000 -0.003089 0.000000 0.026697
#
#
# Mechanical properties :
#
#
# Convention : Reuss Voigt Hill
#
# Bulk Modulus (GPa) = 38.02268 42.19063 40.10666
# Shear Modulus (GPa) = 31.10988 33.39353 32.25170
#
# Velocity S-wave (km/s) = 3.82095 3.95871 3.89044
# Velocity P-wave (km/s) = 6.10819 6.37926 6.24519
#
# Compressibility (1/GPa) = 0.02630009
#
# Stress axis : x y z
#
# Youngs Moduli (GPa) = 91.06223 47.08883 74.70333
#
# Poissons Ratio (x) = 0.20757 0.19358
# Poissons Ratio (y) = 0.40141 0.19817
# Poissons Ratio (z) = 0.23597 0.12491
#
# Static dielectric constant tensor:
#      x y z
#    x 3.912660 0.000000 -0.018030 
#    y 0.000000 3.787230 0.000000 
#    z -0.018030 0.000000 3.916290 
# 
# 
# High freq. dielectric constant tensor:
#      x y z
#    x 1.850930 0.000000 -0.000800 
#    y 0.000000 1.842540 0.000000 
#    z -0.000800 0.000000 1.841330 
# 
# From -- ./inp_files/249730.got.cif
#   From: 2010.06.25/outbox.cif.g09.slc.cpg/sg12_125_cif.got.tgz:249730.got - 2010.06.28 00:19:55.
