data_PCOD8111602
_publ_section_title
;
Structure prediction by ZEFSAII (Michael W. Deem and Ramdas Pophale) SiO2 
 PCOD8111602
Probable space group: C 2/M
;
_chemical_formula_sum "Si O2"
_cell_formula_units_Z 48
_cell_length_a 16.105199
_cell_length_b 27.591532
_cell_length_c 6.325063
_cell_angle_alpha 90.000000
_cell_angle_beta 54.890721
_cell_angle_gamma 90.000000
_cell_volume 2299.270732
_symmetry_space_group_name_H-M "C 2/M"
_symmetry_group_IT_number 12
_symmetry_cell_setting 'monoclinic'
loop_
_space_group_symop_operation_xyz
x,y,z
-x,y,-z
-x,-y,-z
x,-y,z
1/2+x,1/2+y,z
1/2-x,1/2+y,-z
1/2-x,1/2-y,-z
1/2+x,1/2-y,z
loop_
_atom_site_type_symbol
_atom_site_label
_atom_site_fract_x
_atom_site_fract_y
_atom_site_fract_z
Si Si1 0.590275 0.878903 0.017001
Si Si2 0.704696 0.944270 0.154779
Si Si3 0.783086 0.217900 0.254571
Si Si4 0.906689 0.720289 0.770712
Si Si5 0.607833 0.444479 0.424197
Si Si6 0.229340 0.883348 0.554898
O O1 0.690433 0.866072 0.737641
O O2 0.500000 0.897674 0.000000
O O3 0.614196 0.921431 0.148502
O O4 0.555333 0.830225 0.186315
O O5 0.711195 0.916868 0.366873
O O6 0.677233 0.000000 0.236792
O O7 0.811861 0.938515 0.880863
O O8 0.750000 0.250000 0.500000
O O9 0.689495 0.210615 0.234788
O O10 0.818965 0.164629 0.272207
O O11 0.878463 0.242006 0.996569
O O12 0.000000 0.742438 0.500000
O O13 0.500000 0.425195 0.500000
O O14 0.600002 0.500000 0.510907
O O15 0.638155 0.413353 0.583842
#
# Coordination Sequence:
#
# PCOD8111602 Si02
#       6
#     8   8   8   8   8   8
#     4  11  23  39  67  93 123 171 214 256 312 385
#     4  10  22  40  63  95 128 165 208 261 320 374
#     4  11  23  42  65  92 127 167 209 266 317 375
#     4  11  24  41  67  93 124 171 217 259 318 382
#     4   9  20  39  64  91 124 166 211 258 316 383
#     4  11  21  40  65  89 129 167 209 261 322 370
#
# _framework density 20.876187000000002
#
# number of rings (size 3 to 8) (size 9 to 14) (size 15 to 20)
#    0.000    1.500    3.333    1.500    0.000    1.667 
#    0.000    8.333    0.000    0.000    0.000    0.000 
#    0.000    0.000    0.000    0.000    0.000    0.000 
#
# Total GULP energy -297751.431230 kJ/mol
# GULP energy per Si atom -12406.309635 kJ/mol
# Density = 2.082867 g / cm^3
# Si number density = 20.876187 Si / 1000 Ang^3
#
#
#
# Elastic Constant Matrix: (Units=GPa)
#
#
# Indices 1 2 3 4 5 6 
#
# 1 124.8260 44.9472 29.8561 0.0000 11.0391 0.0000
# 2 44.9472 137.0727 52.2314 0.0000 12.4766 0.0000
# 3 29.8561 52.2314 102.9728 0.0000 5.4765 0.0000
# 4 0.0000 0.0000 0.0000 29.9907 0.0000 5.9592
# 5 11.0391 12.4766 5.4765 0.0000 34.9887 0.0000
# 6 0.0000 0.0000 0.0000 5.9592 0.0000 33.8334
#
#
#
# Elastic Compliance Matrix: (Units=1/GPa)
#
#
# Indices 1 2 3 4 5 6 
#
# 1 0.009367 -0.002359 -0.001419 0.000000 -0.001892 0.000000
# 2 -0.002359 0.009864 -0.004207 0.000000 -0.002115 0.000000
# 3 -0.001419 -0.004207 0.012255 0.000000 0.000030 0.000000
# 4 0.000000 0.000000 0.000000 0.034553 0.000000 -0.006086
# 5 -0.001892 -0.002115 0.000030 0.000000 0.029927 0.000000
# 6 0.000000 0.000000 0.000000 -0.006086 0.000000 0.030629
#
#
# Mechanical properties :
#
#
# Convention : Reuss Voigt Hill
#
# Bulk Modulus (GPa) = 64.44460 68.77121 66.60790
# Shear Modulus (GPa) = 33.84380 35.61835 34.73107
#
# Velocity S-wave (km/s) = 4.03074 4.13506 4.08324
# Velocity P-wave (km/s) = 7.25255 7.47076 7.36246
#
# Compressibility (1/GPa) = 0.01551720
#
# Stress axis : x y z
#
# Youngs Moduli (GPa) = 106.75582 101.37366 81.59816
#
# Poissons Ratio (x) = 0.23911 0.11578
# Poissons Ratio (y) = 0.25180 0.34330
# Poissons Ratio (z) = 0.15148 0.42651
#
# Static dielectric constant tensor:
#      x y z
#    x 3.742440 0.000000 0.195280 
#    y 0.000000 3.813240 0.000000 
#    z 0.195280 0.000000 3.839090 
# 
# 
# High freq. dielectric constant tensor:
#      x y z
#    x 1.817570 0.000000 0.014340 
#    y 0.000000 1.819680 0.000000 
#    z 0.014340 0.000000 1.819380 
# 
# From -- ./inp_files/13046.got.cif
#   From: 2010.06.25/outbox.cif.g09.slc.cpg/sg12_7_cif.got.tgz:13046.got - 2010.06.28 00:19:55.
