data_PCOD8111669
_publ_section_title
;
Structure prediction by ZEFSAII (Michael W. Deem and Ramdas Pophale) SiO2 
 PCOD8111669
Probable space group: C 2/M
;
_chemical_formula_sum "Si O2"
_cell_formula_units_Z 56
_cell_length_a 17.357150
_cell_length_b 12.056794
_cell_length_c 14.004814
_cell_angle_alpha 90.000000
_cell_angle_beta 97.414890
_cell_angle_gamma 90.000000
_cell_volume 2906.301148
_symmetry_space_group_name_H-M "C 2/M"
_symmetry_group_IT_number 12
_symmetry_cell_setting 'monoclinic'
loop_
_space_group_symop_operation_xyz
x,y,z
-x,y,-z
-x,-y,-z
x,-y,z
1/2+x,1/2+y,z
1/2-x,1/2+y,-z
1/2-x,1/2-y,-z
1/2+x,1/2-y,z
loop_
_atom_site_type_symbol
_atom_site_label
_atom_site_fract_x
_atom_site_fract_y
_atom_site_fract_z
Si Si1 0.303873 0.783830 0.422981
Si Si2 0.069090 0.621466 0.449426
Si Si3 0.222543 0.369845 0.949095
Si Si4 0.544328 0.738217 0.268023
Si Si5 0.198948 0.124839 0.242301
Si Si6 0.961195 0.627272 0.090857
Si Si7 0.442614 0.376877 0.401849
O O1 0.250000 0.750000 0.500000
O O2 0.354850 0.886196 0.471667
O O3 0.255001 0.811339 0.322652
O O4 0.363677 0.687915 0.407304
O O5 0.040642 0.500000 0.415704
O O6 0.085364 0.686125 0.354734
O O7 0.000000 0.680329 0.500000
O O8 0.239219 0.500000 0.994815
O O9 0.263049 0.368857 0.854232
O O10 0.130722 0.357061 0.926884
O O11 0.250000 0.250000 0.000000
O O12 0.612982 0.675643 0.223921
O O13 0.495036 0.807901 0.185607
O O14 0.485080 0.656534 0.310678
O O15 0.190910 0.000000 0.278234
O O16 0.984995 0.500000 0.108644
O O17 0.000000 0.673705 0.000000
O O18 0.500000 0.368887 0.500000
O O19 0.412888 0.500000 0.381214
#
# Coordination Sequence:
#
# PCOD8111669 Si02
#       7
#     8   8   8   8   8   8   8
#     4  12  21  39  56  84 121 157 200 249 297 359
#     4  11  22  36  57  85 117 155 200 249 295 346
#     4  10  22  43  68  96 127 162 204 257 318 377
#     4  12  20  40  61  86 118 156 205 246 295 360
#     4  11  24  39  61  88 122 164 202 249 312 370
#     4  10  22  40  65  92 120 158 200 249 309 368
#     4  11  22  38  58  81 115 157 201 246 296 357
#
# _framework density 19.268478999999999
#
# number of rings (size 3 to 8) (size 9 to 14) (size 15 to 20)
#    0.000    1.000    4.286    3.000    0.000    2.286 
#    0.000    4.286    0.000    3.857    0.000    0.000 
#    0.000    0.000    0.000    0.000    0.000    0.000 
#
# Total GULP energy -346877.087361 kJ/mol
# GULP energy per Si atom -12388.467406 kJ/mol
# Density = 1.922462 g / cm^3
# Si number density = 19.268479 Si / 1000 Ang^3
#
#
#
# Elastic Constant Matrix: (Units=GPa)
#
#
# Indices 1 2 3 4 5 6 
#
# 1 134.6470 47.9217 42.0292 0.0000 -16.5633 0.0000
# 2 47.9217 132.3096 45.5695 0.0000 3.2344 0.0000
# 3 42.0292 45.5695 88.3238 0.0000 -6.9970 0.0000
# 4 0.0000 0.0000 0.0000 85.4539 0.0000 -9.7553
# 5 -16.5633 3.2344 -6.9970 0.0000 38.7477 0.0000
# 6 0.0000 0.0000 0.0000 -9.7553 0.0000 25.5473
#
#
#
# Elastic Compliance Matrix: (Units=1/GPa)
#
#
# Indices 1 2 3 4 5 6 
#
# 1 0.009761 -0.002596 -0.003001 0.000000 0.003847 0.000000
# 2 -0.002596 0.009986 -0.004130 0.000000 -0.002689 0.000000
# 3 -0.003001 -0.004130 0.015021 0.000000 0.001775 0.000000
# 4 0.000000 0.000000 0.000000 0.012236 0.000000 0.004672
# 5 0.003847 -0.002689 0.001775 0.000000 0.027997 0.000000
# 6 0.000000 0.000000 0.000000 0.004672 0.000000 0.040927
#
#
# Mechanical properties :
#
#
# Convention : Reuss Voigt Hill
#
# Bulk Modulus (GPa) = 65.29453 69.59123 67.44288
# Shear Modulus (GPa) = 35.59058 44.60045 40.09551
#
# Velocity S-wave (km/s) = 4.30244 4.81634 4.56662
# Velocity P-wave (km/s) = 7.65778 8.19295 7.92988
#
# Compressibility (1/GPa) = 0.01531522
#
# Stress axis : x y z
#
# Youngs Moduli (GPa) = 102.45335 100.13566 66.57217
#
# Poissons Ratio (x) = 0.25993 0.19975
# Poissons Ratio (y) = 0.26595 0.27495
# Poissons Ratio (z) = 0.30742 0.41358
#
# Static dielectric constant tensor:
#      x y z
#    x 3.730380 0.000000 -0.106840 
#    y 0.000000 4.253750 0.000000 
#    z -0.106840 0.000000 3.476040 
# 
# 
# High freq. dielectric constant tensor:
#      x y z
#    x 1.763580 0.000000 -0.016260 
#    y 0.000000 1.765050 0.000000 
#    z -0.016260 0.000000 1.740620 
# 
# From -- ./inp_files/213404.got.cif
#   From: 2010.06.25/outbox.cif.g09.slc.cpg/sg12_107_cif.got.tgz:213404.got - 2010.06.28 00:19:55.
