data_PCOD8111235
_publ_section_title
;
Structure prediction by ZEFSAII (Michael W. Deem and Ramdas Pophale) SiO2 
 PCOD8111235
Probable space group: C 2/M
;
_chemical_formula_sum "Si O2"
_cell_formula_units_Z 48
_cell_length_a 13.300257
_cell_length_b 20.172504
_cell_length_c 15.385103
_cell_angle_alpha 90.000000
_cell_angle_beta 34.459929
_cell_angle_gamma 90.000000
_cell_volume 2335.640583
_symmetry_space_group_name_H-M "C 2/M"
_symmetry_group_IT_number 12
_symmetry_cell_setting 'monoclinic'
loop_
_space_group_symop_operation_xyz
x,y,z
-x,y,-z
-x,-y,-z
x,-y,z
1/2+x,1/2+y,z
1/2-x,1/2+y,-z
1/2-x,1/2-y,-z
1/2+x,1/2-y,z
loop_
_atom_site_type_symbol
_atom_site_label
_atom_site_fract_x
_atom_site_fract_y
_atom_site_fract_z
Si Si1 0.965050 0.309015 0.159237
Si Si2 0.390138 0.321582 0.314392
Si Si3 0.590175 0.073773 0.183749
Si Si4 0.495085 0.574831 0.904327
Si Si5 0.207083 0.790233 0.194986
Si Si6 0.997510 0.339156 0.604393
O O1 0.920611 0.252269 0.258851
O O2 0.801012 0.322996 0.211335
O O3 0.986339 0.377840 0.193701
O O4 0.145005 0.283961 0.985107
O O5 0.391065 0.375643 0.236274
O O6 0.542322 0.335449 0.278669
O O7 0.196527 0.322990 0.496027
O O8 0.567255 0.094497 0.301059
O O9 0.512317 0.000000 0.227832
O O10 0.795552 0.075415 0.011088
O O11 0.574153 0.500000 0.842495
O O12 0.500000 0.600604 0.000000
O O13 0.138625 0.718038 0.270941
O O14 0.000000 0.350005 0.500000
#
# Coordination Sequence:
#
# PCOD8111235 Si02
#       6
#     8   8   8   8   8   8
#     4  11  23  41  67  93 126 166 222 270 312 377
#     4  12  22  37  65  91 132 162 212 263 322 383
#     4  11  24  44  64  91 132 175 218 264 320 381
#     4  10  22  39  62  93 128 168 215 268 321 379
#     4  11  23  39  63  99 123 164 212 268 319 371
#     4  12  24  39  62 100 133 165 206 265 331 390
#
# _framework density 20.551107999999999
#
# number of rings (size 3 to 8) (size 9 to 14) (size 15 to 20)
#    0.000    0.833    5.000    3.000    2.333    1.000 
#    0.000    2.500    0.000    1.000    0.000    0.000 
#    0.000    0.000    0.000    0.000    0.000    0.000 
#
# Total GULP energy -297644.237427 kJ/mol
# GULP energy per Si atom -12401.843226 kJ/mol
# Density = 2.050433 g / cm^3
# Si number density = 20.551108 Si / 1000 Ang^3
#
#
#
# Elastic Constant Matrix: (Units=GPa)
#
#
# Indices 1 2 3 4 5 6 
#
# 1 106.2475 39.9824 25.2684 0.0002 -2.7740 -0.0061
# 2 39.9824 138.1592 43.7463 0.0013 13.3984 -0.0018
# 3 25.2684 43.7463 87.3040 -0.0059 -1.9254 0.0011
# 4 0.0002 0.0013 -0.0059 9.1083 0.0051 5.3394
# 5 -2.7740 13.3984 -1.9254 0.0051 35.1287 0.0018
# 6 -0.0061 -0.0018 0.0011 5.3394 0.0018 29.1372
#
#
#
# Elastic Compliance Matrix: (Units=1/GPa)
#
#
# Indices 1 2 3 4 5 6 
#
# 1 0.010920 -0.002793 -0.001721 -0.000004 0.001833 0.000003
# 2 -0.002793 0.009776 -0.004182 -0.000002 -0.004178 0.000001
# 3 -0.001721 -0.004182 0.014097 0.000010 0.002232 -0.000003
# 4 -0.000004 -0.000002 0.000010 0.123003 -0.000015 -0.022540
# 5 0.001833 -0.004178 0.002232 -0.000015 0.030328 0.000001
# 6 0.000003 0.000001 -0.000003 -0.022540 0.000001 0.038451
#
#
# Mechanical properties :
#
#
# Convention : Reuss Voigt Hill
#
# Bulk Modulus (GPa) = 57.46762 61.07831 59.27296
# Shear Modulus (GPa) = 20.01869 29.52243 24.77056
#
# Velocity S-wave (km/s) = 3.12443 3.79428 3.47553
# Velocity P-wave (km/s) = 6.40625 6.99858 6.70896
#
# Compressibility (1/GPa) = 0.01740110
#
# Stress axis : x y z
#
# Youngs Moduli (GPa) = 91.57356 102.29331 70.93693
#
# Poissons Ratio (x) = 0.28573 0.12205
# Poissons Ratio (y) = 0.25579 0.29667
# Poissons Ratio (z) = 0.15756 0.42781
#
# Static dielectric constant tensor:
#      x y z
#    x 4.030720 -0.000020 -0.118870 
#    y -0.000020 3.566770 0.000040 
#    z -0.118870 0.000040 3.873820 
# 
# 
# High freq. dielectric constant tensor:
#      x y z
#    x 1.813550 0.000000 -0.006940 
#    y 0.000000 1.781460 0.000000 
#    z -0.006940 0.000000 1.809300 
# 
# From -- ./inp_files/61743.got.cif
#   From: 2010.06.25/outbox.cif.g09.slc.cpg/sg12_31_cif.got.tgz:61743.got - 2010.06.28 00:19:55.
