data_PCOD8111355
_publ_section_title
;
Structure prediction by ZEFSAII (Michael W. Deem and Ramdas Pophale) SiO2 
 PCOD8111355
Probable space group: C 2/M
;
_chemical_formula_sum "Si O2"
_cell_formula_units_Z 48
_cell_length_a 17.691337
_cell_length_b 8.962868
_cell_length_c 15.281251
_cell_angle_alpha 90.000000
_cell_angle_beta 88.100947
_cell_angle_gamma 90.000000
_cell_volume 2421.742533
_symmetry_space_group_name_H-M "C 2/M"
_symmetry_group_IT_number 12
_symmetry_cell_setting 'monoclinic'
loop_
_space_group_symop_operation_xyz
x,y,z
-x,y,-z
-x,-y,-z
x,-y,z
1/2+x,1/2+y,z
1/2-x,1/2+y,-z
1/2-x,1/2-y,-z
1/2+x,1/2-y,z
loop_
_atom_site_type_symbol
_atom_site_label
_atom_site_fract_x
_atom_site_fract_y
_atom_site_fract_z
Si Si1 0.852274 0.170942 0.170519
Si Si2 0.830623 0.176697 0.482534
Si Si3 0.415844 0.827274 0.326625
Si Si4 0.411005 0.173483 0.636649
Si Si5 0.824117 0.326320 0.811723
Si Si6 0.171216 0.827553 0.019405
O O1 0.903670 0.279431 0.226619
O O2 0.764359 0.213254 0.187895
O O3 0.865767 0.000000 0.198155
O O4 0.877352 0.194351 0.067888
O O5 0.750000 0.250000 0.500000
O O6 0.861062 0.226818 0.387326
O O7 0.889022 0.229630 0.553935
O O8 0.822077 0.000000 0.484528
O O9 0.501786 0.796458 0.348453
O O10 0.394886 0.000000 0.339802
O O11 0.362107 0.229736 0.720864
O O12 0.394892 0.000000 0.617036
O O13 0.838715 0.500000 0.824612
O O14 0.865570 0.244725 0.892230
O O15 0.185833 0.000000 0.037098
O O16 0.250000 0.750000 0.000000
#
# Coordination Sequence:
#
# PCOD8111355 Si02
#       6
#     8   8   8   8   8   8
#     4   9  18  33  54  80 110 146 189 234 278 327
#     4  12  25  41  63  87 111 143 184 230 278 330
#     4  11  23  38  58  84 115 151 187 226 275 331
#     4  10  22  40  59  83 117 151 184 226 276 330
#     4   9  18  34  56  80 108 144 185 231 279 326
#     4   9  17  30  51  79 109 142 182 231 281 326
#
# _framework density 19.820439
#
# number of rings (size 3 to 8) (size 9 to 14) (size 15 to 20)
#    0.000    2.000    0.000    5.000    0.000    8.667 
#    0.000    0.833    0.000    5.000    0.000    0.000 
#    0.000    0.000    0.000    0.000    0.000    0.000 
#
# Total GULP energy -297614.094486 kJ/mol
# GULP energy per Si atom -12400.587270 kJ/mol
# Density = 1.977533 g / cm^3
# Si number density = 19.820439 Si / 1000 Ang^3
#
#
#
# Elastic Constant Matrix: (Units=GPa)
#
#
# Indices 1 2 3 4 5 6 
#
# 1 54.3993 34.4329 17.4176 0.0000 16.8119 0.0000
# 2 34.4329 101.9734 45.8963 0.0000 19.7954 0.0000
# 3 17.4176 45.8963 103.7439 0.0000 23.5535 0.0000
# 4 0.0000 0.0000 0.0000 41.6545 0.0000 2.5448
# 5 16.8119 19.7954 23.5535 0.0000 23.6960 0.0000
# 6 0.0000 0.0000 0.0000 2.5448 0.0000 23.7661
#
#
#
# Elastic Compliance Matrix: (Units=1/GPa)
#
#
# Indices 1 2 3 4 5 6 
#
# 1 0.026896 -0.007052 0.002065 0.000000 -0.015244 0.000000
# 2 -0.007052 0.014857 -0.004787 0.000000 -0.002649 0.000000
# 3 0.002065 -0.004787 0.013993 0.000000 -0.011375 0.000000
# 4 0.000000 0.000000 0.000000 0.024165 0.000000 -0.002588
# 5 -0.015244 -0.002649 -0.011375 0.000000 0.066536 0.000000
# 6 0.000000 0.000000 0.000000 -0.002588 0.000000 0.042354
#
#
# Mechanical properties :
#
#
# Convention : Reuss Voigt Hill
#
# Bulk Modulus (GPa) = 27.62645 50.62336 39.12491
# Shear Modulus (GPa) = 22.68456 28.64798 25.66627
#
# Velocity S-wave (km/s) = 3.38672 3.80593 3.60243
# Velocity P-wave (km/s) = 5.40942 6.70149 6.08982
#
# Compressibility (1/GPa) = 0.03619719
#
# Stress axis : x y z
#
# Youngs Moduli (GPa) = 37.17991 67.30985 71.46619
#
# Poissons Ratio (x) = 0.47469 -0.14759
# Poissons Ratio (y) = 0.26220 0.34212
# Poissons Ratio (z) = -0.07678 0.32222
#
# Static dielectric constant tensor:
#      x y z
#    x 3.350170 0.000000 -0.010110 
#    y 0.000000 3.967210 0.000000 
#    z -0.010110 0.000000 4.131370 
# 
# 
# High freq. dielectric constant tensor:
#      x y z
#    x 1.746220 0.000000 0.003800 
#    y 0.000000 1.773420 0.000000 
#    z 0.003800 0.000000 1.794830 
# 
# From -- ./inp_files/221599.got.cif
#   From: 2010.06.25/outbox.cif.g09.slc.cpg/sg12_111_cif.got.tgz:221599.got - 2010.06.28 00:19:55.
