data_PCOD8111681
_publ_section_title
;
Structure prediction by ZEFSAII (Michael W. Deem and Ramdas Pophale) SiO2 
 PCOD8111681
Probable space group: C 2/M
;
_chemical_formula_sum "Si O2"
_cell_formula_units_Z 64
_cell_length_a 19.580057
_cell_length_b 8.892991
_cell_length_c 30.613686
_cell_angle_alpha 90.000000
_cell_angle_beta 142.921874
_cell_angle_gamma 90.000000
_cell_volume 3213.846982
_symmetry_space_group_name_H-M "C 2/M"
_symmetry_group_IT_number 12
_symmetry_cell_setting 'monoclinic'
loop_
_space_group_symop_operation_xyz
x,y,z
-x,y,-z
-x,-y,-z
x,-y,z
1/2+x,1/2+y,z
1/2-x,1/2+y,-z
1/2-x,1/2-y,-z
1/2+x,1/2-y,z
loop_
_atom_site_type_symbol
_atom_site_label
_atom_site_fract_x
_atom_site_fract_y
_atom_site_fract_z
Si Si1 0.310280 0.822403 0.688400
Si Si2 0.342356 0.673833 0.308360
Si Si3 0.664906 0.826793 0.143477
Si Si4 0.951667 0.171842 0.071679
Si Si5 0.735038 0.675280 0.093286
Si Si6 0.773404 0.175538 0.579647
Si Si7 0.452637 0.672729 0.172387
Si Si8 0.922871 0.324829 0.587578
O O1 0.233063 0.770430 0.689501
O O2 0.256453 0.754616 0.617300
O O3 0.436447 0.765134 0.759709
O O4 0.313754 0.000000 0.686268
O O5 0.376244 0.500000 0.331190
O O6 0.274357 0.700702 0.229110
O O7 0.453696 0.774155 0.364116
O O8 0.554174 0.783286 0.114113
O O9 0.669699 0.722069 0.103635
O O10 0.655415 0.000000 0.124425
O O11 0.916929 0.194498 0.104026
O O12 0.989012 0.000000 0.081263
O O13 0.843649 0.216811 0.987813
O O14 0.763902 0.500000 0.109225
O O15 0.850907 0.767691 0.150219
O O16 0.884374 0.238005 0.611550
O O17 0.661673 0.213518 0.495033
O O18 0.791149 0.000000 0.596044
O O19 0.475558 0.500000 0.195927
O O20 0.923049 0.500000 0.598789
#
# Coordination Sequence:
#
# PCOD8111681 Si02
#       8
#     8   8   8   8   8   8   8   8
#     4  11  23  41  63  89 121 161 203 245 300 359
#     4  10  23  41  61  87 122 161 202 250 300 354
#     4  11  23  40  61  88 121 159 204 252 303 357
#     4  10  22  41  63  87 119 158 200 250 307 362
#     4  11  24  40  60  88 121 158 202 251 303 363
#     4  10  22  41  64  93 127 160 198 247 296 351
#     4  11  23  40  62  89 120 157 201 251 304 357
#     4  10  22  40  65  94 124 161 202 244 296 353
#
# _framework density 19.913830000000001
#
# number of rings (size 3 to 8) (size 9 to 14) (size 15 to 20)
#    0.000    1.500    1.250    3.000    1.750    7.000 
#    0.000    2.500    0.000    0.000    0.000    0.000 
#    0.000    0.000    0.000    0.000    0.000    0.000 
#
# Total GULP energy -397036.728253 kJ/mol
# GULP energy per Si atom -12407.397758 kJ/mol
# Density = 1.986851 g / cm^3
# Si number density = 19.913830 Si / 1000 Ang^3
#
#
#
# Elastic Constant Matrix: (Units=GPa)
#
#
# Indices 1 2 3 4 5 6 
#
# 1 60.9919 28.3013 16.2534 0.0000 3.1372 -0.0001
# 2 28.3013 75.8749 38.2836 -0.0001 0.1373 0.0000
# 3 16.2534 38.2836 69.7420 0.0000 4.2588 0.0000
# 4 0.0000 -0.0001 0.0000 35.3156 0.0000 1.3843
# 5 3.1372 0.1373 4.2588 0.0000 38.7561 0.0000
# 6 -0.0001 0.0000 0.0000 1.3843 0.0000 38.5799
#
#
#
# Elastic Compliance Matrix: (Units=1/GPa)
#
#
# Indices 1 2 3 4 5 6 
#
# 1 0.019946 -0.007107 -0.000655 0.000000 -0.001517 0.000000
# 2 -0.007107 0.020802 -0.009860 0.000000 0.001585 0.000000
# 3 -0.000655 -0.009860 0.020032 0.000000 -0.002113 0.000000
# 4 0.000000 0.000000 0.000000 0.028356 0.000000 -0.001017
# 5 -0.001517 0.001585 -0.002113 0.000000 0.026152 0.000000
# 6 0.000000 0.000000 0.000000 -0.001017 0.000000 0.025957
#
#
# Mechanical properties :
#
#
# Convention : Reuss Voigt Hill
#
# Bulk Modulus (GPa) = 39.15637 41.36504 40.26070
# Shear Modulus (GPa) = 27.02703 30.78168 28.90435
#
# Velocity S-wave (km/s) = 3.68801 3.93586 3.81395
# Velocity P-wave (km/s) = 6.15149 6.43986 6.29733
#
# Compressibility (1/GPa) = 0.02553863
#
# Stress axis : x y z
#
# Youngs Moduli (GPa) = 50.13592 48.07150 49.91902
#
# Poissons Ratio (x) = 0.34163 0.03268
# Poissons Ratio (y) = 0.35630 0.49218
# Poissons Ratio (z) = 0.03282 0.47397
#
# Static dielectric constant tensor:
#      x y z
#    x 3.631200 0.000000 -0.111440 
#    y 0.000000 3.647810 0.000000 
#    z -0.111440 0.000000 3.620050 
# 
# 
# High freq. dielectric constant tensor:
#      x y z
#    x 1.783980 0.000000 -0.003590 
#    y 0.000000 1.785950 0.000000 
#    z -0.003590 0.000000 1.782290 
# 
# From -- ./inp_files/378525.got.cif
#   From: 2010.06.25/outbox.cif.g09.slc.cpg/sg12_190_cif.got.tgz:378525.got - 2010.06.28 00:19:55.
