data_PCOD8111815
_publ_section_title
;
Structure prediction by ZEFSAII (Michael W. Deem and Ramdas Pophale) SiO2 
 PCOD8111815
Probable space group: C 2/M
;
_chemical_formula_sum "Si O2"
_cell_formula_units_Z 64
_cell_length_a 30.046383
_cell_length_b 8.902230
_cell_length_c 18.737845
_cell_angle_alpha 90.000000
_cell_angle_beta 141.300686
_cell_angle_gamma 90.000000
_cell_volume 3133.666398
_symmetry_space_group_name_H-M "C 2/M"
_symmetry_group_IT_number 12
_symmetry_cell_setting 'monoclinic'
loop_
_space_group_symop_operation_xyz
x,y,z
-x,y,-z
-x,-y,-z
x,-y,z
1/2+x,1/2+y,z
1/2-x,1/2+y,-z
1/2-x,1/2-y,-z
1/2+x,1/2-y,z
loop_
_atom_site_type_symbol
_atom_site_label
_atom_site_fract_x
_atom_site_fract_y
_atom_site_fract_z
Si Si1 0.095498 0.669223 0.881086
Si Si2 0.032991 0.176915 0.674218
Si Si3 0.751416 0.321188 0.423676
Si Si4 0.745710 0.670423 0.919495
Si Si5 0.466334 0.677371 0.064609
Si Si6 0.886132 0.324893 0.498544
Si Si7 0.610525 0.676952 0.170339
Si Si8 0.373872 0.824456 0.318761
O O1 0.071692 0.500000 0.832120
O O2 0.092188 0.769382 0.805186
O O3 0.043041 0.736371 0.873751
O O4 0.174680 0.671262 0.012337
O O5 0.055803 0.245692 0.626233
O O6 0.956996 0.234494 0.607084
O O7 0.031654 0.000000 0.666034
O O8 0.747168 0.500000 0.425885
O O9 0.750000 0.250000 0.500000
O O10 0.822606 0.271316 0.470866
O O11 0.684277 0.257354 0.293930
O O12 0.716590 0.500000 0.890744
O O13 0.697660 0.763020 0.805538
O O14 0.750000 0.750000 0.000000
O O15 0.459121 0.500000 0.068200
O O16 0.545561 0.722277 0.140037
O O17 0.408256 0.733516 0.933222
O O18 0.901507 0.500000 0.528020
O O19 0.866564 0.287267 0.392727
O O20 0.617009 0.500000 0.174531
O O21 0.380763 0.000000 0.312213
#
# Coordination Sequence:
#
# PCOD8111815 Si02
#       8
#     8   8   8   8   8   8   8   8
#     4  11  24  39  58  88 126 161 198 250 305 362
#     4  12  25  41  64  90 121 163 210 258 305 366
#     4  10  22  41  62  88 122 162 203 248 302 361
#     4  11  23  39  60  87 123 164 202 245 298 357
#     4   9  18  35  62  91 117 154 200 249 299 359
#     4  10  24  43  64  90 123 164 206 254 313 367
#     4   8  17  36  61  88 120 153 197 249 300 359
#     4  11  23  41  66  93 124 161 202 255 310 369
#
# _framework density 20.423361
#
# number of rings (size 3 to 8) (size 9 to 14) (size 15 to 20)
#    0.000    1.750    1.250    3.375    3.500    4.500 
#    0.000    1.875    0.000    0.000    0.000    0.000 
#    0.000    0.000    0.000    0.000    0.000    0.000 
#
# Total GULP energy -396826.834157 kJ/mol
# GULP energy per Si atom -12400.838567 kJ/mol
# Density = 2.037688 g / cm^3
# Si number density = 20.423361 Si / 1000 Ang^3
#
#
#
# Elastic Constant Matrix: (Units=GPa)
#
#
# Indices 1 2 3 4 5 6 
#
# 1 134.4479 50.5336 42.2376 0.0000 -0.2273 0.0000
# 2 50.5336 76.8469 31.6019 0.0000 -1.9536 0.0000
# 3 42.2376 31.6019 101.1652 0.0000 12.0890 0.0000
# 4 0.0000 0.0000 0.0000 31.4013 0.0000 -2.0142
# 5 -0.2273 -1.9536 12.0890 0.0000 33.3455 0.0000
# 6 0.0000 0.0000 0.0000 -2.0142 0.0000 32.4208
#
#
#
# Elastic Compliance Matrix: (Units=1/GPa)
#
#
# Indices 1 2 3 4 5 6 
#
# 1 0.010432 -0.005757 -0.002640 0.000000 0.000691 0.000000
# 2 -0.005757 0.018341 -0.003606 0.000000 0.002342 0.000000
# 3 -0.002640 -0.003606 0.012690 0.000000 -0.004830 0.000000
# 4 0.000000 0.000000 0.000000 0.031973 0.000000 0.001986
# 5 0.000691 0.002342 -0.004830 0.000000 0.031882 0.000000
# 6 0.000000 0.000000 0.000000 0.001986 0.000000 0.030968
#
#
# Mechanical properties :
#
#
# Convention : Reuss Voigt Hill
#
# Bulk Modulus (GPa) = 57.27764 62.35625 59.81695
# Shear Modulus (GPa) = 30.10043 31.97264 31.03653
#
# Velocity S-wave (km/s) = 3.84321 3.96092 3.90251
# Velocity P-wave (km/s) = 6.91373 7.17751 7.04686
#
# Compressibility (1/GPa) = 0.01745882
#
# Stress axis : x y z
#
# Youngs Moduli (GPa) = 95.85828 54.52311 78.79949
#
# Poissons Ratio (x) = 0.31388 0.20801
# Poissons Ratio (y) = 0.55185 0.28412
# Poissons Ratio (z) = 0.25304 0.19659
#
# Static dielectric constant tensor:
#      x y z
#    x 3.760950 0.000000 0.192900 
#    y 0.000000 3.527460 0.000000 
#    z 0.192900 0.000000 4.047010 
# 
# 
# High freq. dielectric constant tensor:
#      x y z
#    x 1.804200 0.000000 0.004760 
#    y 0.000000 1.782860 0.000000 
#    z 0.004760 0.000000 1.807640 
# 
# From -- ./inp_files/295684.got.cif
#   From: 2010.06.25/outbox.cif.g09.slc.cpg/sg12_148_cif.got.tgz:295684.got - 2010.06.28 00:19:55.
