data_PCOD8111061
_publ_section_title
;
Structure prediction by ZEFSAII (Michael W. Deem and Ramdas Pophale) SiO2 
 PCOD8111061
Probable space group: C 2/M
;
_chemical_formula_sum "Si O2"
_cell_formula_units_Z 40
_cell_length_a 11.613162
_cell_length_b 14.368104
_cell_length_c 11.600859
_cell_angle_alpha 90.000000
_cell_angle_beta 75.234896
_cell_angle_gamma 90.000000
_cell_volume 1871.789657
_symmetry_space_group_name_H-M "C 2/M"
_symmetry_group_IT_number 12
_symmetry_cell_setting 'monoclinic'
loop_
_space_group_symop_operation_xyz
x,y,z
-x,y,-z
-x,-y,-z
x,-y,z
1/2+x,1/2+y,z
1/2-x,1/2+y,-z
1/2-x,1/2-y,-z
1/2+x,1/2-y,z
loop_
_atom_site_type_symbol
_atom_site_label
_atom_site_fract_x
_atom_site_fract_y
_atom_site_fract_z
Si Si1 0.811539 0.206872 0.238912
Si Si2 0.457905 0.394409 0.747966
Si Si3 0.257717 0.104212 0.338416
Si Si4 0.635781 0.892829 0.442769
Si Si5 0.362779 0.397880 0.005485
O O1 0.824600 0.318451 0.244147
O O2 0.689574 0.172523 0.329863
O O3 0.803511 0.176198 0.107297
O O4 0.923961 0.166650 0.280182
O O5 0.500175 0.500000 0.760362
O O6 0.385278 0.386125 0.646543
O O7 0.361361 0.364390 0.872308
O O8 0.283185 0.122136 0.465411
O O9 0.301151 0.000000 0.291260
O O10 0.500000 0.861973 0.500000
O O11 0.639871 0.000000 0.400770
O O12 0.301568 0.500000 0.035338
O O13 0.500000 0.406627 0.000000
#
# Coordination Sequence:
#
# PCOD8111061 Si02
#       5
#     8   8   8   8   8
#     4  11  20  34  63  85 110 149 198 224 279 343
#     4   9  19  37  61  89 115 140 185 244 286 323
#     4  10  23  39  55  82 120 151 184 238 286 323
#     4  10  22  39  58  83 117 151 187 233 283 338
#     4   8  15  31  57  89 115 138 181 240 284 324
#
# _framework density 21.369921000000001
#
# number of rings (size 3 to 8) (size 9 to 14) (size 15 to 20)
#    0.000    2.400    0.000    3.600    2.800    1.600 
#    0.000    3.000    0.000    5.400    0.000    0.000 
#    0.000    0.000    0.000    0.000    0.000    0.000 
#
# Total GULP energy -247859.630112 kJ/mol
# GULP energy per Si atom -12392.981506 kJ/mol
# Density = 2.132128 g / cm^3
# Si number density = 21.369921 Si / 1000 Ang^3
#
#
#
# Elastic Constant Matrix: (Units=GPa)
#
#
# Indices 1 2 3 4 5 6 
#
# 1 91.6569 16.9248 28.2905 0.0000 -1.5340 0.0000
# 2 16.9248 119.6843 36.0257 0.0000 -25.3417 0.0000
# 3 28.2905 36.0257 75.2747 0.0000 -19.2380 0.0000
# 4 0.0000 0.0000 0.0000 17.6291 0.0000 -11.7344
# 5 -1.5340 -25.3417 -19.2380 0.0000 25.6094 0.0000
# 6 0.0000 0.0000 0.0000 -11.7344 0.0000 20.5027
#
#
#
# Elastic Compliance Matrix: (Units=1/GPa)
#
#
# Indices 1 2 3 4 5 6 
#
# 1 0.012694 -0.001106 -0.005355 0.000000 -0.004357 0.000000
# 2 -0.001106 0.011224 -0.002642 0.000000 0.009056 0.000000
# 3 -0.005355 -0.002642 0.019568 0.000000 0.011765 0.000000
# 4 0.000000 0.000000 0.000000 0.091633 0.000000 0.052445
# 5 -0.004357 0.009056 0.011765 0.000000 0.056587 0.000000
# 6 0.000000 0.000000 0.000000 0.052445 0.000000 0.078790
#
#
# Mechanical properties :
#
#
# Convention : Reuss Voigt Hill
#
# Bulk Modulus (GPa) = 39.55390 49.89979 44.72684
# Shear Modulus (GPa) = 16.82762 26.43989 21.63375
#
# Velocity S-wave (km/s) = 2.80919 3.52127 3.18519
# Velocity P-wave (km/s) = 5.39179 6.31931 5.87388
#
# Compressibility (1/GPa) = 0.02528196
#
# Stress axis : x y z
#
# Youngs Moduli (GPa) = 78.77472 89.09127 51.10260
#
# Poissons Ratio (x) = 0.09850 0.27367
# Poissons Ratio (y) = 0.08710 0.13500
# Poissons Ratio (z) = 0.42186 0.23536
#
# Static dielectric constant tensor:
#      x y z
#    x 3.712400 0.000000 0.411490 
#    y 0.000000 4.012660 0.000000 
#    z 0.411490 0.000000 4.244650 
# 
# 
# High freq. dielectric constant tensor:
#      x y z
#    x 1.819670 0.000000 0.022990 
#    y 0.000000 1.843430 0.000000 
#    z 0.022990 0.000000 1.821030 
# 
# From -- ./inp_files/129566.got.cif
#   From: 2010.06.25/outbox.cif.g09.slc.cpg/sg12_65_cif.got.tgz:129566.got - 2010.06.28 00:19:55.
