data_PCOD8111556
_publ_section_title
;
Structure prediction by ZEFSAII (Michael W. Deem and Ramdas Pophale) SiO2 
 PCOD8111556
Probable space group: C 2/M
;
_chemical_formula_sum "Si O2"
_cell_formula_units_Z 64
_cell_length_a 14.501028
_cell_length_b 8.459849
_cell_length_c 29.482095
_cell_angle_alpha 90.000000
_cell_angle_beta 59.459927
_cell_angle_gamma 90.000000
_cell_volume 3115.021639
_symmetry_space_group_name_H-M "C 2/M"
_symmetry_group_IT_number 12
_symmetry_cell_setting 'monoclinic'
loop_
_space_group_symop_operation_xyz
x,y,z
-x,y,-z
-x,-y,-z
x,-y,z
1/2+x,1/2+y,z
1/2-x,1/2+y,-z
1/2-x,1/2-y,-z
1/2+x,1/2-y,z
loop_
_atom_site_type_symbol
_atom_site_label
_atom_site_fract_x
_atom_site_fract_y
_atom_site_fract_z
Si Si1 0.719255 0.182256 0.143618
Si Si2 0.148655 0.686226 0.497892
Si Si3 0.126813 0.319001 0.763853
Si Si4 0.151696 0.316235 0.311939
Si Si5 0.075657 0.185315 0.422853
Si Si6 0.836339 0.314006 0.943894
Si Si7 0.554171 0.681581 0.872880
Si Si8 0.950890 0.816662 0.748017
O O1 0.696060 0.238156 0.098608
O O2 0.844583 0.210135 0.120323
O O3 0.654074 0.287661 0.195388
O O4 0.686235 0.000000 0.159686
O O5 0.159376 0.500000 0.489825
O O6 0.250000 0.750000 0.500000
O O7 0.145036 0.763324 0.448988
O O8 0.038723 0.727172 0.551376
O O9 0.165010 0.500000 0.752872
O O10 0.229439 0.205908 0.737459
O O11 0.059880 0.286364 0.826078
O O12 0.051126 0.284077 0.740280
O O13 0.125993 0.500000 0.323535
O O14 0.144316 0.229679 0.361863
O O15 0.067632 0.237547 0.298774
O O16 0.053932 0.000000 0.430752
O O17 0.844520 0.500000 0.946826
O O18 0.950549 0.235854 0.927108
O O19 0.750000 0.250000 0.000000
O O20 0.544160 0.500000 0.860578
O O21 0.980705 0.000000 0.741737
#
# Coordination Sequence:
#
# PCOD8111556 Si02
#       8
#     8   8   8   8   8   8   8   8
#     4  10  22  40  63  88 122 161 201 250 310 374
#     4  11  22  41  68  98 130 173 220 265 320 379
#     4  12  24  40  62  92 126 165 210 257 311 375
#     4  12  25  43  64  93 132 170 212 265 320 376
#     4  11  23  42  65  96 132 170 215 268 322 378
#     4  11  24  42  63  89 123 161 205 260 318 373
#     4  11  22  39  64  91 120 158 203 252 310 374
#     4  12  24  39  63  93 124 165 211 256 310 376
#
# _framework density 20.545604000000001
#
# number of rings (size 3 to 8) (size 9 to 14) (size 15 to 20)
#    0.000    0.750    2.500    7.125    0.000    2.500 
#    0.000    7.500    0.000    0.000    0.000    0.000 
#    0.000    0.000    0.000    0.000    0.000    0.000 
#
# Total GULP energy -397060.896407 kJ/mol
# GULP energy per Si atom -12408.153013 kJ/mol
# Density = 2.049884 g / cm^3
# Si number density = 20.545604 Si / 1000 Ang^3
#
#
#
# Elastic Constant Matrix: (Units=GPa)
#
#
# Indices 1 2 3 4 5 6 
#
# 1 97.5229 20.3356 8.5408 0.0000 4.4147 0.0000
# 2 20.3356 102.6087 21.2071 0.0000 6.2194 0.0000
# 3 8.5408 21.2071 69.3652 0.0000 9.6395 0.0000
# 4 0.0000 0.0000 0.0000 35.9988 0.0000 -1.2635
# 5 4.4147 6.2194 9.6395 0.0000 24.5995 0.0000
# 6 0.0000 0.0000 0.0000 -1.2635 0.0000 35.2657
#
#
#
# Elastic Compliance Matrix: (Units=1/GPa)
#
#
# Indices 1 2 3 4 5 6 
#
# 1 0.010764 -0.001943 -0.000562 0.000000 -0.001220 0.000000
# 2 -0.001943 0.010804 -0.002890 0.000000 -0.001250 0.000000
# 3 -0.000562 -0.002890 0.016132 0.000000 -0.005490 0.000000
# 4 0.000000 0.000000 0.000000 0.027814 0.000000 0.000996
# 5 -0.001220 -0.001250 -0.005490 0.000000 0.043338 0.000000
# 6 0.000000 0.000000 0.000000 0.000996 0.000000 0.028392
#
#
# Mechanical properties :
#
#
# Convention : Reuss Voigt Hill
#
# Bulk Modulus (GPa) = 37.16100 41.07376 39.11738
# Shear Modulus (GPa) = 31.84658 33.80035 32.82347
#
# Velocity S-wave (km/s) = 3.94133 4.06043 4.00132
# Velocity P-wave (km/s) = 6.23205 6.48211 6.35831
#
# Compressibility (1/GPa) = 0.02690993
#
# Stress axis : x y z
#
# Youngs Moduli (GPa) = 92.90558 92.55856 61.98810
#
# Poissons Ratio (x) = 0.17985 0.03482
# Poissons Ratio (y) = 0.18053 0.17915
# Poissons Ratio (z) = 0.05218 0.26750
#
# Static dielectric constant tensor:
#      x y z
#    x 3.608540 0.000000 0.051410 
#    y 0.000000 3.791500 0.000000 
#    z 0.051410 0.000000 3.629290 
# 
# 
# High freq. dielectric constant tensor:
#      x y z
#    x 1.815360 0.000000 0.002060 
#    y 0.000000 1.817520 0.000000 
#    z 0.002060 0.000000 1.795680 
# 
# From -- ./inp_files/375009.got.cif
#   From: 2010.06.25/outbox.cif.g09.slc.cpg/sg12_188_cif.got.tgz:375009.got - 2010.06.28 00:19:55.
