data_PCOD8111755
_publ_section_title
;
Structure prediction by ZEFSAII (Michael W. Deem and Ramdas Pophale) SiO2 
 PCOD8111755
Probable space group: C 2/M
;
_chemical_formula_sum "Si O2"
_cell_formula_units_Z 36
_cell_length_a 5.550526
_cell_length_b 29.637313
_cell_length_c 9.838018
_cell_angle_alpha 90.000000
_cell_angle_beta 74.884245
_cell_angle_gamma 90.000000
_cell_volume 1562.385890
_symmetry_space_group_name_H-M "C 2/M"
_symmetry_group_IT_number 12
_symmetry_cell_setting 'monoclinic'
loop_
_space_group_symop_operation_xyz
x,y,z
-x,y,-z
-x,-y,-z
x,-y,z
1/2+x,1/2+y,z
1/2-x,1/2+y,-z
1/2-x,1/2-y,-z
1/2+x,1/2-y,z
loop_
_atom_site_type_symbol
_atom_site_label
_atom_site_fract_x
_atom_site_fract_y
_atom_site_fract_z
Si Si1 0.454758 0.049900 0.849760
Si Si2 0.463128 0.586370 0.661381
Si Si3 0.156143 0.267334 0.159962
Si Si4 0.715590 0.500000 0.587646
Si Si5 0.830388 0.860877 0.145175
O O1 0.254714 0.089343 0.881327
O O2 0.689636 0.067162 0.729122
O O3 0.374526 0.000000 0.799431
O O4 0.500000 0.040368 0.000000
O O5 0.500000 0.599757 0.500000
O O6 0.663596 0.547037 0.675938
O O7 0.515277 0.632193 0.737893
O O8 0.379102 0.252373 0.231807
O O9 0.122424 0.321685 0.184780
O O10 0.250000 0.250000 0.000000
O O11 0.500000 0.500000 0.500000
O O12 0.000000 0.500000 0.500000
O O13 0.000000 0.841729 0.000000
#
# Coordination Sequence:
#
# PCOD8111755 Si02
#       5
#     8   8   8   4   8
#     4  11  25  41  63 100 147 184 232 292 350 411
#     4  11  26  42  65  97 139 192 239 286 342 416
#     4  10  22  40  70 101 133 173 234 295 352 420
#     4  10  24  44  66  90 136 194 247 276 323 408
#     4  12  25  39  69 101 136 181 235 298 351 422
#
# _framework density 23.041685000000001
#
# number of rings (size 3 to 8) (size 9 to 14) (size 15 to 20)
#    0.000    1.111    5.556    0.000   14.000    0.444 
#    0.000    0.000    0.000    1.333    0.000    0.000 
#    0.000    0.000    0.000    0.000    0.000    0.000 
#
# Total GULP energy -223005.473452 kJ/mol
# GULP energy per Si atom -12389.192970 kJ/mol
# Density = 2.298924 g / cm^3
# Si number density = 23.041685 Si / 1000 Ang^3
#
#
#
# Elastic Constant Matrix: (Units=GPa)
#
#
# Indices 1 2 3 4 5 6 
#
# 1 111.6942 36.9144 8.3761 0.0000 -10.7372 0.0000
# 2 36.9144 146.2039 14.8863 0.0000 25.2051 0.0000
# 3 8.3761 14.8863 92.6335 0.0000 1.6885 0.0000
# 4 0.0000 0.0000 0.0000 7.4357 0.0000 3.9334
# 5 -10.7372 25.2051 1.6885 0.0000 26.6013 0.0000
# 6 0.0000 0.0000 0.0000 3.9334 0.0000 37.4252
#
#
#
# Elastic Compliance Matrix: (Units=1/GPa)
#
#
# Indices 1 2 3 4 5 6 
#
# 1 0.011228 -0.004269 -0.000486 0.000000 0.008608 0.000000
# 2 -0.004269 0.009928 -0.001008 0.000000 -0.011066 0.000000
# 3 -0.000486 -0.001008 0.011000 0.000000 0.000060 0.000000
# 4 0.000000 0.000000 0.000000 0.142404 0.000000 -0.014967
# 5 0.008608 -0.011066 0.000060 0.000000 0.051549 0.000000
# 6 0.000000 0.000000 0.000000 -0.014967 0.000000 0.028293
#
#
# Mechanical properties :
#
#
# Convention : Reuss Voigt Hill
#
# Bulk Modulus (GPa) = 48.47367 52.32058 50.39713
# Shear Modulus (GPa) = 18.32815 33.64941 25.98878
#
# Velocity S-wave (km/s) = 2.82340 3.82563 3.36207
# Velocity P-wave (km/s) = 5.63133 6.50155 6.08202
#
# Compressibility (1/GPa) = 0.02062975
#
# Stress axis : x y z
#
# Youngs Moduli (GPa) = 89.06287 100.72358 90.90897
#
# Poissons Ratio (x) = 0.43004 0.04419
# Poissons Ratio (y) = 0.38025 0.09161
# Poissons Ratio (z) = 0.04329 0.10150
#
# Static dielectric constant tensor:
#      x y z
#    x 5.523810 0.000000 -0.028120 
#    y 0.000000 4.439280 0.000000 
#    z -0.028120 0.000000 4.154920 
# 
# 
# High freq. dielectric constant tensor:
#      x y z
#    x 1.922790 0.000000 0.016830 
#    y 0.000000 1.920620 0.000000 
#    z 0.016830 0.000000 1.880010 
# 
# From -- ./inp_files/115383.got.cif
#   From: 2010.06.25/outbox.cif.g09.slc.cpg/sg12_58_cif.got.tgz:115383.got - 2010.06.28 00:19:55.
