data_PCOD8111203
_publ_section_title
;
Structure prediction by ZEFSAII (Michael W. Deem and Ramdas Pophale) SiO2 
 PCOD8111203
Probable space group: C 2/M
;
_chemical_formula_sum "Si O2"
_cell_formula_units_Z 48
_cell_length_a 16.090012
_cell_length_b 16.822274
_cell_length_c 9.196718
_cell_angle_alpha 90.000000
_cell_angle_beta 84.762297
_cell_angle_gamma 90.000000
_cell_volume 2478.887206
_symmetry_space_group_name_H-M "C 2/M"
_symmetry_group_IT_number 12
_symmetry_cell_setting 'monoclinic'
loop_
_space_group_symop_operation_xyz
x,y,z
-x,y,-z
-x,-y,-z
x,-y,z
1/2+x,1/2+y,z
1/2-x,1/2+y,-z
1/2-x,1/2-y,-z
1/2+x,1/2-y,z
loop_
_atom_site_type_symbol
_atom_site_label
_atom_site_fract_x
_atom_site_fract_y
_atom_site_fract_z
Si Si1 0.850905 0.146313 0.901044
Si Si2 0.583908 0.500000 0.581438
Si Si3 0.211767 0.302510 0.706430
Si Si4 0.906540 0.694947 0.013891
Si Si5 0.036176 0.000000 0.151906
Si Si6 0.220641 0.871016 0.581658
Si Si7 0.789225 0.413189 0.867256
O O1 0.796962 0.191059 0.786125
O O2 0.905675 0.211754 0.976317
O O3 0.909448 0.078706 0.820968
O O4 0.794566 0.106258 0.032487
O O5 0.500000 0.500000 0.500000
O O6 0.550650 0.500000 0.749423
O O7 0.639140 0.420963 0.546379
O O8 0.194725 0.214778 0.647956
O O9 0.219434 0.362479 0.569101
O O10 0.134906 0.325193 0.823378
O O11 0.860132 0.649881 0.891441
O O12 0.000000 0.663148 0.000000
O O13 0.000000 0.000000 0.000000
O O14 0.271710 0.916059 0.698009
O O15 0.820423 0.500000 0.910481
#
# Coordination Sequence:
#
# PCOD8111203 Si02
#       7
#     8   4   8   8   4   8   8
#     4  11  20  39  61  90 124 164 205 246 307 379
#     4  12  26  40  58  98 135 159 188 253 325 372
#     4  10  22  39  62  86 116 168 214 240 293 374
#     4  11  23  39  63  91 124 155 206 269 307 347
#     4  12  24  34  60  98 131 159 192 251 325 378
#     4  11  21  40  62  85 123 165 204 241 293 380
#     4  11  20  40  66  87 117 165 212 245 299 371
#
# _framework density 19.363529
#
# number of rings (size 3 to 8) (size 9 to 14) (size 15 to 20)
#    0.000    1.000    5.000    3.500    2.333    0.333 
#    1.500    0.833    0.000    1.000    0.000    0.000 
#    0.000    0.000    0.000    0.000    0.000    0.000 
#
# Total GULP energy -297579.508602 kJ/mol
# GULP energy per Si atom -12399.146192 kJ/mol
# Density = 1.931946 g / cm^3
# Si number density = 19.363529 Si / 1000 Ang^3
#
#
#
# Elastic Constant Matrix: (Units=GPa)
#
#
# Indices 1 2 3 4 5 6 
#
# 1 106.4209 51.9826 38.1351 0.0000 -8.8807 0.0000
# 2 51.9826 120.0619 35.0009 0.0000 -1.8645 0.0000
# 3 38.1351 35.0009 111.0451 0.0000 -3.0654 0.0000
# 4 0.0000 0.0000 0.0000 23.5982 0.0000 -2.1040
# 5 -8.8807 -1.8645 -3.0654 0.0000 23.7984 0.0000
# 6 0.0000 0.0000 0.0000 -2.1040 0.0000 23.0619
#
#
#
# Elastic Compliance Matrix: (Units=1/GPa)
#
#
# Indices 1 2 3 4 5 6 
#
# 1 0.013105 -0.004769 -0.002883 0.000000 0.004145 0.000000
# 2 -0.004769 0.010910 -0.001833 0.000000 -0.001161 0.000000
# 3 -0.002883 -0.001833 0.010577 0.000000 0.000143 0.000000
# 4 0.000000 0.000000 0.000000 0.042724 0.000000 0.003898
# 5 0.004145 -0.001161 0.000143 0.000000 0.043494 0.000000
# 6 0.000000 0.000000 0.000000 0.003898 0.000000 0.043717
#
#
# Mechanical properties :
#
#
# Convention : Reuss Voigt Hill
#
# Bulk Modulus (GPa) = 64.01163 65.30722 64.65943
# Shear Modulus (GPa) = 26.49630 28.25230 27.37430
#
# Velocity S-wave (km/s) = 3.70315 3.82389 3.76400
# Velocity P-wave (km/s) = 7.17036 7.30043 7.23569
#
# Compressibility (1/GPa) = 0.01562216
#
# Stress axis : x y z
#
# Youngs Moduli (GPa) = 76.30511 91.65622 94.54365
#
# Poissons Ratio (x) = 0.43714 0.27256
# Poissons Ratio (y) = 0.36392 0.17330
# Poissons Ratio (z) = 0.21998 0.16801
#
# Static dielectric constant tensor:
#      x y z
#    x 0.556150 0.000000 1.852780 
#    y 0.000000 3.698430 0.000000 
#    z 1.852780 0.000000 2.458890 
# 
# 
# High freq. dielectric constant tensor:
#      x y z
#    x 1.731500 0.000000 0.002930 
#    y 0.000000 1.761570 0.000000 
#    z 0.002930 0.000000 1.763240 
# 
# From -- ./inp_files/61761.got.cif
#   From: 2010.06.25/outbox.cif.g09.slc.cpg/sg12_31_cif.got.tgz:61761.got - 2010.06.28 00:19:55.
