data_PCOD8111603
_publ_section_title
;
Structure prediction by ZEFSAII (Michael W. Deem and Ramdas Pophale) SiO2 
 PCOD8111603
Probable space group: C 2/M
;
_chemical_formula_sum "Si O2"
_cell_formula_units_Z 48
_cell_length_a 5.175249
_cell_length_b 24.508723
_cell_length_c 18.986625
_cell_angle_alpha 90.000000
_cell_angle_beta 114.465958
_cell_angle_gamma 90.000000
_cell_volume 2191.997806
_symmetry_space_group_name_H-M "C 2/M"
_symmetry_group_IT_number 12
_symmetry_cell_setting 'monoclinic'
loop_
_space_group_symop_operation_xyz
x,y,z
-x,y,-z
-x,-y,-z
x,-y,z
1/2+x,1/2+y,z
1/2-x,1/2+y,-z
1/2-x,1/2-y,-z
1/2+x,1/2-y,z
loop_
_atom_site_type_symbol
_atom_site_label
_atom_site_fract_x
_atom_site_fract_y
_atom_site_fract_z
Si Si1 0.617074 0.062044 0.256373
Si Si2 0.173079 0.216977 0.375317
Si Si3 0.717060 0.940466 0.423586
Si Si4 0.670226 0.500000 0.947574
Si Si5 0.500000 0.858005 0.500000
Si Si6 0.004813 0.903342 0.827275
Si Si7 0.402808 0.285771 0.198635
O O1 0.769156 0.073346 0.347961
O O2 0.338127 0.099598 0.215920
O O3 0.862156 0.073231 0.228651
O O4 0.509033 0.000000 0.236523
O O5 0.486829 0.234669 0.386404
O O6 0.219603 0.176101 0.446356
O O7 0.022216 0.193792 0.288072
O O8 0.521036 0.894055 0.432588
O O9 0.000000 0.940606 0.500000
O O10 0.568218 0.000000 0.413420
O O11 0.595818 0.443589 0.899954
O O12 0.500000 0.500000 0.000000
O O13 0.000000 0.500000 0.000000
O O14 0.120925 0.841091 0.851023
O O15 0.099886 0.257500 0.179261
#
# Coordination Sequence:
#
# PCOD8111603 Si02
#       7
#     8   8   8   4   4   8   8
#     4  11  22  40  64  95 131 176 235 282 331 414
#     4  10  23  39  58  85 116 157 222 288 335 380
#     4  10  25  39  54  83 127 173 225 285 342 388
#     4  12  26  46  76 114 151 169 206 260 336 410
#     4  12  23  36  58  76 116 172 225 276 364 392
#     4  12  23  44  73 103 137 181 219 269 339 399
#     4  10  22  40  63  95 129 175 230 280 319 383
#
# _framework density 21.897834
#
# number of rings (size 3 to 8) (size 9 to 14) (size 15 to 20)
#    0.000    1.167    1.667    3.750    7.000    1.333 
#    0.000    0.000    0.000    3.000    0.000    0.000 
#    0.000    0.000    0.000    0.000    0.000    0.000 
#
# Total GULP energy -297498.741845 kJ/mol
# GULP energy per Si atom -12395.780910 kJ/mol
# Density = 2.184799 g / cm^3
# Si number density = 21.897834 Si / 1000 Ang^3
#
#
#
# Elastic Constant Matrix: (Units=GPa)
#
#
# Indices 1 2 3 4 5 6 
#
# 1 92.7849 12.0039 38.6936 0.0000 -13.6813 0.0000
# 2 12.0039 106.2744 52.3633 0.0000 -13.3811 0.0000
# 3 38.6936 52.3633 106.4172 0.0000 -12.8257 0.0000
# 4 0.0000 0.0000 0.0000 702.7895 0.0000 -242.9441
# 5 -13.6813 -13.3811 -12.8257 0.0000 35.0018 0.0000
# 6 0.0000 0.0000 0.0000 -242.9441 0.0000 109.1007
#
#
#
# Elastic Compliance Matrix: (Units=1/GPa)
#
#
# Indices 1 2 3 4 5 6 
#
# 1 0.013285 0.001503 -0.005100 0.000000 0.003899 0.000000
# 2 0.001503 0.012826 -0.006482 0.000000 0.003116 0.000000
# 3 -0.005100 -0.006482 0.014544 0.000000 0.000858 0.000000
# 4 0.000000 0.000000 0.000000 0.006180 0.000000 0.013762
# 5 0.003899 0.003116 0.000858 0.000000 0.031599 0.000000
# 6 0.000000 0.000000 0.000000 0.013762 0.000000 0.039811
#
#
# Mechanical properties :
#
#
# Convention : Reuss Voigt Hill
#
# Bulk Modulus (GPa) = 48.78760 56.84423 52.81592
# Shear Modulus (GPa) = 34.42646 182.87277 108.64961
#
# Velocity S-wave (km/s) = 3.96932 9.14839 7.05155
# Velocity P-wave (km/s) = 6.58296 11.73056 9.51161
#
# Compressibility (1/GPa) = 0.02049701
#
# Stress axis : x y z
#
# Youngs Moduli (GPa) = 75.27332 77.96649 68.75465
#
# Poissons Ratio (x) = -0.11721 0.35067
# Poissons Ratio (y) = -0.11316 0.44568
# Poissons Ratio (z) = 0.38392 0.50540
#
# Static dielectric constant tensor:
#      x y z
#    x 4.004550 0.000000 -0.165910 
#    y 0.000000 4.280820 0.000000 
#    z -0.165910 0.000000 3.800600 
# 
# 
# High freq. dielectric constant tensor:
#      x y z
#    x 1.864270 0.000000 -0.011140 
#    y 0.000000 1.872270 0.000000 
#    z -0.011140 0.000000 1.832580 
# 
# From -- ./inp_files/253256.got.cif
#   From: 2010.06.25/outbox.cif.g09.slc.cpg/sg12_127_cif.got.tgz:253256.got - 2010.06.28 00:19:55.
