data_PCOD8111227
_publ_section_title
;
Structure prediction by ZEFSAII (Michael W. Deem and Ramdas Pophale) SiO2 
 PCOD8111227
Probable space group: C 2/M
;
_chemical_formula_sum "Si O2"
_cell_formula_units_Z 32
_cell_length_a 11.099552
_cell_length_b 15.444686
_cell_length_c 19.749712
_cell_angle_alpha 90.000000
_cell_angle_beta 153.166478
_cell_angle_gamma 90.000000
_cell_volume 1528.292757
_symmetry_space_group_name_H-M "C 2/M"
_symmetry_group_IT_number 12
_symmetry_cell_setting 'monoclinic'
loop_
_space_group_symop_operation_xyz
x,y,z
-x,y,-z
-x,-y,-z
x,-y,z
1/2+x,1/2+y,z
1/2-x,1/2+y,-z
1/2-x,1/2-y,-z
1/2+x,1/2-y,z
loop_
_atom_site_type_symbol
_atom_site_label
_atom_site_fract_x
_atom_site_fract_y
_atom_site_fract_z
Si Si1 0.823305 0.000000 0.345098
Si Si2 0.793215 0.139835 0.223307
Si Si3 0.185582 0.500000 0.824798
Si Si4 0.825714 0.902218 0.093443
Si Si5 0.827360 0.173058 0.845757
O O1 0.901511 0.085286 0.341299
O O2 0.507698 0.000000 0.206617
O O3 0.000000 0.000000 0.500000
O O4 0.932233 0.107136 0.223861
O O5 0.851591 0.242485 0.260042
O O6 0.479857 0.123710 0.061883
O O7 0.134116 0.588884 0.757271
O O8 0.500000 0.500000 0.000000
O O9 0.980462 0.838379 0.121633
O O10 0.869809 0.000000 0.090379
O O11 0.000000 0.189739 0.000000
#
# Coordination Sequence:
#
# PCOD8111227 Si02
#       5
#     4   8   4   8   8
#     4  12  26  44  64  88 125 165 207 255 308 369
#     4  11  21  35  58  87 122 164 203 250 310 365
#     4  10  22  39  62  92 122 158 205 253 300 357
#     4  11  19  34  57  91 128 155 200 259 312 356
#     4  11  21  33  57  95 126 158 195 257 310 362
#
# _framework density 20.938396999999998
#
# number of rings (size 3 to 8) (size 9 to 14) (size 15 to 20)
#    0.000    1.000    6.250    4.500    3.500    0.000 
#    0.000    1.250    0.000    1.500    0.000    0.000 
#    0.000    0.000    0.000    0.000    0.000    0.000 
#
# Total GULP energy -198348.704517 kJ/mol
# GULP energy per Si atom -12396.794032 kJ/mol
# Density = 2.089074 g / cm^3
# Si number density = 20.938397 Si / 1000 Ang^3
#
#
#
# Elastic Constant Matrix: (Units=GPa)
#
#
# Indices 1 2 3 4 5 6 
#
# 1 128.5154 33.3492 32.5021 0.0022 -36.1852 -0.0037
# 2 33.3492 199.6594 30.3517 0.0075 -21.6801 0.0022
# 3 32.5021 30.3517 58.7342 0.0664 -28.0663 0.0094
# 4 0.0022 0.0075 0.0664 8.5102 0.0190 -6.7737
# 5 -36.1852 -21.6801 -28.0663 0.0190 30.5077 0.0032
# 6 -0.0037 0.0022 0.0094 -6.7737 0.0032 22.5110
#
#
#
# Elastic Compliance Matrix: (Units=1/GPa)
#
#
# Indices 1 2 3 4 5 6 
#
# 1 0.011732 -0.000511 0.000442 -0.000049 0.013960 -0.000015
# 2 -0.000511 0.005548 -0.001766 0.000007 0.001712 0.000002
# 3 0.000442 -0.001766 0.030952 -0.000414 0.027745 -0.000141
# 4 -0.000049 0.000007 -0.000414 0.154519 -0.000536 0.046496
# 5 0.013960 0.001712 0.027745 -0.000536 0.076077 -0.000181
# 6 -0.000015 0.000002 -0.000141 0.046496 -0.000181 0.058414
#
#
# Mechanical properties :
#
#
# Convention : Reuss Voigt Hill
#
# Bulk Modulus (GPa) = 22.44029 64.36833 43.40431
# Shear Modulus (GPa) = 14.05410 31.68619 22.87014
#
# Velocity S-wave (km/s) = 2.59359 3.89434 3.30852
# Velocity P-wave (km/s) = 4.43954 7.14351 5.94723
#
# Compressibility (1/GPa) = 0.04456271
#
# Stress axis : x y z
#
# Youngs Moduli (GPa) = 85.23388 180.23608 32.30765
#
# Poissons Ratio (x) = 0.09212 -0.01429
# Poissons Ratio (y) = 0.04356 0.05707
# Poissons Ratio (z) = -0.03770 0.31838
#
# Static dielectric constant tensor:
#      x y z
#    x 4.157230 -0.000020 -0.399310 
#    y -0.000020 4.594840 -0.000020 
#    z -0.399310 -0.000020 3.078170 
# 
# 
# High freq. dielectric constant tensor:
#      x y z
#    x 1.836500 0.000000 -0.035380 
#    y 0.000000 1.847110 0.000000 
#    z -0.035380 0.000000 1.735240 
# 
# From -- ./inp_files/128478.got.cif
#   From: 2010.06.25/outbox.cif.g09.slc.cpg/sg12_65_cif.got.tgz:128478.got - 2010.06.28 00:19:55.
