data_PCOD8111040
_publ_section_title
;
Structure prediction by ZEFSAII (Michael W. Deem and Ramdas Pophale) SiO2 
 PCOD8111040
Probable space group: C 2/M
;
_chemical_formula_sum "Si O2"
_cell_formula_units_Z 40
_cell_length_a 17.813586
_cell_length_b 9.028771
_cell_length_c 12.688778
_cell_angle_alpha 90.000000
_cell_angle_beta 88.176662
_cell_angle_gamma 90.000000
_cell_volume 2039.763638
_symmetry_space_group_name_H-M "C 2/M"
_symmetry_group_IT_number 12
_symmetry_cell_setting 'monoclinic'
loop_
_space_group_symop_operation_xyz
x,y,z
-x,y,-z
-x,-y,-z
x,-y,z
1/2+x,1/2+y,z
1/2-x,1/2+y,-z
1/2-x,1/2-y,-z
1/2+x,1/2-y,z
loop_
_atom_site_type_symbol
_atom_site_label
_atom_site_fract_x
_atom_site_fract_y
_atom_site_fract_z
Si Si1 0.841189 0.826426 0.589358
Si Si2 0.329156 0.670217 0.994180
Si Si3 0.328996 0.174157 0.380163
Si Si4 0.570671 0.330721 0.209203
Si Si5 0.918772 0.324931 0.171525
O O1 0.757462 0.774762 0.625630
O O2 0.867225 0.747177 0.480961
O O3 0.898391 0.780923 0.678594
O O4 0.842380 0.000000 0.568970
O O5 0.318312 0.500000 0.027493
O O6 0.361108 0.683742 0.875283
O O7 0.250000 0.750000 0.000000
O O8 0.387238 0.746150 0.070129
O O9 0.372012 0.230173 0.274753
O O10 0.336838 0.000000 0.392196
O O11 0.540917 0.500000 0.212622
O O12 0.504935 0.220035 0.180550
O O13 0.912461 0.500000 0.156234
#
# Coordination Sequence:
#
# PCOD8111040 Si02
#       5
#     8   8   8   8   8
#     4   9  18  35  58  80 106 144 188 230 275 331
#     4  11  23  40  62  85 112 146 185 230 279 332
#     4   9  19  36  56  80 111 145 184 232 280 324
#     4  10  22  39  57  81 115 150 184 229 283 332
#     4  11  23  38  57  83 116 150 186 230 278 330
#
# _framework density 19.610116000000001
#
# number of rings (size 3 to 8) (size 9 to 14) (size 15 to 20)
#    0.000    2.000    0.000    3.000    0.000   10.400 
#    0.000    8.000    0.000    0.000    0.000    0.000 
#    0.000    0.000    0.000    0.000    0.000    0.000 
#
# Total GULP energy -248094.764545 kJ/mol
# GULP energy per Si atom -12404.738227 kJ/mol
# Density = 1.956548 g / cm^3
# Si number density = 19.610116 Si / 1000 Ang^3
#
#
#
# Elastic Constant Matrix: (Units=GPa)
#
#
# Indices 1 2 3 4 5 6 
#
# 1 68.8522 27.2218 11.4981 0.0000 15.5390 0.0000
# 2 27.2218 67.4135 30.6930 0.0000 7.7684 0.0000
# 3 11.4981 30.6930 87.0439 0.0000 18.4280 0.0000
# 4 0.0000 0.0000 0.0000 35.6123 0.0000 0.9238
# 5 15.5390 7.7684 18.4280 0.0000 35.0853 0.0000
# 6 0.0000 0.0000 0.0000 0.9238 0.0000 33.9047
#
#
#
# Elastic Compliance Matrix: (Units=1/GPa)
#
#
# Indices 1 2 3 4 5 6 
#
# 1 0.018952 -0.007587 0.001792 0.000000 -0.007655 0.000000
# 2 -0.007587 0.020724 -0.006802 0.000000 0.002344 0.000000
# 3 0.001792 -0.006802 0.015188 0.000000 -0.007265 0.000000
# 4 0.000000 0.000000 0.000000 0.028100 0.000000 -0.000766
# 5 -0.007655 0.002344 -0.007265 0.000000 0.035189 0.000000
# 6 0.000000 0.000000 0.000000 -0.000766 0.000000 0.029515
#
#
# Mechanical properties :
#
#
# Convention : Reuss Voigt Hill
#
# Bulk Modulus (GPa) = 33.70177 40.23726 36.96952
# Shear Modulus (GPa) = 27.35959 31.18024 29.26992
#
# Velocity S-wave (km/s) = 3.73926 3.99182 3.86760
# Velocity P-wave (km/s) = 5.98882 6.46601 6.23198
#
# Compressibility (1/GPa) = 0.02967203
#
# Stress axis : x y z
#
# Youngs Moduli (GPa) = 52.76558 48.25312 65.84072
#
# Poissons Ratio (x) = 0.36608 -0.11802
# Poissons Ratio (y) = 0.40032 0.44783
# Poissons Ratio (z) = -0.09458 0.32820
#
# Static dielectric constant tensor:
#      x y z
#    x 3.613910 0.000000 0.097500 
#    y 0.000000 3.515600 0.000000 
#    z 0.097500 0.000000 3.887520 
# 
# 
# High freq. dielectric constant tensor:
#      x y z
#    x 1.762700 0.000000 0.002480 
#    y 0.000000 1.761830 0.000000 
#    z 0.002480 0.000000 1.778790 
# 
# From -- ./inp_files/151625.got.cif
#   From: 2010.06.25/outbox.cif.g09.slc.cpg/sg12_76_cif.got.tgz:151625.got - 2010.06.28 00:19:55.
