data_PCOD8111609
_publ_section_title
;
Structure prediction by ZEFSAII (Michael W. Deem and Ramdas Pophale) SiO2 
 PCOD8111609
Probable space group: C 2/M
;
_chemical_formula_sum "Si O2"
_cell_formula_units_Z 40
_cell_length_a 23.544073
_cell_length_b 11.324389
_cell_length_c 9.911748
_cell_angle_alpha 90.000000
_cell_angle_beta 51.697022
_cell_angle_gamma 90.000000
_cell_volume 2073.837469
_symmetry_space_group_name_H-M "C 2/M"
_symmetry_group_IT_number 12
_symmetry_cell_setting 'monoclinic'
loop_
_space_group_symop_operation_xyz
x,y,z
-x,y,-z
-x,-y,-z
x,-y,z
1/2+x,1/2+y,z
1/2-x,1/2+y,-z
1/2-x,1/2-y,-z
1/2+x,1/2-y,z
loop_
_atom_site_type_symbol
_atom_site_label
_atom_site_fract_x
_atom_site_fract_y
_atom_site_fract_z
Si Si1 0.428326 0.500000 0.521110
Si Si2 0.819436 0.640043 0.026452
Si Si3 0.334968 0.273230 0.723625
Si Si4 0.953024 0.633387 0.434805
Si Si5 0.480488 0.500000 0.873098
Si Si6 0.956549 0.746041 0.926088
O O1 0.500000 0.500000 0.500000
O O2 0.384697 0.386864 0.634726
O O3 0.448713 0.500000 0.330957
O O4 0.814375 0.500000 0.000581
O O5 0.745653 0.688426 0.201959
O O6 0.836152 0.718023 0.870859
O O7 0.885218 0.663627 0.033546
O O8 0.369422 0.172625 0.577586
O O9 0.953638 0.500000 0.383761
O O10 0.000000 0.650469 0.500000
O O11 0.987325 0.712403 0.270722
O O12 0.433379 0.380962 0.923471
O O13 0.500000 0.500000 0.000000
O O14 0.000000 0.733252 0.000000
#
# Coordination Sequence:
#
# PCOD8111609 Si02
#       6
#     4   8   8   8   4   8
#     4  12  20  36  66  94 115 153 213 259 304 363
#     4  11  23  40  58  90 133 164 200 256 318 361
#     4  11  22  37  59  92 124 162 200 258 307 366
#     4  11  21  38  62  90 124 158 203 256 304 358
#     4  10  22  40  64  88 122 156 202 256 304 357
#     4  11  23  41  65  90 120 162 209 251 303 373
#
# _framework density 19.287914000000001
#
# number of rings (size 3 to 8) (size 9 to 14) (size 15 to 20)
#    0.000    1.000    5.000    3.000    0.000    1.600 
#    3.600    1.000    0.000    0.000    0.000    0.000 
#    0.000    0.000    0.000    0.000    0.000    0.000 
#
# Total GULP energy -247855.756068 kJ/mol
# GULP energy per Si atom -12392.787803 kJ/mol
# Density = 1.924401 g / cm^3
# Si number density = 19.287914 Si / 1000 Ang^3
#
#
#
# Elastic Constant Matrix: (Units=GPa)
#
#
# Indices 1 2 3 4 5 6 
#
# 1 99.8878 32.2795 52.4702 0.0000 -17.2230 0.0000
# 2 32.2795 103.5588 40.3663 0.0000 3.9128 0.0000
# 3 52.4702 40.3663 96.2622 0.0000 -13.5680 0.0000
# 4 0.0000 0.0000 0.0000 35.2198 0.0000 -8.6680
# 5 -17.2230 3.9128 -13.5680 0.0000 32.8229 0.0000
# 6 0.0000 0.0000 0.0000 -8.6680 0.0000 33.5788
#
#
#
# Elastic Compliance Matrix: (Units=1/GPa)
#
#
# Indices 1 2 3 4 5 6 
#
# 1 0.015143 -0.002413 -0.006458 0.000000 0.005564 0.000000
# 2 -0.002413 0.012339 -0.004507 0.000000 -0.004600 0.000000
# 3 -0.006458 -0.004507 0.016349 0.000000 0.003907 0.000000
# 4 0.000000 0.000000 0.000000 0.030319 0.000000 0.007827
# 5 0.005564 -0.004600 0.003907 0.000000 0.035550 0.000000
# 6 0.000000 0.000000 0.000000 0.007827 0.000000 0.031801
#
#
# Mechanical properties :
#
#
# Convention : Reuss Voigt Hill
#
# Bulk Modulus (GPa) = 58.56694 61.10453 59.83573
# Shear Modulus (GPa) = 28.74410 31.96382 30.35396
#
# Velocity S-wave (km/s) = 3.86458 4.07528 3.97133
# Velocity P-wave (km/s) = 7.09534 7.34118 7.21930
#
# Compressibility (1/GPa) = 0.01707448
#
# Stress axis : x y z
#
# Youngs Moduli (GPa) = 66.03896 81.04209 61.16551
#
# Poissons Ratio (x) = 0.19556 0.39499
# Poissons Ratio (y) = 0.15935 0.27570
# Poissons Ratio (z) = 0.42646 0.36529
#
# Static dielectric constant tensor:
#      x y z
#    x 3.362020 0.000000 -0.424750 
#    y 0.000000 4.077850 0.000000 
#    z -0.424750 0.000000 3.917270 
# 
# 
# High freq. dielectric constant tensor:
#      x y z
#    x 1.719460 0.000000 -0.014920 
#    y 0.000000 1.781080 0.000000 
#    z -0.014920 0.000000 1.754320 
# 
# From -- ./inp_files/102371.got.cif
#   From: 2010.06.25/outbox.cif.g09.slc.cpg/sg12_52_cif.got.tgz:102371.got - 2010.06.28 00:19:55.
