data_PCOD8111024
_publ_section_title
;
Structure prediction by ZEFSAII (Michael W. Deem and Ramdas Pophale) SiO2 
 PCOD8111024
Probable space group: C 2/M
;
_chemical_formula_sum "Si O2"
_cell_formula_units_Z 48
_cell_length_a 17.846000
_cell_length_b 8.969820
_cell_length_c 15.411882
_cell_angle_alpha 90.000000
_cell_angle_beta 87.055100
_cell_angle_gamma 90.000000
_cell_volume 2463.805299
_symmetry_space_group_name_H-M "C 2/M"
_symmetry_group_IT_number 12
_symmetry_cell_setting 'monoclinic'
loop_
_space_group_symop_operation_xyz
x,y,z
-x,y,-z
-x,-y,-z
x,-y,z
1/2+x,1/2+y,z
1/2-x,1/2+y,-z
1/2-x,1/2-y,-z
1/2+x,1/2-y,z
loop_
_atom_site_type_symbol
_atom_site_label
_atom_site_fract_x
_atom_site_fract_y
_atom_site_fract_z
Si Si1 0.848452 0.175380 0.160273
Si Si2 0.829591 0.171639 0.493677
Si Si3 0.432657 0.670197 0.327210
Si Si4 0.415817 0.176857 0.641264
Si Si5 0.819551 0.326116 0.806066
Si Si6 0.169889 0.674075 0.005297
O O1 0.905239 0.217315 0.233355
O O2 0.765229 0.239060 0.187954
O O3 0.878816 0.252166 0.069349
O O4 0.844472 0.000000 0.144379
O O5 0.750000 0.250000 0.500000
O O6 0.862232 0.187171 0.395291
O O7 0.886789 0.249609 0.555426
O O8 0.819763 0.000000 0.520886
O O9 0.462196 0.500000 0.326671
O O10 0.497879 0.780831 0.351675
O O11 0.368061 0.243400 0.725052
O O12 0.408971 0.000000 0.633642
O O13 0.812649 0.500000 0.788291
O O14 0.862560 0.296816 0.895566
O O15 0.177952 0.500000 0.986344
O O16 0.250000 0.750000 0.000000
#
# Coordination Sequence:
#
# PCOD8111024 Si02
#       6
#     8   8   8   8   8   8
#     4   9  17  33  55  76 102 138 180 222 265 314
#     4  11  23  40  61  83 108 139 177 220 268 320
#     4  10  22  39  56  77 111 149 177 213 271 326
#     4  11  22  37  57  81 110 144 182 221 263 316
#     4   8  16  32  53  76 104 140 177 216 266 318
#     4   9  16  29  50  76 105 136 174 219 267 315
#
# _framework density 19.482059
#
# number of rings (size 3 to 8) (size 9 to 14) (size 15 to 20)
#    0.000    2.333    0.000    4.000    0.000    6.667 
#    0.000   12.500    0.000    5.000    0.000    0.000 
#    0.000    0.000    0.000    0.000    0.000    0.000 
#
# Total GULP energy -297522.279630 kJ/mol
# GULP energy per Si atom -12396.761651 kJ/mol
# Density = 1.943772 g / cm^3
# Si number density = 19.482059 Si / 1000 Ang^3
#
#
#
# Elastic Constant Matrix: (Units=GPa)
#
#
# Indices 1 2 3 4 5 6 
#
# 1 67.2327 28.2626 17.9050 0.0000 19.2445 0.0000
# 2 28.2626 79.9156 41.4878 0.0000 14.9023 0.0000
# 3 17.9050 41.4878 106.3446 0.0000 27.4091 0.0000
# 4 0.0000 0.0000 0.0000 32.8548 0.0000 3.7832
# 5 19.2445 14.9023 27.4091 0.0000 29.7009 0.0000
# 6 0.0000 0.0000 0.0000 3.7832 0.0000 28.0849
#
#
#
# Elastic Compliance Matrix: (Units=1/GPa)
#
#
# Indices 1 2 3 4 5 6 
#
# 1 0.020287 -0.005981 0.002010 0.000000 -0.011999 0.000000
# 2 -0.005981 0.017649 -0.006029 0.000000 0.000583 0.000000
# 3 0.002010 -0.006029 0.014397 0.000000 -0.011564 0.000000
# 4 0.000000 0.000000 0.000000 0.030916 0.000000 -0.004165
# 5 -0.011999 0.000583 -0.011564 0.000000 0.051823 0.000000
# 6 0.000000 0.000000 0.000000 -0.004165 0.000000 0.036167
#
#
# Mechanical properties :
#
#
# Convention : Reuss Voigt Hill
#
# Bulk Modulus (GPa) = 30.92607 47.64484 39.28546
# Shear Modulus (GPa) = 24.75032 29.18395 26.96714
#
# Velocity S-wave (km/s) = 3.56816 3.87459 3.72453
# Velocity P-wave (km/s) = 5.73448 6.67274 6.22132
#
# Compressibility (1/GPa) = 0.03233518
#
# Stress axis : x y z
#
# Youngs Moduli (GPa) = 49.29255 56.65923 69.45681
#
# Poissons Ratio (x) = 0.33886 -0.13962
# Poissons Ratio (y) = 0.29480 0.41874
# Poissons Ratio (z) = -0.09909 0.34159
#
# Static dielectric constant tensor:
#      x y z
#    x 3.464620 0.000000 0.122040 
#    y 0.000000 3.977120 0.000000 
#    z 0.122040 0.000000 4.238230 
# 
# 
# High freq. dielectric constant tensor:
#      x y z
#    x 1.732010 0.000000 0.007180 
#    y 0.000000 1.746640 0.000000 
#    z 0.007180 0.000000 1.781870 
# 
# From -- ./inp_files/221614.got.cif
#   From: 2010.06.25/outbox.cif.g09.slc.cpg/sg12_111_cif.got.tgz:221614.got - 2010.06.28 00:19:55.
