data_PCOD8111069
_publ_section_title
;
Structure prediction by ZEFSAII (Michael W. Deem and Ramdas Pophale) SiO2 
 PCOD8111069
Probable space group: C 2/M
;
_chemical_formula_sum "Si O2"
_cell_formula_units_Z 56
_cell_length_a 26.923533
_cell_length_b 8.925535
_cell_length_c 11.686509
_cell_angle_alpha 90.000000
_cell_angle_beta 76.432551
_cell_angle_gamma 90.000000
_cell_volume 2729.980596
_symmetry_space_group_name_H-M "C 2/M"
_symmetry_group_IT_number 12
_symmetry_cell_setting 'monoclinic'
loop_
_space_group_symop_operation_xyz
x,y,z
-x,y,-z
-x,-y,-z
x,-y,z
1/2+x,1/2+y,z
1/2-x,1/2+y,-z
1/2-x,1/2-y,-z
1/2+x,1/2-y,z
loop_
_atom_site_type_symbol
_atom_site_label
_atom_site_fract_x
_atom_site_fract_y
_atom_site_fract_z
Si Si1 0.893870 0.829175 0.304167
Si Si2 0.413330 0.176685 0.817278
Si Si3 0.121592 0.172563 0.942778
Si Si4 0.003177 0.824956 0.631823
Si Si5 0.729299 0.823215 0.897084
Si Si6 0.804284 0.671287 0.473314
Si Si7 0.184778 0.671411 0.275423
O O1 0.907611 0.812777 0.162479
O O2 0.941848 0.771559 0.351643
O O3 0.843067 0.737025 0.359740
O O4 0.881649 0.000000 0.342775
O O5 0.461456 0.227630 0.718762
O O6 0.362329 0.224635 0.776922
O O7 0.415660 0.000000 0.835183
O O8 0.414088 0.258444 0.939400
O O9 0.173177 0.265255 0.902860
O O10 0.133836 0.000000 0.965374
O O11 0.000000 0.788484 0.500000
O O12 0.993793 0.000000 0.662272
O O13 0.766381 0.776083 0.773698
O O14 0.727876 0.000000 0.911795
O O15 0.750000 0.750000 0.000000
O O16 0.794900 0.500000 0.446033
O O17 0.750000 0.750000 0.500000
O O18 0.830151 0.689582 0.584030
O O19 0.199529 0.500000 0.238950
#
# Coordination Sequence:
#
# PCOD8111069 Si02
#       7
#     8   8   8   8   8   8   8
#     4  10  23  42  63  89 123 162 202 252 308 362
#     4  11  23  39  62  90 120 156 202 254 304 361
#     4  11  23  40  61  87 123 163 204 250 304 364
#     4  10  22  42  67  92 120 157 202 252 306 364
#     4  12  23  36  58  88 122 161 203 247 300 359
#     4  11  23  39  61  89 122 160 201 249 302 361
#     4  10  22  39  58  85 122 160 201 251 304 358
#
# _framework density 20.512965999999999
#
# number of rings (size 3 to 8) (size 9 to 14) (size 15 to 20)
#    0.000    1.286    1.429    4.286    0.000    7.714 
#    0.000    2.857    0.000    0.000    0.000    0.000 
#    0.000    0.000    0.000    0.000    0.000    0.000 
#
# Total GULP energy -347358.725028 kJ/mol
# GULP energy per Si atom -12405.668751 kJ/mol
# Density = 2.046628 g / cm^3
# Si number density = 20.512966 Si / 1000 Ang^3
#
#
#
# Elastic Constant Matrix: (Units=GPa)
#
#
# Indices 1 2 3 4 5 6 
#
# 1 106.5537 50.5989 48.1510 0.0000 -1.0930 0.0000
# 2 50.5989 123.3046 54.2038 0.0000 -7.5141 0.0000
# 3 48.1510 54.2038 122.3503 0.0000 -4.1142 0.0000
# 4 0.0000 0.0000 0.0000 35.4108 0.0000 -7.8380
# 5 -1.0930 -7.5141 -4.1142 0.0000 37.1201 0.0000
# 6 0.0000 0.0000 0.0000 -7.8380 0.0000 31.8232
#
#
#
# Elastic Compliance Matrix: (Units=1/GPa)
#
#
# Indices 1 2 3 4 5 6 
#
# 1 0.012683 -0.003782 -0.003342 0.000000 -0.000762 0.000000
# 2 -0.003782 0.011289 -0.003453 0.000000 0.001791 0.000000
# 3 -0.003342 -0.003453 0.011032 0.000000 0.000425 0.000000
# 4 0.000000 0.000000 0.000000 0.029868 0.000000 0.007357
# 5 -0.000762 0.001791 0.000425 0.000000 0.027327 0.000000
# 6 0.000000 0.000000 0.000000 0.007357 0.000000 0.033236
#
#
# Mechanical properties :
#
#
# Convention : Reuss Voigt Hill
#
# Bulk Modulus (GPa) = 72.19286 73.12400 72.65843
# Shear Modulus (GPa) = 33.06778 34.15448 33.61113
#
# Velocity S-wave (km/s) = 4.01938 4.08489 4.05227
# Velocity P-wave (km/s) = 7.53729 7.61404 7.57576
#
# Compressibility (1/GPa) = 0.01385179
#
# Stress axis : x y z
#
# Youngs Moduli (GPa) = 78.84465 88.58264 90.64413
#
# Poissons Ratio (x) = 0.33504 0.30289
# Poissons Ratio (y) = 0.29821 0.31295
# Poissons Ratio (z) = 0.26346 0.30583
#
# Static dielectric constant tensor:
#      x y z
#    x 3.679790 0.000000 0.247070 
#    y 0.000000 3.786920 0.000000 
#    z 0.247070 0.000000 3.844290 
# 
# 
# High freq. dielectric constant tensor:
#      x y z
#    x 1.798300 0.000000 0.007130 
#    y 0.000000 1.805260 0.000000 
#    z 0.007130 0.000000 1.816800 
# 
# From -- ./inp_files/180736.got.cif
#   From: 2010.06.25/outbox.cif.g09.slc.cpg/sg12_91_cif.got.tgz:180736.got - 2010.06.28 00:19:55.
