data_PCOD8111247
_publ_section_title
;
Structure prediction by ZEFSAII (Michael W. Deem and Ramdas Pophale) SiO2 
 PCOD8111247
Probable space group: C 2/M
;
_chemical_formula_sum "Si O2"
_cell_formula_units_Z 32
_cell_length_a 13.654137
_cell_length_b 18.453781
_cell_length_c 5.663741
_cell_angle_alpha 90.000000
_cell_angle_beta 79.699846
_cell_angle_gamma 90.000000
_cell_volume 1404.097117
_symmetry_space_group_name_H-M "C 2/M"
_symmetry_group_IT_number 12
_symmetry_cell_setting 'monoclinic'
loop_
_space_group_symop_operation_xyz
x,y,z
-x,y,-z
-x,-y,-z
x,-y,z
1/2+x,1/2+y,z
1/2-x,1/2+y,-z
1/2-x,1/2-y,-z
1/2+x,1/2-y,z
loop_
_atom_site_type_symbol
_atom_site_label
_atom_site_fract_x
_atom_site_fract_y
_atom_site_fract_z
Si Si1 0.537621 0.416980 0.232823
Si Si2 0.263482 0.310151 0.298355
Si Si3 0.254447 0.582217 0.668721
Si Si4 0.117014 0.693239 0.970811
O O1 0.500000 0.380490 0.500000
O O2 0.500066 0.500000 0.255240
O O3 0.658122 0.412141 0.174595
O O4 0.500000 0.381205 0.000000
O O5 0.250000 0.250000 0.500000
O O6 0.296807 0.386694 0.400018
O O7 0.348527 0.276573 0.092107
O O8 0.157771 0.323821 0.214315
O O9 0.218377 0.500000 0.649853
O O10 0.161554 0.632411 0.777147
O O11 0.000000 0.687801 0.000000
#
# Coordination Sequence:
#
# PCOD8111247 Si02
#       4
#     8   8   8   8
#     4   9  19  36  57  88 132 176 212 257 326 397
#     4   9  21  43  62  89 120 169 216 258 320 385
#     4  10  22  39  62  95 130 164 211 270 329 393
#     4  10  22  43  65  89 125 166 215 266 326 392
#
# _framework density 22.790444999999998
#
# number of rings (size 3 to 8) (size 9 to 14) (size 15 to 20)
#    0.000    2.500    0.000    0.000    3.500    5.500 
#   13.500    1.250    0.000    0.750    0.000    0.000 
#    0.000    0.000    0.000    0.000    0.000    0.000 
#
# Total GULP energy -198246.246032 kJ/mol
# GULP energy per Si atom -12390.390377 kJ/mol
# Density = 2.273857 g / cm^3
# Si number density = 22.790445 Si / 1000 Ang^3
#
#
#
# Elastic Constant Matrix: (Units=GPa)
#
#
# Indices 1 2 3 4 5 6 
#
# 1 156.2875 48.7965 48.1743 0.0000 16.6351 0.0000
# 2 48.7965 130.7867 35.5472 0.0000 11.8791 0.0000
# 3 48.1743 35.5472 131.1523 0.0000 28.7042 0.0000
# 4 0.0000 0.0000 0.0000 27.4877 0.0000 3.5480
# 5 16.6351 11.8791 28.7042 0.0000 33.8393 0.0000
# 6 0.0000 0.0000 0.0000 3.5480 0.0000 22.1404
#
#
#
# Elastic Compliance Matrix: (Units=1/GPa)
#
#
# Indices 1 2 3 4 5 6 
#
# 1 0.007863 -0.002272 -0.001966 0.000000 -0.001400 0.000000
# 2 -0.002272 0.008952 -0.001410 0.000000 -0.000829 0.000000
# 3 -0.001966 -0.001410 0.010326 0.000000 -0.007298 0.000000
# 4 0.000000 0.000000 0.000000 0.037148 0.000000 -0.005953
# 5 -0.001400 -0.000829 -0.007298 0.000000 0.036721 0.000000
# 6 0.000000 0.000000 0.000000 -0.005953 0.000000 0.046120
#
#
# Mechanical properties :
#
#
# Convention : Reuss Voigt Hill
#
# Bulk Modulus (GPa) = 63.11192 75.91807 69.51499
# Shear Modulus (GPa) = 30.54186 35.74071 33.14128
#
# Velocity S-wave (km/s) = 3.66473 3.96439 3.81750
# Velocity P-wave (km/s) = 6.75717 7.37149 7.07101
#
# Compressibility (1/GPa) = 0.01584487
#
# Stress axis : x y z
#
# Youngs Moduli (GPa) = 127.17987 111.70149 96.84044
#
# Poissons Ratio (x) = 0.25380 0.19038
# Poissons Ratio (y) = 0.28897 0.13658
# Poissons Ratio (z) = 0.25002 0.15753
#
# Static dielectric constant tensor:
#      x y z
#    x 3.747940 0.000000 0.123460 
#    y 0.000000 4.173510 0.000000 
#    z 0.123460 0.000000 4.677190 
# 
# 
# High freq. dielectric constant tensor:
#      x y z
#    x 1.879360 0.000000 0.016050 
#    y 0.000000 1.886860 0.000000 
#    z 0.016050 0.000000 1.910070 
# 
# From -- ./inp_files/6044.got.cif
#   From: 2010.06.25/outbox.cif.g09.slc.cpg/sg12_4_cif.got.tgz:6044.got - 2010.06.28 00:19:55.
