data_PCOD8111779
_publ_section_title
;
Structure prediction by ZEFSAII (Michael W. Deem and Ramdas Pophale) SiO2 
 PCOD8111779
Probable space group: C 2/M
;
_chemical_formula_sum "Si O2"
_cell_formula_units_Z 48
_cell_length_a 18.528572
_cell_length_b 18.474192
_cell_length_c 15.272537
_cell_angle_alpha 90.000000
_cell_angle_beta 153.070474
_cell_angle_gamma 90.000000
_cell_volume 2367.638330
_symmetry_space_group_name_H-M "C 2/M"
_symmetry_group_IT_number 12
_symmetry_cell_setting 'monoclinic'
loop_
_space_group_symop_operation_xyz
x,y,z
-x,y,-z
-x,-y,-z
x,-y,z
1/2+x,1/2+y,z
1/2-x,1/2+y,-z
1/2-x,1/2-y,-z
1/2+x,1/2-y,z
loop_
_atom_site_type_symbol
_atom_site_label
_atom_site_fract_x
_atom_site_fract_y
_atom_site_fract_z
Si Si1 0.152136 0.000000 0.843130
Si Si2 0.238134 0.269808 0.693243
Si Si3 0.199541 0.000000 0.515636
Si Si4 0.600113 0.221575 0.733992
Si Si5 0.021180 0.000000 0.880524
Si Si6 0.689436 0.852865 0.994693
Si Si7 0.500000 0.381804 0.000000
Si Si8 0.088553 0.373200 0.177690
O O1 0.159043 0.000000 0.956507
O O2 0.246641 0.931339 0.909207
O O3 0.967430 0.000000 0.610263
O O4 0.175153 0.288707 0.720988
O O5 0.311848 0.190501 0.761145
O O6 0.090544 0.274449 0.468167
O O7 0.364362 0.332163 0.810391
O O8 0.300085 0.071201 0.649006
O O9 0.150899 0.000000 0.358618
O O10 0.641384 0.153652 0.840875
O O11 0.665617 0.297454 0.839606
O O12 0.050473 0.930198 0.972216
O O13 0.537363 0.836593 0.891665
O O14 0.000000 0.412742 0.000000
#
# Coordination Sequence:
#
# PCOD8111779 Si02
#       8
#     4   8   4   8   4   8   4   8
#     4  10  22  41  60  88 122 162 209 257 305 375
#     4  11  22  41  64  96 126 162 208 264 318 374
#     4  10  25  42  62  93 127 171 215 254 314 384
#     4  10  23  39  63  93 128 163 208 255 319 379
#     4   9  24  41  65  89 128 166 215 257 317 373
#     4  11  22  41  63  90 126 170 206 260 313 373
#     4  11  20  42  68  93 126 166 210 267 318 368
#     4  12  23  42  64  94 128 164 211 266 315 373
#
# _framework density 20.273365999999999
#
# number of rings (size 3 to 8) (size 9 to 14) (size 15 to 20)
#    0.500    0.833    2.500    2.750    2.333    2.000 
#    0.000    0.833    0.000    4.000    0.000    0.000 
#    0.000    0.000    0.000    0.000    0.000    0.000 
#
# Total GULP energy -297442.275617 kJ/mol
# GULP energy per Si atom -12393.428151 kJ/mol
# Density = 2.022722 g / cm^3
# Si number density = 20.273366 Si / 1000 Ang^3
#
#
#
# Elastic Constant Matrix: (Units=GPa)
#
#
# Indices 1 2 3 4 5 6 
#
# 1 60.2672 5.5932 19.8709 0.0000 6.2219 0.0000
# 2 5.5932 98.8585 42.0720 0.0000 6.5747 0.0000
# 3 19.8709 42.0720 122.1978 0.0000 7.0319 0.0000
# 4 0.0000 0.0000 0.0000 11.1787 0.0000 2.7445
# 5 6.2219 6.5747 7.0319 0.0000 33.4032 0.0000
# 6 0.0000 0.0000 0.0000 2.7445 0.0000 17.4464
#
#
#
# Elastic Compliance Matrix: (Units=1/GPa)
#
#
# Indices 1 2 3 4 5 6 
#
# 1 0.017790 0.000400 -0.002870 0.000000 -0.002788 0.000000
# 2 0.000400 0.011935 -0.004084 0.000000 -0.001564 0.000000
# 3 -0.002870 -0.004084 0.010102 0.000000 -0.000788 0.000000
# 4 0.000000 0.000000 0.000000 0.093049 0.000000 -0.014638
# 5 -0.002788 -0.001564 -0.000788 0.000000 0.030930 0.000000
# 6 0.000000 0.000000 0.000000 -0.014638 0.000000 0.059621
#
#
# Mechanical properties :
#
#
# Convention : Reuss Voigt Hill
#
# Bulk Modulus (GPa) = 37.42744 46.26619 41.84682
# Shear Modulus (GPa) = 20.37145 26.65817 23.51481
#
# Velocity S-wave (km/s) = 3.17336 3.63014 3.40941
# Velocity P-wave (km/s) = 5.65052 6.35934 6.01538
#
# Compressibility (1/GPa) = 0.02671837
#
# Stress axis : x y z
#
# Youngs Moduli (GPa) = 56.21186 83.78725 98.99295
#
# Poissons Ratio (x) = -0.03355 0.28414
# Poissons Ratio (y) = -0.02251 0.40431
# Poissons Ratio (z) = 0.16134 0.34221
#
# Static dielectric constant tensor:
#      x y z
#    x 3.593810 0.000000 -0.039290 
#    y 0.000000 3.474400 0.000000 
#    z -0.039290 0.000000 3.968820 
# 
# 
# High freq. dielectric constant tensor:
#      x y z
#    x 1.790260 0.000000 -0.001160 
#    y 0.000000 1.786980 0.000000 
#    z -0.001160 0.000000 1.801150 
# 
# From -- ./inp_files/226980.got.cif
#   From: 2010.06.25/outbox.cif.g09.slc.cpg/sg12_114_cif.got.tgz:226980.got - 2010.06.28 00:19:55.
