data_PCOD8111223
_publ_section_title
;
Structure prediction by ZEFSAII (Michael W. Deem and Ramdas Pophale) SiO2 
 PCOD8111223
Probable space group: C 2/M
;
_chemical_formula_sum "Si O2"
_cell_formula_units_Z 64
_cell_length_a 23.951622
_cell_length_b 9.013132
_cell_length_c 28.397660
_cell_angle_alpha 90.000000
_cell_angle_beta 32.276223
_cell_angle_gamma 90.000000
_cell_volume 3273.676175
_symmetry_space_group_name_H-M "C 2/M"
_symmetry_group_IT_number 12
_symmetry_cell_setting 'monoclinic'
loop_
_space_group_symop_operation_xyz
x,y,z
-x,y,-z
-x,-y,-z
x,-y,z
1/2+x,1/2+y,z
1/2-x,1/2+y,-z
1/2-x,1/2-y,-z
1/2+x,1/2-y,z
loop_
_atom_site_type_symbol
_atom_site_label
_atom_site_fract_x
_atom_site_fract_y
_atom_site_fract_z
Si Si1 0.652630 0.323981 0.095131
Si Si2 0.422962 0.824841 0.756619
Si Si3 0.379207 0.831761 0.595296
Si Si4 0.711658 0.173016 0.663866
Si Si5 0.338269 0.826316 0.406258
Si Si6 0.968976 0.173651 0.156108
Si Si7 0.792267 0.326610 0.758023
Si Si8 0.574433 0.166731 0.902836
O O1 0.669349 0.500000 0.086444
O O2 0.635280 0.258931 0.159404
O O3 0.553051 0.279884 0.134921
O O4 0.750000 0.250000 0.000000
O O5 0.544063 0.773583 0.665090
O O6 0.364725 0.779534 0.750275
O O7 0.417605 0.000000 0.770863
O O8 0.500000 0.816972 0.500000
O O9 0.328959 0.720154 0.593071
O O10 0.353518 0.782719 0.666921
O O11 0.340710 0.000000 0.613666
O O12 0.683853 0.220879 0.631226
O O13 0.643596 0.268093 0.748441
O O14 0.692452 0.000000 0.685606
O O15 0.250000 0.750000 0.500000
O O16 0.326547 0.000000 0.422728
O O17 0.992226 0.249067 0.089628
O O18 0.965222 0.000000 0.150856
O O19 0.767858 0.500000 0.777448
O O20 0.682942 0.243262 0.838754
O O21 0.598828 0.000000 0.868569
O O22 0.500000 0.167931 0.000000
#
# Coordination Sequence:
#
# PCOD8111223 Si02
#       8
#     8   8   8   8   8   8   8   8
#     4  11  25  42  64  93 123 160 205 253 307 366
#     4  10  22  42  63  88 126 166 204 251 304 362
#     4  10  22  39  62  91 122 162 207 249 299 363
#     4  11  22  39  63  91 122 157 202 259 312 358
#     4  10  23  40  62  91 123 160 203 250 304 361
#     4  11  23  41  65  91 119 159 208 254 304 365
#     4  10  22  40  62  89 122 163 207 249 298 358
#     4  11  25  42  62  91 125 161 200 251 311 361
#
# _framework density 19.549887999999999
#
# number of rings (size 3 to 8) (size 9 to 14) (size 15 to 20)
#    0.000    1.500    2.500    1.500    3.500    4.750 
#    0.000    0.000    0.000    0.000    0.000    0.000 
#    0.000    0.000    0.000    0.000    0.000    0.000 
#
# Total GULP energy -396894.974424 kJ/mol
# GULP energy per Si atom -12402.967951 kJ/mol
# Density = 1.950539 g / cm^3
# Si number density = 19.549888 Si / 1000 Ang^3
#
#
#
# Elastic Constant Matrix: (Units=GPa)
#
#
# Indices 1 2 3 4 5 6 
#
# 1 140.2509 56.8069 39.5242 -0.0049 -5.5289 0.0005
# 2 56.8069 67.4625 37.9305 0.0003 -0.3587 -0.0086
# 3 39.5242 37.9305 106.4073 -0.0033 -1.4220 0.0012
# 4 -0.0049 0.0003 -0.0033 28.5261 0.0031 7.2890
# 5 -5.5289 -0.3587 -1.4220 0.0031 23.8493 -0.0013
# 6 0.0005 -0.0086 0.0012 7.2890 -0.0013 27.9303
#
#
#
# Elastic Compliance Matrix: (Units=1/GPa)
#
#
# Indices 1 2 3 4 5 6 
#
# 1 0.011033 -0.008743 -0.000950 0.000002 0.002370 -0.000003
# 2 -0.008743 0.025468 -0.005857 -0.000005 -0.001993 0.000009
# 3 -0.000950 -0.005857 0.011844 0.000002 0.000398 -0.000003
# 4 0.000002 -0.000005 0.000002 0.037560 -0.000005 -0.009802
# 5 0.002370 -0.001993 0.000398 -0.000005 0.042473 0.000003
# 6 -0.000003 0.000009 -0.000003 -0.009802 0.000003 0.038361
#
#
# Mechanical properties :
#
#
# Convention : Reuss Voigt Hill
#
# Bulk Modulus (GPa) = 57.99242 64.73822 61.36532
# Shear Modulus (GPa) = 24.55937 28.05175 26.30556
#
# Velocity S-wave (km/s) = 3.54819 3.79209 3.67217
# Velocity P-wave (km/s) = 6.82015 7.23599 7.03114
#
# Compressibility (1/GPa) = 0.01724363
#
# Stress axis : x y z
#
# Youngs Moduli (GPa) = 90.64117 39.26459 84.43193
#
# Poissons Ratio (x) = 0.34331 0.08017
# Poissons Ratio (y) = 0.79252 0.49456
# Poissons Ratio (z) = 0.08607 0.22999
#
# Static dielectric constant tensor:
#      x y z
#    x 3.892120 0.000000 -0.006940 
#    y 0.000000 3.672250 0.000000 
#    z -0.006940 0.000000 3.625690 
# 
# 
# High freq. dielectric constant tensor:
#      x y z
#    x 1.777700 0.000000 -0.000230 
#    y 0.000000 1.761730 0.000000 
#    z -0.000230 0.000000 1.767910 
# 
# From -- ./inp_files/382248.got.cif
#   From: 2010.06.25/outbox.cif.g09.slc.cpg/sg12_192_cif.got.tgz:382248.got - 2010.06.28 00:19:55.
