data_PCOD8111648
_publ_section_title
;
Structure prediction by ZEFSAII (Michael W. Deem and Ramdas Pophale) SiO2 
 PCOD8111648
Probable space group: C 2/M
;
_chemical_formula_sum "Si O2"
_cell_formula_units_Z 48
_cell_length_a 27.081621
_cell_length_b 8.525830
_cell_length_c 11.441890
_cell_angle_alpha 90.000000
_cell_angle_beta 57.438251
_cell_angle_gamma 90.000000
_cell_volume 2226.587414
_symmetry_space_group_name_H-M "C 2/M"
_symmetry_group_IT_number 12
_symmetry_cell_setting 'monoclinic'
loop_
_space_group_symop_operation_xyz
x,y,z
-x,y,-z
-x,-y,-z
x,-y,z
1/2+x,1/2+y,z
1/2-x,1/2+y,-z
1/2-x,1/2-y,-z
1/2+x,1/2-y,z
loop_
_atom_site_type_symbol
_atom_site_label
_atom_site_fract_x
_atom_site_fract_y
_atom_site_fract_z
Si Si1 0.192748 0.182224 0.631923
Si Si2 0.586744 0.182227 0.629198
Si Si3 0.378381 0.820656 0.886122
Si Si4 0.726799 0.180263 0.821799
Si Si5 0.638798 0.318088 0.332664
Si Si6 0.019233 0.816359 0.103566
O O1 0.250000 0.250000 0.500000
O O2 0.137835 0.276252 0.653713
O O3 0.197370 0.207045 0.763921
O O4 0.185089 0.000000 0.610979
O O5 0.604876 0.221320 0.474067
O O6 0.529641 0.279966 0.737274
O O7 0.571717 0.000000 0.657614
O O8 0.389869 0.717692 0.756195
O O9 0.420887 0.768528 0.936541
O O10 0.391098 0.000000 0.837699
O O11 0.311053 0.798326 0.012612
O O12 0.793328 0.234350 0.758305
O O13 0.724835 0.000000 0.780845
O O14 0.632261 0.500000 0.370702
O O15 0.031533 0.000000 0.082622
O O16 0.000000 0.753942 0.000000
#
# Coordination Sequence:
#
# PCOD8111648 Si02
#       6
#     8   8   8   8   8   8
#     4  12  23  37  61  93 129 167 210 260 315 375
#     4  12  25  42  66  96 130 169 213 266 322 379
#     4  11  24  42  65  95 130 170 216 263 317 382
#     4  10  22  40  64  94 131 172 214 265 321 377
#     4  11  23  41  65  94 131 172 215 263 318 382
#     4  11  25  46  70  96 126 165 213 265 320 381
#
# _framework density 21.557653999999999
#
# number of rings (size 3 to 8) (size 9 to 14) (size 15 to 20)
#    0.000    0.833    1.667    6.000    0.000    6.667 
#    0.000    3.333    0.000    0.000    0.000    0.000 
#    0.000    0.000    0.000    0.000    0.000    0.000 
#
# Total GULP energy -297770.556857 kJ/mol
# GULP energy per Si atom -12407.106536 kJ/mol
# Density = 2.150859 g / cm^3
# Si number density = 21.557654 Si / 1000 Ang^3
#
#
#
# Elastic Constant Matrix: (Units=GPa)
#
#
# Indices 1 2 3 4 5 6 
#
# 1 78.1638 2.1086 37.1656 0.0000 7.5352 0.0000
# 2 2.1086 54.2434 24.2155 0.0000 4.9057 0.0000
# 3 37.1656 24.2155 100.9602 0.0000 1.4981 0.0000
# 4 0.0000 0.0000 0.0000 33.2364 0.0000 2.5811
# 5 7.5352 4.9057 1.4981 0.0000 43.1401 0.0000
# 6 0.0000 0.0000 0.0000 2.5811 0.0000 34.2537
#
#
#
# Elastic Compliance Matrix: (Units=1/GPa)
#
#
# Indices 1 2 3 4 5 6 
#
# 1 0.016086 0.002530 -0.006486 0.000000 -0.002872 0.000000
# 2 0.002530 0.021250 -0.005989 0.000000 -0.002650 0.000000
# 3 -0.006486 -0.005989 0.013709 0.000000 0.001338 0.000000
# 4 0.000000 0.000000 0.000000 0.030265 0.000000 -0.002281
# 5 -0.002872 -0.002650 0.001338 0.000000 0.023937 0.000000
# 6 0.000000 0.000000 0.000000 -0.002281 0.000000 0.029366
#
#
# Mechanical properties :
#
#
# Convention : Reuss Voigt Hill
#
# Bulk Modulus (GPa) = 32.09667 40.03851 36.06759
# Shear Modulus (GPa) = 30.32362 33.45122 31.88742
#
# Velocity S-wave (km/s) = 3.75457 3.94345 3.85017
# Velocity P-wave (km/s) = 5.80662 6.27275 6.04418
#
# Compressibility (1/GPa) = 0.03115588
#
# Stress axis : x y z
#
# Youngs Moduli (GPa) = 62.16515 47.05799 72.94444
#
# Poissons Ratio (x) = -0.11905 0.47311
# Poissons Ratio (y) = -0.15727 0.43686
# Poissons Ratio (z) = 0.40319 0.28183
#
# Static dielectric constant tensor:
#      x y z
#    x 4.711270 0.000000 0.134310 
#    y 0.000000 3.879940 0.000000 
#    z 0.134310 0.000000 3.888380 
# 
# 
# High freq. dielectric constant tensor:
#      x y z
#    x 1.847020 0.000000 -0.000270 
#    y 0.000000 1.850080 0.000000 
#    z -0.000270 0.000000 1.856560 
# 
# From -- ./inp_files/179742.got.cif
#   From: 2010.06.25/outbox.cif.g09.slc.cpg/sg12_90_cif.got.tgz:179742.got - 2010.06.28 00:19:55.
