data_PCOD8111871
_publ_section_title
;
Structure prediction by ZEFSAII (Michael W. Deem and Ramdas Pophale) SiO2 
 PCOD8111871
Probable space group: C 2/M
;
_chemical_formula_sum "Si O2"
_cell_formula_units_Z 64
_cell_length_a 15.336316
_cell_length_b 8.724194
_cell_length_c 32.207545
_cell_angle_alpha 90.000000
_cell_angle_beta 133.373824
_cell_angle_gamma 90.000000
_cell_volume 3132.360804
_symmetry_space_group_name_H-M "C 2/M"
_symmetry_group_IT_number 12
_symmetry_cell_setting 'monoclinic'
loop_
_space_group_symop_operation_xyz
x,y,z
-x,y,-z
-x,-y,-z
x,-y,z
1/2+x,1/2+y,z
1/2-x,1/2+y,-z
1/2-x,1/2-y,-z
1/2+x,1/2-y,z
loop_
_atom_site_type_symbol
_atom_site_label
_atom_site_fract_x
_atom_site_fract_y
_atom_site_fract_z
Si Si1 0.742412 0.178685 0.377695
Si Si2 0.031433 0.678598 0.695027
Si Si3 0.657884 0.319517 0.501939
Si Si4 0.433159 0.179100 0.388279
Si Si5 0.762996 0.819744 0.185122
Si Si6 0.483283 0.317828 0.873014
Si Si7 0.414597 0.679876 0.007427
Si Si8 0.180073 0.679981 0.884260
O O1 0.602064 0.215035 0.333431
O O2 0.805833 0.236478 0.440477
O O3 0.799046 0.273321 0.357964
O O4 0.765798 0.000000 0.377937
O O5 0.063763 0.500000 0.711271
O O6 0.045003 0.729322 0.651814
O O7 0.117219 0.781970 0.750742
O O8 0.668724 0.500000 0.502579
O O9 0.750000 0.250000 0.500000
O O10 0.523629 0.267536 0.448191
O O11 0.455125 0.000000 0.400663
O O12 0.652385 0.741175 0.172757
O O13 0.772286 0.755190 0.141980
O O14 0.742380 0.000000 0.176652
O O15 0.484527 0.500000 0.870729
O O16 0.548836 0.252775 0.935870
O O17 0.553032 0.250583 0.856089
O O18 0.438808 0.500000 0.016606
O O19 0.500000 0.753523 0.000000
O O20 0.276574 0.717300 0.951951
O O21 0.166122 0.500000 0.871923
#
# Coordination Sequence:
#
# PCOD8111871 Si02
#       8
#     8   8   8   8   8   8   8   8
#     4  10  22  41  63  90 124 162 200 245 303 363
#     4  10  23  45  65  84 120 164 206 256 312 361
#     4  11  21  37  62  92 127 164 200 245 302 364
#     4  11  23  40  63  94 125 159 202 249 302 364
#     4  12  26  43  63  91 122 161 213 259 309 367
#     4  11  22  40  65  93 127 164 204 253 307 366
#     4   9  17  34  62  93 124 162 202 244 305 370
#     4  11  22  40  65  93 127 164 203 252 309 368
#
# _framework density 20.431871999999998
#
# number of rings (size 3 to 8) (size 9 to 14) (size 15 to 20)
#    0.000    1.375    2.500    3.375    0.000    5.000 
#    0.000    5.000    0.000    0.000    0.000    0.000 
#    0.000    0.000    0.000    0.000    0.000    0.000 
#
# Total GULP energy -396959.746377 kJ/mol
# GULP energy per Si atom -12404.992074 kJ/mol
# Density = 2.038537 g / cm^3
# Si number density = 20.431872 Si / 1000 Ang^3
#
#
#
# Elastic Constant Matrix: (Units=GPa)
#
#
# Indices 1 2 3 4 5 6 
#
# 1 123.1789 33.8573 9.7414 0.0000 18.5732 0.0000
# 2 33.8573 92.8254 32.4496 0.0000 12.0878 0.0000
# 3 9.7414 32.4496 72.6148 0.0000 22.2396 0.0000
# 4 0.0000 0.0000 0.0000 28.1713 0.0000 1.1590
# 5 18.5732 12.0878 22.2396 0.0000 22.5799 0.0000
# 6 0.0000 0.0000 0.0000 1.1590 0.0000 37.4220
#
#
#
# Elastic Compliance Matrix: (Units=1/GPa)
#
#
# Indices 1 2 3 4 5 6 
#
# 1 0.010325 -0.003623 0.003209 0.000000 -0.009714 0.000000
# 2 -0.003623 0.014086 -0.006318 0.000000 0.001661 0.000000
# 3 0.003209 -0.006318 0.022820 0.000000 -0.021734 0.000000
# 4 0.000000 0.000000 0.000000 0.035542 0.000000 -0.001101
# 5 -0.009714 0.001661 -0.021734 0.000000 0.072794 0.000000
# 6 0.000000 0.000000 0.000000 -0.001101 0.000000 0.026756
#
#
# Mechanical properties :
#
#
# Convention : Reuss Voigt Hill
#
# Bulk Modulus (GPa) = 29.61320 48.96841 39.29080
# Shear Modulus (GPa) = 24.14941 31.80602 27.97771
#
# Velocity S-wave (km/s) = 3.44168 3.94977 3.70444
# Velocity P-wave (km/s) = 5.50623 6.69474 6.12936
#
# Compressibility (1/GPa) = 0.03376873
#
# Stress axis : x y z
#
# Youngs Moduli (GPa) = 96.85269 70.99026 43.82040
#
# Poissons Ratio (x) = 0.25718 -0.14061
# Poissons Ratio (y) = 0.35087 0.27684
# Poissons Ratio (z) = -0.31079 0.44849
#
# Static dielectric constant tensor:
#      x y z
#    x 3.808030 0.000000 -0.012650 
#    y 0.000000 3.546450 0.000000 
#    z -0.012650 0.000000 3.736510 
# 
# 
# High freq. dielectric constant tensor:
#      x y z
#    x 1.816060 0.000000 0.003700 
#    y 0.000000 1.788350 0.000000 
#    z 0.003700 0.000000 1.795000 
# 
# From -- ./inp_files/375538.got.cif
#   From: 2010.06.25/outbox.cif.g09.slc.cpg/sg12_188_cif.got.tgz:375538.got - 2010.06.28 00:19:55.
