data_PCOD8111289
_publ_section_title
;
Structure prediction by ZEFSAII (Michael W. Deem and Ramdas Pophale) SiO2 
 PCOD8111289
Probable space group: C 2/M
;
_chemical_formula_sum "Si O2"
_cell_formula_units_Z 56
_cell_length_a 18.927798
_cell_length_b 17.908607
_cell_length_c 18.670129
_cell_angle_alpha 90.000000
_cell_angle_beta 24.894964
_cell_angle_gamma 90.000000
_cell_volume 2664.072327
_symmetry_space_group_name_H-M "C 2/M"
_symmetry_group_IT_number 12
_symmetry_cell_setting 'monoclinic'
loop_
_space_group_symop_operation_xyz
x,y,z
-x,y,-z
-x,-y,-z
x,-y,z
1/2+x,1/2+y,z
1/2-x,1/2+y,-z
1/2-x,1/2-y,-z
1/2+x,1/2-y,z
loop_
_atom_site_type_symbol
_atom_site_label
_atom_site_fract_x
_atom_site_fract_y
_atom_site_fract_z
Si Si1 0.547495 0.196015 0.880552
Si Si2 0.684486 0.083114 0.986053
Si Si3 0.058109 0.585760 0.526493
Si Si4 0.763730 0.587471 0.898109
Si Si5 0.168958 0.085499 0.384761
Si Si6 0.065181 0.917092 0.636680
Si Si7 0.408203 0.657250 0.241434
O O1 0.695168 0.141710 0.770094
O O2 0.598245 0.256053 0.773857
O O3 0.500000 0.235358 0.000000
O O4 0.403599 0.145124 0.979666
O O5 0.874970 0.082633 0.784657
O O6 0.605487 0.000000 0.047405
O O7 0.676639 0.105230 0.076639
O O8 0.078013 0.500000 0.529739
O O9 0.240254 0.621851 0.364507
O O10 0.000000 0.597976 0.500000
O O11 0.911317 0.620898 0.711865
O O12 0.738453 0.500000 0.908016
O O13 0.581350 0.623721 0.049795
O O14 0.171715 0.099156 0.468011
O O15 0.000000 0.107896 0.500000
O O16 0.215742 0.000000 0.324098
O O17 0.097900 0.854679 0.667012
O O18 0.108147 0.000000 0.628805
#
# Coordination Sequence:
#
# PCOD8111289 Si02
#       7
#     8   8   8   8   8   8   8
#     4  12  27  40  57  91 128 174 212 249 321 387
#     4   9  19  40  65  90 120 157 211 271 314 370
#     4  10  22  39  64  95 123 166 222 267 310 365
#     4   9  20  40  68  96 123 163 212 265 319 371
#     4  10  22  42  67  94 123 161 213 270 319 371
#     4   9  19  39  69  96 120 160 210 264 321 372
#     4  11  24  41  62  91 137 169 206 256 319 383
#
# _framework density 21.020451000000001
#
# number of rings (size 3 to 8) (size 9 to 14) (size 15 to 20)
#    0.000    2.000    0.000    3.429    4.000    5.714 
#    2.571    2.143    0.000    0.000    0.000    0.000 
#    0.000    0.000    0.000    0.000    0.000    0.000 
#
# Total GULP energy -347086.412355 kJ/mol
# GULP energy per Si atom -12395.943298 kJ/mol
# Density = 2.097261 g / cm^3
# Si number density = 21.020451 Si / 1000 Ang^3
#
#
#
# Elastic Constant Matrix: (Units=GPa)
#
#
# Indices 1 2 3 4 5 6 
#
# 1 195.3792 -20.7088 60.4919 0.1022 -16.4655 -0.3038
# 2 -20.7088 100.5313 17.2835 0.2109 -8.2059 -0.4557
# 3 60.4919 17.2835 97.7601 0.1423 -7.1067 -0.4132
# 4 0.1022 0.2109 0.1423 43.7849 -0.0518 -59.5559
# 5 -16.4655 -8.2059 -7.1067 -0.0518 35.5816 0.1500
# 6 -0.3038 -0.4557 -0.4132 -59.5559 0.1500 174.8354
#
#
#
# Elastic Compliance Matrix: (Units=1/GPa)
#
#
# Indices 1 2 3 4 5 6 
#
# 1 0.007047 0.002478 -0.004586 -0.000005 0.002916 0.000004
# 2 0.002478 0.011278 -0.003303 -0.000026 0.003088 0.000014
# 3 -0.004586 -0.003303 0.013639 0.000007 -0.000160 0.000018
# 4 -0.000005 -0.000026 0.000007 0.042557 -0.000006 0.014497
# 5 0.002916 0.003088 -0.000160 -0.000006 0.030134 -0.000015
# 6 0.000004 0.000014 0.000018 0.014497 -0.000015 0.010658
#
#
# Mechanical properties :
#
#
# Convention : Reuss Voigt Hill
#
# Bulk Modulus (GPa) = 47.29957 56.42264 51.86110
# Shear Modulus (GPa) = 37.54250 73.28066 55.41158
#
# Velocity S-wave (km/s) = 4.23069 5.91078 5.13985
# Velocity P-wave (km/s) = 6.81290 8.57223 7.74269
#
# Compressibility (1/GPa) = 0.02114184
#
# Stress axis : x y z
#
# Youngs Moduli (GPa) = 141.90979 88.67127 73.31667
#
# Poissons Ratio (x) = -0.21974 0.33626
# Poissons Ratio (y) = -0.35168 0.24214
# Poissons Ratio (z) = 0.65086 0.29285
#
# Static dielectric constant tensor:
#      x y z
#    x 3.736380 -0.000050 0.074520 
#    y -0.000050 3.680460 0.000090 
#    z 0.074520 0.000090 3.970780 
# 
# 
# High freq. dielectric constant tensor:
#      x y z
#    x 1.830120 0.000000 0.000980 
#    y 0.000000 1.801030 0.000010 
#    z 0.000980 0.000010 1.833120 
# 
# From -- ./inp_files/322620.got.cif
#   From: 2010.06.25/outbox.cif.g09.slc.cpg/sg12_162_cif.got.tgz:322620.got - 2010.06.28 00:19:55.
