data_PCOD8111146
_publ_section_title
;
Structure prediction by ZEFSAII (Michael W. Deem and Ramdas Pophale) SiO2 
 PCOD8111146
Probable space group: C 2/M
;
_chemical_formula_sum "Si O2"
_cell_formula_units_Z 40
_cell_length_a 11.955697
_cell_length_b 23.676550
_cell_length_c 13.002334
_cell_angle_alpha 90.000000
_cell_angle_beta 146.521276
_cell_angle_gamma 90.000000
_cell_volume 2030.300798
_symmetry_space_group_name_H-M "C 2/M"
_symmetry_group_IT_number 12
_symmetry_cell_setting 'monoclinic'
loop_
_space_group_symop_operation_xyz
x,y,z
-x,y,-z
-x,-y,-z
x,-y,z
1/2+x,1/2+y,z
1/2-x,1/2+y,-z
1/2-x,1/2-y,-z
1/2+x,1/2-y,z
loop_
_atom_site_type_symbol
_atom_site_label
_atom_site_fract_x
_atom_site_fract_y
_atom_site_fract_z
Si Si1 0.000000 0.868902 0.000000
Si Si2 0.464660 0.434185 0.761615
Si Si3 0.816624 0.366748 0.604937
Si Si4 0.000000 0.194638 0.500000
Si Si5 0.913377 0.434776 0.039990
Si Si6 0.408679 0.802856 0.326314
O O1 0.977301 0.908887 0.884818
O O2 0.808459 0.828153 0.867627
O O3 0.410258 0.500000 0.729450
O O4 0.291363 0.403054 0.565395
O O5 0.673171 0.425062 0.859748
O O6 0.664075 0.345273 0.574093
O O7 0.985510 0.405696 0.785193
O O8 0.932497 0.313628 0.643698
O O9 0.893001 0.234910 0.331746
O O10 0.972218 0.500000 0.092598
O O11 0.000000 0.409160 0.000000
O O12 0.500000 0.831601 0.500000
#
# Coordination Sequence:
#
# PCOD8111146 Si02
#       6
#     4   8   8   4   8   8
#     4  12  21  44  62  92 128 160 199 258 306 356
#     4  11  23  38  63  95 123 164 204 244 304 373
#     4  12  21  43  65  88 128 161 201 254 312 354
#     4  10  24  42  63  92 119 160 210 258 300 366
#     4  10  22  39  60  91 126 162 206 250 299 366
#     4  10  23  42  63  90 122 159 206 257 303 359
#
# _framework density 19.701514
#
# number of rings (size 3 to 8) (size 9 to 14) (size 15 to 20)
#    0.600    0.600    4.000    2.700    0.000    0.000 
#    5.400    7.000    0.000    0.000    0.000    0.000 
#    0.000    0.000    0.000    0.000    0.000    0.000 
#
# Total GULP energy -248018.855997 kJ/mol
# GULP energy per Si atom -12400.942800 kJ/mol
# Density = 1.965667 g / cm^3
# Si number density = 19.701514 Si / 1000 Ang^3
#
#
#
# Elastic Constant Matrix: (Units=GPa)
#
#
# Indices 1 2 3 4 5 6 
#
# 1 65.2460 -5.3931 -1.0666 -0.0004 5.8198 -0.0002
# 2 -5.3931 58.1707 21.7208 -0.0001 4.1720 -0.0001
# 3 -1.0666 21.7208 85.3451 -0.0003 -4.3879 -0.0002
# 4 -0.0004 -0.0001 -0.0003 21.4890 -0.0002 -9.7460
# 5 5.8198 4.1720 -4.3879 -0.0002 32.9875 -0.0001
# 6 -0.0002 -0.0001 -0.0002 -9.7460 -0.0001 28.7533
#
#
#
# Elastic Compliance Matrix: (Units=1/GPa)
#
#
# Indices 1 2 3 4 5 6 
#
# 1 0.015745 0.001840 -0.000429 0.000000 -0.003068 0.000000
# 2 0.001840 0.019524 -0.005125 0.000000 -0.003476 0.000000
# 3 -0.000429 -0.005125 0.013143 0.000000 0.002472 0.000000
# 4 0.000000 0.000000 0.000000 0.054989 0.000000 0.018639
# 5 -0.003068 -0.003476 0.002472 0.000000 0.031624 0.000000
# 6 0.000000 0.000000 0.000000 0.018639 0.000000 0.041096
#
#
# Mechanical properties :
#
#
# Convention : Reuss Voigt Hill
#
# Bulk Modulus (GPa) = 24.39927 26.58712 25.49320
# Shear Modulus (GPa) = 25.35356 29.54601 27.44978
#
# Velocity S-wave (km/s) = 3.59121 3.87677 3.73672
# Velocity P-wave (km/s) = 5.44124 5.79340 5.62007
#
# Compressibility (1/GPa) = 0.04098483
#
# Stress axis : x y z
#
# Youngs Moduli (GPa) = 63.51099 51.21855 76.08535
#
# Poissons Ratio (x) = -0.09425 0.03266
# Poissons Ratio (y) = -0.11686 0.38991
# Poissons Ratio (z) = 0.02726 0.26248
#
# Static dielectric constant tensor:
#      x y z
#    x 3.667020 0.000000 -0.009550 
#    y 0.000000 3.453910 0.000000 
#    z -0.009550 0.000000 3.528790 
# 
# 
# High freq. dielectric constant tensor:
#      x y z
#    x 1.782950 0.000000 0.002150 
#    y 0.000000 1.763750 0.000000 
#    z 0.002150 0.000000 1.767600 
# 
# From -- ./inp_files/137195.got.cif
#   From: 2010.06.25/outbox.cif.g09.slc.cpg/sg12_69_cif.got.tgz:137195.got - 2010.06.28 00:19:55.
