data_PCOD8111923
_publ_section_title
;
Structure prediction by ZEFSAII (Michael W. Deem and Ramdas Pophale) SiO2 
 PCOD8111923
Probable space group: C 2/M
;
_chemical_formula_sum "Si O2"
_cell_formula_units_Z 56
_cell_length_a 26.862759
_cell_length_b 8.771105
_cell_length_c 19.871548
_cell_angle_alpha 90.000000
_cell_angle_beta 34.754907
_cell_angle_gamma 90.000000
_cell_volume 2669.086358
_symmetry_space_group_name_H-M "C 2/M"
_symmetry_group_IT_number 12
_symmetry_cell_setting 'monoclinic'
loop_
_space_group_symop_operation_xyz
x,y,z
-x,y,-z
-x,-y,-z
x,-y,z
1/2+x,1/2+y,z
1/2-x,1/2+y,-z
1/2-x,1/2-y,-z
1/2+x,1/2-y,z
loop_
_atom_site_type_symbol
_atom_site_label
_atom_site_fract_x
_atom_site_fract_y
_atom_site_fract_z
Si Si1 0.746990 0.679294 0.707876
Si Si2 0.075532 0.824826 0.466323
Si Si3 0.295056 0.178221 0.385438
Si Si4 0.493181 0.824616 0.194154
Si Si5 0.038636 0.825964 0.281999
Si Si6 0.284112 0.179254 0.893640
Si Si7 0.841159 0.321654 0.075648
O O1 0.735185 0.500000 0.718392
O O2 0.839309 0.721977 0.639662
O O3 0.745946 0.745921 0.634460
O O4 0.668523 0.751195 0.839106
O O5 0.000000 0.767296 0.500000
O O6 0.044848 0.806467 0.577447
O O7 0.099476 0.000000 0.423166
O O8 0.250000 0.250000 0.500000
O O9 0.398030 0.211799 0.271279
O O10 0.274292 0.000000 0.407123
O O11 0.511929 0.719443 0.236851
O O12 0.501881 0.000000 0.207675
O O13 0.561808 0.786358 0.059005
O O14 0.114707 0.720574 0.227355
O O15 0.071748 0.000000 0.244481
O O16 0.230549 0.244932 0.891519
O O17 0.271569 0.000000 0.910102
O O18 0.250000 0.250000 0.000000
O O19 0.822625 0.500000 0.099272
#
# Coordination Sequence:
#
# PCOD8111923 Si02
#       7
#     8   8   8   8   8   8   8
#     4  12  26  43  65  95 130 170 210 260 320 380
#     4  10  22  41  64  91 125 167 213 260 315 378
#     4  11  24  45  70  97 127 164 211 263 319 379
#     4  10  23  41  64  91 122 163 211 263 317 377
#     4  11  22  36  61  93 126 166 211 264 319 374
#     4  12  23  37  59  91 130 171 213 258 311 374
#     4  11  23  42  65  91 126 169 213 264 321 378
#
# _framework density 20.980961000000001
#
# number of rings (size 3 to 8) (size 9 to 14) (size 15 to 20)
#    0.000    1.000    1.429    5.571    0.000    7.143 
#    0.000    2.857    0.000    0.000    0.000    0.000 
#    0.000    0.000    0.000    0.000    0.000    0.000 
#
# Total GULP energy -347394.795235 kJ/mol
# GULP energy per Si atom -12406.956973 kJ/mol
# Density = 2.093321 g / cm^3
# Si number density = 20.980961 Si / 1000 Ang^3
#
#
#
# Elastic Constant Matrix: (Units=GPa)
#
#
# Indices 1 2 3 4 5 6 
#
# 1 93.8380 53.9648 46.4959 0.0052 3.5895 -0.0025
# 2 53.9648 139.7056 59.9605 -0.0062 7.8333 0.0062
# 3 46.4959 59.9605 124.9667 -0.0012 9.1556 0.0004
# 4 0.0052 -0.0062 -0.0012 34.9434 0.0042 3.4063
# 5 3.5895 7.8333 9.1556 0.0042 37.5783 -0.0034
# 6 -0.0025 0.0062 0.0004 3.4063 -0.0034 33.4837
#
#
#
# Elastic Compliance Matrix: (Units=1/GPa)
#
#
# Indices 1 2 3 4 5 6 
#
# 1 0.014817 -0.004238 -0.003503 -0.000003 0.000322 0.000002
# 2 -0.004238 0.010253 -0.003274 0.000003 -0.000935 -0.000003
# 3 -0.003503 -0.003274 0.010998 0.000001 -0.001663 0.000000
# 4 -0.000003 0.000003 0.000001 0.028904 -0.000004 -0.002940
# 5 0.000322 -0.000935 -0.001663 -0.000004 0.027180 0.000003
# 6 0.000002 -0.000003 0.000000 -0.002940 0.000003 0.030164
#
#
# Mechanical properties :
#
#
# Convention : Reuss Voigt Hill
#
# Bulk Modulus (GPa) = 71.23629 75.48361 73.35995
# Shear Modulus (GPa) = 33.55101 34.40702 33.97901
#
# Velocity S-wave (km/s) = 4.00323 4.05398 4.02869
# Velocity P-wave (km/s) = 7.44274 7.61369 7.52870
#
# Compressibility (1/GPa) = 0.01403779
#
# Stress axis : x y z
#
# Youngs Moduli (GPa) = 67.48821 97.53673 90.92386
#
# Poissons Ratio (x) = 0.41337 0.31852
# Poissons Ratio (y) = 0.28602 0.29768
# Poissons Ratio (z) = 0.23642 0.31933
#
# Static dielectric constant tensor:
#      x y z
#    x 4.412650 0.000170 0.276080 
#    y 0.000170 3.808080 0.000080 
#    z 0.276080 0.000080 4.134770 
# 
# 
# High freq. dielectric constant tensor:
#      x y z
#    x 1.820750 0.000000 0.004570 
#    y 0.000000 1.826240 0.000000 
#    z 0.004570 0.000000 1.838900 
# 
# From -- ./inp_files/329474.got.cif
#   From: 2010.06.25/outbox.cif.g09.slc.cpg/sg12_165_cif.got.tgz:329474.got - 2010.06.28 00:19:55.
