data_PCOD8111889
_publ_section_title
;
Structure prediction by ZEFSAII (Michael W. Deem and Ramdas Pophale) SiO2 
 PCOD8111889
Probable space group: C 2/M
;
_chemical_formula_sum "Si O2"
_cell_formula_units_Z 56
_cell_length_a 17.973042
_cell_length_b 24.758964
_cell_length_c 9.374408
_cell_angle_alpha 90.000000
_cell_angle_beta 44.052268
_cell_angle_gamma 90.000000
_cell_volume 2900.541402
_symmetry_space_group_name_H-M "C 2/M"
_symmetry_group_IT_number 12
_symmetry_cell_setting 'monoclinic'
loop_
_space_group_symop_operation_xyz
x,y,z
-x,y,-z
-x,-y,-z
x,-y,z
1/2+x,1/2+y,z
1/2-x,1/2+y,-z
1/2-x,1/2-y,-z
1/2+x,1/2-y,z
loop_
_atom_site_type_symbol
_atom_site_label
_atom_site_fract_x
_atom_site_fract_y
_atom_site_fract_z
Si Si1 0.748015 0.640010 0.085087
Si Si2 0.073049 0.748788 0.532347
Si Si3 0.708671 0.716479 0.885275
Si Si4 0.588014 0.632165 0.567232
Si Si5 0.116380 0.937816 0.105010
Si Si6 0.119342 0.876368 0.832849
Si Si7 0.046974 0.688512 0.087794
O O1 0.668717 0.630935 0.325789
O O2 0.726491 0.587885 0.015248
O O3 0.871218 0.641994 0.969144
O O4 0.725112 0.695661 0.026671
O O5 0.193900 0.751080 0.310978
O O6 0.044799 0.806525 0.643115
O O7 0.000000 0.735969 0.500000
O O8 0.053828 0.699071 0.668886
O O9 0.699764 0.665114 0.794707
O O10 0.606683 0.754149 0.007746
O O11 0.484454 0.594187 0.686773
O O12 0.650916 0.613200 0.624353
O O13 0.108327 0.000000 0.158659
O O14 0.118234 0.931149 0.930148
O O15 0.000000 0.851485 0.000000
O O16 0.000000 0.671465 0.000000
#
# Coordination Sequence:
#
# PCOD8111889 Si02
#       7
#     8   8   8   8   8   8   8
#     4  11  22  38  55  84 122 150 196 250 287 345
#     4  12  22  35  57  83 121 172 200 234 279 349
#     4  11  21  38  56  79 122 170 205 228 283 349
#     4  11  21  33  57  88 121 152 188 244 295 342
#     4  10  22  41  64  86 114 153 195 244 310 373
#     4   9  20  36  55  86 119 151 191 239 290 349
#     4  12  24  35  52  84 119 159 205 244 289 340
#
# _framework density 19.306740000000001
#
# number of rings (size 3 to 8) (size 9 to 14) (size 15 to 20)
#    0.000    1.143    2.857    6.429    2.000    4.857 
#    0.000    0.000    0.000    0.429    0.000    8.000 
#    0.000    0.000    0.000    0.000    0.000    0.000 
#
# Total GULP energy -347053.506350 kJ/mol
# GULP energy per Si atom -12394.768084 kJ/mol
# Density = 1.926280 g / cm^3
# Si number density = 19.306740 Si / 1000 Ang^3
#
#
#
# Elastic Constant Matrix: (Units=GPa)
#
#
# Indices 1 2 3 4 5 6 
#
# 1 110.1741 28.0962 38.2272 0.0000 16.9727 0.0000
# 2 28.0962 92.2695 35.4872 0.0000 -1.1278 0.0000
# 3 38.2272 35.4872 89.1559 0.0000 18.3694 0.0000
# 4 0.0000 0.0000 0.0000 20.7682 0.0000 -0.5383
# 5 16.9727 -1.1278 18.3694 0.0000 29.2364 0.0000
# 6 0.0000 0.0000 0.0000 -0.5383 0.0000 14.4104
#
#
#
# Elastic Compliance Matrix: (Units=1/GPa)
#
#
# Indices 1 2 3 4 5 6 
#
# 1 0.011471 -0.002420 -0.002945 0.000000 -0.004902 0.000000
# 2 -0.002420 0.013783 -0.005568 0.000000 0.005435 0.000000
# 3 -0.002945 -0.005568 0.016527 0.000000 -0.008889 0.000000
# 4 0.000000 0.000000 0.000000 0.048197 0.000000 0.001800
# 5 -0.004902 0.005435 -0.008889 0.000000 0.042844 0.000000
# 6 0.000000 0.000000 0.000000 0.001800 0.000000 0.069461
#
#
# Mechanical properties :
#
#
# Convention : Reuss Voigt Hill
#
# Bulk Modulus (GPa) = 50.21662 55.02454 52.62058
# Shear Modulus (GPa) = 21.66492 25.53560 23.60026
#
# Velocity S-wave (km/s) = 3.35347 3.64074 3.50005
# Velocity P-wave (km/s) = 6.40787 6.79966 6.60667
#
# Compressibility (1/GPa) = 0.01991372
#
# Stress axis : x y z
#
# Youngs Moduli (GPa) = 87.17838 72.55453 60.50770
#
# Poissons Ratio (x) = 0.17559 0.17819
# Poissons Ratio (y) = 0.21098 0.33692
# Poissons Ratio (z) = 0.25674 0.40400
#
# Static dielectric constant tensor:
#      x y z
#    x 3.802760 0.000000 0.201130 
#    y 0.000000 3.154740 0.000000 
#    z 0.201130 0.000000 3.801500 
# 
# 
# High freq. dielectric constant tensor:
#      x y z
#    x 1.759070 0.000000 0.022850 
#    y 0.000000 1.701940 0.000000 
#    z 0.022850 0.000000 1.751900 
# 
# From -- ./inp_files/79058.got.cif
#   From: 2010.06.25/outbox.cif.g09.slc.cpg/sg12_40_cif.got.tgz:79058.got - 2010.06.28 00:19:55.
