data_PCOD8111338
_publ_section_title
;
Structure prediction by ZEFSAII (Michael W. Deem and Ramdas Pophale) SiO2 
 PCOD8111338
Probable space group: C 2/M
;
_chemical_formula_sum "Si O2"
_cell_formula_units_Z 64
_cell_length_a 14.432781
_cell_length_b 9.331625
_cell_length_c 29.691630
_cell_angle_alpha 90.000000
_cell_angle_beta 59.360952
_cell_angle_gamma 90.000000
_cell_volume 3440.639499
_symmetry_space_group_name_H-M "C 2/M"
_symmetry_group_IT_number 12
_symmetry_cell_setting 'monoclinic'
loop_
_space_group_symop_operation_xyz
x,y,z
-x,y,-z
-x,-y,-z
x,-y,z
1/2+x,1/2+y,z
1/2-x,1/2+y,-z
1/2-x,1/2-y,-z
1/2+x,1/2-y,z
loop_
_atom_site_type_symbol
_atom_site_label
_atom_site_fract_x
_atom_site_fract_y
_atom_site_fract_z
Si Si1 0.259307 0.668389 0.636934
Si Si2 0.804368 0.339675 0.102148
Si Si3 0.978685 0.668987 0.282072
Si Si4 0.966690 0.166348 0.108551
Si Si5 0.438493 0.338358 0.821578
Si Si6 0.193561 0.666873 0.553697
Si Si7 0.145982 0.665154 0.011225
Si Si8 0.046764 0.331797 0.363260
O O1 0.277457 0.500000 0.639122
O O2 0.146328 0.717759 0.687271
O O3 0.252416 0.707510 0.585836
O O4 0.357654 0.749668 0.635646
O O5 0.824378 0.500000 0.116354
O O6 0.677915 0.311397 0.127605
O O7 0.847164 0.220181 0.126211
O O8 0.865187 0.323780 0.039683
O O9 0.983422 0.500000 0.276702
O O10 0.041296 0.735077 0.224880
O O11 0.039253 0.716152 0.312879
O O12 0.978726 0.192972 0.158693
O O13 0.043811 0.264139 0.059609
O O14 0.984423 0.000000 0.091914
O O15 0.450761 0.500000 0.800688
O O16 0.206854 0.500000 0.541059
O O17 0.250000 0.750000 0.500000
O O18 0.067297 0.707486 0.585674
O O19 0.155561 0.500000 0.024196
O O20 0.250000 0.750000 0.000000
O O21 0.069969 0.500000 0.361397
#
# Coordination Sequence:
#
# PCOD8111338 Si02
#       8
#     8   8   8   8   8   8   8   8
#     4   9  19  36  56  79 109 144 183 226 271 321
#     4  10  22  40  57  79 111 144 176 218 271 325
#     4   9  20  38  57  78 106 140 181 225 271 324
#     4  11  23  39  57  83 112 141 180 223 267 325
#     4  10  22  40  57  78 112 143 175 224 276 323
#     4   9  19  35  53  78 114 150 182 223 269 317
#     4  11  21  37  60  82 110 145 179 219 269 323
#     4   9  19  36  56  79 109 143 182 227 271 317
#
# _framework density 18.601192000000001
#
# number of rings (size 3 to 8) (size 9 to 14) (size 15 to 20)
#    0.000    2.250    1.250    2.625    0.000    7.500 
#    0.000   10.000    0.000    0.000    0.000    0.000 
#    0.000    0.000    0.000    0.000    0.000    0.000 
#
# Total GULP energy -396781.164104 kJ/mol
# GULP energy per Si atom -12399.411378 kJ/mol
# Density = 1.855886 g / cm^3
# Si number density = 18.601192 Si / 1000 Ang^3
#
#
#
# Elastic Constant Matrix: (Units=GPa)
#
#
# Indices 1 2 3 4 5 6 
#
# 1 121.8112 54.3546 30.5497 0.0000 11.8131 0.0000
# 2 54.3546 81.2483 43.2527 0.0000 8.8328 0.0000
# 3 30.5497 43.2527 101.2667 0.0000 8.1427 0.0000
# 4 0.0000 0.0000 0.0000 36.2059 0.0000 -0.3673
# 5 11.8131 8.8328 8.1427 0.0000 16.8706 0.0000
# 6 0.0000 0.0000 0.0000 -0.3673 0.0000 40.7441
#
#
#
# Elastic Compliance Matrix: (Units=1/GPa)
#
#
# Indices 1 2 3 4 5 6 
#
# 1 0.012011 -0.007524 -0.000052 0.000000 -0.004446 0.000000
# 2 -0.007524 0.021105 -0.006533 0.000000 -0.002628 0.000000
# 3 -0.000052 -0.006533 0.012904 0.000000 -0.002771 0.000000
# 4 0.000000 0.000000 0.000000 0.027622 0.000000 0.000249
# 5 -0.004446 -0.002628 -0.002771 0.000000 0.065101 0.000000
# 6 0.000000 0.000000 0.000000 0.000249 0.000000 0.024546
#
#
# Mechanical properties :
#
#
# Convention : Reuss Voigt Hill
#
# Bulk Modulus (GPa) = 56.17685 62.29335 59.23510
# Shear Modulus (GPa) = 25.32383 30.50875 27.91629
#
# Velocity S-wave (km/s) = 3.69373 4.05427 3.87819
# Velocity P-wave (km/s) = 6.96116 7.44834 7.20887
#
# Compressibility (1/GPa) = 0.01780093
#
# Stress axis : x y z
#
# Youngs Moduli (GPa) = 83.25605 47.38147 77.49564
#
# Poissons Ratio (x) = 0.35651 0.00405
# Poissons Ratio (y) = 0.62644 0.50630
# Poissons Ratio (z) = 0.00435 0.30955
#
# Static dielectric constant tensor:
#      x y z
#    x 3.642680 0.000000 -0.081970 
#    y 0.000000 4.529260 0.000000 
#    z -0.081970 0.000000 3.437270 
# 
# 
# High freq. dielectric constant tensor:
#      x y z
#    x 1.730590 0.000000 0.001180 
#    y 0.000000 1.721430 0.000000 
#    z 0.001180 0.000000 1.715840 
# 
# From -- ./inp_files/359899.got.cif
#   From: 2010.06.25/outbox.cif.g09.slc.cpg/sg12_180_cif.got.tgz:359899.got - 2010.06.28 00:19:55.
