data_PCOD8111757
_publ_section_title
;
Structure prediction by ZEFSAII (Michael W. Deem and Ramdas Pophale) SiO2 
 PCOD8111757
Probable space group: C 2/M
;
_chemical_formula_sum "Si O2"
_cell_formula_units_Z 52
_cell_length_a 9.362540
_cell_length_b 17.227030
_cell_length_c 19.086971
_cell_angle_alpha 90.000000
_cell_angle_beta 53.496308
_cell_angle_gamma 90.000000
_cell_volume 2474.566466
_symmetry_space_group_name_H-M "C 2/M"
_symmetry_group_IT_number 12
_symmetry_cell_setting 'monoclinic'
loop_
_space_group_symop_operation_xyz
x,y,z
-x,y,-z
-x,-y,-z
x,-y,z
1/2+x,1/2+y,z
1/2-x,1/2+y,-z
1/2-x,1/2-y,-z
1/2+x,1/2-y,z
loop_
_atom_site_type_symbol
_atom_site_label
_atom_site_fract_x
_atom_site_fract_y
_atom_site_fract_z
Si Si1 0.907387 0.874598 0.098203
Si Si2 0.525805 0.911070 0.412635
Si Si3 0.171624 0.000000 0.072832
Si Si4 0.355057 0.000000 0.878189
Si Si5 0.555031 0.657899 0.302068
Si Si6 0.704275 0.705244 0.736399
Si Si7 0.247506 0.000000 0.207085
Si Si8 0.367243 0.410778 0.479959
O O1 0.848935 0.805437 0.166459
O O2 0.047370 0.925167 0.100879
O O3 0.732637 0.924010 0.130270
O O4 0.000000 0.842369 0.000000
O O5 0.500000 0.882517 0.500000
O O6 0.664893 0.862393 0.327657
O O7 0.332869 0.902287 0.432799
O O8 0.593717 0.000000 0.392019
O O9 0.274123 0.000000 0.116019
O O10 0.322913 0.000000 0.970346
O O11 0.566296 0.000000 0.805347
O O12 0.472166 0.703073 0.259864
O O13 0.703026 0.711386 0.295825
O O14 0.640369 0.576305 0.258103
O O15 0.394924 0.641327 0.402859
O O16 0.500000 0.379278 0.500000
O O17 0.410191 0.500000 0.448614
#
# Coordination Sequence:
#
# PCOD8111757 Si02
#       8
#     8   8   4   4   8   8   4   8
#     4   9  20  42  68  97 137 178 220 275 338 402
#     4  10  22  40  70  98 128 176 227 267 325 401
#     4   9  17  39  67  99 122 180 219 283 327 394
#     4   9  21  35  67 104 131 157 242 273 331 394
#     4  12  28  44  68  96 138 177 228 274 341 396
#     4  12  27  44  66 100 138 178 227 279 339 401
#     4  12  23  42  71  94 135 179 220 282 332 399
#     4  10  22  43  66  96 133 174 220 274 332 392
#
# _framework density 21.013783
#
# number of rings (size 3 to 8) (size 9 to 14) (size 15 to 20)
#    0.000    1.538    3.846    1.154    7.538    1.231 
#    0.000    2.308    0.000    0.000    0.000    0.000 
#    0.000    0.000    0.000    0.000    0.000    0.000 
#
# Total GULP energy -322422.372236 kJ/mol
# GULP energy per Si atom -12400.860471 kJ/mol
# Density = 2.096595 g / cm^3
# Si number density = 21.013783 Si / 1000 Ang^3
#
#
#
# Elastic Constant Matrix: (Units=GPa)
#
#
# Indices 1 2 3 4 5 6 
#
# 1 116.0643 24.5750 22.4715 -0.0003 -7.1945 0.0002
# 2 24.5750 81.3461 27.2143 -0.0001 0.3801 0.0001
# 3 22.4715 27.2143 82.1039 -0.0003 6.8555 0.0002
# 4 -0.0003 -0.0001 -0.0003 9.6864 0.0002 -0.2778
# 5 -7.1945 0.3801 6.8555 0.0002 32.1713 -0.0001
# 6 0.0002 0.0001 0.0002 -0.2778 -0.0001 23.3389
#
#
#
# Elastic Compliance Matrix: (Units=1/GPa)
#
#
# Indices 1 2 3 4 5 6 
#
# 1 0.009662 -0.002219 -0.002129 0.000000 0.002641 0.000000
# 2 -0.002219 0.014358 -0.004170 0.000000 0.000223 0.000000
# 3 -0.002129 -0.004170 0.014437 0.000000 -0.003503 0.000000
# 4 0.000000 0.000000 0.000000 0.103273 -0.000001 0.001229
# 5 0.002641 0.000223 -0.003503 -0.000001 0.032418 0.000000
# 6 0.000000 0.000000 0.000000 0.001229 0.000000 0.042861
#
#
# Mechanical properties :
#
#
# Convention : Reuss Voigt Hill
#
# Bulk Modulus (GPa) = 46.68630 47.55957 47.12293
# Shear Modulus (GPa) = 20.73088 26.72290 23.72689
#
# Velocity S-wave (km/s) = 3.14433 3.56994 3.36387
# Velocity P-wave (km/s) = 5.95379 6.29875 6.12870
#
# Compressibility (1/GPa) = 0.02141956
#
# Stress axis : x y z
#
# Youngs Moduli (GPa) = 103.50174 69.64956 69.26493
#
# Poissons Ratio (x) = 0.15454 0.14749
# Poissons Ratio (y) = 0.22965 0.28886
# Poissons Ratio (z) = 0.22040 0.29046
#
# Static dielectric constant tensor:
#      x y z
#    x 3.933730 0.000000 0.040610 
#    y 0.000000 3.484100 0.000000 
#    z 0.040610 0.000000 3.756300 
# 
# 
# High freq. dielectric constant tensor:
#      x y z
#    x 1.834680 0.000000 0.000080 
#    y 0.000000 1.798360 0.000000 
#    z 0.000080 0.000000 1.823460 
# 
# From -- ./inp_files/256587.got.cif
#   From: 2010.06.25/outbox.cif.g09.slc.cpg/sg12_129_cif.got.tgz:256587.got - 2010.06.28 00:19:55.
