data_PCOD8111393
_publ_section_title
;
Structure prediction by ZEFSAII (Michael W. Deem and Ramdas Pophale) SiO2 
 PCOD8111393
Probable space group: C 2/M
;
_chemical_formula_sum "Si O2"
_cell_formula_units_Z 32
_cell_length_a 9.814203
_cell_length_b 9.012836
_cell_length_c 17.970767
_cell_angle_alpha 90.000000
_cell_angle_beta 104.692354
_cell_angle_gamma 90.000000
_cell_volume 1537.605870
_symmetry_space_group_name_H-M "C 2/M"
_symmetry_group_IT_number 12
_symmetry_cell_setting 'monoclinic'
loop_
_space_group_symop_operation_xyz
x,y,z
-x,y,-z
-x,-y,-z
x,-y,z
1/2+x,1/2+y,z
1/2-x,1/2+y,-z
1/2-x,1/2-y,-z
1/2+x,1/2-y,z
loop_
_atom_site_type_symbol
_atom_site_label
_atom_site_fract_x
_atom_site_fract_y
_atom_site_fract_z
Si Si1 0.412024 0.329258 0.416849
Si Si2 0.856538 0.829120 0.672726
Si Si3 0.730351 0.670889 0.919351
Si Si4 0.540802 0.170871 0.171040
O O1 0.500000 0.273892 0.500000
O O2 0.366663 0.500000 0.421248
O O3 0.274033 0.228676 0.393588
O O4 0.501732 0.308298 0.354561
O O5 0.866455 0.735400 0.749381
O O6 0.831276 0.000000 0.689730
O O7 0.693942 0.500000 0.928756
O O8 0.604815 0.741744 0.854740
O O9 0.874259 0.688655 0.893762
O O10 0.750000 0.750000 0.000000
O O11 0.507527 0.000000 0.183187
#
# Coordination Sequence:
#
# PCOD8111393 Si02
#       4
#     8   8   8   8
#     4  10  22  40  60  85 119 155 193 241 293 345
#     4  11  23  38  60  89 117 152 198 241 288 347
#     4  11  24  41  62  89 119 153 195 240 289 346
#     4  11  24  41  61  87 120 156 194 239 291 345
#
# _framework density 20.811575000000001
#
# number of rings (size 3 to 8) (size 9 to 14) (size 15 to 20)
#    0.000    1.250    0.000    5.250    0.000   15.500 
#    0.000    0.000    0.000    0.000    0.000    0.000 
#    0.000    0.000    0.000    0.000    0.000    0.000 
#
# Total GULP energy -198542.887426 kJ/mol
# GULP energy per Si atom -12408.930464 kJ/mol
# Density = 2.076421 g / cm^3
# Si number density = 20.811575 Si / 1000 Ang^3
#
#
#
# Elastic Constant Matrix: (Units=GPa)
#
#
# Indices 1 2 3 4 5 6 
#
# 1 61.2195 39.0730 -1.6613 0.0000 15.7974 0.0000
# 2 39.0730 135.9546 37.7531 0.0000 4.4158 0.0000
# 3 -1.6613 37.7531 96.1140 0.0000 7.6486 0.0000
# 4 0.0000 0.0000 0.0000 39.5777 0.0000 9.5720
# 5 15.7974 4.4158 7.6486 0.0000 34.7826 0.0000
# 6 0.0000 0.0000 0.0000 9.5720 0.0000 35.4994
#
#
#
# Elastic Compliance Matrix: (Units=1/GPa)
#
#
# Indices 1 2 3 4 5 6 
#
# 1 0.024296 -0.007840 0.004375 0.000000 -0.011001 0.000000
# 2 -0.007840 0.010790 -0.004629 0.000000 0.003209 0.000000
# 3 0.004375 -0.004629 0.012631 0.000000 -0.004177 0.000000
# 4 0.000000 0.000000 0.000000 0.027029 0.000000 -0.007288
# 5 -0.011001 0.003209 -0.004177 0.000000 0.034258 0.000000
# 6 0.000000 0.000000 0.000000 -0.007288 0.000000 0.030135
#
#
# Mechanical properties :
#
#
# Convention : Reuss Voigt Hill
#
# Bulk Modulus (GPa) = 31.71771 49.29086 40.50428
# Shear Modulus (GPa) = 30.15018 36.51349 33.33183
#
# Velocity S-wave (km/s) = 3.81034 4.19320 4.00634
# Velocity P-wave (km/s) = 5.88487 6.86874 6.39575
#
# Compressibility (1/GPa) = 0.03152813
#
# Stress axis : x y z
#
# Youngs Moduli (GPa) = 41.15861 92.67941 79.17287
#
# Poissons Ratio (x) = 0.72663 -0.34638
# Poissons Ratio (y) = 0.32269 0.36650
# Poissons Ratio (z) = -0.18007 0.42902
#
# Static dielectric constant tensor:
#      x y z
#    x 3.764290 0.000000 0.044290 
#    y 0.000000 3.861980 0.000000 
#    z 0.044290 0.000000 3.769140 
# 
# 
# High freq. dielectric constant tensor:
#      x y z
#    x 1.820350 0.000000 0.001830 
#    y 0.000000 1.824430 0.000000 
#    z 0.001830 0.000000 1.828450 
# 
# From -- ./inp_files/202046.got.cif
#   From: 2010.06.25/outbox.cif.g09.slc.cpg/sg12_102_cif.got.tgz:202046.got - 2010.06.28 00:19:55.
