data_PCOD8111352
_publ_section_title
;
Structure prediction by ZEFSAII (Michael W. Deem and Ramdas Pophale) SiO2 
 PCOD8111352
Probable space group: C 2/M
;
_chemical_formula_sum "Si O2"
_cell_formula_units_Z 56
_cell_length_a 27.522757
_cell_length_b 9.622779
_cell_length_c 11.033009
_cell_angle_alpha 90.000000
_cell_angle_beta 107.288466
_cell_angle_gamma 90.000000
_cell_volume 2790.025804
_symmetry_space_group_name_H-M "C 2/M"
_symmetry_group_IT_number 12
_symmetry_cell_setting 'monoclinic'
loop_
_space_group_symop_operation_xyz
x,y,z
-x,y,-z
-x,-y,-z
x,-y,z
1/2+x,1/2+y,z
1/2-x,1/2+y,-z
1/2-x,1/2-y,-z
1/2+x,1/2-y,z
loop_
_atom_site_type_symbol
_atom_site_label
_atom_site_fract_x
_atom_site_fract_y
_atom_site_fract_z
Si Si1 0.017377 0.656809 0.376160
Si Si2 0.109724 0.151869 0.080309
Si Si3 0.294935 0.157591 0.586663
Si Si4 0.214117 0.718093 0.148442
Si Si5 0.893123 0.838143 0.644744
Si Si6 0.187263 0.349523 0.866779
Si Si7 0.079530 0.335948 0.850148
O O1 0.034732 0.500000 0.350460
O O2 0.061371 0.770189 0.397285
O O3 0.000000 0.654145 0.500000
O O4 0.970006 0.707256 0.260091
O O5 0.171364 0.161157 0.117633
O O6 0.091494 0.171164 0.203815
O O7 0.094742 0.000000 0.020446
O O8 0.078608 0.265337 0.981246
O O9 0.250000 0.250000 0.500000
O O10 0.291113 0.136704 0.729295
O O11 0.344468 0.242541 0.582512
O O12 0.295234 0.000000 0.532611
O O13 0.272444 0.767145 0.183841
O O14 0.203930 0.629313 0.019914
O O15 0.883975 0.000000 0.599632
O O16 0.184652 0.500000 0.804082
O O17 0.130731 0.281635 0.818567
O O18 0.083626 0.500000 0.873787
#
# Coordination Sequence:
#
# PCOD8111352 Si02
#       7
#     8   8   8   8   8   8   8
#     4  10  22  40  59  80 110 149 191 233 280 335
#     4   9  18  33  54  81 112 142 178 230 286 337
#     4  11  23  39  59  84 116 151 188 229 272 326
#     4   9  18  31  51  80 112 148 185 224 275 331
#     4  10  22  40  61  85 111 143 184 230 284 337
#     4   9  16  29  51  78 110 146 184 228 277 329
#     4   9  19  34  53  80 110 144 189 234 277 330
#
# _framework density 20.071498999999999
#
# number of rings (size 3 to 8) (size 9 to 14) (size 15 to 20)
#    0.000    2.429    0.000    1.714    0.000    8.286 
#    0.000    5.000    0.000    0.000    0.000    0.000 
#    0.000    0.000    0.000    0.000    0.000    0.000 
#
# Total GULP energy -346973.229357 kJ/mol
# GULP energy per Si atom -12391.901048 kJ/mol
# Density = 2.002582 g / cm^3
# Si number density = 20.071499 Si / 1000 Ang^3
#
#
#
# Elastic Constant Matrix: (Units=GPa)
#
#
# Indices 1 2 3 4 5 6 
#
# 1 109.7430 55.0177 28.5435 0.0000 10.2895 0.0000
# 2 55.0177 119.9540 31.0962 0.0000 11.5011 0.0000
# 3 28.5435 31.0962 55.7229 0.0000 15.1328 0.0000
# 4 0.0000 0.0000 0.0000 20.3641 0.0000 5.6370
# 5 10.2895 11.5011 15.1328 0.0000 29.0730 0.0000
# 6 0.0000 0.0000 0.0000 5.6370 0.0000 27.4431
#
#
#
# Elastic Compliance Matrix: (Units=1/GPa)
#
#
# Indices 1 2 3 4 5 6 
#
# 1 0.012476 -0.004733 -0.003563 0.000000 -0.000689 0.000000
# 2 -0.004733 0.011577 -0.003782 0.000000 -0.000936 0.000000
# 3 -0.003563 -0.003782 0.024612 0.000000 -0.010054 0.000000
# 4 0.000000 0.000000 0.000000 0.052066 0.000000 -0.010695
# 5 -0.000689 -0.000936 -0.010054 0.000000 0.040243 0.000000
# 6 0.000000 0.000000 0.000000 -0.010695 0.000000 0.038636
#
#
# Mechanical properties :
#
#
# Convention : Reuss Voigt Hill
#
# Bulk Modulus (GPa) = 40.79913 57.19274 48.99593
# Shear Modulus (GPa) = 23.59205 26.76022 25.17613
#
# Velocity S-wave (km/s) = 3.43213 3.65532 3.54548
# Velocity P-wave (km/s) = 6.00642 6.80967 6.42062
#
# Compressibility (1/GPa) = 0.02451033
#
# Stress axis : x y z
#
# Youngs Moduli (GPa) = 80.15381 86.37481 40.63081
#
# Poissons Ratio (x) = 0.40878 0.14475
# Poissons Ratio (y) = 0.37934 0.15368
# Poissons Ratio (z) = 0.28555 0.32670
#
# Static dielectric constant tensor:
#      x y z
#    x 3.668190 0.000000 0.073200 
#    y 0.000000 3.596020 0.000000 
#    z 0.073200 0.000000 3.519400 
# 
# 
# High freq. dielectric constant tensor:
#      x y z
#    x 1.783960 0.000000 0.002930 
#    y 0.000000 1.777750 0.000000 
#    z 0.002930 0.000000 1.767950 
# 
# From -- ./inp_files/181037.got.cif
#   From: 2010.06.25/outbox.cif.g09.slc.cpg/sg12_91_cif.got.tgz:181037.got - 2010.06.28 00:19:55.
