data_PCOD8111915
_publ_section_title
;
Structure prediction by ZEFSAII (Michael W. Deem and Ramdas Pophale) SiO2 
 PCOD8111915
Probable space group: C 2/M
;
_chemical_formula_sum "Si O2"
_cell_formula_units_Z 40
_cell_length_a 9.419397
_cell_length_b 14.013655
_cell_length_c 15.727964
_cell_angle_alpha 90.000000
_cell_angle_beta 63.422409
_cell_angle_gamma 90.000000
_cell_volume 1856.711746
_symmetry_space_group_name_H-M "C 2/M"
_symmetry_group_IT_number 12
_symmetry_cell_setting 'monoclinic'
loop_
_space_group_symop_operation_xyz
x,y,z
-x,y,-z
-x,-y,-z
x,-y,z
1/2+x,1/2+y,z
1/2-x,1/2+y,-z
1/2-x,1/2-y,-z
1/2+x,1/2-y,z
loop_
_atom_site_type_symbol
_atom_site_label
_atom_site_fract_x
_atom_site_fract_y
_atom_site_fract_z
Si Si1 0.978505 0.613392 0.410178
Si Si2 0.790122 0.112640 0.224396
Si Si3 0.394056 0.387796 0.764151
Si Si4 0.343948 0.613808 0.588889
Si Si5 0.674993 0.762459 0.930146
O O1 0.971217 0.500000 0.416695
O O2 0.125778 0.645227 0.311948
O O3 0.000000 0.654479 0.500000
O O4 0.815558 0.653752 0.413015
O O5 0.812257 0.166015 0.128936
O O6 0.931568 0.142570 0.250356
O O7 0.792617 0.000000 0.204443
O O8 0.379256 0.500000 0.766238
O O9 0.359733 0.345558 0.679957
O O10 0.257610 0.349955 0.861410
O O11 0.500000 0.652515 0.500000
O O12 0.340484 0.500000 0.589087
O O13 0.500000 0.794020 0.000000
O O14 0.750000 0.750000 0.000000
#
# Coordination Sequence:
#
# PCOD8111915 Si02
#       5
#     8   8   8   8   8
#     4   9  17  31  56  90 125 161 199 241 295 361
#     4  10  22  41  65  90 122 163 204 246 302 369
#     4  10  22  41  64  91 123 161 203 249 304 363
#     4   9  17  31  56  90 126 160 197 244 297 356
#     4  12  26  44  64  89 121 158 205 261 310 359
#
# _framework density 21.543462999999999
#
# number of rings (size 3 to 8) (size 9 to 14) (size 15 to 20)
#    0.000    2.000    2.000    1.200    2.800    6.400 
#    0.000    1.000    0.000    4.800    0.000    0.000 
#    0.000    0.000    0.000    0.000    0.000    0.000 
#
# Total GULP energy -248008.157011 kJ/mol
# GULP energy per Si atom -12400.407851 kJ/mol
# Density = 2.149443 g / cm^3
# Si number density = 21.543463 Si / 1000 Ang^3
#
#
#
# Elastic Constant Matrix: (Units=GPa)
#
#
# Indices 1 2 3 4 5 6 
#
# 1 230.3017 33.4314 116.1715 -0.0001 -0.0303 0.0000
# 2 33.4314 21.5156 17.7094 -0.0001 5.6490 0.0000
# 3 116.1715 17.7094 186.0914 0.0000 5.5839 0.0000
# 4 -0.0001 -0.0001 0.0000 -382.2489 0.0000 52.5324
# 5 -0.0303 5.6490 5.5839 0.0000 58.1955 0.0000
# 6 0.0000 0.0000 0.0000 52.5324 0.0000 13.6258
#
#
#
# Elastic Compliance Matrix: (Units=1/GPa)
#
#
# Indices 1 2 3 4 5 6 
#
# 1 0.007633 -0.008936 -0.003952 0.000000 0.001251 0.000000
# 2 -0.008936 0.062063 -0.000147 0.000000 -0.006015 0.000000
# 3 -0.003952 -0.000147 0.007877 0.000000 -0.000744 0.000000
# 4 0.000000 0.000000 0.000000 -0.001710 0.000000 0.006593
# 5 0.001251 -0.006015 -0.000744 0.000000 0.017839 0.000000
# 6 0.000000 0.000000 0.000000 0.006593 0.000000 0.047972
#
#
# Mechanical properties :
#
#
# Convention : Reuss Voigt Hill
#
# Bulk Modulus (GPa) = 19.41649 85.83701 52.62675
# Shear Modulus (GPa) = 27.03968 -44.04575 -8.50304
#
# Velocity S-wave (km/s) = 3.54661 -4.52653 -1.98884
# Velocity P-wave (km/s) = 5.07972 3.55118 4.38260
#
# Compressibility (1/GPa) = 0.05150261
#
# Stress axis : x y z
#
# Youngs Moduli (GPa) = 131.00873 16.11266 126.94650
#
# Poissons Ratio (x) = 0.14398 0.50173
# Poissons Ratio (y) = 1.17065 0.01872
# Poissons Ratio (z) = 0.51778 0.00238
#
# Static dielectric constant tensor:
#      x y z
#    x 4.227100 0.000000 0.060370 
#    y 0.000000 3.623650 0.000000 
#    z 0.060370 0.000000 4.002980 
# 
# 
# High freq. dielectric constant tensor:
#      x y z
#    x 1.863530 0.000000 0.001250 
#    y 0.000000 1.835810 0.000000 
#    z 0.001250 0.000000 1.853480 
# 
# From -- ./inp_files/194436.got.cif
#   From: 2010.06.25/outbox.cif.g09.slc.cpg/sg12_98_cif.got.tgz:194436.got - 2010.06.28 00:19:55.
