data_PCOD8111907
_publ_section_title
;
Structure prediction by ZEFSAII (Michael W. Deem and Ramdas Pophale) SiO2 
 PCOD8111907
Probable space group: C 2/M
;
_chemical_formula_sum "Si O2"
_cell_formula_units_Z 64
_cell_length_a 30.078766
_cell_length_b 8.949400
_cell_length_c 11.674585
_cell_angle_alpha 90.000000
_cell_angle_beta 92.438702
_cell_angle_gamma 90.000000
_cell_volume 3139.799200
_symmetry_space_group_name_H-M "C 2/M"
_symmetry_group_IT_number 12
_symmetry_cell_setting 'monoclinic'
loop_
_space_group_symop_operation_xyz
x,y,z
-x,y,-z
-x,-y,-z
x,-y,z
1/2+x,1/2+y,z
1/2-x,1/2+y,-z
1/2-x,1/2-y,-z
1/2+x,1/2-y,z
loop_
_atom_site_type_symbol
_atom_site_label
_atom_site_fract_x
_atom_site_fract_y
_atom_site_fract_z
Si Si1 0.565923 0.827889 0.565618
Si Si2 0.540631 0.323158 0.083252
Si Si3 0.688241 0.828503 0.813441
Si Si4 0.974668 0.328687 0.678298
Si Si5 0.363110 0.674773 0.995306
Si Si6 0.153570 0.175434 0.595025
Si Si7 0.212887 0.170162 0.192810
Si Si8 0.790189 0.324054 0.571779
O O1 0.525442 0.804656 0.647793
O O2 0.554807 0.779920 0.434051
O O3 0.603194 0.718466 0.619977
O O4 0.581425 0.000000 0.569139
O O5 0.539041 0.500000 0.086436
O O6 0.536728 0.268805 0.212791
O O7 0.587960 0.269320 0.037053
O O8 0.500000 0.261062 0.000000
O O9 0.686668 0.736521 0.695536
O O10 0.739056 0.812618 0.864948
O O11 0.676015 0.000000 0.787817
O O12 0.651442 0.764100 0.894522
O O13 0.965406 0.500000 0.708858
O O14 0.363267 0.500000 0.024923
O O15 0.327050 0.713349 0.895042
O O16 0.164669 0.256676 0.476503
O O17 0.160029 0.000000 0.584432
O O18 0.210279 0.285827 0.295434
O O19 0.207498 0.000000 0.236938
O O20 0.788148 0.500000 0.554391
O O21 0.750000 0.250000 0.500000
#
# Coordination Sequence:
#
# PCOD8111907 Si02
#       8
#     8   8   8   8   8   8   8   8
#     4   9  20  40  63  92 125 157 198 254 310 366
#     4  10  23  41  60  87 125 164 204 255 308 364
#     4  11  23  40  63  90 123 162 209 260 310 368
#     4   9  20  40  65  90 122 159 199 252 313 368
#     4  10  23  42  63  89 123 163 210 259 308 367
#     4  12  25  39  61  91 125 166 206 250 307 367
#     4  10  22  41  64  90 124 164 206 258 312 365
#     4  12  24  40  62  90 125 164 205 250 303 365
#
# _framework density 20.383469000000002
#
# number of rings (size 3 to 8) (size 9 to 14) (size 15 to 20)
#    0.000    1.625    1.250    3.750    3.500    2.750 
#    0.000    1.250    0.000    0.000    0.000    0.000 
#    0.000    0.000    0.000    0.000    0.000    0.000 
#
# Total GULP energy -396852.553715 kJ/mol
# GULP energy per Si atom -12401.642304 kJ/mol
# Density = 2.033707 g / cm^3
# Si number density = 20.383469 Si / 1000 Ang^3
#
#
#
# Elastic Constant Matrix: (Units=GPa)
#
#
# Indices 1 2 3 4 5 6 
#
# 1 121.0075 33.9680 38.9347 0.0000 -3.6144 0.0000
# 2 33.9680 100.0120 38.8087 0.0000 -7.7315 0.0000
# 3 38.9347 38.8087 92.6398 0.0000 -17.9440 0.0000
# 4 0.0000 0.0000 0.0000 39.1181 0.0000 -2.3527
# 5 -3.6144 -7.7315 -17.9440 0.0000 31.0701 0.0000
# 6 0.0000 0.0000 0.0000 -2.3527 0.0000 26.1831
#
#
#
# Elastic Compliance Matrix: (Units=1/GPa)
#
#
# Indices 1 2 3 4 5 6 
#
# 1 0.009965 -0.002105 -0.003584 0.000000 -0.001435 0.000000
# 2 -0.002105 0.012384 -0.004227 0.000000 0.000396 0.000000
# 3 -0.003584 -0.004227 0.015524 0.000000 0.007497 0.000000
# 4 0.000000 0.000000 0.000000 0.025703 0.000000 0.002310
# 5 -0.001435 0.000396 0.007497 0.000000 0.036447 0.000000
# 6 0.000000 0.000000 0.000000 0.002310 0.000000 0.038400
#
#
# Mechanical properties :
#
#
# Convention : Reuss Voigt Hill
#
# Bulk Modulus (GPa) = 55.42748 59.67578 57.55163
# Shear Modulus (GPa) = 30.43806 32.73745 31.58776
#
# Velocity S-wave (km/s) = 3.86848 4.01194 3.94086
# Velocity P-wave (km/s) = 6.87058 7.12748 7.00021
#
# Compressibility (1/GPa) = 0.01804159
#
# Stress axis : x y z
#
# Youngs Moduli (GPa) = 100.34953 80.74672 64.41736
#
# Poissons Ratio (x) = 0.16994 0.23090
# Poissons Ratio (y) = 0.21119 0.27229
# Poissons Ratio (z) = 0.35969 0.34131
#
# Static dielectric constant tensor:
#      x y z
#    x 4.206450 0.000000 -0.238320 
#    y 0.000000 3.558000 0.000000 
#    z -0.238320 0.000000 3.813750 
# 
# 
# High freq. dielectric constant tensor:
#      x y z
#    x 1.810080 0.000000 -0.003640 
#    y 0.000000 1.790500 0.000000 
#    z -0.003640 0.000000 1.794310 
# 
# From -- ./inp_files/187420.got.cif
#   From: 2010.06.25/outbox.cif.g09.slc.cpg/sg12_94_cif.got.tgz:187420.got - 2010.06.28 00:19:55.
