data_PCOD8111440
_publ_section_title
;
Structure prediction by ZEFSAII (Michael W. Deem and Ramdas Pophale) SiO2 
 PCOD8111440
Probable space group: C 2/M
;
_chemical_formula_sum "Si O2"
_cell_formula_units_Z 64
_cell_length_a 11.444435
_cell_length_b 18.345045
_cell_length_c 14.805343
_cell_angle_alpha 90.000000
_cell_angle_beta 91.980324
_cell_angle_gamma 90.000000
_cell_volume 3106.505687
_symmetry_space_group_name_H-M "C 2/M"
_symmetry_group_IT_number 12
_symmetry_cell_setting 'monoclinic'
loop_
_space_group_symop_operation_xyz
x,y,z
-x,y,-z
-x,-y,-z
x,-y,z
1/2+x,1/2+y,z
1/2-x,1/2+y,-z
1/2-x,1/2-y,-z
1/2+x,1/2-y,z
loop_
_atom_site_type_symbol
_atom_site_label
_atom_site_fract_x
_atom_site_fract_y
_atom_site_fract_z
Si Si1 0.327552 0.583121 0.070274
Si Si2 0.670326 0.085968 0.445430
Si Si3 0.571789 0.413552 0.590807
Si Si4 0.531602 0.658346 0.774423
Si Si5 0.425203 0.913883 0.366817
Si Si6 0.090570 0.345925 0.077665
Si Si7 0.396298 0.817419 0.203118
Si Si8 0.333451 0.686288 0.906997
O O1 0.352083 0.500000 0.044935
O O2 0.394946 0.602493 0.163328
O O3 0.190535 0.593665 0.086903
O O4 0.372053 0.631998 0.987833
O O5 0.794700 0.116354 0.413997
O O6 0.643527 0.112562 0.546096
O O7 0.562474 0.108854 0.377986
O O8 0.677189 0.000000 0.449185
O O9 0.500000 0.390445 0.500000
O O10 0.567991 0.500000 0.604270
O O11 0.511329 0.375920 0.675295
O O12 0.603026 0.733544 0.765501
O O13 0.407406 0.672061 0.818493
O O14 0.364536 0.870317 0.284450
O O15 0.411684 0.000000 0.349858
O O16 0.147883 0.267736 0.054602
O O17 0.023391 0.341014 0.170681
O O18 0.000000 0.371058 0.000000
O O19 0.301719 0.827032 0.120908
#
# Coordination Sequence:
#
# PCOD8111440 Si02
#       8
#     8   8   8   8   8   8   8   8
#     4  12  25  42  66  94 125 163 211 259 306 367
#     4   8  17  37  61  84 116 158 202 253 313 366
#     4  10  22  40  61  86 121 164 208 256 311 366
#     4  11  25  42  63  91 125 164 211 254 310 376
#     4   9  19  36  61  90 118 156 204 254 307 365
#     4  11  22  42  66  87 123 166 203 249 309 366
#     4  11  23  39  64  92 125 163 206 250 314 371
#     4  11  23  43  66  89 126 168 206 252 308 373
#
# _framework density 20.601925999999999
#
# number of rings (size 3 to 8) (size 9 to 14) (size 15 to 20)
#    0.000    1.625    2.500    3.375    3.500    2.750 
#    2.250    0.625    0.000    0.000    0.000    0.000 
#    0.000    0.000    0.000    0.000    0.000    0.000 
#
# Total GULP energy -396890.216182 kJ/mol
# GULP energy per Si atom -12402.819256 kJ/mol
# Density = 2.055504 g / cm^3
# Si number density = 20.601926 Si / 1000 Ang^3
#
#
#
# Elastic Constant Matrix: (Units=GPa)
#
#
# Indices 1 2 3 4 5 6 
#
# 1 66.9640 2.3836 9.4539 0.0000 -1.2834 0.0000
# 2 2.3836 79.3500 32.8354 0.0000 3.3835 0.0000
# 3 9.4539 32.8354 107.8715 0.0000 6.4234 0.0000
# 4 0.0000 0.0000 0.0000 32.4570 0.0000 -3.4961
# 5 -1.2834 3.3835 6.4234 0.0000 29.3962 0.0000
# 6 0.0000 0.0000 0.0000 -3.4961 0.0000 21.5005
#
#
#
# Elastic Compliance Matrix: (Units=1/GPa)
#
#
# Indices 1 2 3 4 5 6 
#
# 1 0.015148 0.000088 -0.001412 0.000000 0.000960 0.000000
# 2 0.000088 0.014434 -0.004359 0.000000 -0.000705 0.000000
# 3 -0.001412 -0.004359 0.010836 0.000000 -0.001928 0.000000
# 4 0.000000 0.000000 0.000000 0.031359 0.000000 0.005099
# 5 0.000960 -0.000705 -0.001928 0.000000 0.034562 0.000000
# 6 0.000000 0.000000 0.000000 0.005099 0.000000 0.047340
#
#
# Mechanical properties :
#
#
# Convention : Reuss Voigt Hill
#
# Bulk Modulus (GPa) = 34.42102 38.17014 36.29558
# Shear Modulus (GPa) = 28.61591 30.63823 29.62707
#
# Velocity S-wave (km/s) = 3.73096 3.86055 3.79631
# Velocity P-wave (km/s) = 5.94172 6.19996 6.07221
#
# Compressibility (1/GPa) = 0.02905202
#
# Stress axis : x y z
#
# Youngs Moduli (GPa) = 66.01558 69.28234 92.28734
#
# Poissons Ratio (x) = -0.00611 0.13027
# Poissons Ratio (y) = -0.00582 0.40231
# Poissons Ratio (z) = 0.09318 0.30202
#
# Static dielectric constant tensor:
#      x y z
#    x 4.003820 0.000000 -0.116730 
#    y 0.000000 3.413590 0.000000 
#    z -0.116730 0.000000 3.600980 
# 
# 
# High freq. dielectric constant tensor:
#      x y z
#    x 1.814990 0.000000 -0.005110 
#    y 0.000000 1.781040 0.000000 
#    z -0.005110 0.000000 1.808560 
# 
# From -- ./inp_files/206691.got.cif
#   From: 2010.06.25/outbox.cif.g09.slc.cpg/sg12_104_cif.got.tgz:206691.got - 2010.06.28 00:19:55.
