data_PCOD8111528
_publ_section_title
;
Structure prediction by ZEFSAII (Michael W. Deem and Ramdas Pophale) SiO2 
 PCOD8111528
Probable space group: C 2/M
;
_chemical_formula_sum "Si O2"
_cell_formula_units_Z 64
_cell_length_a 30.119460
_cell_length_b 8.644354
_cell_length_c 19.398452
_cell_angle_alpha 90.000000
_cell_angle_beta 142.069299
_cell_angle_gamma 90.000000
_cell_volume 3104.671214
_symmetry_space_group_name_H-M "C 2/M"
_symmetry_group_IT_number 12
_symmetry_cell_setting 'monoclinic'
loop_
_space_group_symop_operation_xyz
x,y,z
-x,y,-z
-x,-y,-z
x,-y,z
1/2+x,1/2+y,z
1/2-x,1/2+y,-z
1/2-x,1/2-y,-z
1/2+x,1/2-y,z
loop_
_atom_site_type_symbol
_atom_site_label
_atom_site_fract_x
_atom_site_fract_y
_atom_site_fract_z
Si Si1 0.453513 0.319617 0.603549
Si Si2 0.339082 0.823212 0.548171
Si Si3 0.846205 0.817895 0.964919
Si Si4 0.610742 0.316105 0.834353
Si Si5 0.918744 0.675983 0.423275
Si Si6 0.417440 0.316226 0.911194
Si Si7 0.696964 0.320832 0.810376
Si Si8 0.694326 0.821917 0.333829
O O1 0.454637 0.500000 0.586593
O O2 0.407182 0.286158 0.615022
O O3 0.534258 0.253949 0.713067
O O4 0.412730 0.221979 0.495354
O O5 0.330612 0.801475 0.618758
O O6 0.269548 0.769372 0.418628
O O7 0.355039 0.000000 0.548198
O O8 0.890287 0.753948 0.952794
O O9 0.762159 0.775900 0.857911
O O10 0.854750 0.000000 0.976811
O O11 0.876087 0.745860 0.073270
O O12 0.607815 0.500000 0.834583
O O13 0.674678 0.264251 0.860345
O O14 0.892407 0.500000 0.380086
O O15 0.871403 0.794483 0.321794
O O16 0.000000 0.701107 0.500000
O O17 0.411626 0.500000 0.899896
O O18 0.366607 0.246315 0.790382
O O19 0.500000 0.261322 0.000000
O O20 0.718205 0.500000 0.836664
O O21 0.707659 0.000000 0.330786
#
# Coordination Sequence:
#
# PCOD8111528 Si02
#       8
#     8   8   8   8   8   8   8   8
#     4  11  22  37  62  91 121 160 200 247 302 361
#     4  10  22  40  62  91 123 157 199 249 302 363
#     4  10  22  41  62  88 120 158 204 251 304 363
#     4   9  20  38  61  88 120 158 203 252 302 358
#     4  11  23  39  59  86 122 162 201 245 299 358
#     4  10  23  41  64  90 120 160 204 252 306 367
#     4  11  22  39  62  89 121 158 204 255 305 360
#     4  10  22  41  64  89 121 159 200 250 306 361
#
# _framework density 20.614097999999998
#
# number of rings (size 3 to 8) (size 9 to 14) (size 15 to 20)
#    0.000    1.750    1.250    2.250    3.500    2.750 
#    0.000    1.875    0.000    0.000    0.000    0.000 
#    0.000    0.000    0.000    0.000    0.000    0.000 
#
# Total GULP energy -396831.867696 kJ/mol
# GULP energy per Si atom -12400.995865 kJ/mol
# Density = 2.056718 g / cm^3
# Si number density = 20.614098 Si / 1000 Ang^3
#
#
#
# Elastic Constant Matrix: (Units=GPa)
#
#
# Indices 1 2 3 4 5 6 
#
# 1 130.3258 29.2899 56.0754 0.0000 8.8428 0.0000
# 2 29.2899 32.2123 24.0427 0.0000 -2.3186 0.0000
# 3 56.0754 24.0427 122.7154 0.0000 -9.7526 0.0000
# 4 0.0000 0.0000 0.0000 22.0947 0.0000 -4.5724
# 5 8.8428 -2.3186 -9.7526 0.0000 26.6375 0.0000
# 6 0.0000 0.0000 0.0000 -4.5724 0.0000 25.4110
#
#
#
# Elastic Compliance Matrix: (Units=1/GPa)
#
#
# Indices 1 2 3 4 5 6 
#
# 1 0.011710 -0.007885 -0.004295 0.000000 -0.006146 0.000000
# 2 -0.007885 0.041679 -0.004188 0.000000 0.004712 0.000000
# 3 -0.004295 -0.004188 0.011346 0.000000 0.005215 0.000000
# 4 0.000000 0.000000 0.000000 0.047010 0.000000 0.008459
# 5 -0.006146 0.004712 0.005215 0.000000 0.041901 0.000000
# 6 0.000000 0.000000 0.000000 0.008459 0.000000 0.040875
#
#
# Mechanical properties :
#
#
# Convention : Reuss Voigt Hill
#
# Bulk Modulus (GPa) = 31.25016 56.00772 43.62894
# Shear Modulus (GPa) = 21.01520 26.55166 23.78343
#
# Velocity S-wave (km/s) = 3.19636 3.59281 3.40037
# Velocity P-wave (km/s) = 5.36794 6.66631 6.05204
#
# Compressibility (1/GPa) = 0.03199984
#
# Stress axis : x y z
#
# Youngs Moduli (GPa) = 85.39755 23.99313 88.13324
#
# Poissons Ratio (x) = 0.18918 0.37850
# Poissons Ratio (y) = 0.67332 0.36914
# Poissons Ratio (z) = 0.36675 0.10049
#
# Static dielectric constant tensor:
#      x y z
#    x 3.955840 0.000000 -0.102790 
#    y 0.000000 3.544490 0.000000 
#    z -0.102790 0.000000 3.771940 
# 
# 
# High freq. dielectric constant tensor:
#      x y z
#    x 1.818100 0.000000 -0.001900 
#    y 0.000000 1.791210 0.000000 
#    z -0.001900 0.000000 1.810330 
# 
# From -- ./inp_files/295795.got.cif
#   From: 2010.06.25/outbox.cif.g09.slc.cpg/sg12_148_cif.got.tgz:295795.got - 2010.06.28 00:19:55.
