data_PCOD8111346
_publ_section_title
;
Structure prediction by ZEFSAII (Michael W. Deem and Ramdas Pophale) SiO2 
 PCOD8111346
Probable space group: C 2/M
;
_chemical_formula_sum "Si O2"
_cell_formula_units_Z 56
_cell_length_a 13.855201
_cell_length_b 19.518052
_cell_length_c 16.162150
_cell_angle_alpha 90.000000
_cell_angle_beta 145.379136
_cell_angle_gamma 90.000000
_cell_volume 2483.169913
_symmetry_space_group_name_H-M "C 2/M"
_symmetry_group_IT_number 12
_symmetry_cell_setting 'monoclinic'
loop_
_space_group_symop_operation_xyz
x,y,z
-x,y,-z
-x,-y,-z
x,-y,z
1/2+x,1/2+y,z
1/2-x,1/2+y,-z
1/2-x,1/2-y,-z
1/2+x,1/2-y,z
loop_
_atom_site_type_symbol
_atom_site_label
_atom_site_fract_x
_atom_site_fract_y
_atom_site_fract_z
Si Si1 0.686838 0.733838 0.339676
Si Si2 0.502086 0.868276 0.413081
Si Si3 0.981442 0.923690 0.396043
Si Si4 0.316859 0.286194 0.844862
Si Si5 0.846807 0.172186 0.169087
Si Si6 0.056398 0.421109 0.946379
Si Si7 0.342095 0.112464 0.638045
O O1 0.865442 0.695633 0.482915
O O2 0.666295 0.755642 0.229203
O O3 0.525138 0.685507 0.249367
O O4 0.684862 0.805071 0.388311
O O5 0.500000 0.909178 0.500000
O O6 0.308136 0.847994 0.261327
O O7 0.544275 0.911257 0.360359
O O8 0.170239 0.926349 0.493447
O O9 0.000000 0.891690 0.500000
O O10 0.863271 0.873487 0.262583
O O11 0.900179 0.000000 0.339249
O O12 0.240982 0.242790 0.867223
O O13 0.500000 0.315220 0.000000
O O14 0.710564 0.127126 0.020656
O O15 0.115473 0.500000 0.989875
O O16 0.907221 0.412212 0.773510
O O17 0.000000 0.398127 0.000000
#
# Coordination Sequence:
#
# PCOD8111346 Si02
#       7
#     8   8   8   8   8   8   8
#     4  11  22  37  60  95 125 164 202 256 327 372
#     4  10  22  40  58  90 130 161 202 256 313 369
#     4  11  23  38  61  90 121 167 215 255 303 373
#     4  11  23  36  58  91 127 166 202 248 313 384
#     4  12  22  39  60  91 131 163 203 258 311 380
#     4  11  25  42  61  90 130 173 211 256 313 375
#     4  12  21  39  64  90 126 167 210 256 312 379
#
# _framework density 22.551818999999998
#
# number of rings (size 3 to 8) (size 9 to 14) (size 15 to 20)
#    0.000    0.857    2.857    6.000    2.000    4.571 
#    0.000    0.000    0.000    1.714    0.000    4.000 
#    0.000    0.000    0.000    0.000    0.000    0.000 
#
# Total GULP energy -347002.006664 kJ/mol
# GULP energy per Si atom -12392.928809 kJ/mol
# Density = 2.250049 g / cm^3
# Si number density = 22.551819 Si / 1000 Ang^3
#
#
#
# Elastic Constant Matrix: (Units=GPa)
#
#
# Indices 1 2 3 4 5 6 
#
# 1 105.8974 -4.3113 12.5279 -0.0059 -6.9076 -0.0032
# 2 -4.3113 35.0039 -2.6646 -0.0047 3.9184 -0.0022
# 3 12.5279 -2.6646 104.9563 -0.0167 13.9947 -0.0080
# 4 -0.0059 -0.0047 -0.0167 12.1263 -0.0038 -8.2164
# 5 -6.9076 3.9184 13.9947 -0.0038 41.5798 -0.0009
# 6 -0.0032 -0.0022 -0.0080 -8.2164 -0.0009 7.8202
#
#
#
# Elastic Compliance Matrix: (Units=1/GPa)
#
#
# Indices 1 2 3 4 5 6 
#
# 1 0.009777 0.000871 -0.001414 0.000020 0.002018 0.000024
# 2 0.000871 0.029083 0.001027 0.000064 -0.002942 0.000077
# 3 -0.001414 0.001027 0.010226 0.000067 -0.003773 0.000080
# 4 0.000020 0.000064 0.000067 0.286233 0.000008 0.300733
# 5 0.002018 -0.002942 -0.003773 0.000008 0.025933 0.000007
# 6 0.000024 0.000077 0.000080 0.300733 0.000007 0.443842
#
#
# Mechanical properties :
#
#
# Convention : Reuss Voigt Hill
#
# Bulk Modulus (GPa) = 19.97888 28.55129 24.26508
# Shear Modulus (GPa) = 6.09153 28.32562 17.20858
#
# Velocity S-wave (km/s) = 1.64529 3.54789 2.76537
# Velocity P-wave (km/s) = 3.53379 5.42873 4.58033
#
# Compressibility (1/GPa) = 0.05005286
#
# Stress axis : x y z
#
# Youngs Moduli (GPa) = 102.27580 34.38437 97.79200
#
# Poissons Ratio (x) = -0.02994 0.13828
# Poissons Ratio (y) = -0.08905 -0.10040
# Poissons Ratio (z) = 0.14462 -0.03530
#
# Static dielectric constant tensor:
#      x y z
#    x 4.432960 0.000000 -0.035030 
#    y 0.000000 3.591810 0.000000 
#    z -0.035030 0.000000 4.239620 
# 
# 
# High freq. dielectric constant tensor:
#      x y z
#    x 1.897390 0.000000 0.001000 
#    y 0.000000 1.840890 0.000000 
#    z 0.001000 0.000000 1.907320 
# 
# From -- ./inp_files/272349.got.cif
#   From: 2010.06.25/outbox.cif.g09.slc.cpg/sg12_137_cif.got.tgz:272349.got - 2010.06.28 00:19:55.
