data_PCOD8111423
_publ_section_title
;
Structure prediction by ZEFSAII (Michael W. Deem and Ramdas Pophale) SiO2 
 PCOD8111423
Probable space group: C 2/M
;
_chemical_formula_sum "Si O2"
_cell_formula_units_Z 48
_cell_length_a 26.830630
_cell_length_b 8.779333
_cell_length_c 15.185408
_cell_angle_alpha 90.000000
_cell_angle_beta 138.807304
_cell_angle_gamma 90.000000
_cell_volume 2355.788636
_symmetry_space_group_name_H-M "C 2/M"
_symmetry_group_IT_number 12
_symmetry_cell_setting 'monoclinic'
loop_
_space_group_symop_operation_xyz
x,y,z
-x,y,-z
-x,-y,-z
x,-y,z
1/2+x,1/2+y,z
1/2-x,1/2+y,-z
1/2-x,1/2-y,-z
1/2+x,1/2-y,z
loop_
_atom_site_type_symbol
_atom_site_label
_atom_site_fract_x
_atom_site_fract_y
_atom_site_fract_z
Si Si1 0.831935 0.178334 0.611361
Si Si2 0.655215 0.824044 0.707092
Si Si3 0.925934 0.676479 0.582404
Si Si4 0.170709 0.174706 0.072313
Si Si5 0.412268 0.823462 0.881477
Si Si6 0.585533 0.324795 0.782029
O O1 0.750000 0.250000 0.500000
O O2 0.879968 0.226830 0.591294
O O3 0.873527 0.223340 0.755727
O O4 0.821488 0.000000 0.595716
O O5 0.605280 0.787314 0.555648
O O6 0.741592 0.782710 0.800902
O O7 0.625845 0.717078 0.745073
O O8 0.647156 0.000000 0.725086
O O9 0.916437 0.500000 0.593911
O O10 0.013478 0.719527 0.703062
O O11 0.122905 0.284709 0.070977
O O12 0.156181 0.000000 0.080805
O O13 0.145813 0.204212 0.939232
O O14 0.399254 0.000000 0.842508
O O15 0.500000 0.781133 0.000000
O O16 0.559375 0.500000 0.743928
#
# Coordination Sequence:
#
# PCOD8111423 Si02
#       6
#     8   8   8   8   8   8
#     4  12  25  42  65  92 124 161 203 252 305 363
#     4  10  22  40  61  85 116 156 200 247 299 356
#     4  11  23  40  62  88 120 159 202 248 299 356
#     4  10  22  40  61  87 119 157 201 249 303 358
#     4  11  24  41  63  92 124 161 205 252 304 363
#     4  11  23  38  60  90 122 157 198 247 302 360
#
# _framework density 20.375343000000001
#
# number of rings (size 3 to 8) (size 9 to 14) (size 15 to 20)
#    0.000    1.167    0.000    6.000    0.000   10.667 
#    0.000    0.000    0.000    0.000    0.000    0.000 
#    0.000    0.000    0.000    0.000    0.000    0.000 
#
# Total GULP energy -297799.903788 kJ/mol
# GULP energy per Si atom -12408.329324 kJ/mol
# Density = 2.032897 g / cm^3
# Si number density = 20.375343 Si / 1000 Ang^3
#
#
#
# Elastic Constant Matrix: (Units=GPa)
#
#
# Indices 1 2 3 4 5 6 
#
# 1 103.6034 38.1934 26.0844 0.0000 0.5452 0.0000
# 2 38.1934 105.1754 45.4751 0.0000 -4.2756 0.0000
# 3 26.0844 45.4751 95.3856 0.0000 5.3424 0.0000
# 4 0.0000 0.0000 0.0000 33.1600 0.0000 -2.0341
# 5 0.5452 -4.2756 5.3424 0.0000 37.7734 0.0000
# 6 0.0000 0.0000 0.0000 -2.0341 0.0000 45.0191
#
#
#
# Elastic Compliance Matrix: (Units=1/GPa)
#
#
# Indices 1 2 3 4 5 6 
#
# 1 0.011301 -0.003516 -0.001394 0.000000 -0.000364 0.000000
# 2 -0.003516 0.013252 -0.005486 0.000000 0.002327 0.000000
# 3 -0.001394 -0.005486 0.013622 0.000000 -0.002528 0.000000
# 4 0.000000 0.000000 0.000000 0.030241 0.000000 0.001366
# 5 -0.000364 0.002327 -0.002528 0.000000 0.027100 0.000000
# 6 0.000000 0.000000 0.000000 0.001366 0.000000 0.022275
#
#
# Mechanical properties :
#
#
# Convention : Reuss Voigt Hill
#
# Bulk Modulus (GPa) = 57.52998 58.18558 57.85778
# Shear Modulus (GPa) = 34.63167 36.15128 35.39147
#
# Velocity S-wave (km/s) = 4.12720 4.21677 4.17223
# Velocity P-wave (km/s) = 7.14199 7.23375 7.18802
#
# Compressibility (1/GPa) = 0.01738224
#
# Stress axis : x y z
#
# Youngs Moduli (GPa) = 88.48594 75.46295 73.40991
#
# Poissons Ratio (x) = 0.26533 0.10232
# Poissons Ratio (y) = 0.31112 0.40276
# Poissons Ratio (z) = 0.12333 0.41402
#
# Static dielectric constant tensor:
#      x y z
#    x 5.064300 0.000000 0.860800 
#    y 0.000000 3.786180 0.000000 
#    z 0.860800 0.000000 4.402210 
# 
# 
# High freq. dielectric constant tensor:
#      x y z
#    x 1.809000 0.000000 0.001160 
#    y 0.000000 1.802380 0.000000 
#    z 0.001160 0.000000 1.815620 
# 
# From -- ./inp_files/244887.got.cif
#   From: 2010.06.25/outbox.cif.g09.slc.cpg/sg12_123_cif.got.tgz:244887.got - 2010.06.28 00:19:55.
