data_PCOD8111281
_publ_section_title
;
Structure prediction by ZEFSAII (Michael W. Deem and Ramdas Pophale) SiO2 
 PCOD8111281
Probable space group: C 2/M
;
_chemical_formula_sum "Si O2"
_cell_formula_units_Z 48
_cell_length_a 17.425954
_cell_length_b 14.742993
_cell_length_c 8.836620
_cell_angle_alpha 90.000000
_cell_angle_beta 100.447617
_cell_angle_gamma 90.000000
_cell_volume 2232.584612
_symmetry_space_group_name_H-M "C 2/M"
_symmetry_group_IT_number 12
_symmetry_cell_setting 'monoclinic'
loop_
_space_group_symop_operation_xyz
x,y,z
-x,y,-z
-x,-y,-z
x,-y,z
1/2+x,1/2+y,z
1/2-x,1/2+y,-z
1/2-x,1/2-y,-z
1/2+x,1/2-y,z
loop_
_atom_site_type_symbol
_atom_site_label
_atom_site_fract_x
_atom_site_fract_y
_atom_site_fract_z
Si Si1 0.915027 0.897407 0.162061
Si Si2 0.563218 0.100694 0.395180
Si Si3 0.877161 0.105061 0.490815
Si Si4 0.701462 0.315219 0.089946
Si Si5 0.054218 0.224251 0.229427
Si Si6 0.720305 0.894744 0.597303
O O1 0.888724 0.869876 0.320923
O O2 0.980579 0.826498 0.125258
O O3 0.947765 0.000000 0.166579
O O4 0.838779 0.892470 0.027663
O O5 0.500000 0.089423 0.500000
O O6 0.532275 0.171522 0.259097
O O7 0.641318 0.145054 0.496543
O O8 0.578912 0.000000 0.329437
O O9 0.933479 0.165363 0.613784
O O10 0.788023 0.126675 0.501612
O O11 0.897420 0.000000 0.531435
O O12 0.630309 0.267529 0.152402
O O13 0.762594 0.354368 0.231820
O O14 0.750000 0.250000 0.000000
O O15 0.707468 0.000000 0.619418
#
# Coordination Sequence:
#
# PCOD8111281 Si02
#       6
#     8   8   8   8   8   8
#     4  11  23  41  66  97 131 165 203 254 315 380
#     4  10  22  39  64  91 116 157 214 268 313 357
#     4   9  19  35  63  98 125 156 201 256 316 371
#     4  11  26  39  59  90 128 169 207 245 309 375
#     4  11  23  39  64  91 127 163 205 257 309 369
#     4   9  20  40  62  87 121 160 207 258 311 369
#
# _framework density 21.499744
#
# number of rings (size 3 to 8) (size 9 to 14) (size 15 to 20)
#    0.000    1.833    0.000    3.000    7.000    5.333 
#    0.000    0.833    0.000    2.000    0.000    0.000 
#    0.000    0.000    0.000    0.000    0.000    0.000 
#
# Total GULP energy -297569.206099 kJ/mol
# GULP energy per Si atom -12398.716921 kJ/mol
# Density = 2.145081 g / cm^3
# Si number density = 21.499744 Si / 1000 Ang^3
#
#
#
# Elastic Constant Matrix: (Units=GPa)
#
#
# Indices 1 2 3 4 5 6 
#
# 1 91.0783 39.2904 23.4951 0.0000 2.1572 0.0000
# 2 39.2904 95.1639 36.4370 0.0000 0.1062 0.0000
# 3 23.4951 36.4370 79.6053 0.0000 -14.2378 0.0000
# 4 0.0000 0.0000 0.0000 24.1335 0.0000 2.4696
# 5 2.1572 0.1062 -14.2378 0.0000 35.0027 0.0000
# 6 0.0000 0.0000 0.0000 2.4696 0.0000 31.4630
#
#
#
# Elastic Compliance Matrix: (Units=1/GPa)
#
#
# Indices 1 2 3 4 5 6 
#
# 1 0.013646 -0.004819 -0.002124 0.000000 -0.001691 0.000000
# 2 -0.004819 0.014666 -0.005657 0.000000 -0.002049 0.000000
# 3 -0.002124 -0.005657 0.017045 0.000000 0.007081 0.000000
# 4 0.000000 0.000000 0.000000 0.041772 0.000000 -0.003279
# 5 -0.001691 -0.002049 0.007081 0.000000 0.031560 0.000000
# 6 0.000000 0.000000 0.000000 -0.003279 0.000000 0.032041
#
#
# Mechanical properties :
#
#
# Convention : Reuss Voigt Hill
#
# Bulk Modulus (GPa) = 49.61131 51.58807 50.59969
# Shear Modulus (GPa) = 27.37482 29.22816 28.30149
#
# Velocity S-wave (km/s) = 3.57215 3.69109 3.63211
# Velocity P-wave (km/s) = 6.33554 6.49711 6.41683
#
# Compressibility (1/GPa) = 0.02015670
#
# Stress axis : x y z
#
# Youngs Moduli (GPa) = 73.27903 68.18439 58.66874
#
# Poissons Ratio (x) = 0.32858 0.12463
# Poissons Ratio (y) = 0.35313 0.33189
# Poissons Ratio (z) = 0.15567 0.38573
#
# Static dielectric constant tensor:
#      x y z
#    x 4.082110 0.000000 0.150160 
#    y 0.000000 3.953080 0.000000 
#    z 0.150160 0.000000 3.921940 
# 
# 
# High freq. dielectric constant tensor:
#      x y z
#    x 1.850640 0.000000 -0.002910 
#    y 0.000000 1.838980 0.000000 
#    z -0.002910 0.000000 1.839990 
# 
# From -- ./inp_files/73589.got.cif
#   From: 2010.06.25/outbox.cif.g09.slc.cpg/sg12_37_cif.got.tgz:73589.got - 2010.06.28 00:19:55.
