data_PCOD8111084
_publ_section_title
;
Structure prediction by ZEFSAII (Michael W. Deem and Ramdas Pophale) SiO2 
 PCOD8111084
Probable space group: C 2/M
;
_chemical_formula_sum "Si O2"
_cell_formula_units_Z 56
_cell_length_a 20.245512
_cell_length_b 8.980053
_cell_length_c 17.413715
_cell_angle_alpha 90.000000
_cell_angle_beta 71.557762
_cell_angle_gamma 90.000000
_cell_volume 3003.322228
_symmetry_space_group_name_H-M "C 2/M"
_symmetry_group_IT_number 12
_symmetry_cell_setting 'monoclinic'
loop_
_space_group_symop_operation_xyz
x,y,z
-x,y,-z
-x,-y,-z
x,-y,z
1/2+x,1/2+y,z
1/2-x,1/2+y,-z
1/2-x,1/2-y,-z
1/2+x,1/2-y,z
loop_
_atom_site_type_symbol
_atom_site_label
_atom_site_fract_x
_atom_site_fract_y
_atom_site_fract_z
Si Si1 0.659897 0.826219 0.594956
Si Si2 0.299151 0.172444 0.583404
Si Si3 0.681814 0.825874 0.844140
Si Si4 0.679067 0.325713 0.000181
Si Si5 0.324639 0.174387 0.743311
Si Si6 0.935637 0.327805 0.237194
Si Si7 0.422024 0.327115 0.823029
O O1 0.654254 0.776551 0.507387
O O2 0.725551 0.753129 0.611918
O O3 0.589970 0.784312 0.667210
O O4 0.673127 0.000000 0.598135
O O5 0.339179 0.207072 0.647823
O O6 0.281618 0.000000 0.582514
O O7 0.756593 0.759406 0.796503
O O8 0.627663 0.793903 0.796713
O O9 0.691831 0.000000 0.856452
O O10 0.652414 0.747176 0.931166
O O11 0.692237 0.500000 0.983642
O O12 0.620399 0.293202 0.084484
O O13 0.750000 0.250000 0.000000
O O14 0.391659 0.233484 0.763423
O O15 0.314424 0.000000 0.763001
O O16 0.958579 0.500000 0.223896
O O17 0.999305 0.223487 0.190947
O O18 0.419765 0.500000 0.802277
#
# Coordination Sequence:
#
# PCOD8111084 Si02
#       7
#     8   8   8   8   8   8   8
#     4   9  17  33  55  82 117 151 186 232 281 334
#     4   9  18  31  54  87 115 146 190 235 280 332
#     4  11  22  37  60  88 116 149 191 236 283 340
#     4  11  23  39  60  86 114 149 190 241 290 337
#     4  11  21  35  58  87 116 150 192 236 284 340
#     4  10  22  39  59  84 117 156 191 231 287 343
#     4  11  25  41  59  82 114 152 192 238 289 343
#
# _framework density 18.646018000000002
#
# number of rings (size 3 to 8) (size 9 to 14) (size 15 to 20)
#    0.000    1.714    2.857    1.714    0.000    4.571 
#    0.000    3.571    0.000    4.286    0.000    0.000 
#    0.000    0.000    0.000    0.000    0.000    0.000 
#
# Total GULP energy -347229.919682 kJ/mol
# GULP energy per Si atom -12401.068560 kJ/mol
# Density = 1.860358 g / cm^3
# Si number density = 18.646018 Si / 1000 Ang^3
#
#
#
# Elastic Constant Matrix: (Units=GPa)
#
#
# Indices 1 2 3 4 5 6 
#
# 1 64.8027 30.2354 35.0510 0.0000 -2.0180 0.0000
# 2 30.2354 75.0723 49.5362 0.0000 2.1230 0.0000
# 3 35.0510 49.5362 119.0058 0.0000 5.9755 0.0000
# 4 0.0000 0.0000 0.0000 28.0828 0.0000 -0.5688
# 5 -2.0180 2.1230 5.9755 0.0000 26.8717 0.0000
# 6 0.0000 0.0000 0.0000 -0.5688 0.0000 33.2009
#
#
#
# Elastic Compliance Matrix: (Units=1/GPa)
#
#
# Indices 1 2 3 4 5 6 
#
# 1 0.020212 -0.005789 -0.003684 0.000000 0.002794 0.000000
# 2 -0.005789 0.020024 -0.006603 0.000000 -0.000549 0.000000
# 3 -0.003684 -0.006603 0.012362 0.000000 -0.002504 0.000000
# 4 0.000000 0.000000 0.000000 0.035621 0.000000 0.000610
# 5 0.002794 -0.000549 -0.002504 0.000000 0.038024 0.000000
# 6 0.000000 0.000000 0.000000 0.000610 0.000000 0.030130
#
#
# Mechanical properties :
#
#
# Convention : Reuss Voigt Hill
#
# Bulk Modulus (GPa) = 48.90470 54.28066 51.59268
# Shear Modulus (GPa) = 25.59650 27.23495 26.41572
#
# Velocity S-wave (km/s) = 3.70910 3.82597 3.76798
# Velocity P-wave (km/s) = 6.68043 6.97794 6.83080
#
# Compressibility (1/GPa) = 0.02044793
#
# Stress axis : x y z
#
# Youngs Moduli (GPa) = 49.47590 49.93998 80.89309
#
# Poissons Ratio (x) = 0.28908 0.29800
# Poissons Ratio (y) = 0.28640 0.53410
# Poissons Ratio (z) = 0.18226 0.32973
#
# Static dielectric constant tensor:
#      x y z
#    x 3.223870 0.000000 0.172340 
#    y 0.000000 3.524420 0.000000 
#    z 0.172340 0.000000 4.176190 
# 
# 
# High freq. dielectric constant tensor:
#      x y z
#    x 1.701610 0.000000 0.008960 
#    y 0.000000 1.731430 0.000000 
#    z 0.008960 0.000000 1.742010 
# 
# From -- ./inp_files/275007.got.cif
#   From: 2010.06.25/outbox.cif.g09.slc.cpg/sg12_138_cif.got.tgz:275007.got - 2010.06.28 00:19:55.
