data_PCOD8111570
_publ_section_title
;
Structure prediction by ZEFSAII (Michael W. Deem and Ramdas Pophale) SiO2 
 PCOD8111570
Probable space group: C 2/M
;
_chemical_formula_sum "Si O2"
_cell_formula_units_Z 56
_cell_length_a 18.486063
_cell_length_b 8.811221
_cell_length_c 18.213826
_cell_angle_alpha 90.000000
_cell_angle_beta 111.025921
_cell_angle_gamma 90.000000
_cell_volume 2769.223269
_symmetry_space_group_name_H-M "C 2/M"
_symmetry_group_IT_number 12
_symmetry_cell_setting 'monoclinic'
loop_
_space_group_symop_operation_xyz
x,y,z
-x,y,-z
-x,-y,-z
x,-y,z
1/2+x,1/2+y,z
1/2-x,1/2+y,-z
1/2-x,1/2-y,-z
1/2+x,1/2-y,z
loop_
_atom_site_type_symbol
_atom_site_label
_atom_site_fract_x
_atom_site_fract_y
_atom_site_fract_z
Si Si1 0.224437 0.823552 0.132529
Si Si2 0.888554 0.820765 0.162584
Si Si3 0.826787 0.823724 0.720746
Si Si4 0.219679 0.177255 0.562828
Si Si5 0.473300 0.179453 0.706718
Si Si6 0.922949 0.179961 0.010991
Si Si7 0.571196 0.169055 0.472507
O O1 0.300360 0.728748 0.141168
O O2 0.199310 0.795400 0.206358
O O3 0.154662 0.760248 0.056886
O O4 0.241578 0.000000 0.123502
O O5 0.941998 0.743362 0.243530
O O6 0.893869 0.000000 0.173558
O O7 0.919896 0.768337 0.094409
O O8 0.761628 0.749489 0.647083
O O9 0.910187 0.747736 0.739157
O O10 0.834297 0.000000 0.704294
O O11 0.250000 0.250000 0.500000
O O12 0.128976 0.214161 0.532868
O O13 0.235720 0.000000 0.569468
O O14 0.452533 0.229725 0.616376
O O15 0.475067 0.000000 0.715128
O O16 0.925051 0.000000 0.004513
O O17 0.000000 0.248304 0.000000
O O18 0.500000 0.160134 0.500000
O O19 0.608193 0.000000 0.478195
#
# Coordination Sequence:
#
# PCOD8111570 Si02
#       7
#     8   8   8   8   8   8   8
#     4  10  22  40  63  90 123 163 204 247 302 362
#     4  11  23  38  61  91 126 162 201 251 303 359
#     4  11  23  40  64  90 120 159 204 254 306 361
#     4  12  24  40  63  91 123 160 204 253 304 361
#     4  11  23  40  62  88 121 160 202 253 306 361
#     4   9  18  37  64  91 120 159 205 249 298 359
#     4  10  23  42  63  87 119 159 205 254 307 362
#
# _framework density 20.222276000000001
#
# number of rings (size 3 to 8) (size 9 to 14) (size 15 to 20)
#    0.000    1.429    1.429    3.857    2.000    4.286 
#    0.000    0.714    0.000    3.000    0.000    0.000 
#    0.000    0.000    0.000    0.000    0.000    0.000 
#
# Total GULP energy -347301.485323 kJ/mol
# GULP energy per Si atom -12403.624476 kJ/mol
# Density = 2.017625 g / cm^3
# Si number density = 20.222276 Si / 1000 Ang^3
#
#
#
# Elastic Constant Matrix: (Units=GPa)
#
#
# Indices 1 2 3 4 5 6 
#
# 1 122.7283 41.4058 37.1689 0.0000 15.0989 0.0000
# 2 41.4058 72.4574 46.4829 0.0000 0.0548 0.0000
# 3 37.1689 46.4829 95.1504 0.0000 21.4272 0.0000
# 4 0.0000 0.0000 0.0000 23.3807 0.0000 0.3630
# 5 15.0989 0.0548 21.4272 0.0000 38.7206 0.0000
# 6 0.0000 0.0000 0.0000 0.3630 0.0000 30.6296
#
#
#
# Elastic Compliance Matrix: (Units=1/GPa)
#
#
# Indices 1 2 3 4 5 6 
#
# 1 0.010740 -0.005841 -0.000458 0.000000 -0.003926 0.000000
# 2 -0.005841 0.024658 -0.011731 0.000000 0.008735 0.000000
# 3 -0.000458 -0.011731 0.018707 0.000000 -0.010157 0.000000
# 4 0.000000 0.000000 0.000000 0.042778 0.000000 -0.000507
# 5 -0.003926 0.008735 -0.010157 0.000000 0.032965 0.000000
# 6 0.000000 0.000000 0.000000 -0.000507 0.000000 0.032654
#
#
# Mechanical properties :
#
#
# Convention : Reuss Voigt Hill
#
# Bulk Modulus (GPa) = 55.41682 60.05017 57.73349
# Shear Modulus (GPa) = 24.44043 29.56474 27.00259
#
# Velocity S-wave (km/s) = 3.48025 3.82774 3.65813
# Velocity P-wave (km/s) = 6.60400 7.02104 6.81571
#
# Compressibility (1/GPa) = 0.01804506
#
# Stress axis : x y z
#
# Youngs Moduli (GPa) = 93.10624 40.55418 53.45621
#
# Poissons Ratio (x) = 0.23687 0.02448
# Poissons Ratio (y) = 0.54382 0.62712
# Poissons Ratio (z) = 0.04264 0.47576
#
# Static dielectric constant tensor:
#      x y z
#    x 3.969830 0.000000 0.008630 
#    y 0.000000 3.533390 0.000000 
#    z 0.008630 0.000000 3.774730 
# 
# 
# High freq. dielectric constant tensor:
#      x y z
#    x 1.802830 0.000000 0.004570 
#    y 0.000000 1.778690 0.000000 
#    z 0.004570 0.000000 1.804030 
# 
# From -- ./inp_files/275541.got.cif
#   From: 2010.06.25/outbox.cif.g09.slc.cpg/sg12_138_cif.got.tgz:275541.got - 2010.06.28 00:19:55.
