data_PCOD8111659
_publ_section_title
;
Structure prediction by ZEFSAII (Michael W. Deem and Ramdas Pophale) SiO2 
 PCOD8111659
Probable space group: C 2/M
;
_chemical_formula_sum "Si O2"
_cell_formula_units_Z 56
_cell_length_a 21.004346
_cell_length_b 29.702635
_cell_length_c 8.507972
_cell_angle_alpha 90.000000
_cell_angle_beta 149.783066
_cell_angle_gamma 90.000000
_cell_volume 2671.381206
_symmetry_space_group_name_H-M "C 2/M"
_symmetry_group_IT_number 12
_symmetry_cell_setting 'monoclinic'
loop_
_space_group_symop_operation_xyz
x,y,z
-x,y,-z
-x,-y,-z
x,-y,z
1/2+x,1/2+y,z
1/2-x,1/2+y,-z
1/2-x,1/2-y,-z
1/2+x,1/2-y,z
loop_
_atom_site_type_symbol
_atom_site_label
_atom_site_fract_x
_atom_site_fract_y
_atom_site_fract_z
Si Si1 0.528049 0.834351 0.741766
Si Si2 0.810882 0.000000 0.470275
Si Si3 0.406330 0.500000 0.026296
Si Si4 0.635910 0.413273 0.865479
Si Si5 0.736444 0.090005 0.180059
Si Si6 0.279719 0.763025 0.741889
Si Si7 0.634140 0.340553 0.363035
Si Si8 0.258753 0.165162 0.306265
O O1 0.500000 0.824867 0.500000
O O2 0.402013 0.846448 0.567896
O O3 0.616150 0.878191 0.949994
O O4 0.588143 0.788883 0.944409
O O5 0.847495 0.000000 0.729094
O O6 0.723146 0.957398 0.240597
O O7 0.940449 0.000000 0.644318
O O8 0.353916 0.456156 0.000684
O O9 0.500000 0.409654 0.500000
O O10 0.742441 0.418360 0.958872
O O11 0.660154 0.367890 0.012989
O O12 0.860262 0.114103 0.522214
O O13 0.250000 0.750000 0.500000
O O14 0.167290 0.798229 0.548563
O O15 0.273997 0.716014 0.824378
O O16 0.742153 0.341393 0.457928
O O17 0.500000 0.333348 0.000000
#
# Coordination Sequence:
#
# PCOD8111659 Si02
#       8
#     8   4   4   8   8   8   8   8
#     4  11  24  46  64  96 139 177 232 273 338 402
#     4  11  23  42  67  97 134 169 220 278 337 396
#     4  11  24  39  67  99 131 169 215 281 342 409
#     4  12  22  40  64  98 132 169 220 273 344 405
#     4  11  23  41  65  96 132 175 215 276 330 400
#     4   9  23  40  65  96 128 180 229 276 330 393
#     4  10  22  40  64  98 133 169 226 277 331 396
#     4  11  24  41  68  92 134 185 216 280 332 393
#
# _framework density 20.962938000000001
#
# number of rings (size 3 to 8) (size 9 to 14) (size 15 to 20)
#    0.000    1.286    2.857    2.357    6.000    5.714 
#    0.000    1.071    0.000    1.714    0.000    0.000 
#    0.000    0.000    0.000    0.000    0.000    0.000 
#
# Total GULP energy -347137.225167 kJ/mol
# GULP energy per Si atom -12397.758042 kJ/mol
# Density = 2.091523 g / cm^3
# Si number density = 20.962938 Si / 1000 Ang^3
#
#
#
# Elastic Constant Matrix: (Units=GPa)
#
#
# Indices 1 2 3 4 5 6 
#
# 1 96.2429 40.6272 24.3638 0.0000 4.8110 0.0000
# 2 40.6272 188.5643 49.4081 0.0000 -11.3777 0.0000
# 3 24.3638 49.4081 68.3425 0.0000 -5.8754 0.0000
# 4 0.0000 0.0000 0.0000 36.4514 0.0000 -5.2195
# 5 4.8110 -11.3777 -5.8754 0.0000 32.6890 0.0000
# 6 0.0000 0.0000 0.0000 -5.2195 0.0000 23.2470
#
#
#
# Elastic Compliance Matrix: (Units=1/GPa)
#
#
# Indices 1 2 3 4 5 6 
#
# 1 0.012181 -0.001976 -0.003176 0.000000 -0.003052 0.000000
# 2 -0.001976 0.006932 -0.004138 0.000000 0.001960 0.000000
# 3 -0.003176 -0.004138 0.018965 0.000000 0.002436 0.000000
# 4 0.000000 0.000000 0.000000 0.028345 0.000000 0.006364
# 5 -0.003052 0.001960 0.002436 0.000000 0.032160 0.000000
# 6 0.000000 0.000000 0.000000 0.006364 0.000000 0.044445
#
#
# Mechanical properties :
#
#
# Convention : Reuss Voigt Hill
#
# Bulk Modulus (GPa) = 51.28959 64.66090 57.97524
# Shear Modulus (GPa) = 29.74259 34.39420 32.06839
#
# Velocity S-wave (km/s) = 3.77081 4.05497 3.91547
# Velocity P-wave (km/s) = 6.59383 7.26884 6.93954
#
# Compressibility (1/GPa) = 0.01949713
#
# Stress axis : x y z
#
# Youngs Moduli (GPa) = 82.09342 144.26700 52.72733
#
# Poissons Ratio (x) = 0.28514 0.16746
# Poissons Ratio (y) = 0.16225 0.21819
# Poissons Ratio (z) = 0.26073 0.59699
#
# Static dielectric constant tensor:
#      x y z
#    x 3.849270 0.000000 -0.142940 
#    y 0.000000 4.323650 0.000000 
#    z -0.142940 0.000000 3.728850 
# 
# 
# High freq. dielectric constant tensor:
#      x y z
#    x 1.809830 0.000000 -0.013440 
#    y 0.000000 1.839470 0.000000 
#    z -0.013440 0.000000 1.815460 
# 
# From -- ./inp_files/91671.got.cif
#   From: 2010.06.25/outbox.cif.g09.slc.cpg/sg12_46_cif.got.tgz:91671.got - 2010.06.28 00:19:55.
