data_PCOD8111836
_publ_section_title
;
Structure prediction by ZEFSAII (Michael W. Deem and Ramdas Pophale) SiO2 
 PCOD8111836
Probable space group: C 2/M
;
_chemical_formula_sum "Si O2"
_cell_formula_units_Z 56
_cell_length_a 10.060105
_cell_length_b 14.112309
_cell_length_c 24.893842
_cell_angle_alpha 90.000000
_cell_angle_beta 57.707107
_cell_angle_gamma 90.000000
_cell_volume 2987.568209
_symmetry_space_group_name_H-M "C 2/M"
_symmetry_group_IT_number 12
_symmetry_cell_setting 'monoclinic'
loop_
_space_group_symop_operation_xyz
x,y,z
-x,y,-z
-x,-y,-z
x,-y,z
1/2+x,1/2+y,z
1/2-x,1/2+y,-z
1/2-x,1/2-y,-z
1/2+x,1/2-y,z
loop_
_atom_site_type_symbol
_atom_site_label
_atom_site_fract_x
_atom_site_fract_y
_atom_site_fract_z
Si Si1 0.476471 0.390018 0.348197
Si Si2 0.565702 0.737784 0.543116
Si Si3 0.239054 0.390031 0.920544
Si Si4 0.202453 0.742162 0.250174
Si Si5 0.585318 0.889630 0.062305
Si Si6 0.933195 0.266983 0.833652
Si Si7 0.852519 0.610234 0.639553
O O1 0.523545 0.500000 0.340937
O O2 0.480560 0.346501 0.406722
O O3 0.602322 0.336230 0.284237
O O4 0.305714 0.375136 0.359773
O O5 0.500000 0.706470 0.500000
O O6 0.750000 0.750000 0.500000
O O7 0.492211 0.837926 0.577501
O O8 0.269598 0.500000 0.905160
O O9 0.390312 0.337928 0.863715
O O10 0.085193 0.355844 0.921413
O O11 0.215516 0.366589 0.988721
O O12 0.158657 0.705772 0.200576
O O13 0.382165 0.773504 0.215953
O O14 0.165296 0.655880 0.298022
O O15 0.629697 0.838980 0.107845
O O16 0.581160 0.000000 0.074915
O O17 0.896332 0.500000 0.636390
#
# Coordination Sequence:
#
# PCOD8111836 Si02
#       7
#     8   8   8   8   8   8   8
#     4  10  22  41  63  86 119 160 194 233 287 340
#     4  11  22  39  63  96 125 148 190 242 282 335
#     4   9  19  36  58  83 113 151 191 235 293 359
#     4  11  24  38  58  87 118 152 195 247 281 337
#     4   9  19  36  57  84 115 147 190 241 293 351
#     4  12  21  37  59  86 115 150 196 239 295 342
#     4  10  22  41  63  86 119 161 194 231 288 342
#
# _framework density 18.744343000000001
#
# number of rings (size 3 to 8) (size 9 to 14) (size 15 to 20)
#    0.000    1.714    4.286    1.286    0.000    3.429 
#    0.000    1.429    0.000    1.714    0.000    0.000 
#    0.000    0.000    0.000    0.000    0.000    0.000 
#
# Total GULP energy -347288.796113 kJ/mol
# GULP energy per Si atom -12403.171290 kJ/mol
# Density = 1.870168 g / cm^3
# Si number density = 18.744343 Si / 1000 Ang^3
#
#
#
# Elastic Constant Matrix: (Units=GPa)
#
#
# Indices 1 2 3 4 5 6 
#
# 1 84.2989 41.4655 40.7405 0.0000 9.6544 0.0000
# 2 41.4655 115.2328 52.7638 0.0000 8.4685 0.0000
# 3 40.7405 52.7638 100.0248 0.0000 15.5575 0.0000
# 4 0.0000 0.0000 0.0000 20.5212 0.0000 -4.5763
# 5 9.6544 8.4685 15.5575 0.0000 44.7118 0.0000
# 6 0.0000 0.0000 0.0000 -4.5763 0.0000 25.6930
#
#
#
# Elastic Compliance Matrix: (Units=1/GPa)
#
#
# Indices 1 2 3 4 5 6 
#
# 1 0.015901 -0.003630 -0.004371 0.000000 -0.001225 0.000000
# 2 -0.003630 0.012271 -0.005027 0.000000 0.000209 0.000000
# 3 -0.004371 -0.005027 0.014943 0.000000 -0.003304 0.000000
# 4 0.000000 0.000000 0.000000 0.050746 0.000000 0.009039
# 5 -0.001225 0.000209 -0.003304 0.000000 0.023740 0.000000
# 6 0.000000 0.000000 0.000000 0.009039 0.000000 0.040531
#
#
# Mechanical properties :
#
#
# Convention : Reuss Voigt Hill
#
# Bulk Modulus (GPa) = 58.62037 63.27734 60.94885
# Shear Modulus (GPa) = 26.33323 29.15765 27.74544
#
# Velocity S-wave (km/s) = 3.75222 3.94832 3.85151
# Velocity P-wave (km/s) = 7.07910 7.39033 7.23639
#
# Compressibility (1/GPa) = 0.01705892
#
# Stress axis : x y z
#
# Youngs Moduli (GPa) = 62.88913 81.49428 66.91957
#
# Poissons Ratio (x) = 0.29586 0.29250
# Poissons Ratio (y) = 0.22831 0.33639
# Poissons Ratio (z) = 0.27489 0.40965
#
# Static dielectric constant tensor:
#      x y z
#    x 3.447660 0.000000 0.089390 
#    y 0.000000 3.349290 0.000000 
#    z 0.089390 0.000000 3.627870 
# 
# 
# High freq. dielectric constant tensor:
#      x y z
#    x 1.723890 0.000000 0.005600 
#    y 0.000000 1.722640 0.000000 
#    z 0.005600 0.000000 1.745370 
# 
# From -- ./inp_files/300161.got.cif
#   From: 2010.06.25/outbox.cif.g09.slc.cpg/sg12_151_cif.got.tgz:300161.got - 2010.06.28 00:19:55.
