data_PCOD8111996
_publ_section_title
;
Structure prediction by ZEFSAII (Michael W. Deem and Ramdas Pophale) SiO2 
 PCOD8111996
Probable space group: C 2/M
;
_chemical_formula_sum "Si O2"
_cell_formula_units_Z 64
_cell_length_a 16.884534
_cell_length_b 14.421827
_cell_length_c 24.060511
_cell_angle_alpha 90.000000
_cell_angle_beta 31.925642
_cell_angle_gamma 90.000000
_cell_volume 3098.279718
_symmetry_space_group_name_H-M "C 2/M"
_symmetry_group_IT_number 12
_symmetry_cell_setting 'monoclinic'
loop_
_space_group_symop_operation_xyz
x,y,z
-x,y,-z
-x,-y,-z
x,-y,z
1/2+x,1/2+y,z
1/2-x,1/2+y,-z
1/2-x,1/2-y,-z
1/2+x,1/2-y,z
loop_
_atom_site_type_symbol
_atom_site_label
_atom_site_fract_x
_atom_site_fract_y
_atom_site_fract_z
Si Si1 0.484502 0.106561 0.675941
Si Si2 0.643341 0.394031 0.207679
Si Si3 0.902797 0.725058 0.003436
Si Si4 0.446026 0.160726 0.196342
Si Si5 0.280893 0.899708 0.897034
Si Si6 0.531177 0.787010 0.542551
Si Si7 0.873953 0.235189 0.342747
Si Si8 0.357685 0.398181 0.664903
O O1 0.332637 0.113985 0.802329
O O2 0.446308 0.148583 0.637993
O O3 0.608547 0.169341 0.632921
O O4 0.540378 0.000000 0.638391
O O5 0.627600 0.500000 0.196925
O O6 0.766566 0.345219 0.095643
O O7 0.482589 0.344722 0.300296
O O8 0.696491 0.387117 0.239425
O O9 0.837605 0.820944 0.018084
O O10 0.000000 0.743090 0.000000
O O11 0.008531 0.687243 0.892684
O O12 0.575748 0.100691 0.147648
O O13 0.412722 0.250255 0.254645
O O14 0.290130 0.105424 0.285400
O O15 0.203279 0.000000 0.950314
O O16 0.500000 0.827419 0.500000
O O17 0.705546 0.796965 0.452182
O O18 0.476596 0.680499 0.577606
O O19 0.432312 0.500000 0.611745
#
# Coordination Sequence:
#
# PCOD8111996 Si02
#       8
#     8   8   8   8   8   8   8   8
#     4  10  22  41  66  88 118 163 213 257 309 375
#     4  11  24  43  66  93 128 169 212 261 319 381
#     4  12  23  40  67  93 132 169 212 259 316 378
#     4  11  22  40  65  93 131 171 207 260 315 374
#     4  10  22  41  65  93 126 168 214 261 311 377
#     4  12  24  41  66  93 129 166 207 264 322 376
#     4  11  23  43  65  91 128 167 213 260 318 376
#     4  11  23  41  65  97 132 166 210 260 317 381
#
# _framework density 20.656624000000001
#
# number of rings (size 3 to 8) (size 9 to 14) (size 15 to 20)
#    0.000    1.000    6.250    1.125    0.000    3.500 
#    0.000    0.000    0.000    0.000    0.000    0.000 
#    0.000    0.000    0.000    0.000    0.000    0.000 
#
# Total GULP energy -396807.737521 kJ/mol
# GULP energy per Si atom -12400.241798 kJ/mol
# Density = 2.060961 g / cm^3
# Si number density = 20.656624 Si / 1000 Ang^3
#
#
#
# Elastic Constant Matrix: (Units=GPa)
#
#
# Indices 1 2 3 4 5 6 
#
# 1 99.3718 41.9798 29.8676 0.0012 3.2424 -0.0003
# 2 41.9798 123.4685 24.6245 0.0014 -13.6457 -0.0001
# 3 29.8676 24.6245 59.2517 0.0016 -3.7452 0.0004
# 4 0.0012 0.0014 0.0016 12.3939 0.0003 -1.6327
# 5 3.2424 -13.6457 -3.7452 0.0003 40.6431 -0.0002
# 6 -0.0003 -0.0001 0.0004 -1.6327 -0.0002 18.0132
#
#
#
# Elastic Compliance Matrix: (Units=1/GPa)
#
#
# Indices 1 2 3 4 5 6 
#
# 1 0.013362 -0.003791 -0.005339 0.000000 -0.002831 0.000000
# 2 -0.003791 0.010198 -0.002104 -0.000001 0.003533 0.000000
# 3 -0.005339 -0.002104 0.020545 -0.000002 0.001613 -0.000001
# 4 0.000000 -0.000001 -0.000002 0.081660 -0.000001 0.007402
# 5 -0.002831 0.003533 0.001613 -0.000001 0.026165 0.000000
# 6 0.000000 0.000000 -0.000001 0.007402 0.000000 0.056186
#
#
# Mechanical properties :
#
#
# Convention : Reuss Voigt Hill
#
# Bulk Modulus (GPa) = 46.21734 52.78175 49.49954
# Shear Modulus (GPa) = 21.02650 26.58474 23.80562
#
# Velocity S-wave (km/s) = 3.19392 3.59135 3.39845
# Velocity P-wave (km/s) = 6.00202 6.54251 6.27808
#
# Compressibility (1/GPa) = 0.02163690
#
# Stress axis : x y z
#
# Youngs Moduli (GPa) = 74.84016 98.05577 48.67449
#
# Poissons Ratio (x) = 0.37175 0.25986
# Poissons Ratio (y) = 0.28373 0.10241
# Poissons Ratio (z) = 0.39956 0.20631
#
# Static dielectric constant tensor:
#      x y z
#    x 3.819760 0.000000 0.200130 
#    y 0.000000 3.747460 0.000000 
#    z 0.200130 0.000000 3.640990 
# 
# 
# High freq. dielectric constant tensor:
#      x y z
#    x 1.812550 0.000000 0.012180 
#    y 0.000000 1.801800 0.000000 
#    z 0.012180 0.000000 1.801650 
# 
# From -- ./inp_files/344042.got.cif
#   From: 2010.06.25/outbox.cif.g09.slc.cpg/sg12_173_cif.got.tgz:344042.got - 2010.06.28 00:19:55.
