data_PCOD8111691
_publ_section_title
;
Structure prediction by ZEFSAII (Michael W. Deem and Ramdas Pophale) SiO2 
 PCOD8111691
Probable space group: C 2/M
;
_chemical_formula_sum "Si O2"
_cell_formula_units_Z 36
_cell_length_a 12.849089
_cell_length_b 32.445837
_cell_length_c 10.895267
_cell_angle_alpha 90.000000
_cell_angle_beta 157.699701
_cell_angle_gamma 90.000000
_cell_volume 1723.599382
_symmetry_space_group_name_H-M "C 2/M"
_symmetry_group_IT_number 12
_symmetry_cell_setting 'monoclinic'
loop_
_space_group_symop_operation_xyz
x,y,z
-x,y,-z
-x,-y,-z
x,-y,z
1/2+x,1/2+y,z
1/2-x,1/2+y,-z
1/2-x,1/2-y,-z
1/2+x,1/2-y,z
loop_
_atom_site_type_symbol
_atom_site_label
_atom_site_fract_x
_atom_site_fract_y
_atom_site_fract_z
Si Si1 0.709922 0.401422 0.907167
Si Si2 0.846761 0.795656 0.577423
Si Si3 0.838884 0.453530 0.697281
Si Si4 0.107698 0.669291 0.752649
Si Si5 0.500000 0.662825 0.500000
O O1 0.430300 0.426252 0.591251
O O2 0.718686 0.366881 0.808160
O O3 0.748243 0.375706 0.074685
O O4 0.957187 0.433748 0.177994
O O5 0.750000 0.750000 0.500000
O O6 0.645196 0.826838 0.428584
O O7 0.845096 0.808213 0.430926
O O8 0.157395 0.796963 0.966689
O O9 0.759650 0.500000 0.572706
O O10 0.000000 0.453211 0.000000
O O11 0.000000 0.675638 0.500000
#
# Coordination Sequence:
#
# PCOD8111691 Si02
#       5
#     8   8   8   8   4
#     4  11  21  38  64  89 131 165 210 262 307 395
#     4  11  25  43  68  92 128 166 214 281 327 375
#     4  11  21  35  60  97 133 162 199 260 328 380
#     4  11  25  45  66  93 124 176 223 259 317 385
#     4  10  22  40  65  96 124 168 216 256 335 370
#
# _framework density 20.886524000000001
#
# number of rings (size 3 to 8) (size 9 to 14) (size 15 to 20)
#    0.000    1.111    2.222    4.667    1.556    4.444 
#    8.000    0.000    0.000    4.000    0.000    0.000 
#    0.000    0.000    0.000    0.000    0.000    0.000 
#
# Total GULP energy -223126.046020 kJ/mol
# GULP energy per Si atom -12395.891446 kJ/mol
# Density = 2.083899 g / cm^3
# Si number density = 20.886524 Si / 1000 Ang^3
#
#
#
# Elastic Constant Matrix: (Units=GPa)
#
#
# Indices 1 2 3 4 5 6 
#
# 1 148.8138 95.2613 59.6017 0.0000 -1.9213 0.0000
# 2 95.2613 199.2258 41.2123 -0.0001 -18.9661 0.0000
# 3 59.6017 41.2123 113.7362 -0.0001 7.5682 0.0000
# 4 0.0000 -0.0001 -0.0001 28.5485 0.0000 5.6152
# 5 -1.9213 -18.9661 7.5682 0.0000 40.0662 0.0000
# 6 0.0000 0.0000 0.0000 5.6152 0.0000 37.7073
#
#
#
# Elastic Compliance Matrix: (Units=1/GPa)
#
#
# Indices 1 2 3 4 5 6 
#
# 1 0.011373 -0.004647 -0.004219 0.000000 -0.000857 0.000000
# 2 -0.004647 0.007700 -0.000590 0.000000 0.003533 0.000000
# 3 -0.004219 -0.000590 0.011392 0.000000 -0.002633 0.000000
# 4 0.000000 0.000000 0.000000 0.036085 0.000000 -0.005374
# 5 -0.000857 0.003533 -0.002633 0.000000 0.027088 0.000000
# 6 0.000000 0.000000 0.000000 -0.005374 0.000000 0.027320
#
#
# Mechanical properties :
#
#
# Convention : Reuss Voigt Hill
#
# Bulk Modulus (GPa) = 86.55614 94.88073 90.71844
# Shear Modulus (GPa) = 34.78944 38.97776 36.88360
#
# Velocity S-wave (km/s) = 4.08565 4.32460 4.20683
# Velocity P-wave (km/s) = 7.98673 8.39414 8.19297
#
# Compressibility (1/GPa) = 0.01155319
#
# Stress axis : x y z
#
# Youngs Moduli (GPa) = 87.92516 129.87193 87.77924
#
# Poissons Ratio (x) = 0.60353 0.37035
# Poissons Ratio (y) = 0.40860 0.05178
# Poissons Ratio (z) = 0.37096 0.07662
#
# Static dielectric constant tensor:
#      x y z
#    x 3.679150 0.000000 0.172290 
#    y 0.000000 3.977190 0.000000 
#    z 0.172290 0.000000 4.014410 
# 
# 
# High freq. dielectric constant tensor:
#      x y z
#    x 1.796250 0.000000 0.020790 
#    y 0.000000 1.826440 0.000000 
#    z 0.020790 0.000000 1.823770 
# 
# From -- ./inp_files/150377.got.cif
#   From: 2010.06.25/outbox.cif.g09.slc.cpg/sg12_76_cif.got.tgz:150377.got - 2010.06.28 00:19:55.
