data_PCOD8111924
_publ_section_title
;
Structure prediction by ZEFSAII (Michael W. Deem and Ramdas Pophale) SiO2 
 PCOD8111924
Probable space group: C 2/M
;
_chemical_formula_sum "Si O2"
_cell_formula_units_Z 52
_cell_length_a 21.429498
_cell_length_b 26.777911
_cell_length_c 4.959245
_cell_angle_alpha 90.000000
_cell_angle_beta 124.827972
_cell_angle_gamma 90.000000
_cell_volume 2336.032588
_symmetry_space_group_name_H-M "C 2/M"
_symmetry_group_IT_number 12
_symmetry_cell_setting 'monoclinic'
loop_
_space_group_symop_operation_xyz
x,y,z
-x,y,-z
-x,-y,-z
x,-y,z
1/2+x,1/2+y,z
1/2-x,1/2+y,-z
1/2-x,1/2-y,-z
1/2+x,1/2-y,z
loop_
_atom_site_type_symbol
_atom_site_label
_atom_site_fract_x
_atom_site_fract_y
_atom_site_fract_z
Si Si1 0.141951 0.443224 0.930779
Si Si2 0.920955 0.179147 0.429114
Si Si3 0.744413 0.055986 0.695907
Si Si4 0.500000 0.126571 0.500000
Si Si5 0.200427 0.701820 0.334495
Si Si6 0.838413 0.859333 0.726150
Si Si7 0.899915 0.707123 0.427637
O O1 0.117151 0.500000 0.792445
O O2 0.203564 0.423112 0.865310
O O3 0.067978 0.408128 0.773762
O O4 0.179271 0.442065 0.312942
O O5 0.899920 0.144194 0.635250
O O6 0.928225 0.236219 0.552991
O O7 0.000000 0.159600 0.500000
O O8 0.860621 0.175275 0.036516
O O9 0.821417 0.085396 0.800053
O O10 0.773616 0.000000 0.818690
O O11 0.466914 0.166427 0.636731
O O12 0.250000 0.750000 0.500000
O O13 0.258320 0.657969 0.399951
O O14 0.165459 0.689727 0.536048
O O15 0.133161 0.705625 0.955303
#
# Coordination Sequence:
#
# PCOD8111924 Si02
#       7
#     8   8   8   4   8   8   8
#     4  10  22  41  64  91 126 164 206 253 300 359
#     4  12  24  41  57  87 121 163 198 232 308 371
#     4  10  22  43  67  95 119 151 206 261 314 358
#     4  12  25  40  60  88 136 168 217 236 302 352
#     4  12  22  38  60  85 116 153 214 251 301 337
#     4  12  23  39  66  85 119 156 197 254 307 360
#     4  12  24  38  56  86 121 166 201 253 287 358
#
# _framework density 22.259962000000002
#
# number of rings (size 3 to 8) (size 9 to 14) (size 15 to 20)
#    0.000    0.615    3.846    4.846    0.000    2.462 
#    0.000    2.308    0.000    2.769    0.000    0.000 
#    0.000    0.000    0.000    0.000    0.000    0.000 
#
# Total GULP energy -322288.472673 kJ/mol
# GULP energy per Si atom -12395.710487 kJ/mol
# Density = 2.220930 g / cm^3
# Si number density = 22.259962 Si / 1000 Ang^3
#
#
#
# Elastic Constant Matrix: (Units=GPa)
#
#
# Indices 1 2 3 4 5 6 
#
# 1 146.8203 59.2628 25.3142 0.0000 6.1111 0.0000
# 2 59.2628 112.1400 18.7172 0.0000 12.8483 0.0000
# 3 25.3142 18.7172 48.4637 0.0000 -10.6955 0.0000
# 4 0.0000 0.0000 0.0000 18.2904 0.0000 9.8400
# 5 6.1111 12.8483 -10.6955 0.0000 32.5180 0.0000
# 6 0.0000 0.0000 0.0000 9.8400 0.0000 46.1649
#
#
#
# Elastic Compliance Matrix: (Units=1/GPa)
#
#
# Indices 1 2 3 4 5 6 
#
# 1 0.009111 -0.004099 -0.003446 0.000000 -0.001226 0.000000
# 2 -0.004099 0.012332 -0.003803 0.000000 -0.005353 0.000000
# 3 -0.003446 -0.003803 0.026285 0.000000 0.010796 0.000000
# 4 0.000000 0.000000 0.000000 0.061755 0.000000 -0.013163
# 5 -0.001226 -0.005353 0.010796 0.000000 0.036648 0.000000
# 6 0.000000 0.000000 0.000000 -0.013163 0.000000 0.024467
#
#
# Mechanical properties :
#
#
# Convention : Reuss Voigt Hill
#
# Bulk Modulus (GPa) = 39.95010 57.11250 48.53130
# Shear Modulus (GPa) = 24.79679 33.00331 28.90005
#
# Velocity S-wave (km/s) = 3.34123 3.85467 3.60710
# Velocity P-wave (km/s) = 5.73333 6.74715 6.26080
#
# Compressibility (1/GPa) = 0.02503123
#
# Stress axis : x y z
#
# Youngs Moduli (GPa) = 109.75901 81.09162 38.04398
#
# Poissons Ratio (x) = 0.33240 0.13111
# Poissons Ratio (y) = 0.44992 0.14468
# Poissons Ratio (z) = 0.37827 0.30838
#
# Static dielectric constant tensor:
#      x y z
#    x 4.152700 0.000000 -0.079330 
#    y 0.000000 4.213170 0.000000 
#    z -0.079330 0.000000 3.972390 
# 
# 
# High freq. dielectric constant tensor:
#      x y z
#    x 1.886890 0.000000 -0.010130 
#    y 0.000000 1.873670 0.000000 
#    z -0.010130 0.000000 1.863000 
# 
# From -- ./inp_files/22495.got.cif
#   From: 2010.06.25/outbox.cif.g09.slc.cpg/sg12_12_cif.got.tgz:22495.got - 2010.06.28 00:19:55.
