data_PCOD8111074
_publ_section_title
;
Structure prediction by ZEFSAII (Michael W. Deem and Ramdas Pophale) SiO2 
 PCOD8111074
Probable space group: C 2/M
;
_chemical_formula_sum "Si O2"
_cell_formula_units_Z 64
_cell_length_a 20.091635
_cell_length_b 8.939101
_cell_length_c 35.611279
_cell_angle_alpha 90.000000
_cell_angle_beta 147.565932
_cell_angle_gamma 90.000000
_cell_volume 3430.265719
_symmetry_space_group_name_H-M "C 2/M"
_symmetry_group_IT_number 12
_symmetry_cell_setting 'monoclinic'
loop_
_space_group_symop_operation_xyz
x,y,z
-x,y,-z
-x,-y,-z
x,-y,z
1/2+x,1/2+y,z
1/2-x,1/2+y,-z
1/2-x,1/2-y,-z
1/2+x,1/2-y,z
loop_
_atom_site_type_symbol
_atom_site_label
_atom_site_fract_x
_atom_site_fract_y
_atom_site_fract_z
Si Si1 0.986144 0.323990 0.083226
Si Si2 0.711683 0.677362 0.151567
Si Si3 0.135566 0.822928 0.556598
Si Si4 0.512425 0.176787 0.709445
Si Si5 0.216957 0.677150 0.445235
Si Si6 0.215173 0.673297 0.074676
Si Si7 0.631230 0.823491 0.286523
Si Si8 0.465910 0.325486 0.151347
O O1 0.002416 0.500000 0.094943
O O2 0.938977 0.257864 0.099820
O O3 0.117284 0.252123 0.135265
O O4 0.884841 0.281005 0.004034
O O5 0.699304 0.500000 0.148071
O O6 0.685508 0.727453 0.096675
O O7 0.847735 0.734710 0.229550
O O8 0.188792 0.764173 0.542162
O O9 0.227857 0.780633 0.634812
O O10 0.000000 0.751840 0.500000
O O11 0.126280 0.000000 0.549419
O O12 0.422872 0.228197 0.632752
O O13 0.458701 0.235888 0.723272
O O14 0.509423 0.000000 0.710462
O O15 0.225751 0.500000 0.453392
O O16 0.250000 0.750000 0.500000
O O17 0.201823 0.500000 0.079535
O O18 0.351423 0.709860 0.124221
O O19 0.592353 0.736674 0.230288
O O20 0.617577 0.000000 0.273057
O O21 0.480449 0.500000 0.150068
#
# Coordination Sequence:
#
# PCOD8111074 Si02
#       8
#     8   8   8   8   8   8   8   8
#     4  11  24  40  55  77 112 146 178 223 278 324
#     4  11  21  36  59  83 109 143 183 223 269 324
#     4   8  15  30  54  80 106 137 178 221 257 308
#     4   8  16  32  54  77 104 143 181 215 259 316
#     4   9  17  32  53  77 107 140 175 215 261 309
#     4  10  22  39  59  81 107 141 180 226 272 322
#     4   9  16  32  57  80 104 142 184 219 264 318
#     4  11  22  37  57  82 110 140 181 227 271 320
#
# _framework density 18.657447000000001
#
# number of rings (size 3 to 8) (size 9 to 14) (size 15 to 20)
#    0.000    2.375    1.250    3.375    0.000    3.000 
#    2.250    3.750    0.000    0.750    0.000    0.000 
#    0.000    0.000    0.000    0.000    0.000    0.000 
#
# Total GULP energy -396763.682499 kJ/mol
# GULP energy per Si atom -12398.865078 kJ/mol
# Density = 1.861498 g / cm^3
# Si number density = 18.657447 Si / 1000 Ang^3
#
#
#
# Elastic Constant Matrix: (Units=GPa)
#
#
# Indices 1 2 3 4 5 6 
#
# 1 51.0774 18.4551 32.4875 0.0001 4.0147 -0.0003
# 2 18.4551 49.1165 30.3790 0.0002 -1.2637 -0.0009
# 3 32.4875 30.3790 120.9182 0.0000 6.1960 0.0000
# 4 0.0001 0.0002 0.0000 28.9213 0.0000 -7.1023
# 5 4.0147 -1.2637 6.1960 0.0000 33.4837 0.0001
# 6 -0.0003 -0.0009 0.0000 -7.1023 0.0001 28.9454
#
#
#
# Elastic Compliance Matrix: (Units=1/GPa)
#
#
# Indices 1 2 3 4 5 6 
#
# 1 0.025308 -0.006439 -0.005062 0.000000 -0.002341 0.000000
# 2 -0.006439 0.025884 -0.004909 0.000000 0.002657 0.000001
# 3 -0.005062 -0.004909 0.010946 0.000000 -0.001604 0.000000
# 4 0.000000 0.000000 0.000000 0.036794 0.000000 0.009028
# 5 -0.002341 0.002657 -0.001604 0.000000 0.030543 0.000000
# 6 0.000000 0.000001 0.000000 0.009028 0.000000 0.036763
#
#
# Mechanical properties :
#
#
# Convention : Reuss Voigt Hill
#
# Bulk Modulus (GPa) = 34.10899 42.63949 38.37424
# Shear Modulus (GPa) = 23.94294 27.58943 25.76618
#
# Velocity S-wave (km/s) = 3.58619 3.84961 3.72023
# Velocity P-wave (km/s) = 5.95559 6.53167 6.25027
#
# Compressibility (1/GPa) = 0.02931778
#
# Stress axis : x y z
#
# Youngs Moduli (GPa) = 39.51285 38.63420 91.36044
#
# Poissons Ratio (x) = 0.24875 0.46247
# Poissons Ratio (y) = 0.25441 0.44851
# Poissons Ratio (z) = 0.20002 0.18966
#
# Static dielectric constant tensor:
#      x y z
#    x 3.477120 0.000000 0.226500 
#    y 0.000000 3.160100 0.000000 
#    z 0.226500 0.000000 3.750430 
# 
# 
# High freq. dielectric constant tensor:
#      x y z
#    x 1.715480 0.000000 0.004520 
#    y 0.000000 1.700550 0.000000 
#    z 0.004520 0.000000 1.738410 
# 
# From -- ./inp_files/378461.got.cif
#   From: 2010.06.25/outbox.cif.g09.slc.cpg/sg12_190_cif.got.tgz:378461.got - 2010.06.28 00:19:55.
