data_PCOD8111358
_publ_section_title
;
Structure prediction by ZEFSAII (Michael W. Deem and Ramdas Pophale) SiO2 
 PCOD8111358
Probable space group: C 2/M
;
_chemical_formula_sum "Si O2"
_cell_formula_units_Z 64
_cell_length_a 18.880531
_cell_length_b 8.765294
_cell_length_c 31.655891
_cell_angle_alpha 90.000000
_cell_angle_beta 142.741884
_cell_angle_gamma 90.000000
_cell_volume 3171.629749
_symmetry_space_group_name_H-M "C 2/M"
_symmetry_group_IT_number 12
_symmetry_cell_setting 'monoclinic'
loop_
_space_group_symop_operation_xyz
x,y,z
-x,y,-z
-x,-y,-z
x,-y,z
1/2+x,1/2+y,z
1/2-x,1/2+y,-z
1/2-x,1/2-y,-z
1/2+x,1/2-y,z
loop_
_atom_site_type_symbol
_atom_site_label
_atom_site_fract_x
_atom_site_fract_y
_atom_site_fract_z
Si Si1 0.819080 0.319350 0.433947
Si Si2 0.729059 0.320510 0.944816
Si Si3 0.548316 0.672242 0.976402
Si Si4 0.864292 0.680154 0.826829
Si Si5 0.120589 0.680483 0.712734
Si Si6 0.920883 0.678965 0.683983
Si Si7 0.030190 0.179086 0.203446
Si Si8 0.447312 0.180075 0.411278
O O1 0.797654 0.500000 0.427809
O O2 0.704789 0.227013 0.394388
O O3 0.851081 0.274532 0.400706
O O4 0.924117 0.262243 0.514005
O O5 0.744208 0.500000 0.954036
O O6 0.602788 0.271773 0.868148
O O7 0.750000 0.250000 0.000000
O O8 0.825166 0.249917 0.959316
O O9 0.559604 0.500000 0.964281
O O10 0.467896 0.763660 0.905965
O O11 0.500000 0.674616 0.000000
O O12 0.861448 0.500000 0.826609
O O13 0.741245 0.744321 0.785466
O O14 0.884648 0.736783 0.788822
O O15 0.138206 0.500000 0.719547
O O16 0.087236 0.747774 0.650707
O O17 0.019523 0.727327 0.697338
O O18 0.925406 0.500000 0.695624
O O19 0.938608 0.773451 0.734782
O O20 0.050275 0.000000 0.207412
O O21 0.454265 0.000000 0.411695
#
# Coordination Sequence:
#
# PCOD8111358 Si02
#       8
#     8   8   8   8   8   8   8   8
#     4   9  17  34  62  89 114 152 204 251 295 355
#     4  11  23  40  65  93 120 154 199 250 302 358
#     4  11  25  43  64  90 123 162 200 242 299 359
#     4  12  25  41  64  91 120 154 199 250 300 357
#     4  10  22  40  59  83 123 166 201 242 297 359
#     4  11  24  38  56  87 123 160 202 249 300 349
#     4  11  24  42  64  87 117 158 201 246 301 360
#     4   8  16  34  61  88 113 153 203 246 294 355
#
# _framework density 20.178901
#
# number of rings (size 3 to 8) (size 9 to 14) (size 15 to 20)
#    0.000    1.625    1.250    4.125    1.750    5.000 
#    0.000    1.875    0.000    0.000    0.000    0.000 
#    0.000    0.000    0.000    0.000    0.000    0.000 
#
# Total GULP energy -396913.697565 kJ/mol
# GULP energy per Si atom -12403.553049 kJ/mol
# Density = 2.013297 g / cm^3
# Si number density = 20.178901 Si / 1000 Ang^3
#
#
#
# Elastic Constant Matrix: (Units=GPa)
#
#
# Indices 1 2 3 4 5 6 
#
# 1 105.4820 38.9500 33.3066 -0.0001 22.9487 0.0000
# 2 38.9500 67.9140 23.7997 -0.0002 14.1583 0.0004
# 3 33.3066 23.7997 70.2638 -0.0001 15.3628 0.0001
# 4 -0.0001 -0.0002 -0.0001 28.1439 0.0000 5.1992
# 5 22.9487 14.1583 15.3628 0.0000 40.9428 -0.0001
# 6 0.0000 0.0004 0.0001 5.1992 -0.0001 30.7761
#
#
#
# Elastic Compliance Matrix: (Units=1/GPa)
#
#
# Indices 1 2 3 4 5 6 
#
# 1 0.013654 -0.005662 -0.003605 0.000000 -0.004342 0.000000
# 2 -0.005662 0.019673 -0.003471 0.000000 -0.002327 0.000000
# 3 -0.003605 -0.003471 0.017879 0.000000 -0.003488 0.000000
# 4 0.000000 0.000000 0.000000 0.036676 0.000000 -0.006196
# 5 -0.004342 -0.002327 -0.003488 0.000000 0.028972 0.000000
# 6 0.000000 0.000000 0.000000 -0.006196 0.000000 0.033539
#
#
# Mechanical properties :
#
#
# Convention : Reuss Voigt Hill
#
# Bulk Modulus (GPa) = 38.86456 48.41916 43.64186
# Shear Modulus (GPa) = 27.10798 29.81280 28.46039
#
# Velocity S-wave (km/s) = 3.66919 3.84790 3.75961
# Velocity P-wave (km/s) = 6.10348 6.61731 6.36558
#
# Compressibility (1/GPa) = 0.02573038
#
# Stress axis : x y z
#
# Youngs Moduli (GPa) = 73.23754 50.82993 55.93097
#
# Poissons Ratio (x) = 0.28782 0.20163
# Poissons Ratio (y) = 0.41470 0.19413
# Poissons Ratio (z) = 0.26402 0.17643
#
# Static dielectric constant tensor:
#      x y z
#    x 3.854380 0.000000 -0.060570 
#    y 0.000000 3.628100 0.000000 
#    z -0.060570 0.000000 3.571970 
# 
# 
# High freq. dielectric constant tensor:
#      x y z
#    x 1.795140 0.000000 0.009560 
#    y 0.000000 1.776550 0.000000 
#    z 0.009560 0.000000 1.798940 
# 
# From -- ./inp_files/378360.got.cif
#   From: 2010.06.25/outbox.cif.g09.slc.cpg/sg12_190_cif.got.tgz:378360.got - 2010.06.28 00:19:55.
