data_PCOD8111426
_publ_section_title
;
Structure prediction by ZEFSAII (Michael W. Deem and Ramdas Pophale) SiO2 
 PCOD8111426
Probable space group: C 2/M
;
_chemical_formula_sum "Si O2"
_cell_formula_units_Z 64
_cell_length_a 31.931769
_cell_length_b 8.497848
_cell_length_c 16.121575
_cell_angle_alpha 90.000000
_cell_angle_beta 47.183589
_cell_angle_gamma 90.000000
_cell_volume 3208.931003
_symmetry_space_group_name_H-M "C 2/M"
_symmetry_group_IT_number 12
_symmetry_cell_setting 'monoclinic'
loop_
_space_group_symop_operation_xyz
x,y,z
-x,y,-z
-x,-y,-z
x,-y,z
1/2+x,1/2+y,z
1/2-x,1/2+y,-z
1/2-x,1/2-y,-z
1/2+x,1/2-y,z
loop_
_atom_site_type_symbol
_atom_site_label
_atom_site_fract_x
_atom_site_fract_y
_atom_site_fract_z
Si Si1 0.256932 0.681056 0.400559
Si Si2 0.927346 0.684982 0.359377
Si Si3 0.872268 0.681170 0.262455
Si Si4 0.834245 0.818195 0.597754
Si Si5 0.669430 0.316107 0.065344
Si Si6 0.214275 0.318479 0.171362
Si Si7 0.553025 0.186283 0.151434
Si Si8 0.942733 0.171588 0.033454
O O1 0.238659 0.500000 0.420459
O O2 0.250000 0.750000 0.500000
O O3 0.322732 0.707742 0.292322
O O4 0.218596 0.775972 0.388689
O O5 0.927686 0.500000 0.350381
O O6 0.895958 0.749597 0.318271
O O7 0.892534 0.734457 0.488360
O O8 0.993583 0.740678 0.275815
O O9 0.852835 0.500000 0.298645
O O10 0.916634 0.698123 0.129317
O O11 0.816841 0.777693 0.714688
O O12 0.847671 0.000000 0.573722
O O13 0.673654 0.500000 0.081650
O O14 0.680865 0.215130 0.131767
O O15 0.606510 0.274940 0.119358
O O16 0.718403 0.273538 0.930833
O O17 0.208400 0.500000 0.203166
O O18 0.562487 0.000000 0.145690
O O19 0.548015 0.238207 0.064115
O O20 0.910741 0.000000 0.063838
O O21 0.000000 0.122864 0.000000
#
# Coordination Sequence:
#
# PCOD8111426 Si02
#       8
#     8   8   8   8   8   8   8   8
#     4  12  24  39  58  84 120 160 206 253 302 361
#     4  10  22  40  61  85 121 165 208 254 305 360
#     4  11  22  38  58  81 116 161 207 256 306 358
#     4  12  25  40  63  92 123 162 206 254 306 363
#     4  10  22  42  68  97 126 155 195 248 307 366
#     4  10  22  43  69  94 125 160 196 245 305 367
#     4  11  23  40  63  90 122 163 208 252 305 367
#     4  11  23  37  56  84 121 162 206 254 303 357
#
# _framework density 19.944336
#
# number of rings (size 3 to 8) (size 9 to 14) (size 15 to 20)
#    0.000    1.125    2.500    4.125    1.750    3.500 
#    0.000    0.625    0.000    3.750    0.000    0.000 
#    0.000    0.000    0.000    0.000    0.000    0.000 
#
# Total GULP energy -396658.654964 kJ/mol
# GULP energy per Si atom -12395.582968 kJ/mol
# Density = 1.989894 g / cm^3
# Si number density = 19.944336 Si / 1000 Ang^3
#
#
#
# Elastic Constant Matrix: (Units=GPa)
#
#
# Indices 1 2 3 4 5 6 
#
# 1 86.8519 3.4862 44.5849 -0.0001 -17.6612 0.0004
# 2 3.4862 31.6431 13.1254 -0.0004 -5.0175 0.0002
# 3 44.5849 13.1254 128.1147 0.0000 -7.5000 0.0000
# 4 -0.0001 -0.0004 0.0000 32.6785 0.0000 1.3723
# 5 -17.6612 -5.0175 -7.5000 0.0000 29.7784 0.0000
# 6 0.0004 0.0002 0.0000 1.3723 0.0000 31.2792
#
#
#
# Elastic Compliance Matrix: (Units=1/GPa)
#
#
# Indices 1 2 3 4 5 6 
#
# 1 0.015809 0.001737 -0.005190 0.000000 0.008361 0.000000
# 2 0.001737 0.033880 -0.003736 0.000000 0.005798 0.000000
# 3 -0.005190 -0.003736 0.009924 0.000000 -0.001208 0.000000
# 4 0.000000 0.000000 0.000000 0.030658 0.000000 -0.001345
# 5 0.008361 0.005798 -0.001208 0.000000 0.039213 0.000000
# 6 0.000000 0.000000 0.000000 -0.001345 0.000000 0.032029
#
#
# Mechanical properties :
#
#
# Convention : Reuss Voigt Hill
#
# Bulk Modulus (GPa) = 22.10718 41.00031 31.55374
# Shear Modulus (GPa) = 26.18231 31.10812 28.64522
#
# Velocity S-wave (km/s) = 3.62715 3.95365 3.79391
# Velocity P-wave (km/s) = 5.35258 6.43768 5.92004
#
# Compressibility (1/GPa) = 0.04523418
#
# Stress axis : x y z
#
# Youngs Moduli (GPa) = 63.25643 29.51585 100.76900
#
# Poissons Ratio (x) = -0.05127 0.52299
# Poissons Ratio (y) = -0.10987 0.37648
# Poissons Ratio (z) = 0.32830 0.11027
#
# Static dielectric constant tensor:
#      x y z
#    x 3.216950 0.000000 -0.130980 
#    y 0.000000 3.657200 0.000000 
#    z -0.130980 0.000000 3.729030 
# 
# 
# High freq. dielectric constant tensor:
#      x y z
#    x 1.765410 0.000000 -0.010110 
#    y 0.000000 1.788060 0.000000 
#    z -0.010110 0.000000 1.785870 
# 
# From -- ./inp_files/249802.got.cif
#   From: 2010.06.25/outbox.cif.g09.slc.cpg/sg12_125_cif.got.tgz:249802.got - 2010.06.28 00:19:55.
