data_PCOD8111089
_publ_section_title
;
Structure prediction by ZEFSAII (Michael W. Deem and Ramdas Pophale) SiO2 
 PCOD8111089
Probable space group: C 2/M
;
_chemical_formula_sum "Si O2"
_cell_formula_units_Z 48
_cell_length_a 10.139783
_cell_length_b 9.543174
_cell_length_c 23.810198
_cell_angle_alpha 90.000000
_cell_angle_beta 74.050453
_cell_angle_gamma 90.000000
_cell_volume 2215.315694
_symmetry_space_group_name_H-M "C 2/M"
_symmetry_group_IT_number 12
_symmetry_cell_setting 'monoclinic'
loop_
_space_group_symop_operation_xyz
x,y,z
-x,y,-z
-x,-y,-z
x,-y,z
1/2+x,1/2+y,z
1/2-x,1/2+y,-z
1/2-x,1/2-y,-z
1/2+x,1/2-y,z
loop_
_atom_site_type_symbol
_atom_site_label
_atom_site_fract_x
_atom_site_fract_y
_atom_site_fract_z
Si Si1 0.415316 0.660195 0.185221
Si Si2 0.654039 0.662503 0.244657
Si Si3 0.162778 0.148738 0.086607
Si Si4 0.862815 0.847534 0.035255
Si Si5 0.922513 0.837344 0.621678
Si Si6 0.261792 0.664882 0.441501
O O1 0.365742 0.500000 0.196239
O O2 0.522302 0.697788 0.222234
O O3 0.284393 0.758389 0.203933
O O4 0.502319 0.688519 0.116637
O O5 0.689492 0.500000 0.239807
O O6 0.624140 0.711385 0.311311
O O7 0.267897 0.270965 0.093430
O O8 0.188994 0.000000 0.115979
O O9 0.209813 0.128043 0.016621
O O10 0.900092 0.000000 0.057589
O O11 0.000000 0.764535 0.000000
O O12 0.847419 0.733700 0.587747
O O13 0.085518 0.816880 0.599906
O O14 0.884643 0.000000 0.613212
O O15 0.226651 0.500000 0.454172
O O16 0.250000 0.750000 0.500000
#
# Coordination Sequence:
#
# PCOD8111089 Si02
#       6
#     8   8   8   8   8   8
#     4  10  22  39  59  85 117 149 193 245 293 347
#     4  10  22  40  60  85 115 152 196 241 289 344
#     4   9  19  34  50  74 105 139 177 228 285 341
#     4   9  18  32  51  74 102 136 178 224 279 345
#     4  10  22  40  60  84 120 158 195 241 290 340
#     4  11  23  39  62  92 124 159 197 240 289 340
#
# _framework density 21.667341
#
# number of rings (size 3 to 8) (size 9 to 14) (size 15 to 20)
#    0.000    2.167    0.000    2.000    2.333    7.000 
#    0.000    0.000    0.000    0.000    0.000    0.000 
#    0.000    0.000    0.000    0.000    0.000    0.000 
#
# Total GULP energy -297327.113793 kJ/mol
# GULP energy per Si atom -12388.629741 kJ/mol
# Density = 2.161803 g / cm^3
# Si number density = 21.667341 Si / 1000 Ang^3
#
#
#
# Elastic Constant Matrix: (Units=GPa)
#
#
# Indices 1 2 3 4 5 6 
#
# 1 52.3154 18.7890 -1.0470 0.0000 -12.2939 0.0000
# 2 18.7890 74.8825 21.5681 0.0000 -14.3661 0.0000
# 3 -1.0470 21.5681 83.4994 0.0000 -12.7634 0.0000
# 4 0.0000 0.0000 0.0000 24.6139 0.0000 -10.1767
# 5 -12.2939 -14.3661 -12.7634 0.0000 36.4318 0.0000
# 6 0.0000 0.0000 0.0000 -10.1767 0.0000 35.1046
#
#
#
# Elastic Compliance Matrix: (Units=1/GPa)
#
#
# Indices 1 2 3 4 5 6 
#
# 1 0.022546 -0.005164 0.002608 0.000000 0.006485 0.000000
# 2 -0.005164 0.016390 -0.003779 0.000000 0.003397 0.000000
# 3 0.002608 -0.003779 0.013621 0.000000 0.004162 0.000000
# 4 0.000000 0.000000 0.000000 0.046160 0.000000 0.013382
# 5 0.006485 0.003397 0.004162 0.000000 0.032434 0.000000
# 6 0.000000 0.000000 0.000000 0.013382 0.000000 0.032366
#
#
# Mechanical properties :
#
#
# Convention : Reuss Voigt Hill
#
# Bulk Modulus (GPa) = 25.07113 32.14638 28.60876
# Shear Modulus (GPa) = 26.38757 30.65586 28.52171
#
# Velocity S-wave (km/s) = 3.49356 3.76552 3.63208
# Velocity P-wave (km/s) = 5.27914 5.81154 5.55173
#
# Compressibility (1/GPa) = 0.03988651
#
# Stress axis : x y z
#
# Youngs Moduli (GPa) = 44.35437 61.01248 73.41515
#
# Poissons Ratio (x) = 0.31506 -0.19146
# Poissons Ratio (y) = 0.22904 0.27745
# Poissons Ratio (z) = -0.11567 0.23058
#
# Static dielectric constant tensor:
#      x y z
#    x 3.948950 0.000000 0.097000 
#    y 0.000000 4.413380 0.000000 
#    z 0.097000 0.000000 4.273860 
# 
# 
# High freq. dielectric constant tensor:
#      x y z
#    x 1.856340 0.000000 0.002110 
#    y 0.000000 1.847190 0.000000 
#    z 0.002110 0.000000 1.863270 
# 
# From -- ./inp_files/334769.got.cif
#   From: 2010.06.25/outbox.cif.g09.slc.cpg/sg12_168_cif.got.tgz:334769.got - 2010.06.28 00:19:55.
