data_PCOD8111746
_publ_section_title
;
Structure prediction by ZEFSAII (Michael W. Deem and Ramdas Pophale) SiO2 
 PCOD8111746
Probable space group: C 2/M
;
_chemical_formula_sum "Si O2"
_cell_formula_units_Z 44
_cell_length_a 24.835833
_cell_length_b 12.083611
_cell_length_c 14.194488
_cell_angle_alpha 90.000000
_cell_angle_beta 150.167073
_cell_angle_gamma 90.000000
_cell_volume 2119.162881
_symmetry_space_group_name_H-M "C 2/M"
_symmetry_group_IT_number 12
_symmetry_cell_setting 'monoclinic'
loop_
_space_group_symop_operation_xyz
x,y,z
-x,y,-z
-x,-y,-z
x,-y,z
1/2+x,1/2+y,z
1/2-x,1/2+y,-z
1/2-x,1/2-y,-z
1/2+x,1/2-y,z
loop_
_atom_site_type_symbol
_atom_site_label
_atom_site_fract_x
_atom_site_fract_y
_atom_site_fract_z
Si Si1 0.408584 0.267145 0.973733
Si Si2 0.686888 0.129838 0.005384
Si Si3 0.349924 0.000000 0.561539
Si Si4 0.618216 0.500000 0.131945
Si Si5 0.397638 0.000000 0.418891
Si Si6 0.363306 0.205823 0.705123
Si Si7 0.879000 0.708591 0.291812
O O1 0.380476 0.199770 0.022924
O O2 0.360998 0.391516 0.900254
O O3 0.362305 0.192204 0.817008
O O4 0.537881 0.289526 0.165099
O O5 0.807384 0.180877 0.184050
O O6 0.694465 0.000000 0.041877
O O7 0.623198 0.147496 0.811931
O O8 0.412801 0.000000 0.555777
O O9 0.392927 0.901020 0.690511
O O10 0.218723 0.000000 0.358196
O O11 0.500000 0.500000 0.000000
O O12 0.500000 0.000000 0.500000
O O13 0.335970 0.884638 0.301218
O O14 0.250000 0.250000 0.500000
O O15 0.000000 0.747597 0.500000
#
# Coordination Sequence:
#
# PCOD8111746 Si02
#       7
#     8   8   4   4   4   8   8
#     4  11  25  40  67  94 132 170 219 268 330 389
#     4  11  25  43  65  98 135 168 217 282 335 390
#     4  12  24  37  71  91 135 175 215 275 333 390
#     4  12  20  46  65  92 127 179 223 268 307 405
#     4  10  22  40  68 101 121 171 237 269 315 401
#     4  11  24  41  61  98 129 170 218 264 328 394
#     4  10  23  43  69  95 128 174 225 273 330 400
#
# _framework density 20.762915
#
# number of rings (size 3 to 8) (size 9 to 14) (size 15 to 20)
#    0.000    1.091    4.545    1.091    7.636    1.091 
#    1.636    0.000    4.000    0.000    0.000    0.000 
#    0.000    0.000    0.000    0.000    0.000    0.000 
#
# Total GULP energy -272575.758903 kJ/mol
# GULP energy per Si atom -12389.807223 kJ/mol
# Density = 2.071566 g / cm^3
# Si number density = 20.762915 Si / 1000 Ang^3
#
#
#
# Elastic Constant Matrix: (Units=GPa)
#
#
# Indices 1 2 3 4 5 6 
#
# 1 99.3848 39.6422 27.7977 0.0000 -15.3106 0.0000
# 2 39.6422 138.3166 28.5175 0.0000 -21.9220 0.0000
# 3 27.7977 28.5175 123.0959 0.0000 1.4337 0.0000
# 4 0.0000 0.0000 0.0000 28.3952 0.0000 -2.7868
# 5 -15.3106 -21.9220 1.4337 0.0000 36.4548 0.0000
# 6 0.0000 0.0000 0.0000 -2.7868 0.0000 23.1229
#
#
#
# Elastic Compliance Matrix: (Units=1/GPa)
#
#
# Indices 1 2 3 4 5 6 
#
# 1 0.012246 -0.002452 -0.002241 0.000000 0.003756 0.000000
# 2 -0.002452 0.008957 -0.001573 0.000000 0.004418 0.000000
# 3 -0.002241 -0.001573 0.009020 0.000000 -0.002242 0.000000
# 4 0.000000 0.000000 0.000000 0.035639 0.000000 0.004295
# 5 0.003756 0.004418 -0.002242 0.000000 0.031754 0.000000
# 6 0.000000 0.000000 0.000000 0.004295 0.000000 0.043765
#
#
# Mechanical properties :
#
#
# Convention : Reuss Voigt Hill
#
# Bulk Modulus (GPa) = 56.52586 61.41245 58.96915
# Shear Modulus (GPa) = 31.28727 35.25058 33.26892
#
# Velocity S-wave (km/s) = 3.88607 4.12487 4.00725
# Velocity P-wave (km/s) = 6.88614 7.23382 7.06212
#
# Compressibility (1/GPa) = 0.01769102
#
# Stress axis : x y z
#
# Youngs Moduli (GPa) = 81.66247 111.64276 110.86129
#
# Poissons Ratio (x) = 0.27377 0.24844
# Poissons Ratio (y) = 0.20025 0.17436
# Poissons Ratio (z) = 0.18300 0.17559
#
# Static dielectric constant tensor:
#      x y z
#    x 4.017400 0.000000 -0.160100 
#    y 0.000000 4.382520 0.000000 
#    z -0.160100 0.000000 3.878020 
# 
# 
# High freq. dielectric constant tensor:
#      x y z
#    x 1.812460 0.000000 0.000250 
#    y 0.000000 1.815500 0.000000 
#    z 0.000250 0.000000 1.823720 
# 
# From -- ./inp_files/245772.got.cif
#   From: 2010.06.25/outbox.cif.g09.slc.cpg/sg12_123_cif.got.tgz:245772.got - 2010.06.28 00:19:55.
