data_PCOD8111918
_publ_section_title
;
Structure prediction by ZEFSAII (Michael W. Deem and Ramdas Pophale) SiO2 
 PCOD8111918
Probable space group: C 2/M
;
_chemical_formula_sum "Si O2"
_cell_formula_units_Z 32
_cell_length_a 17.645018
_cell_length_b 8.732774
_cell_length_c 28.312239
_cell_angle_alpha 90.000000
_cell_angle_beta 158.700592
_cell_angle_gamma 90.000000
_cell_volume 1584.689306
_symmetry_space_group_name_H-M "C 2/M"
_symmetry_group_IT_number 12
_symmetry_cell_setting 'monoclinic'
loop_
_space_group_symop_operation_xyz
x,y,z
-x,y,-z
-x,-y,-z
x,-y,z
1/2+x,1/2+y,z
1/2-x,1/2+y,-z
1/2-x,1/2-y,-z
1/2+x,1/2-y,z
loop_
_atom_site_type_symbol
_atom_site_label
_atom_site_fract_x
_atom_site_fract_y
_atom_site_fract_z
Si Si1 0.737607 0.175232 0.134011
Si Si2 0.350004 0.320008 0.370393
Si Si3 0.025073 0.320689 0.377219
Si Si4 0.906872 0.176624 0.127784
O O1 0.807893 0.194309 0.121430
O O2 0.877963 0.282197 0.247939
O O3 0.759434 0.000000 0.164083
O O4 0.500000 0.231123 0.000000
O O5 0.500000 0.270256 0.500000
O O6 0.355201 0.500000 0.364508
O O7 0.422404 0.238227 0.365261
O O8 0.119969 0.269232 0.250537
O O9 0.054019 0.500000 0.397770
O O10 0.250000 0.250000 0.500000
O O11 0.947506 0.000000 0.138331
O O12 0.750000 0.250000 0.000000
#
# Coordination Sequence:
#
# PCOD8111918 Si02
#       4
#     8   8   8   8
#     4  10  22  41  64  91 125 163 203 250 304 361
#     4  11  24  42  64  90 123 162 205 254 306 362
#     4  12  25  41  64  92 124 161 203 252 305 364
#     4  11  23  39  63  93 126 164 205 252 304 362
#
# _framework density 20.193231999999998
#
# number of rings (size 3 to 8) (size 9 to 14) (size 15 to 20)
#    0.000    1.000    0.000    6.750    0.000   10.500 
#    0.000    0.000    0.000    0.000    0.000    0.000 
#    0.000    0.000    0.000    0.000    0.000    0.000 
#
# Total GULP energy -198519.265102 kJ/mol
# GULP energy per Si atom -12407.454069 kJ/mol
# Density = 2.014727 g / cm^3
# Si number density = 20.193232 Si / 1000 Ang^3
#
#
#
# Elastic Constant Matrix: (Units=GPa)
#
#
# Indices 1 2 3 4 5 6 
#
# 1 94.5917 32.9578 47.8921 -0.0110 -2.2264 0.0060
# 2 32.9578 86.0387 43.4136 -0.0092 -12.6624 0.0101
# 3 47.8921 43.4136 167.5717 -0.0112 1.4205 0.0194
# 4 -0.0110 -0.0092 -0.0112 38.3115 0.0023 1.5136
# 5 -2.2264 -12.6624 1.4205 0.0023 43.8403 -0.0026
# 6 0.0060 0.0101 0.0194 1.5136 -0.0026 30.7000
#
#
#
# Elastic Compliance Matrix: (Units=1/GPa)
#
#
# Indices 1 2 3 4 5 6 
#
# 1 0.013292 -0.003705 -0.002836 0.000002 -0.000303 0.000000
# 2 -0.003705 0.015134 -0.002898 0.000002 0.004277 -0.000002
# 3 -0.002836 -0.002898 0.007539 0.000001 -0.001225 -0.000003
# 4 0.000002 0.000002 0.000001 0.026153 -0.000001 -0.001289
# 5 -0.000303 0.004277 -0.001225 -0.000001 0.024070 0.000002
# 6 0.000000 -0.000002 -0.000003 -0.001289 0.000002 0.032637
#
#
# Mechanical properties :
#
#
# Convention : Reuss Voigt Hill
#
# Bulk Modulus (GPa) = 58.52772 66.30322 62.41547
# Shear Modulus (GPa) = 34.86800 37.49958 36.18379
#
# Velocity S-wave (km/s) = 4.15989 4.31401 4.23765
# Velocity P-wave (km/s) = 7.21939 7.59736 7.41079
#
# Compressibility (1/GPa) = 0.01708592
#
# Stress axis : x y z
#
# Youngs Moduli (GPa) = 75.23600 66.07792 132.63590
#
# Poissons Ratio (x) = 0.24481 0.37620
# Poissons Ratio (y) = 0.27874 0.38440
# Poissons Ratio (z) = 0.21339 0.19150
#
# Static dielectric constant tensor:
#      x y z
#    x 3.882260 -0.000050 0.075960 
#    y -0.000050 3.856390 -0.000030 
#    z 0.075960 -0.000030 3.899150 
# 
# 
# High freq. dielectric constant tensor:
#      x y z
#    x 1.808930 0.000000 0.002440 
#    y 0.000000 1.798910 0.000000 
#    z 0.002440 0.000000 1.810170 
# 
# From -- ./inp_files/229040.got.cif
#   From: 2010.06.25/outbox.cif.g09.slc.cpg/sg12_115_cif.got.tgz:229040.got - 2010.06.28 00:19:55.
