data_PCOD8111817
_publ_section_title
;
Structure prediction by ZEFSAII (Michael W. Deem and Ramdas Pophale) SiO2 
 PCOD8111817
Probable space group: C 2/M
;
_chemical_formula_sum "Si O2"
_cell_formula_units_Z 64
_cell_length_a 15.299044
_cell_length_b 8.855136
_cell_length_c 23.554707
_cell_angle_alpha 90.000000
_cell_angle_beta 90.246786
_cell_angle_gamma 90.000000
_cell_volume 3191.047046
_symmetry_space_group_name_H-M "C 2/M"
_symmetry_group_IT_number 12
_symmetry_cell_setting 'monoclinic'
loop_
_space_group_symop_operation_xyz
x,y,z
-x,y,-z
-x,-y,-z
x,-y,z
1/2+x,1/2+y,z
1/2-x,1/2+y,-z
1/2-x,1/2-y,-z
1/2+x,1/2-y,z
loop_
_atom_site_type_symbol
_atom_site_label
_atom_site_fract_x
_atom_site_fract_y
_atom_site_fract_z
Si Si1 0.419129 0.323938 0.122911
Si Si2 0.907037 0.676712 0.890803
Si Si3 0.598173 0.673082 0.393058
Si Si4 0.745284 0.177541 0.688161
Si Si5 0.249406 0.675942 0.192779
Si Si6 0.655629 0.322130 0.998241
Si Si7 0.902637 0.173877 0.382309
Si Si8 0.344511 0.821839 0.496181
O O1 0.441930 0.500000 0.125352
O O2 0.504599 0.228677 0.140696
O O3 0.343238 0.283287 0.166972
O O4 0.390507 0.274304 0.060063
O O5 0.908092 0.500000 0.903113
O O6 0.824419 0.721680 0.852462
O O7 0.903096 0.764131 0.950290
O O8 0.614919 0.500000 0.411257
O O9 0.672749 0.728424 0.350053
O O10 0.503563 0.690357 0.363077
O O11 0.599095 0.775355 0.449147
O O12 0.766459 0.224732 0.751954
O O13 0.657696 0.260176 0.667368
O O14 0.730043 0.000000 0.684493
O O15 0.242997 0.500000 0.208576
O O16 0.666745 0.500000 0.002043
O O17 0.750000 0.250000 0.000000
O O18 0.891809 0.264693 0.440197
O O19 0.877343 0.000000 0.392583
O O20 0.250000 0.750000 0.500000
O O21 0.335531 0.000000 0.492874
#
# Coordination Sequence:
#
# PCOD8111817 Si02
#       8
#     8   8   8   8   8   8   8   8
#     4  10  22  41  62  88 123 163 201 246 307 368
#     4  11  23  40  62  93 125 159 203 253 304 363
#     4  10  23  42  63  90 126 162 200 249 305 366
#     4  11  24  42  64  90 120 158 209 259 300 357
#     4  10  23  44  63  83 121 163 203 253 308 361
#     4  11  21  37  62  91 125 163 201 247 305 367
#     4  11  23  41  65  92 124 165 202 247 309 364
#     4  12  23  37  62  94 127 163 201 248 304 363
#
# _framework density 20.056113
#
# number of rings (size 3 to 8) (size 9 to 14) (size 15 to 20)
#    0.000    1.250    2.500    3.375    0.000    8.000 
#    0.000    3.750    0.000    0.000    0.000    0.000 
#    0.000    0.000    0.000    0.000    0.000    0.000 
#
# Total GULP energy -396991.958468 kJ/mol
# GULP energy per Si atom -12405.998702 kJ/mol
# Density = 2.001046 g / cm^3
# Si number density = 20.056113 Si / 1000 Ang^3
#
#
#
# Elastic Constant Matrix: (Units=GPa)
#
#
# Indices 1 2 3 4 5 6 
#
# 1 103.7099 29.7534 11.3690 0.0000 -2.0046 0.0000
# 2 29.7534 86.3980 29.9646 0.0000 3.0304 0.0000
# 3 11.3690 29.9646 82.5908 0.0000 -4.3433 0.0000
# 4 0.0000 0.0000 0.0000 36.5085 0.0000 0.3857
# 5 -2.0046 3.0304 -4.3433 0.0000 15.5929 0.0000
# 6 0.0000 0.0000 0.0000 0.3857 0.0000 34.6958
#
#
#
# Elastic Compliance Matrix: (Units=1/GPa)
#
#
# Indices 1 2 3 4 5 6 
#
# 1 0.010768 -0.003783 0.000002 0.000000 0.002120 0.000000
# 2 -0.003783 0.014816 -0.005106 0.000000 -0.004788 0.000000
# 3 0.000002 -0.005106 0.014221 0.000000 0.004954 0.000000
# 4 0.000000 0.000000 0.000000 0.027394 0.000000 -0.000305
# 5 0.002120 -0.004788 0.004954 0.000000 0.066715 0.000000
# 6 0.000000 0.000000 0.000000 -0.000305 0.000000 0.028825
#
#
# Mechanical properties :
#
#
# Convention : Reuss Voigt Hill
#
# Bulk Modulus (GPa) = 45.39381 46.09699 45.74540
# Shear Modulus (GPa) = 26.61571 30.80023 28.70797
#
# Velocity S-wave (km/s) = 3.64684 3.92306 3.78747
# Velocity P-wave (km/s) = 6.35729 6.59958 6.47956
#
# Compressibility (1/GPa) = 0.02202943
#
# Stress axis : x y z
#
# Youngs Moduli (GPa) = 92.86358 67.49354 70.31946
#
# Poissons Ratio (x) = 0.25536 -0.00013
# Poissons Ratio (y) = 0.35134 0.35908
# Poissons Ratio (z) = -0.00017 0.34465
#
# Static dielectric constant tensor:
#      x y z
#    x 3.794960 0.000000 -0.044920 
#    y 0.000000 3.673570 0.000000 
#    z -0.044920 0.000000 3.724270 
# 
# 
# High freq. dielectric constant tensor:
#      x y z
#    x 1.799800 0.000000 -0.000660 
#    y 0.000000 1.786470 0.000000 
#    z -0.000660 0.000000 1.775820 
# 
# From -- ./inp_files/338814.got.cif
#   From: 2010.06.25/outbox.cif.g09.slc.cpg/sg12_170_cif.got.tgz:338814.got - 2010.06.28 00:19:55.
