data_PCOD8111156
_publ_section_title
;
Structure prediction by ZEFSAII (Michael W. Deem and Ramdas Pophale) SiO2 
 PCOD8111156
Probable space group: C 2/M
;
_chemical_formula_sum "Si O2"
_cell_formula_units_Z 48
_cell_length_a 10.350414
_cell_length_b 22.453685
_cell_length_c 10.627641
_cell_angle_alpha 90.000000
_cell_angle_beta 99.683640
_cell_angle_gamma 90.000000
_cell_volume 2434.723716
_symmetry_space_group_name_H-M "C 2/M"
_symmetry_group_IT_number 12
_symmetry_cell_setting 'monoclinic'
loop_
_space_group_symop_operation_xyz
x,y,z
-x,y,-z
-x,-y,-z
x,-y,z
1/2+x,1/2+y,z
1/2-x,1/2+y,-z
1/2-x,1/2-y,-z
1/2+x,1/2-y,z
loop_
_atom_site_type_symbol
_atom_site_label
_atom_site_fract_x
_atom_site_fract_y
_atom_site_fract_z
Si Si1 0.374121 0.068814 0.911068
Si Si2 0.451808 0.381718 0.637049
Si Si3 0.566903 0.875453 0.329448
Si Si4 0.608251 0.749583 0.414763
Si Si5 0.326833 0.930315 0.399995
Si Si6 0.584952 0.569292 0.897428
O O1 0.356034 0.097019 0.772720
O O2 0.237124 0.079256 0.961358
O O3 0.404121 0.000000 0.896604
O O4 0.500000 0.098715 0.000000
O O5 0.500000 0.391723 0.500000
O O6 0.415262 0.313126 0.656892
O O7 0.326860 0.422503 0.649353
O O8 0.559283 0.398689 0.759140
O O9 0.587463 0.804477 0.316100
O O10 0.414553 0.897005 0.307790
O O11 0.640424 0.898957 0.464113
O O12 0.500000 0.761510 0.500000
O O13 0.750000 0.750000 0.500000
O O14 0.362935 0.000000 0.407099
O O15 0.553213 0.500000 0.872683
O O16 0.500000 0.595246 0.000000
#
# Coordination Sequence:
#
# PCOD8111156 Si02
#       6
#     8   8   8   8   8   8
#     4  10  22  39  61  86 117 159 204 248 302 369
#     4  11  23  37  63  93 123 166 207 259 311 374
#     4  11  20  37  58  88 122 155 202 252 303 368
#     4  11  21  39  60  87 126 163 202 248 310 369
#     4  11  21  34  57  91 124 155 196 259 317 366
#     4  10  23  42  62  89 126 163 201 253 315 375
#
# _framework density 19.714760999999999
#
# number of rings (size 3 to 8) (size 9 to 14) (size 15 to 20)
#    0.000    1.333    3.333    3.500    4.667    2.667 
#    0.000    0.833    0.000    2.000    0.000    0.000 
#    0.000    0.000    0.000    0.000    0.000    0.000 
#
# Total GULP energy -297527.345934 kJ/mol
# GULP energy per Si atom -12396.972747 kJ/mol
# Density = 1.966989 g / cm^3
# Si number density = 19.714761 Si / 1000 Ang^3
#
#
#
# Elastic Constant Matrix: (Units=GPa)
#
#
# Indices 1 2 3 4 5 6 
#
# 1 129.2656 40.0584 37.0166 0.0000 2.3165 0.0000
# 2 40.0584 95.2878 27.1948 0.0000 1.8344 0.0000
# 3 37.0166 27.1948 76.6388 0.0000 -5.6480 0.0000
# 4 0.0000 0.0000 0.0000 31.8955 0.0000 -5.3772
# 5 2.3165 1.8344 -5.6480 0.0000 31.4153 0.0000
# 6 0.0000 0.0000 0.0000 -5.3772 0.0000 29.7481
#
#
#
# Elastic Compliance Matrix: (Units=1/GPa)
#
#
# Indices 1 2 3 4 5 6 
#
# 1 0.009761 -0.003014 -0.003735 0.000000 -0.001215 0.000000
# 2 -0.003014 0.012673 -0.003121 0.000000 -0.001079 0.000000
# 3 -0.003735 -0.003121 0.016208 0.000000 0.003372 0.000000
# 4 0.000000 0.000000 0.000000 0.032338 0.000000 0.005845
# 5 -0.001215 -0.001079 0.003372 0.000000 0.032590 0.000000
# 6 0.000000 0.000000 0.000000 0.005845 0.000000 0.034672
#
#
# Mechanical properties :
#
#
# Convention : Reuss Voigt Hill
#
# Bulk Modulus (GPa) = 52.90118 56.63688 54.76903
# Shear Modulus (GPa) = 30.43531 31.73995 31.08763
#
# Velocity S-wave (km/s) = 3.93336 4.01678 3.97529
# Velocity P-wave (km/s) = 6.89347 7.09248 6.99368
#
# Compressibility (1/GPa) = 0.01890317
#
# Stress axis : x y z
#
# Youngs Moduli (GPa) = 102.44455 78.90735 61.69846
#
# Poissons Ratio (x) = 0.23785 0.23042
# Poissons Ratio (y) = 0.30880 0.19253
# Poissons Ratio (z) = 0.38260 0.24623
#
# Static dielectric constant tensor:
#      x y z
#    x 3.978170 0.000000 -0.027260 
#    y 0.000000 3.747230 0.000000 
#    z -0.027260 0.000000 3.326230 
# 
# 
# High freq. dielectric constant tensor:
#      x y z
#    x 1.792280 0.000000 0.000890 
#    y 0.000000 1.762740 0.000000 
#    z 0.000890 0.000000 1.737500 
# 
# From -- ./inp_files/122043.got.cif
#   From: 2010.06.25/outbox.cif.g09.slc.cpg/sg12_62_cif.got.tgz:122043.got - 2010.06.28 00:19:55.
