data_PCOD8111657
_publ_section_title
;
Structure prediction by ZEFSAII (Michael W. Deem and Ramdas Pophale) SiO2 
 PCOD8111657
Probable space group: C 2/M
;
_chemical_formula_sum "Si O2"
_cell_formula_units_Z 56
_cell_length_a 9.570612
_cell_length_b 15.937290
_cell_length_c 29.699803
_cell_angle_alpha 90.000000
_cell_angle_beta 36.461189
_cell_angle_gamma 90.000000
_cell_volume 2692.139157
_symmetry_space_group_name_H-M "C 2/M"
_symmetry_group_IT_number 12
_symmetry_cell_setting 'monoclinic'
loop_
_space_group_symop_operation_xyz
x,y,z
-x,y,-z
-x,-y,-z
x,-y,z
1/2+x,1/2+y,z
1/2-x,1/2+y,-z
1/2-x,1/2-y,-z
1/2+x,1/2-y,z
loop_
_atom_site_type_symbol
_atom_site_label
_atom_site_fract_x
_atom_site_fract_y
_atom_site_fract_z
Si Si1 0.283715 0.167550 0.826982
Si Si2 0.378025 0.000000 0.917488
Si Si3 0.439713 0.910939 0.617330
Si Si4 0.900909 0.348241 0.336491
Si Si5 0.564862 0.500000 0.910185
Si Si6 0.053878 0.834788 0.661705
Si Si7 0.360610 0.340929 0.460819
Si Si8 0.904348 0.336480 0.170090
O O1 0.507100 0.142409 0.738125
O O2 0.154561 0.252032 0.842933
O O3 0.380298 0.185455 0.852112
O O4 0.110709 0.086481 0.870656
O O5 0.529175 0.086325 0.880371
O O6 0.239056 0.000000 0.906956
O O7 0.206063 0.000000 0.004791
O O8 0.474552 0.913310 0.662261
O O9 0.262522 0.841076 0.644428
O O10 0.696166 0.906180 0.528687
O O11 0.326001 0.000000 0.633267
O O12 0.994845 0.262504 0.333875
O O13 0.621026 0.350923 0.412701
O O14 0.133755 0.870285 0.592868
O O15 0.815403 0.872785 0.744156
O O16 0.250000 0.250000 0.500000
#
# Coordination Sequence:
#
# PCOD8111657 Si02
#       8
#     8   4   8   8   4   8   8   8
#     4  10  22  40  64  98 126 166 210 254 311 373
#     4   9  20  42  69  97 130 166 205 248 309 381
#     4  12  28  40  56  92 122 157 211 271 323 349
#     4  11  22  40  62  86 122 167 210 255 310 378
#     4   9  20  42  69  97 130 166 205 248 309 381
#     4  11  22  40  62  86 122 167 210 255 310 378
#     4  12  22  40  62  86 118 167 214 263 309 369
#     4  10  22  40  64  98 126 166 210 254 311 373
#
# _framework density 20.801303000000001
#
# number of rings (size 3 to 8) (size 9 to 14) (size 15 to 20)
#    0.000    1.286    4.286    0.857    8.000    2.857 
#    0.000    0.714    0.000    0.857    0.000    0.000 
#    0.000    0.000    0.000    0.000    0.000    0.000 
#
# Total GULP energy -347035.599544 kJ/mol
# GULP energy per Si atom -12394.128555 kJ/mol
# Density = 2.075396 g / cm^3
# Si number density = 20.801303 Si / 1000 Ang^3
#
#
#
# Elastic Constant Matrix: (Units=GPa)
#
#
# Indices 1 2 3 4 5 6 
#
# 1 90.8659 32.1112 22.1554 0.0009 -0.9810 -0.0003
# 2 32.1112 121.6473 50.6163 0.0034 -2.4103 -0.0012
# 3 22.1554 50.6163 105.5675 0.0035 -11.9252 -0.0059
# 4 0.0009 0.0034 0.0035 26.1565 -0.0019 -0.7452
# 5 -0.9810 -2.4103 -11.9252 -0.0019 21.3069 0.0012
# 6 -0.0003 -0.0012 -0.0059 -0.7452 0.0012 19.5271
#
#
#
# Elastic Compliance Matrix: (Units=1/GPa)
#
#
# Indices 1 2 3 4 5 6 
#
# 1 0.012279 -0.002693 -0.001341 0.000000 -0.000490 0.000000
# 2 -0.002693 0.010918 -0.004851 -0.000001 -0.001604 -0.000001
# 3 -0.001341 -0.004851 0.012822 0.000000 0.006566 0.000003
# 4 0.000000 -0.000001 0.000000 0.038273 0.000003 0.001461
# 5 -0.000490 -0.001604 0.006566 0.000003 0.050404 -0.000001
# 6 0.000000 -0.000001 0.000003 0.001461 -0.000001 0.051267
#
#
# Mechanical properties :
#
#
# Convention : Reuss Voigt Hill
#
# Bulk Modulus (GPa) = 54.79911 58.64961 56.72436
# Shear Modulus (GPa) = 25.02329 27.61128 26.31729
#
# Velocity S-wave (km/s) = 3.47214 3.64728 3.56079
# Velocity P-wave (km/s) = 6.51733 6.78183 6.65090
#
# Compressibility (1/GPa) = 0.01824847
#
# Stress axis : x y z
#
# Youngs Moduli (GPa) = 81.44277 91.59240 77.99363
#
# Poissons Ratio (x) = 0.24665 0.10460
# Poissons Ratio (y) = 0.21931 0.37833
# Poissons Ratio (z) = 0.10922 0.44430
#
# Static dielectric constant tensor:
#      x y z
#    x 3.508040 0.000000 -0.006020 
#    y 0.000000 3.768470 0.000020 
#    z -0.006020 0.000020 3.914540 
# 
# 
# High freq. dielectric constant tensor:
#      x y z
#    x 1.801720 0.000000 0.000440 
#    y 0.000000 1.811260 0.000000 
#    z 0.000440 0.000000 1.807990 
# 
# From -- ./inp_files/356706.got.cif
#   From: 2010.06.25/outbox.cif.g09.slc.cpg/sg12_179_cif.got.tgz:356706.got - 2010.06.28 00:19:55.
