data_PCOD8111598
_publ_section_title
;
Structure prediction by ZEFSAII (Michael W. Deem and Ramdas Pophale) SiO2 
 PCOD8111598
Probable space group: C 2/M
;
_chemical_formula_sum "Si O2"
_cell_formula_units_Z 64
_cell_length_a 28.886190
_cell_length_b 18.593760
_cell_length_c 9.195063
_cell_angle_alpha 90.000000
_cell_angle_beta 37.201927
_cell_angle_gamma 90.000000
_cell_volume 2986.062842
_symmetry_space_group_name_H-M "C 2/M"
_symmetry_group_IT_number 12
_symmetry_cell_setting 'monoclinic'
loop_
_space_group_symop_operation_xyz
x,y,z
-x,y,-z
-x,-y,-z
x,-y,z
1/2+x,1/2+y,z
1/2-x,1/2+y,-z
1/2-x,1/2-y,-z
1/2+x,1/2-y,z
loop_
_atom_site_type_symbol
_atom_site_label
_atom_site_fract_x
_atom_site_fract_y
_atom_site_fract_z
Si Si1 0.315264 0.856209 0.067587
Si Si2 0.853581 0.914945 0.485953
Si Si3 0.158673 0.078139 0.804017
Si Si4 0.109865 0.207282 0.111520
Si Si5 0.663799 0.078214 0.690244
Si Si6 0.431976 0.084445 0.564443
Si Si7 0.939604 0.803189 0.438329
Si Si8 0.069366 0.331572 0.717602
O O1 0.225085 0.872401 0.280696
O O2 0.356146 0.900965 0.094147
O O3 0.332224 0.772799 0.063607
O O4 0.354476 0.878420 0.817135
O O5 0.880822 0.901543 0.251270
O O6 0.921074 0.881575 0.417354
O O7 0.844091 0.000000 0.542930
O O8 0.246371 0.071982 0.543852
O O9 0.128707 0.000000 0.933577
O O10 0.147402 0.134523 0.959764
O O11 0.100013 0.200785 0.307327
O O12 0.029433 0.214671 0.228325
O O13 0.639082 0.137042 0.635335
O O14 0.625702 0.000000 0.753869
O O15 0.500000 0.108789 0.500000
O O16 0.453226 0.112404 0.351784
O O17 0.419692 0.000000 0.589911
O O18 0.904066 0.743523 0.419426
O O19 0.000000 0.319761 0.000000
#
# Coordination Sequence:
#
# PCOD8111598 Si02
#       8
#     8   8   8   8   8   8   8   8
#     4  11  22  41  69  93 132 173 217 268 322 393
#     4  10  24  44  68  99 132 171 221 272 324 390
#     4   9  22  43  67  96 128 166 212 264 324 388
#     4  11  24  43  67  93 131 174 217 269 329 393
#     4  10  22  40  63  94 130 168 213 265 321 386
#     4  11  22  38  61  89 126 174 220 264 322 384
#     4  11  26  43  63  96 132 170 218 271 329 389
#     4  12  25  39  61  90 132 166 215 270 321 384
#
# _framework density 21.432905000000002
#
# number of rings (size 3 to 8) (size 9 to 14) (size 15 to 20)
#    0.000    1.375    1.250    4.500    5.250    5.500 
#    0.000    3.750    0.000    0.000    0.000    0.000 
#    0.000    0.000    0.000    0.000    0.000    0.000 
#
# Total GULP energy -396805.154476 kJ/mol
# GULP energy per Si atom -12400.161077 kJ/mol
# Density = 2.138412 g / cm^3
# Si number density = 21.432905 Si / 1000 Ang^3
#
#
#
# Elastic Constant Matrix: (Units=GPa)
#
#
# Indices 1 2 3 4 5 6 
#
# 1 92.4350 46.7482 18.3583 0.0000 18.1607 0.0000
# 2 46.7482 142.3006 43.4289 0.0000 8.3354 0.0000
# 3 18.3583 43.4289 79.0147 0.0000 23.2120 0.0000
# 4 0.0000 0.0000 0.0000 27.1392 0.0000 4.6293
# 5 18.1607 8.3354 23.2120 0.0000 23.5851 0.0000
# 6 0.0000 0.0000 0.0000 4.6293 0.0000 41.4618
#
#
#
# Elastic Compliance Matrix: (Units=1/GPa)
#
#
# Indices 1 2 3 4 5 6 
#
# 1 0.015436 -0.005269 0.003171 0.000000 -0.013144 0.000000
# 2 -0.005269 0.010326 -0.006430 0.000000 0.006736 0.000000
# 3 0.003171 -0.006430 0.021808 0.000000 -0.021632 0.000000
# 4 0.000000 0.000000 0.000000 0.037562 0.000000 -0.004194
# 5 -0.013144 0.006736 -0.021632 0.000000 0.071431 0.000000
# 6 0.000000 0.000000 0.000000 -0.004194 0.000000 0.024587
#
#
# Mechanical properties :
#
#
# Convention : Reuss Voigt Hill
#
# Bulk Modulus (GPa) = 32.77179 58.98013 45.87596
# Shear Modulus (GPa) = 23.99490 32.11821 28.05656
#
# Velocity S-wave (km/s) = 3.34958 3.87531 3.62199
# Velocity P-wave (km/s) = 5.50301 6.89944 6.24041
#
# Compressibility (1/GPa) = 0.03051404
#
# Stress axis : x y z
#
# Youngs Moduli (GPa) = 64.78480 96.84170 45.85398
#
# Poissons Ratio (x) = 0.51023 -0.14540
# Poissons Ratio (y) = 0.34133 0.29485
# Poissons Ratio (z) = -0.20542 0.62272
#
# Static dielectric constant tensor:
#      x y z
#    x 3.983920 0.000000 0.187780 
#    y 0.000000 4.071810 0.000000 
#    z 0.187780 0.000000 3.774050 
# 
# 
# High freq. dielectric constant tensor:
#      x y z
#    x 1.835620 0.000000 0.012230 
#    y 0.000000 1.853010 0.000000 
#    z 0.012230 0.000000 1.837050 
# 
# From -- ./inp_files/112826.got.cif
#   From: 2010.06.25/outbox.cif.g09.slc.cpg/sg12_57_cif.got.tgz:112826.got - 2010.06.28 00:19:55.
