data_PCOD8111121
_publ_section_title
;
Structure prediction by ZEFSAII (Michael W. Deem and Ramdas Pophale) SiO2 
 PCOD8111121
Probable space group: C 2/M
;
_chemical_formula_sum "Si O2"
_cell_formula_units_Z 40
_cell_length_a 13.802286
_cell_length_b 13.022132
_cell_length_c 11.955770
_cell_angle_alpha 90.000000
_cell_angle_beta 86.000838
_cell_angle_gamma 90.000000
_cell_volume 2143.640241
_symmetry_space_group_name_H-M "C 2/M"
_symmetry_group_IT_number 12
_symmetry_cell_setting 'monoclinic'
loop_
_space_group_symop_operation_xyz
x,y,z
-x,y,-z
-x,-y,-z
x,-y,z
1/2+x,1/2+y,z
1/2-x,1/2+y,-z
1/2-x,1/2-y,-z
1/2+x,1/2-y,z
loop_
_atom_site_type_symbol
_atom_site_label
_atom_site_fract_x
_atom_site_fract_y
_atom_site_fract_z
Si Si1 0.177639 0.691182 0.660185
Si Si2 0.901310 0.714135 0.948962
Si Si3 0.969118 0.381612 0.718999
Si Si4 0.244519 0.881778 0.116304
Si Si5 0.712337 0.884057 0.414869
O O1 0.237646 0.640505 0.755261
O O2 0.206576 0.810532 0.645393
O O3 0.206892 0.628299 0.548063
O O4 0.062765 0.688950 0.691365
O O5 0.919129 0.643713 0.840165
O O6 0.846557 0.817903 0.920690
O O7 0.840964 0.645740 0.040314
O O8 0.000000 0.748787 0.000000
O O9 0.002594 0.500000 0.715966
O O10 0.893509 0.358336 0.626240
O O11 0.218553 0.000000 0.100739
O O12 0.742945 0.000000 0.381891
#
# Coordination Sequence:
#
# PCOD8111121 Si02
#       5
#     8   8   8   8   8
#     4  11  21  37  63  88 117 147 196 238 282 339
#     4  11  23  39  58  85 118 149 192 241 285 341
#     4  11  21  37  61  88 115 151 192 238 286 336
#     4  11  23  39  60  86 115 153 193 237 288 340
#     4  10  22  39  60  86 119 154 188 234 289 341
#
# _framework density 18.659846999999999
#
# number of rings (size 3 to 8) (size 9 to 14) (size 15 to 20)
#    0.000    1.200    4.000    3.000    0.000    2.800 
#    0.000    1.000    0.000    2.400    0.000    0.000 
#    0.000    0.000    0.000    0.000    0.000    0.000 
#
# Total GULP energy -248126.063457 kJ/mol
# GULP energy per Si atom -12406.303173 kJ/mol
# Density = 1.861738 g / cm^3
# Si number density = 18.659847 Si / 1000 Ang^3
#
#
#
# Elastic Constant Matrix: (Units=GPa)
#
#
# Indices 1 2 3 4 5 6 
#
# 1 92.8530 56.5812 41.0564 0.0000 -0.8552 0.0000
# 2 56.5812 112.3053 46.9457 0.0000 2.6121 0.0000
# 3 41.0564 46.9457 97.7797 0.0000 7.0828 0.0000
# 4 0.0000 0.0000 0.0000 14.2565 0.0000 5.2022
# 5 -0.8552 2.6121 7.0828 0.0000 30.7645 0.0000
# 6 0.0000 0.0000 0.0000 5.2022 0.0000 24.0394
#
#
#
# Elastic Compliance Matrix: (Units=1/GPa)
#
#
# Indices 1 2 3 4 5 6 
#
# 1 0.016649 -0.006821 -0.003855 0.000000 0.001930 0.000000
# 2 -0.006821 0.013937 -0.003791 0.000000 -0.000500 0.000000
# 3 -0.003855 -0.003791 0.013882 0.000000 -0.002981 0.000000
# 4 0.000000 0.000000 0.000000 0.076157 0.000000 -0.016481
# 5 0.001930 -0.000500 -0.002981 0.000000 0.033287 0.000000
# 6 0.000000 0.000000 0.000000 -0.016481 0.000000 0.045165
#
#
# Mechanical properties :
#
#
# Convention : Reuss Voigt Hill
#
# Bulk Modulus (GPa) = 64.38062 65.78942 65.08502
# Shear Modulus (GPa) = 21.44163 24.36905 22.90534
#
# Velocity S-wave (km/s) = 3.39348 3.61773 3.50740
# Velocity P-wave (km/s) = 7.06622 7.26529 7.16644
#
# Compressibility (1/GPa) = 0.01553262
#
# Stress axis : x y z
#
# Youngs Moduli (GPa) = 60.06440 71.74974 72.03530
#
# Poissons Ratio (x) = 0.48942 0.27773
# Poissons Ratio (y) = 0.40971 0.27310
# Poissons Ratio (z) = 0.23157 0.27202
#
# Static dielectric constant tensor:
#      x y z
#    x 3.462210 0.000000 0.103830 
#    y 0.000000 3.380220 0.000000 
#    z 0.103830 0.000000 3.636400 
# 
# 
# High freq. dielectric constant tensor:
#      x y z
#    x 1.724620 0.000000 0.011580 
#    y 0.000000 1.720850 0.000000 
#    z 0.011580 0.000000 1.743730 
# 
# From -- ./inp_files/129215.got.cif
#   From: 2010.06.25/outbox.cif.g09.slc.cpg/sg12_65_cif.got.tgz:129215.got - 2010.06.28 00:19:55.
