data_PCOD8111416
_publ_section_title
;
Structure prediction by ZEFSAII (Michael W. Deem and Ramdas Pophale) SiO2 
 PCOD8111416
Probable space group: C 2/M
;
_chemical_formula_sum "Si O2"
_cell_formula_units_Z 48
_cell_length_a 12.457411
_cell_length_b 27.447940
_cell_length_c 10.133711
_cell_angle_alpha 90.000000
_cell_angle_beta 40.747132
_cell_angle_gamma 90.000000
_cell_volume 2261.695853
_symmetry_space_group_name_H-M "C 2/M"
_symmetry_group_IT_number 12
_symmetry_cell_setting 'monoclinic'
loop_
_space_group_symop_operation_xyz
x,y,z
-x,y,-z
-x,-y,-z
x,-y,z
1/2+x,1/2+y,z
1/2-x,1/2+y,-z
1/2-x,1/2-y,-z
1/2+x,1/2-y,z
loop_
_atom_site_type_symbol
_atom_site_label
_atom_site_fract_x
_atom_site_fract_y
_atom_site_fract_z
Si Si1 0.116319 0.716283 0.556535
Si Si2 0.551562 0.947969 0.103461
Si Si3 0.864683 0.147041 0.236132
Si Si4 0.047597 0.812366 0.317612
Si Si5 0.651939 0.054693 0.453541
Si Si6 0.595828 0.843419 0.047019
O O1 0.250000 0.750000 0.500000
O O2 0.209220 0.683851 0.357745
O O3 0.981721 0.754532 0.633095
O O4 0.032589 0.676833 0.728799
O O5 0.396543 0.943240 0.346729
O O6 0.656214 0.898717 0.027974
O O7 0.643188 0.000000 0.050877
O O8 0.500000 0.949865 0.000000
O O9 0.803315 0.091426 0.288070
O O10 0.943084 0.160181 0.304175
O O11 0.000000 0.156927 0.000000
O O12 0.000000 0.838711 0.500000
O O13 0.240701 0.812103 0.109601
O O14 0.500000 0.069257 0.500000
O O15 0.711871 0.000000 0.361422
O O16 0.500000 0.842852 0.000000
#
# Coordination Sequence:
#
# PCOD8111416 Si02
#       6
#     8   8   8   8   8   8
#     4  10  22  40  60  88 125 166 213 261 316 381
#     4   9  19  36  66  98 126 163 212 257 313 383
#     4  11  25  43  64  93 132 172 216 266 322 381
#     4  11  26  42  63  94 129 167 214 267 328 385
#     4  10  22  42  68  96 131 172 215 263 320 386
#     4  11  21  39  67  94 129 169 213 268 322 384
#
# _framework density 21.223012000000001
#
# number of rings (size 3 to 8) (size 9 to 14) (size 15 to 20)
#    0.000    1.667    1.667    2.500    4.667    7.667 
#    0.000    0.833    0.000    1.000    0.000    0.000 
#    0.000    0.000    0.000    0.000    0.000    0.000 
#
# Total GULP energy -297315.109231 kJ/mol
# GULP energy per Si atom -12388.129551 kJ/mol
# Density = 2.117471 g / cm^3
# Si number density = 21.223012 Si / 1000 Ang^3
#
#
#
# Elastic Constant Matrix: (Units=GPa)
#
#
# Indices 1 2 3 4 5 6 
#
# 1 70.4918 52.9073 41.0919 0.0000 8.2073 0.0000
# 2 52.9073 173.9021 76.6941 0.0000 -11.5753 0.0000
# 3 41.0919 76.6941 153.8315 0.0000 5.4310 0.0000
# 4 0.0000 0.0000 0.0000 33.0124 0.0000 -8.9569
# 5 8.2073 -11.5753 5.4310 0.0000 37.3859 0.0000
# 6 0.0000 0.0000 0.0000 -8.9569 0.0000 20.1722
#
#
#
# Elastic Compliance Matrix: (Units=1/GPa)
#
#
# Indices 1 2 3 4 5 6 
#
# 1 0.020463 -0.005504 -0.002516 0.000000 -0.005831 0.000000
# 2 -0.005504 0.009162 -0.003257 0.000000 0.004518 0.000000
# 3 -0.002516 -0.003257 0.008858 0.000000 -0.001743 0.000000
# 4 0.000000 0.000000 0.000000 0.034441 0.000000 0.015293
# 5 -0.005831 0.004518 -0.001743 0.000000 0.029680 0.000000
# 6 0.000000 0.000000 0.000000 0.015293 0.000000 0.056364
#
#
# Mechanical properties :
#
#
# Convention : Reuss Voigt Hill
#
# Bulk Modulus (GPa) = 62.78080 82.17913 72.47996
# Shear Modulus (GPa) = 26.76214 33.28289 30.02251
#
# Velocity S-wave (km/s) = 3.55490 3.96440 3.76522
# Velocity P-wave (km/s) = 6.81876 7.73053 7.28892
#
# Compressibility (1/GPa) = 0.01592844
#
# Stress axis : x y z
#
# Youngs Moduli (GPa) = 48.86967 109.14609 112.89059
#
# Poissons Ratio (x) = 0.60073 0.28405
# Poissons Ratio (y) = 0.26897 0.36770
# Poissons Ratio (z) = 0.12296 0.35550
#
# Static dielectric constant tensor:
#      x y z
#    x 3.782690 0.000000 0.143960 
#    y 0.000000 4.761240 0.000000 
#    z 0.143960 0.000000 3.770940 
# 
# 
# High freq. dielectric constant tensor:
#      x y z
#    x 1.817080 0.000000 0.022740 
#    y 0.000000 1.854050 0.000000 
#    z 0.022740 0.000000 1.828580 
# 
# From -- ./inp_files/149611.got.cif
#   From: 2010.06.25/outbox.cif.g09.slc.cpg/sg12_75_cif.got.tgz:149611.got - 2010.06.28 00:19:55.
