data_PCOD8111845
_publ_section_title
;
Structure prediction by ZEFSAII (Michael W. Deem and Ramdas Pophale) SiO2 
 PCOD8111845
Probable space group: C 2/M
;
_chemical_formula_sum "Si O2"
_cell_formula_units_Z 32
_cell_length_a 8.716887
_cell_length_b 19.019107
_cell_length_c 11.167874
_cell_angle_alpha 90.000000
_cell_angle_beta 130.014747
_cell_angle_gamma 90.000000
_cell_volume 1418.019459
_symmetry_space_group_name_H-M "C 2/M"
_symmetry_group_IT_number 12
_symmetry_cell_setting 'monoclinic'
loop_
_space_group_symop_operation_xyz
x,y,z
-x,y,-z
-x,-y,-z
x,-y,z
1/2+x,1/2+y,z
1/2-x,1/2+y,-z
1/2-x,1/2-y,-z
1/2+x,1/2-y,z
loop_
_atom_site_type_symbol
_atom_site_label
_atom_site_fract_x
_atom_site_fract_y
_atom_site_fract_z
Si Si1 0.829069 0.000000 0.722808
Si Si2 0.700948 0.773597 0.165992
Si Si3 0.433268 0.000000 0.647708
Si Si4 0.586444 0.345675 0.255616
Si Si5 0.722504 0.633362 0.579026
O O1 0.671749 0.000000 0.752603
O O2 0.697484 0.000000 0.538140
O O3 0.961879 0.071648 0.796055
O O4 0.696191 0.689339 0.194309
O O5 0.709730 0.802890 0.304853
O O6 0.884336 0.800258 0.176830
O O7 0.500000 0.798212 0.000000
O O8 0.372486 0.070173 0.687481
O O9 0.731511 0.342385 0.444687
O O10 0.500000 0.607447 0.500000
#
# Coordination Sequence:
#
# PCOD8111845 Si02
#       5
#     4   8   4   8   8
#     4   9  20  38  61  89 120 154 195 257 293 350
#     4  11  23  39  62  88 124 160 198 245 300 354
#     4   9  17  34  62  90 122 150 201 243 306 345
#     4  10  22  41  63  88 121 156 203 246 299 349
#     4   9  19  36  61  94 118 155 198 252 293 353
#
# _framework density 22.566686000000001
#
# number of rings (size 3 to 8) (size 9 to 14) (size 15 to 20)
#    0.000    2.250    0.000    1.875    3.500    3.000 
#    9.000    3.125    0.000    0.000    0.000    0.000 
#    0.000    0.000    0.000    0.000    0.000    0.000 
#
# Total GULP energy -198280.213810 kJ/mol
# GULP energy per Si atom -12392.513363 kJ/mol
# Density = 2.251532 g / cm^3
# Si number density = 22.566686 Si / 1000 Ang^3
#
#
#
# Elastic Constant Matrix: (Units=GPa)
#
#
# Indices 1 2 3 4 5 6 
#
# 1 88.6571 65.9414 20.7297 0.0000 4.5986 0.0000
# 2 65.9414 160.5158 19.3870 0.0000 9.6129 0.0000
# 3 20.7297 19.3870 47.2010 0.0000 12.7785 0.0000
# 4 0.0000 0.0000 0.0000 4.7862 0.0000 6.9698
# 5 4.5986 9.6129 12.7785 0.0000 9.7254 0.0000
# 6 0.0000 0.0000 0.0000 6.9698 0.0000 39.6247
#
#
#
# Elastic Compliance Matrix: (Units=1/GPa)
#
#
# Indices 1 2 3 4 5 6 
#
# 1 0.017610 -0.006847 -0.006984 0.000000 0.007617 0.000000
# 2 -0.006847 0.009351 0.001229 0.000000 -0.007620 0.000000
# 3 -0.006984 0.001229 0.035983 0.000000 -0.045192 0.000000
# 4 0.000000 0.000000 0.000000 0.280882 0.000000 -0.049406
# 5 0.007617 -0.007620 -0.045192 0.000000 0.166134 0.000000
# 6 0.000000 0.000000 0.000000 -0.049406 0.000000 0.033927
#
#
# Mechanical properties :
#
#
# Convention : Reuss Voigt Hill
#
# Bulk Modulus (GPa) = 26.49663 56.49888 41.49776
# Shear Modulus (GPa) = 8.59595 23.51497 16.05546
#
# Velocity S-wave (km/s) = 1.95382 3.23154 2.67023
# Velocity P-wave (km/s) = 4.10571 6.24616 5.28542
#
# Compressibility (1/GPa) = 0.03774065
#
# Stress axis : x y z
#
# Youngs Moduli (GPa) = 56.78626 106.94504 27.79111
#
# Poissons Ratio (x) = 0.73225 0.19409
# Poissons Ratio (y) = 0.38882 -0.03417
# Poissons Ratio (z) = 0.39658 -0.13149
#
# Static dielectric constant tensor:
#      x y z
#    x 4.046540 0.000000 -0.085320 
#    y 0.000000 4.335780 0.000000 
#    z -0.085320 0.000000 3.749530 
# 
# 
# High freq. dielectric constant tensor:
#      x y z
#    x 1.881370 0.000000 -0.004660 
#    y 0.000000 1.901130 0.000000 
#    z -0.004660 0.000000 1.853810 
# 
# From -- ./inp_files/37604.got.cif
#   From: 2010.06.25/outbox.cif.g09.slc.cpg/sg12_19_cif.got.tgz:37604.got - 2010.06.28 00:19:55.
