data_PCOD8111818
_publ_section_title
;
Structure prediction by ZEFSAII (Michael W. Deem and Ramdas Pophale) SiO2 
 PCOD8111818
Probable space group: C 2/M
;
_chemical_formula_sum "Si O2"
_cell_formula_units_Z 64
_cell_length_a 33.472799
_cell_length_b 8.453992
_cell_length_c 15.365182
_cell_angle_alpha 90.000000
_cell_angle_beta 141.161096
_cell_angle_gamma 90.000000
_cell_volume 2726.786367
_symmetry_space_group_name_H-M "C 2/M"
_symmetry_group_IT_number 12
_symmetry_cell_setting 'monoclinic'
loop_
_space_group_symop_operation_xyz
x,y,z
-x,y,-z
-x,-y,-z
x,-y,z
1/2+x,1/2+y,z
1/2-x,1/2+y,-z
1/2-x,1/2-y,-z
1/2+x,1/2-y,z
loop_
_atom_site_type_symbol
_atom_site_label
_atom_site_fract_x
_atom_site_fract_y
_atom_site_fract_z
Si Si1 0.428881 0.311100 0.368970
Si Si2 0.908696 0.183954 0.145426
Si Si3 0.798083 0.184746 0.838106
Si Si4 0.065123 0.325261 0.063251
Si Si5 0.483464 0.680064 0.788453
Si Si6 0.352159 0.180884 0.563586
Si Si7 0.829851 0.816602 0.342256
Si Si8 0.187974 0.816229 0.333614
O O1 0.500000 0.241990 0.500000
O O2 0.431308 0.500000 0.374759
O O3 0.399736 0.248799 0.227834
O O4 0.384179 0.247210 0.371104
O O5 0.984646 0.206305 0.252673
O O6 0.891418 0.000000 0.115886
O O7 0.858005 0.263201 0.991091
O O8 0.735594 0.224701 0.787758
O O9 0.787886 0.249358 0.720263
O O10 0.807939 0.000000 0.843665
O O11 0.093985 0.500000 0.089219
O O12 0.112519 0.222433 0.202910
O O13 0.047778 0.216746 0.951687
O O14 0.000000 0.354260 0.000000
O O15 0.460010 0.500000 0.762266
O O16 0.426200 0.799104 0.716772
O O17 0.348634 0.293168 0.474495
O O18 0.297962 0.225266 0.547425
O O19 0.337738 0.000000 0.514317
O O20 0.819027 0.000000 0.305633
O O21 0.200698 0.000000 0.369987
#
# Coordination Sequence:
#
# PCOD8111818 Si02
#       8
#     8   8   8   8   8   8   8   8
#     4   9  18  36  65  97 126 154 196 252 303 361
#     4   9  18  35  61  93 125 162 205 250 304 360
#     4  10  22  41  62  88 123 164 204 252 308 359
#     4  11  21  32  50  83 125 163 198 249 311 360
#     4  11  20  34  59  89 121 160 205 251 299 365
#     4  12  25  40  59  87 122 164 204 258 321 366
#     4  11  24  42  64  91 118 158 208 254 305 368
#     4  11  22  38  60  86 117 162 214 256 299 363
#
# _framework density 23.470851
#
# number of rings (size 3 to 8) (size 9 to 14) (size 15 to 20)
#    0.000    1.500    2.500    3.375    0.000    4.500 
#    0.000    0.000    0.000    9.000    0.000    0.000 
#    0.000    0.000    0.000    0.000    0.000    0.000 
#
# Total GULP energy -396429.949450 kJ/mol
# GULP energy per Si atom -12388.435920 kJ/mol
# Density = 2.341743 g / cm^3
# Si number density = 23.470851 Si / 1000 Ang^3
#
#
#
# Elastic Constant Matrix: (Units=GPa)
#
#
# Indices 1 2 3 4 5 6 
#
# 1 181.8977 22.3327 50.8165 0.0000 -4.8045 0.0000
# 2 22.3327 53.3779 8.5019 0.0000 -1.4440 0.0000
# 3 50.8165 8.5019 60.1381 0.0000 -22.2114 0.0000
# 4 0.0000 0.0000 0.0000 -261.7946 0.0000 17.0856
# 5 -4.8045 -1.4440 -22.2114 0.0000 28.3076 0.0000
# 6 0.0000 0.0000 0.0000 17.0856 0.0000 24.2911
#
#
#
# Elastic Compliance Matrix: (Units=1/GPa)
#
#
# Indices 1 2 3 4 5 6 
#
# 1 0.007968 -0.002139 -0.008408 0.000000 -0.005354 0.000000
# 2 -0.002139 0.019793 -0.001058 0.000000 -0.000184 0.000000
# 3 -0.008408 -0.001058 0.032858 0.000000 0.024301 0.000000
# 4 0.000000 0.000000 0.000000 -0.003652 0.000000 0.002569
# 5 -0.005354 -0.000184 0.024301 0.000000 0.053475 0.000000
# 6 0.000000 0.000000 0.000000 0.002569 0.000000 0.039361
#
#
# Mechanical properties :
#
#
# Convention : Reuss Voigt Hill
#
# Bulk Modulus (GPa) = 26.73252 50.96843 38.85047
# Shear Modulus (GPa) = 26.95681 -27.58834 -0.31576
#
# Velocity S-wave (km/s) = 3.39266 -3.43217 -0.36719
# Velocity P-wave (km/s) = 5.17313 2.46097 4.05078
#
# Compressibility (1/GPa) = 0.03740763
#
# Stress axis : x y z
#
# Youngs Moduli (GPa) = 125.50766 50.52293 30.43439
#
# Poissons Ratio (x) = 0.10808 0.25588
# Poissons Ratio (y) = 0.26849 0.03221
# Poissons Ratio (z) = 1.05521 0.05348
#
# Static dielectric constant tensor:
#      x y z
#    x 4.634620 0.000000 -0.044870 
#    y 0.000000 3.785680 0.000000 
#    z -0.044870 0.000000 4.661870 
# 
# 
# High freq. dielectric constant tensor:
#      x y z
#    x 1.948060 0.000000 0.009570 
#    y 0.000000 1.883120 0.000000 
#    z 0.009570 0.000000 1.943110 
# 
# From -- ./inp_files/250043.got.cif
#   From: 2010.06.25/outbox.cif.g09.slc.cpg/sg12_126_cif.got.tgz:250043.got - 2010.06.28 00:19:55.
