data_PCOD8111930
_publ_section_title
;
Structure prediction by ZEFSAII (Michael W. Deem and Ramdas Pophale) SiO2 
 PCOD8111930
Probable space group: C 2/M
;
_chemical_formula_sum "Si O2"
_cell_formula_units_Z 40
_cell_length_a 16.249193
_cell_length_b 14.868389
_cell_length_c 17.006139
_cell_angle_alpha 90.000000
_cell_angle_beta 26.124263
_cell_angle_gamma 90.000000
_cell_volume 1809.127912
_symmetry_space_group_name_H-M "C 2/M"
_symmetry_group_IT_number 12
_symmetry_cell_setting 'monoclinic'
loop_
_space_group_symop_operation_xyz
x,y,z
-x,y,-z
-x,-y,-z
x,-y,z
1/2+x,1/2+y,z
1/2-x,1/2+y,-z
1/2-x,1/2-y,-z
1/2+x,1/2-y,z
loop_
_atom_site_type_symbol
_atom_site_label
_atom_site_fract_x
_atom_site_fract_y
_atom_site_fract_z
Si Si1 0.259592 0.831057 0.431364
Si Si2 0.838609 0.105110 0.795113
Si Si3 0.841495 0.398001 0.891939
Si Si4 0.205515 0.779551 0.309809
Si Si5 0.716146 0.600734 0.832515
O O1 0.250000 0.750000 0.500000
O O2 0.433625 0.893226 0.305716
O O3 0.316458 0.797193 0.295069
O O4 0.063289 0.883457 0.602198
O O5 0.727600 0.161263 0.822463
O O6 0.790689 0.000000 0.824242
O O7 0.754535 0.145949 0.948652
O O8 0.776816 0.500000 0.950284
O O9 0.754573 0.358209 0.886282
O O10 0.197562 0.672557 0.301387
O O11 0.000000 0.816208 0.500000
O O12 0.804119 0.500000 0.746386
O O13 0.500000 0.595890 0.000000
#
# Coordination Sequence:
#
# PCOD8111930 Si02
#       5
#     8   8   8   8   8
#     4  11  24  39  62  95 125 166 209 259 310 371
#     4  10  23  42  65  93 130 169 205 256 315 371
#     4  10  22  41  64  92 122 163 211 256 311 374
#     4  10  23  40  61  93 124 162 208 252 312 372
#     4  10  23  42  63  88 122 162 207 259 314 372
#
# _framework density 22.110099999999999
#
# number of rings (size 3 to 8) (size 9 to 14) (size 15 to 20)
#    0.000    1.800    0.000    3.000    5.600    6.400 
#    0.000    3.000    0.000    0.000    0.000    0.000 
#    0.000    0.000    0.000    0.000    0.000    0.000 
#
# Total GULP energy -247848.547441 kJ/mol
# GULP energy per Si atom -12392.427372 kJ/mol
# Density = 2.205978 g / cm^3
# Si number density = 22.110100 Si / 1000 Ang^3
#
#
#
# Elastic Constant Matrix: (Units=GPa)
#
#
# Indices 1 2 3 4 5 6 
#
# 1 134.2993 21.8031 24.4385 0.0036 3.9275 -0.0095
# 2 21.8031 75.8148 -0.5760 -0.0191 7.2830 0.0045
# 3 24.4385 -0.5760 72.3620 -0.0316 -3.3452 0.0139
# 4 0.0036 -0.0191 -0.0316 35.8021 0.0158 7.6967
# 5 3.9275 7.2830 -3.3452 0.0158 25.6054 -0.0207
# 6 -0.0095 0.0045 0.0139 7.6967 -0.0207 26.4105
#
#
#
# Elastic Compliance Matrix: (Units=1/GPa)
#
#
# Indices 1 2 3 4 5 6 
#
# 1 0.008381 -0.002336 -0.002895 -0.000005 -0.000999 0.000006
# 2 -0.002336 0.014212 0.000736 0.000012 -0.003588 -0.000010
# 3 -0.002895 0.000736 0.014904 0.000015 0.002182 -0.000012
# 4 -0.000005 0.000012 0.000015 0.029798 -0.000026 -0.008684
# 5 -0.000999 -0.003588 0.002182 -0.000026 0.040513 0.000039
# 6 0.000006 -0.000010 -0.000012 -0.008684 0.000039 0.040395
#
#
# Mechanical properties :
#
#
# Convention : Reuss Voigt Hill
#
# Bulk Modulus (GPa) = 35.07949 41.53416 38.30682
# Shear Modulus (GPa) = 29.99459 33.35097 31.67278
#
# Velocity S-wave (km/s) = 3.68720 3.88803 3.78895
# Velocity P-wave (km/s) = 5.83331 6.24353 6.04190
#
# Compressibility (1/GPa) = 0.02850669
#
# Stress axis : x y z
#
# Youngs Moduli (GPa) = 119.31089 70.36208 67.09611
#
# Poissons Ratio (x) = 0.16439 0.19427
# Poissons Ratio (y) = 0.27875 -0.04940
# Poissons Ratio (z) = 0.34546 -0.05181
#
# Static dielectric constant tensor:
#      x y z
#    x 4.437510 -0.000050 0.312610 
#    y -0.000050 4.024350 0.000110 
#    z 0.312610 0.000110 3.967000 
# 
# 
# High freq. dielectric constant tensor:
#      x y z
#    x 1.886500 0.000000 0.009740 
#    y 0.000000 1.866550 0.000010 
#    z 0.009740 0.000010 1.859740 
# 
# From -- ./inp_files/59072.got.cif
#   From: 2010.06.25/outbox.cif.g09.slc.cpg/sg12_30_cif.got.tgz:59072.got - 2010.06.28 00:19:55.
