data_PCOD8111955
_publ_section_title
;
Structure prediction by ZEFSAII (Michael W. Deem and Ramdas Pophale) SiO2 
 PCOD8111955
Probable space group: C 2/M
;
_chemical_formula_sum "Si O2"
_cell_formula_units_Z 64
_cell_length_a 18.935460
_cell_length_b 8.714255
_cell_length_c 30.389407
_cell_angle_alpha 90.000000
_cell_angle_beta 141.363943
_cell_angle_gamma 90.000000
_cell_volume 3130.915004
_symmetry_space_group_name_H-M "C 2/M"
_symmetry_group_IT_number 12
_symmetry_cell_setting 'monoclinic'
loop_
_space_group_symop_operation_xyz
x,y,z
-x,y,-z
-x,-y,-z
x,-y,z
1/2+x,1/2+y,z
1/2-x,1/2+y,-z
1/2-x,1/2-y,-z
1/2+x,1/2-y,z
loop_
_atom_site_type_symbol
_atom_site_label
_atom_site_fract_x
_atom_site_fract_y
_atom_site_fract_z
Si Si1 0.868073 0.677162 0.930007
Si Si2 0.711077 0.318470 0.935206
Si Si3 0.789042 0.824443 0.712529
Si Si4 0.010796 0.680202 0.789192
Si Si5 0.461939 0.182431 0.433757
Si Si6 0.028788 0.178433 0.705519
Si Si7 0.627048 0.819055 0.437873
Si Si8 0.749969 0.825703 0.791734
O O1 0.842193 0.500000 0.906725
O O2 0.800979 0.728304 0.941119
O O3 0.831858 0.777758 0.870858
O O4 0.000000 0.707730 0.000000
O O5 0.699316 0.500000 0.933444
O O6 0.588509 0.245706 0.865988
O O7 0.750000 0.250000 0.000000
O O8 0.664746 0.761662 0.639140
O O9 0.814408 0.812916 0.776815
O O10 0.879540 0.717925 0.732527
O O11 0.803156 0.000000 0.703133
O O12 0.027782 0.500000 0.793039
O O13 0.053694 0.763864 0.766476
O O14 0.500000 0.245393 0.500000
O O15 0.549266 0.246500 0.439707
O O16 0.465128 0.000000 0.434143
O O17 0.142551 0.214662 0.734273
O O18 0.924238 0.269097 0.633751
O O19 0.000586 0.000000 0.691206
O O20 0.750000 0.750000 0.500000
O O21 0.635467 0.000000 0.444451
O O22 0.707782 0.000000 0.778836
#
# Coordination Sequence:
#
# PCOD8111955 Si02
#       8
#     8   8   8   8   8   8   8   8
#     4  10  23  42  64  92 125 165 212 260 312 374
#     4  11  24  43  65  93 130 171 210 260 319 380
#     4  10  22  41  64  94 129 167 212 260 316 383
#     4  12  26  43  65  95 129 167 213 269 321 379
#     4   9  19  38  63  90 125 168 209 252 309 376
#     4  12  24  42  67  92 124 170 216 268 324 378
#     4  11  23  41  64  96 130 168 214 264 319 380
#     4  11  22  40  66  95 126 163 209 265 318 378
#
# _framework density 20.441309
#
# number of rings (size 3 to 8) (size 9 to 14) (size 15 to 20)
#    0.000    1.250    2.500    3.375    3.500    1.750 
#    0.000    0.000    0.000    1.875    0.000    0.000 
#    0.000    0.000    0.000    0.000    0.000    0.000 
#
# Total GULP energy -396947.558781 kJ/mol
# GULP energy per Si atom -12404.611212 kJ/mol
# Density = 2.039478 g / cm^3
# Si number density = 20.441309 Si / 1000 Ang^3
#
#
#
# Elastic Constant Matrix: (Units=GPa)
#
#
# Indices 1 2 3 4 5 6 
#
# 1 77.1393 34.7727 36.2244 0.0000 5.5502 0.0000
# 2 34.7727 79.5773 28.4612 -0.0001 2.6391 0.0000
# 3 36.2244 28.4612 116.2191 0.0000 -0.4852 0.0000
# 4 0.0000 -0.0001 0.0000 34.7572 0.0000 2.0810
# 5 5.5502 2.6391 -0.4852 0.0000 40.6062 0.0000
# 6 0.0000 0.0000 0.0000 2.0810 0.0000 28.8888
#
#
#
# Elastic Compliance Matrix: (Units=1/GPa)
#
#
# Indices 1 2 3 4 5 6 
#
# 1 0.017838 -0.006285 -0.004030 0.000000 -0.002078 0.000000
# 2 -0.006285 0.016022 -0.001966 0.000000 -0.000206 0.000000
# 3 -0.004030 -0.001966 0.010345 0.000000 0.000802 0.000000
# 4 0.000000 0.000000 0.000000 0.028896 0.000000 -0.002082
# 5 -0.002078 -0.000206 0.000802 0.000000 0.024934 0.000000
# 6 0.000000 0.000000 0.000000 -0.002082 0.000000 0.034765
#
#
# Mechanical properties :
#
#
# Convention : Reuss Voigt Hill
#
# Bulk Modulus (GPa) = 50.90127 52.42801 51.66464
# Shear Modulus (GPa) = 30.50460 32.41561 31.46010
#
# Velocity S-wave (km/s) = 3.86722 3.98652 3.92732
# Velocity P-wave (km/s) = 6.70043 6.84788 6.77456
#
# Compressibility (1/GPa) = 0.01964587
#
# Stress axis : x y z
#
# Youngs Moduli (GPa) = 56.05892 62.41226 96.66328
#
# Poissons Ratio (x) = 0.39224 0.38952
# Poissons Ratio (y) = 0.35231 0.19002
# Poissons Ratio (z) = 0.22590 0.12269
#
# Static dielectric constant tensor:
#      x y z
#    x 3.874240 0.000000 -0.115980 
#    y 0.000000 3.606560 0.000000 
#    z -0.115980 0.000000 3.883930 
# 
# 
# High freq. dielectric constant tensor:
#      x y z
#    x 1.803810 0.000000 -0.001310 
#    y 0.000000 1.788430 0.000000 
#    z -0.001310 0.000000 1.812350 
# 
# From -- ./inp_files/378364.got.cif
#   From: 2010.06.25/outbox.cif.g09.slc.cpg/sg12_190_cif.got.tgz:378364.got - 2010.06.28 00:19:55.
