data_PCOD8111279
_publ_section_title
;
Structure prediction by ZEFSAII (Michael W. Deem and Ramdas Pophale) SiO2 
 PCOD8111279
Probable space group: C 2/M
;
_chemical_formula_sum "Si O2"
_cell_formula_units_Z 48
_cell_length_a 10.885769
_cell_length_b 23.698515
_cell_length_c 11.402977
_cell_angle_alpha 90.000000
_cell_angle_beta 56.932589
_cell_angle_gamma 90.000000
_cell_volume 2465.231139
_symmetry_space_group_name_H-M "C 2/M"
_symmetry_group_IT_number 12
_symmetry_cell_setting 'monoclinic'
loop_
_space_group_symop_operation_xyz
x,y,z
-x,y,-z
-x,-y,-z
x,-y,z
1/2+x,1/2+y,z
1/2-x,1/2+y,-z
1/2-x,1/2-y,-z
1/2+x,1/2-y,z
loop_
_atom_site_type_symbol
_atom_site_label
_atom_site_fract_x
_atom_site_fract_y
_atom_site_fract_z
Si Si1 0.148622 0.820810 0.722206
Si Si2 0.318575 0.000000 0.477892
Si Si3 0.832228 0.199525 0.897903
Si Si4 0.356882 0.608113 0.496650
Si Si5 0.330731 0.715483 0.626155
Si Si6 0.837171 0.500000 0.743373
Si Si7 0.326949 0.606546 0.078739
O O1 0.100884 0.869279 0.654567
O O2 0.257492 0.772810 0.616582
O O3 0.223275 0.850008 0.794379
O O4 0.001975 0.789245 0.838905
O O5 0.245536 0.945807 0.457522
O O6 0.285814 0.000000 0.634383
O O7 0.487396 0.000000 0.352375
O O8 0.802391 0.204151 0.776509
O O9 0.750000 0.250000 0.000000
O O10 0.790661 0.137640 0.973799
O O11 0.500000 0.593429 0.500000
O O12 0.263056 0.659590 0.601202
O O13 0.500000 0.718163 0.500000
O O14 0.775069 0.552420 0.849744
O O15 0.500000 0.590632 0.000000
#
# Coordination Sequence:
#
# PCOD8111279 Si02
#       7
#     8   4   8   8   8   4   8
#     4  11  21  39  61  94 125 165 209 255 311 375
#     4  11  25  40  67  93 123 162 205 270 326 365
#     4  11  22  39  60  92 127 165 203 251 311 374
#     4  11  22  41  61  90 127 166 216 252 307 376
#     4  11  23  38  62  94 129 163 206 256 315 379
#     4  11  23  44  63  97 126 153 209 270 325 374
#     4  10  22  39  64  90 125 166 210 253 311 380
#
# _framework density 19.470790999999998
#
# number of rings (size 3 to 8) (size 9 to 14) (size 15 to 20)
#    0.000    1.167    6.667    1.000    0.000    2.667 
#    0.000    0.833    0.000    1.000    0.000    0.000 
#    0.000    0.000    0.000    0.000    0.000    0.000 
#
# Total GULP energy -297431.915017 kJ/mol
# GULP energy per Si atom -12392.996459 kJ/mol
# Density = 1.942647 g / cm^3
# Si number density = 19.470791 Si / 1000 Ang^3
#
#
#
# Elastic Constant Matrix: (Units=GPa)
#
#
# Indices 1 2 3 4 5 6 
#
# 1 74.0573 58.6943 31.7869 0.0000 -2.5983 0.0000
# 2 58.6943 149.9167 55.8758 0.0000 -19.7179 0.0000
# 3 31.7869 55.8758 112.4554 0.0000 -1.0304 0.0000
# 4 0.0000 0.0000 0.0000 35.0813 0.0000 -4.3555
# 5 -2.5983 -19.7179 -1.0304 0.0000 27.9971 0.0000
# 6 0.0000 0.0000 0.0000 -4.3555 0.0000 33.5336
#
#
#
# Elastic Compliance Matrix: (Units=1/GPa)
#
#
# Indices 1 2 3 4 5 6 
#
# 1 0.020318 -0.007704 -0.001949 0.000000 -0.003612 0.000000
# 2 -0.007704 0.012097 -0.003763 0.000000 0.007666 0.000000
# 3 -0.001949 -0.003763 0.011291 0.000000 -0.002416 0.000000
# 4 0.000000 0.000000 0.000000 0.028972 0.000000 0.003763
# 5 -0.003612 0.007666 -0.002416 0.000000 0.040693 0.000000
# 6 0.000000 0.000000 0.000000 0.003763 0.000000 0.030310
#
#
# Mechanical properties :
#
#
# Convention : Reuss Voigt Hill
#
# Bulk Modulus (GPa) = 59.25612 69.90481 64.58046
# Shear Modulus (GPa) = 28.38695 31.99390 30.19043
#
# Velocity S-wave (km/s) = 3.82242 4.05801 3.94197
# Velocity P-wave (km/s) = 7.06970 7.61163 7.34566
#
# Compressibility (1/GPa) = 0.01687589
#
# Stress axis : x y z
#
# Youngs Moduli (GPa) = 49.21697 82.66318 88.56761
#
# Poissons Ratio (x) = 0.63680 0.17258
# Poissons Ratio (y) = 0.37915 0.33328
# Poissons Ratio (z) = 0.09590 0.31106
#
# Static dielectric constant tensor:
#      x y z
#    x 3.600320 0.000000 0.489990 
#    y 0.000000 3.735210 0.000000 
#    z 0.489990 0.000000 4.578100 
# 
# 
# High freq. dielectric constant tensor:
#      x y z
#    x 1.739420 0.000000 0.010100 
#    y 0.000000 1.763210 0.000000 
#    z 0.010100 0.000000 1.770130 
# 
# From -- ./inp_files/133017.got.cif
#   From: 2010.06.25/outbox.cif.g09.slc.cpg/sg12_67_cif.got.tgz:133017.got - 2010.06.28 00:19:55.
