data_PCOD8111285
_publ_section_title
;
Structure prediction by ZEFSAII (Michael W. Deem and Ramdas Pophale) SiO2 
 PCOD8111285
Probable space group: C 2/M
;
_chemical_formula_sum "Si O2"
_cell_formula_units_Z 48
_cell_length_a 11.040813
_cell_length_b 14.188032
_cell_length_c 18.151152
_cell_angle_alpha 90.000000
_cell_angle_beta 133.121293
_cell_angle_gamma 90.000000
_cell_volume 2075.370833
_symmetry_space_group_name_H-M "C 2/M"
_symmetry_group_IT_number 12
_symmetry_cell_setting 'monoclinic'
loop_
_space_group_symop_operation_xyz
x,y,z
-x,y,-z
-x,-y,-z
x,-y,z
1/2+x,1/2+y,z
1/2-x,1/2+y,-z
1/2-x,1/2-y,-z
1/2+x,1/2-y,z
loop_
_atom_site_type_symbol
_atom_site_label
_atom_site_fract_x
_atom_site_fract_y
_atom_site_fract_z
Si Si1 0.603242 0.847695 0.236610
Si Si2 0.115044 0.688373 0.404029
Si Si3 0.643917 0.500000 0.323078
Si Si4 0.115044 0.188373 0.904029
Si Si5 0.896758 0.152305 0.263390
Si Si6 0.978724 0.000000 0.893900
Si Si7 0.521276 0.000000 0.606100
Si Si8 0.143917 0.500000 0.823077
O O1 0.680875 0.838465 0.350287
O O2 0.555533 0.747511 0.179570
O O3 0.750000 0.895124 0.250000
O O4 0.435237 0.909745 0.169288
O O5 0.250000 0.750000 0.500000
O O6 0.944467 0.747511 0.320430
O O7 0.086299 0.595720 0.442166
O O8 0.564763 0.590255 0.330713
O O9 0.606284 0.500000 0.221234
O O10 0.846757 0.500000 0.408400
O O11 0.180875 0.161535 0.850287
O O12 0.086299 0.095720 0.942165
O O13 0.250000 0.250000 0.000000
O O14 0.153243 0.000000 0.091601
O O15 0.606284 0.000000 0.721233
#
# Coordination Sequence:
#
# PCOD8111285 Si02
#       8
#     8   8   4   8   8   4   4   4
#     4  10  22  39  64  93 131 165 209 264 319 376
#     4  10  23  40  63  96 127 168 213 259 319 377
#     4   9  19  39  66  95 124 166 214 258 319 375
#     4  10  23  40  63  96 127 168 213 259 319 377
#     4  10  22  39  64  93 131 165 209 264 319 376
#     4   9  20  39  66  92 127 164 215 266 305 379
#     4   9  20  39  66  92 127 164 215 266 305 379
#     4   9  19  39  66  95 124 166 214 258 319 375
#
# _framework density 23.128398000000001
#
# number of rings (size 3 to 8) (size 9 to 14) (size 15 to 20)
#    0.000    2.333    0.000    0.500   14.000    2.667 
#    0.000    3.333    0.000    8.000    0.000    0.000 
#    0.000    0.000    0.000    0.000    0.000    0.000 
#
# Total GULP energy -297527.472299 kJ/mol
# GULP energy per Si atom -12396.978012 kJ/mol
# Density = 2.307576 g / cm^3
# Si number density = 23.128398 Si / 1000 Ang^3
#
#
#
# Elastic Constant Matrix: (Units=GPa)
#
#
# Indices 1 2 3 4 5 6 
#
# 1 198.2752 80.7432 56.1032 0.0000 23.3605 0.0000
# 2 80.7432 175.4148 47.9757 0.0000 11.7978 0.0000
# 3 56.1032 47.9757 79.9159 0.0000 9.1625 0.0000
# 4 0.0000 0.0000 0.0000 39.7424 0.0000 8.2351
# 5 23.3605 11.7978 9.1625 0.0000 29.2717 0.0000
# 6 0.0000 0.0000 0.0000 8.2351 0.0000 18.1300
#
#
#
# Elastic Compliance Matrix: (Units=1/GPa)
#
#
# Indices 1 2 3 4 5 6 
#
# 1 0.007362 -0.002195 -0.003401 0.000000 -0.003926 0.000000
# 2 -0.002195 0.007541 -0.002944 0.000000 -0.000366 0.000000
# 3 -0.003401 -0.002944 0.016825 0.000000 -0.001366 0.000000
# 4 0.000000 0.000000 0.000000 0.027776 0.000000 -0.012617
# 5 -0.003926 -0.000366 -0.001366 0.000000 0.037871 0.000000
# 6 0.000000 0.000000 0.000000 -0.012617 0.000000 0.060888
#
#
# Mechanical properties :
#
#
# Convention : Reuss Voigt Hill
#
# Bulk Modulus (GPa) = 68.26723 91.47221 79.86972
# Shear Modulus (GPa) = 27.74304 35.34776 31.54540
#
# Velocity S-wave (km/s) = 3.46717 3.91362 3.69714
# Velocity P-wave (km/s) = 6.75345 7.74968 7.26865
#
# Compressibility (1/GPa) = 0.01464832
#
# Stress axis : x y z
#
# Youngs Moduli (GPa) = 135.83190 132.61136 59.43647
#
# Poissons Ratio (x) = 0.29102 0.20213
# Poissons Ratio (y) = 0.29809 0.17500
# Poissons Ratio (z) = 0.46193 0.39045
#
# Static dielectric constant tensor:
#      x y z
#    x 4.220840 0.000000 -0.162720 
#    y 0.000000 4.373870 0.000000 
#    z -0.162720 0.000000 3.856320 
# 
# 
# High freq. dielectric constant tensor:
#      x y z
#    x 1.912130 0.000000 -0.011720 
#    y 0.000000 1.922770 0.000000 
#    z -0.011720 0.000000 1.906470 
# 
# From -- ./inp_files/305731.got.cif
#   From: 2010.06.25/outbox.cif.g09.slc.cpg/sg12_153_cif.got.tgz:305731.got - 2010.06.28 00:19:55.
