data_PCOD8111058
_publ_section_title
;
Structure prediction by ZEFSAII (Michael W. Deem and Ramdas Pophale) SiO2 
 PCOD8111058
Probable space group: C 2/M
;
_chemical_formula_sum "Si O2"
_cell_formula_units_Z 56
_cell_length_a 20.035585
_cell_length_b 9.117192
_cell_length_c 29.075927
_cell_angle_alpha 90.000000
_cell_angle_beta 145.879277
_cell_angle_gamma 90.000000
_cell_volume 2979.284051
_symmetry_space_group_name_H-M "C 2/M"
_symmetry_group_IT_number 12
_symmetry_cell_setting 'monoclinic'
loop_
_space_group_symop_operation_xyz
x,y,z
-x,y,-z
-x,-y,-z
x,-y,z
1/2+x,1/2+y,z
1/2-x,1/2+y,-z
1/2-x,1/2-y,-z
1/2+x,1/2-y,z
loop_
_atom_site_type_symbol
_atom_site_label
_atom_site_fract_x
_atom_site_fract_y
_atom_site_fract_z
Si Si1 0.435527 0.672071 0.159598
Si Si2 0.296110 0.167687 0.914657
Si Si3 0.091048 0.668186 0.317511
Si Si4 0.317255 0.330998 0.497967
Si Si5 0.006886 0.330415 0.897978
Si Si6 0.208304 0.828218 0.182765
Si Si7 0.478230 0.830325 0.350009
O O1 0.447678 0.500000 0.157985
O O2 0.317281 0.713274 0.119956
O O3 0.550896 0.728693 0.252958
O O4 0.425783 0.752498 0.105402
O O5 0.306114 0.274157 0.877375
O O6 0.284478 0.000000 0.890803
O O7 0.414900 0.188520 0.011865
O O8 0.058934 0.500000 0.287487
O O9 0.234346 0.686788 0.405373
O O10 0.021158 0.717527 0.323671
O O11 0.332139 0.500000 0.519520
O O12 0.250000 0.250000 0.500000
O O13 0.448520 0.258905 0.568907
O O14 0.987596 0.500000 0.874699
O O15 0.879804 0.255433 0.833397
O O16 0.339877 0.793832 0.276567
O O17 0.180063 0.000000 0.167572
O O18 0.506490 0.000000 0.373824
#
# Coordination Sequence:
#
# PCOD8111058 Si02
#       7
#     8   8   8   8   8   8   8
#     4  11  22  36  57  83 109 142 186 229 271 326
#     4  10  22  39  58  82 109 141 185 231 276 327
#     4   9  17  32  51  77 110 143 177 217 271 322
#     4   9  17  28  47  76 110 142 176 220 267 318
#     4  11  24  40  56  77 111 149 183 227 279 329
#     4  11  22  37  58  83 112 145 184 229 273 325
#     4   9  18  32  51  78 110 142 178 221 270 321
#
# _framework density 18.796461999999998
#
# number of rings (size 3 to 8) (size 9 to 14) (size 15 to 20)
#    0.000    2.000    1.429    3.429    0.000    7.429 
#    0.000    0.000    0.000    0.857    0.000    6.000 
#    0.000    0.000    0.000    0.000    0.000    0.000 
#
# Total GULP energy -347227.217138 kJ/mol
# GULP energy per Si atom -12400.972041 kJ/mol
# Density = 1.875368 g / cm^3
# Si number density = 18.796462 Si / 1000 Ang^3
#
#
#
# Elastic Constant Matrix: (Units=GPa)
#
#
# Indices 1 2 3 4 5 6 
#
# 1 52.4491 24.7714 13.8526 0.0000 9.2176 -0.0001
# 2 24.7714 86.8028 37.7759 0.0000 6.7029 -0.0002
# 3 13.8526 37.7759 75.7864 0.0000 19.7636 0.0000
# 4 0.0000 0.0000 0.0000 36.0016 0.0000 -1.2628
# 5 9.2176 6.7029 19.7636 0.0000 15.7050 0.0000
# 6 -0.0001 -0.0002 0.0000 -1.2628 0.0000 30.7497
#
#
#
# Elastic Compliance Matrix: (Units=1/GPa)
#
#
# Indices 1 2 3 4 5 6 
#
# 1 0.024246 -0.007067 0.003000 0.000000 -0.014989 0.000000
# 2 -0.007067 0.016978 -0.009471 0.000000 0.008820 0.000000
# 3 0.003000 -0.009471 0.024965 0.000000 -0.029136 0.000000
# 4 0.000000 0.000000 0.000000 0.027817 0.000000 0.001142
# 5 -0.014989 0.008820 -0.029136 0.000000 0.105371 0.000000
# 6 0.000000 0.000000 0.000000 0.001142 0.000000 0.032568
#
#
# Mechanical properties :
#
#
# Convention : Reuss Voigt Hill
#
# Bulk Modulus (GPa) = 25.56751 40.87090 33.21920
# Shear Modulus (GPa) = 18.37837 25.73383 22.05610
#
# Velocity S-wave (km/s) = 3.13030 3.70412 3.42923
# Velocity P-wave (km/s) = 5.16690 6.33128 5.77850
#
# Compressibility (1/GPa) = 0.03911215
#
# Stress axis : x y z
#
# Youngs Moduli (GPa) = 41.24419 58.90057 40.05533
#
# Poissons Ratio (x) = 0.41626 -0.12015
# Poissons Ratio (y) = 0.29148 0.37936
# Poissons Ratio (z) = -0.12372 0.55785
#
# Static dielectric constant tensor:
#      x y z
#    x 3.203380 0.000000 0.253100 
#    y 0.000000 3.571580 0.000000 
#    z 0.253100 0.000000 3.902000 
# 
# 
# High freq. dielectric constant tensor:
#      x y z
#    x 1.694670 0.000000 0.014120 
#    y 0.000000 1.739660 0.000000 
#    z 0.014120 0.000000 1.741640 
# 
# From -- ./inp_files/275134.got.cif
#   From: 2010.06.25/outbox.cif.g09.slc.cpg/sg12_138_cif.got.tgz:275134.got - 2010.06.28 00:19:55.
