data_PCOD8111812
_publ_section_title
;
Structure prediction by ZEFSAII (Michael W. Deem and Ramdas Pophale) SiO2 
 PCOD8111812
Probable space group: C 2/M
;
_chemical_formula_sum "Si O2"
_cell_formula_units_Z 56
_cell_length_a 9.694757
_cell_length_b 18.355220
_cell_length_c 25.084969
_cell_angle_alpha 90.000000
_cell_angle_beta 141.636690
_cell_angle_gamma 90.000000
_cell_volume 2770.472960
_symmetry_space_group_name_H-M "C 2/M"
_symmetry_group_IT_number 12
_symmetry_cell_setting 'monoclinic'
loop_
_space_group_symop_operation_xyz
x,y,z
-x,y,-z
-x,-y,-z
x,-y,z
1/2+x,1/2+y,z
1/2-x,1/2+y,-z
1/2-x,1/2-y,-z
1/2+x,1/2-y,z
loop_
_atom_site_type_symbol
_atom_site_label
_atom_site_fract_x
_atom_site_fract_y
_atom_site_fract_z
Si Si1 0.190804 0.338007 0.713925
Si Si2 0.957589 0.413820 0.736466
Si Si3 0.604256 0.184949 0.475207
Si Si4 0.222557 0.827611 0.092787
Si Si5 0.631235 0.216686 0.156683
Si Si6 0.059215 0.916270 0.766618
Si Si7 0.973997 0.918161 0.621850
O O1 0.013980 0.381497 0.695860
O O2 0.247912 0.260276 0.758215
O O3 0.410384 0.387149 0.770733
O O4 0.091594 0.326605 0.625754
O O5 0.960901 0.500000 0.735417
O O6 0.143195 0.389194 0.834917
O O7 0.715622 0.383166 0.680852
O O8 0.500000 0.205318 0.500000
O O9 0.750000 0.250000 0.500000
O O10 0.768270 0.116442 0.528589
O O11 0.373549 0.793865 0.092061
O O12 0.149759 0.762141 0.108757
O O13 0.000000 0.862552 0.000000
O O14 0.730557 0.136448 0.176816
O O15 0.925281 0.913849 0.670240
O O16 0.135455 0.000000 0.801430
O O17 0.980897 0.000000 0.603097
#
# Coordination Sequence:
#
# PCOD8111812 Si02
#       7
#     8   8   8   8   8   8   8
#     4  11  24  40  65  89 127 169 211 264 312 375
#     4  10  23  42  65  91 123 163 208 258 319 381
#     4  12  27  39  61  91 125 162 215 265 311 359
#     4  11  23  39  66  95 125 161 207 262 316 384
#     4  11  22  40  64  93 128 165 208 256 322 381
#     4  11  21  39  65  91 122 170 217 256 308 378
#     4  10  22  41  62  87 123 167 209 252 311 375
#
# _framework density 20.213153999999999
#
# number of rings (size 3 to 8) (size 9 to 14) (size 15 to 20)
#    0.000    1.143    4.286    1.714    2.000    1.714 
#    0.000    1.429    0.000    0.429    0.000    0.000 
#    0.000    0.000    0.000    0.000    0.000    0.000 
#
# Total GULP energy -347205.381418 kJ/mol
# GULP energy per Si atom -12400.192193 kJ/mol
# Density = 2.016715 g / cm^3
# Si number density = 20.213154 Si / 1000 Ang^3
#
#
#
# Elastic Constant Matrix: (Units=GPa)
#
#
# Indices 1 2 3 4 5 6 
#
# 1 137.1407 41.3741 24.8777 -0.0001 16.6044 -0.0001
# 2 41.3741 94.3358 20.4722 0.0003 7.0445 0.0000
# 3 24.8777 20.4722 81.9082 0.0013 9.6262 -0.0002
# 4 -0.0001 0.0003 0.0013 22.6647 0.0001 4.9203
# 5 16.6044 7.0445 9.6262 0.0001 25.9791 -0.0001
# 6 -0.0001 0.0000 -0.0002 4.9203 -0.0001 28.1709
#
#
#
# Elastic Compliance Matrix: (Units=1/GPa)
#
#
# Indices 1 2 3 4 5 6 
#
# 1 0.009089 -0.003354 -0.001408 0.000000 -0.004378 0.000000
# 2 -0.003354 0.012556 -0.002061 0.000000 -0.000497 0.000000
# 3 -0.001408 -0.002061 0.013571 -0.000001 -0.003570 0.000000
# 4 0.000000 0.000000 -0.000001 0.045860 0.000000 -0.008010
# 5 -0.004378 -0.000497 -0.003570 0.000000 0.042748 0.000000
# 6 0.000000 0.000000 0.000000 -0.008010 0.000000 0.036897
#
#
# Mechanical properties :
#
#
# Convention : Reuss Voigt Hill
#
# Bulk Modulus (GPa) = 46.35974 54.09252 50.22613
# Shear Modulus (GPa) = 27.53955 30.47364 29.00660
#
# Velocity S-wave (km/s) = 3.69515 3.88701 3.79230
# Velocity P-wave (km/s) = 6.41800 6.85305 6.63909
#
# Compressibility (1/GPa) = 0.02157044
#
# Stress axis : x y z
#
# Youngs Moduli (GPa) = 110.02220 79.64441 73.68613
#
# Poissons Ratio (x) = 0.26712 0.10373
# Poissons Ratio (y) = 0.36900 0.15188
# Poissons Ratio (z) = 0.15489 0.16416
#
# Static dielectric constant tensor:
#      x y z
#    x 3.989460 0.000040 0.191150 
#    y 0.000040 7.353200 0.000060 
#    z 0.191150 0.000060 3.681570 
# 
# 
# High freq. dielectric constant tensor:
#      x y z
#    x 1.811870 0.000000 0.009890 
#    y 0.000000 1.791050 0.000000 
#    z 0.009890 0.000000 1.768070 
# 
# From -- ./inp_files/197526.got.cif
#   From: 2010.06.25/outbox.cif.g09.slc.cpg/sg12_99_cif.got.tgz:197526.got - 2010.06.28 00:19:55.
