data_PCOD8111756
_publ_section_title
;
Structure prediction by ZEFSAII (Michael W. Deem and Ramdas Pophale) SiO2 
 PCOD8111756
Probable space group: C 2/M
;
_chemical_formula_sum "Si O2"
_cell_formula_units_Z 48
_cell_length_a 10.665309
_cell_length_b 24.724773
_cell_length_c 9.540177
_cell_angle_alpha 90.000000
_cell_angle_beta 110.106372
_cell_angle_gamma 90.000000
_cell_volume 2362.401405
_symmetry_space_group_name_H-M "C 2/M"
_symmetry_group_IT_number 12
_symmetry_cell_setting 'monoclinic'
loop_
_space_group_symop_operation_xyz
x,y,z
-x,y,-z
-x,-y,-z
x,-y,z
1/2+x,1/2+y,z
1/2-x,1/2+y,-z
1/2-x,1/2-y,-z
1/2+x,1/2-y,z
loop_
_atom_site_type_symbol
_atom_site_label
_atom_site_fract_x
_atom_site_fract_y
_atom_site_fract_z
Si Si1 0.409784 0.812436 0.599810
Si Si2 0.541142 0.410664 0.225463
Si Si3 0.565044 0.000000 0.367832
Si Si4 0.973649 0.602030 0.153922
Si Si5 0.601906 0.312759 0.416580
Si Si6 0.198163 0.061566 0.017243
Si Si7 0.629624 0.500000 0.456586
O O1 0.500000 0.829120 0.500000
O O2 0.463617 0.843263 0.758321
O O3 0.422825 0.748982 0.635473
O O4 0.254347 0.825923 0.517206
O O5 0.564954 0.347529 0.265437
O O6 0.381102 0.423390 0.157530
O O7 0.621333 0.444505 0.369707
O O8 0.594644 0.430958 0.100062
O O9 0.500000 0.000000 0.500000
O O10 0.521360 0.052781 0.267763
O O11 0.724928 0.000000 0.419933
O O12 0.813964 0.604103 0.096472
O O13 0.000000 0.593798 0.000000
O O14 0.500000 0.330241 0.500000
O O15 0.252837 0.000000 0.029071
O O16 0.500000 0.500000 0.500000
#
# Coordination Sequence:
#
# PCOD8111756 Si02
#       7
#     8   8   4   8   8   8   4
#     4  10  22  45  67  93 128 171 214 269 323 385
#     4  11  21  39  61  92 122 165 213 257 318 383
#     4  12  25  42  64  91 123 171 216 253 316 389
#     4  12  26  40  64  94 133 167 211 267 326 379
#     4  10  22  40  70  92 125 164 220 271 317 370
#     4  11  22  41  62  85 132 175 203 255 325 400
#     4  12  24  33  62  91 122 152 210 269 299 370
#
# _framework density 20.318308999999999
#
# number of rings (size 3 to 8) (size 9 to 14) (size 15 to 20)
#    0.000    1.000    2.500    4.750    4.667    0.000 
#    3.000    0.833    0.000    0.000    0.000    0.000 
#    0.000    0.000    0.000    0.000    0.000    0.000 
#
# Total GULP energy -297435.761960 kJ/mol
# GULP energy per Si atom -12393.156748 kJ/mol
# Density = 2.027206 g / cm^3
# Si number density = 20.318309 Si / 1000 Ang^3
#
#
#
# Elastic Constant Matrix: (Units=GPa)
#
#
# Indices 1 2 3 4 5 6 
#
# 1 132.5456 28.9349 43.7815 0.0000 19.8775 0.0000
# 2 28.9349 105.8914 53.6784 0.0000 11.9508 0.0000
# 3 43.7815 53.6784 105.1620 0.0000 9.0337 0.0000
# 4 0.0000 0.0000 0.0000 28.5778 0.0000 3.1752
# 5 19.8775 11.9508 9.0337 0.0000 41.3168 0.0000
# 6 0.0000 0.0000 0.0000 3.1752 0.0000 25.3877
#
#
#
# Elastic Compliance Matrix: (Units=1/GPa)
#
#
# Indices 1 2 3 4 5 6 
#
# 1 0.009282 -0.000441 -0.003329 0.000000 -0.003610 0.000000
# 2 -0.000441 0.012981 -0.006255 0.000000 -0.002175 0.000000
# 3 -0.003329 -0.006255 0.014059 0.000000 0.000337 0.000000
# 4 0.000000 0.000000 0.000000 0.035485 0.000000 -0.004438
# 5 -0.003610 -0.002175 0.000337 0.000000 0.026495 0.000000
# 6 0.000000 0.000000 0.000000 -0.004438 0.000000 0.039944
#
#
# Mechanical properties :
#
#
# Convention : Reuss Voigt Hill
#
# Bulk Modulus (GPa) = 61.46085 66.26540 63.86312
# Shear Modulus (GPa) = 30.53986 33.53674 32.03830
#
# Velocity S-wave (km/s) = 3.88115 4.06713 3.97523
# Velocity P-wave (km/s) = 7.09923 7.39863 7.25048
#
# Compressibility (1/GPa) = 0.01627052
#
# Stress axis : x y z
#
# Youngs Moduli (GPa) = 107.73678 77.03843 71.12914
#
# Poissons Ratio (x) = 0.03400 0.23678
# Poissons Ratio (y) = 0.04755 0.44492
# Poissons Ratio (z) = 0.35864 0.48189
#
# Static dielectric constant tensor:
#      x y z
#    x 1.077500 0.000000 -3.052520 
#    y 0.000000 3.663600 0.000000 
#    z -3.052520 0.000000 0.045790 
# 
# 
# High freq. dielectric constant tensor:
#      x y z
#    x 1.811370 0.000000 0.015330 
#    y 0.000000 1.792290 0.000000 
#    z 0.015330 0.000000 1.793070 
# 
# From -- ./inp_files/51496.got.cif
#   From: 2010.06.25/outbox.cif.g09.slc.cpg/sg12_26_cif.got.tgz:51496.got - 2010.06.28 00:19:55.
