data_PCOD8111175
_publ_section_title
;
Structure prediction by ZEFSAII (Michael W. Deem and Ramdas Pophale) SiO2 
 PCOD8111175
Probable space group: C 2/M
;
_chemical_formula_sum "Si O2"
_cell_formula_units_Z 56
_cell_length_a 28.843463
_cell_length_b 9.135961
_cell_length_c 12.523845
_cell_angle_alpha 90.000000
_cell_angle_beta 119.853353
_cell_angle_gamma 90.000000
_cell_volume 2862.264878
_symmetry_space_group_name_H-M "C 2/M"
_symmetry_group_IT_number 12
_symmetry_cell_setting 'monoclinic'
loop_
_space_group_symop_operation_xyz
x,y,z
-x,y,-z
-x,-y,-z
x,-y,z
1/2+x,1/2+y,z
1/2-x,1/2+y,-z
1/2-x,1/2-y,-z
1/2+x,1/2-y,z
loop_
_atom_site_type_symbol
_atom_site_label
_atom_site_fract_x
_atom_site_fract_y
_atom_site_fract_z
Si Si1 0.761146 0.670173 0.726738
Si Si2 0.442619 0.172863 0.394661
Si Si3 0.211631 0.833981 0.034190
Si Si4 0.861005 0.667553 0.704159
Si Si5 0.560231 0.327128 0.048084
Si Si6 0.908746 0.165058 0.148314
Si Si7 0.349203 0.172257 0.447630
O O1 0.753312 0.500000 0.745981
O O2 0.791334 0.750597 0.857452
O O3 0.799309 0.692156 0.668010
O O4 0.703782 0.740376 0.642255
O O5 0.500000 0.230196 0.500000
O O6 0.434276 0.236204 0.268102
O O7 0.396542 0.224720 0.423532
O O8 0.442179 0.000000 0.384277
O O9 0.231770 0.000000 0.076012
O O10 0.250000 0.750000 0.000000
O O11 0.154708 0.833282 0.911982
O O12 0.877589 0.500000 0.740839
O O13 0.901525 0.763780 0.817979
O O14 0.866642 0.713097 0.587372
O O15 0.567645 0.500000 0.060957
O O16 0.500000 0.276870 0.000000
O O17 0.575743 0.268083 0.948879
O O18 0.930979 0.000000 0.185346
O O19 0.337438 0.000000 0.423064
#
# Coordination Sequence:
#
# PCOD8111175 Si02
#       7
#     8   8   8   8   8   8   8
#     4  11  22  37  58  89 121 153 198 243 294 358
#     4  10  23  41  61  86 116 154 198 243 291 346
#     4  11  22  37  59  86 120 158 196 242 293 349
#     4  10  22  39  61  90 121 155 198 246 296 355
#     4  10  22  40  62  89 120 154 196 244 299 357
#     4  10  22  40  60  86 118 152 192 240 292 348
#     4  10  22  40  60  85 120 159 199 245 297 349
#
# _framework density 19.564926
#
# number of rings (size 3 to 8) (size 9 to 14) (size 15 to 20)
#    0.000    1.714    1.429    2.143    2.000    6.286 
#    0.000    0.000    0.000    0.000    0.000    0.000 
#    0.000    0.000    0.000    0.000    0.000    0.000 
#
# Total GULP energy -347302.825183 kJ/mol
# GULP energy per Si atom -12403.672328 kJ/mol
# Density = 1.952040 g / cm^3
# Si number density = 19.564926 Si / 1000 Ang^3
#
#
#
# Elastic Constant Matrix: (Units=GPa)
#
#
# Indices 1 2 3 4 5 6 
#
# 1 99.2484 35.6809 46.4699 0.0000 11.4296 0.0000
# 2 35.6809 62.3837 42.1933 0.0000 6.6309 0.0000
# 3 46.4699 42.1933 128.6873 0.0000 4.7141 0.0000
# 4 0.0000 0.0000 0.0000 39.5764 0.0000 0.4043
# 5 11.4296 6.6309 4.7141 0.0000 33.4689 0.0000
# 6 0.0000 0.0000 0.0000 0.4043 0.0000 26.5925
#
#
#
# Elastic Compliance Matrix: (Units=1/GPa)
#
#
# Indices 1 2 3 4 5 6 
#
# 1 0.013869 -0.005504 -0.003086 0.000000 -0.003211 0.000000
# 2 -0.005504 0.023117 -0.005521 0.000000 -0.001923 0.000000
# 3 -0.003086 -0.005521 0.010672 0.000000 0.000645 0.000000
# 4 0.000000 0.000000 0.000000 0.025272 0.000000 -0.000384
# 5 -0.003211 -0.001923 0.000645 0.000000 0.031265 0.000000
# 6 0.000000 0.000000 0.000000 -0.000384 0.000000 0.037610
#
#
# Mechanical properties :
#
#
# Convention : Reuss Voigt Hill
#
# Bulk Modulus (GPa) = 51.45395 59.88971 55.67183
# Shear Modulus (GPa) = 28.32762 30.99257 29.66010
#
# Velocity S-wave (km/s) = 3.80923 3.98438 3.89779
# Velocity P-wave (km/s) = 6.76041 7.20029 6.98382
#
# Compressibility (1/GPa) = 0.01943485
#
# Stress axis : x y z
#
# Youngs Moduli (GPa) = 72.10201 43.25877 93.70441
#
# Poissons Ratio (x) = 0.23810 0.28917
# Poissons Ratio (y) = 0.39686 0.51738
# Poissons Ratio (z) = 0.22251 0.23885
#
# Static dielectric constant tensor:
#      x y z
#    x 3.778370 0.000000 -0.134900 
#    y 0.000000 3.559020 0.000000 
#    z -0.134900 0.000000 3.639420 
# 
# 
# High freq. dielectric constant tensor:
#      x y z
#    x 1.775440 0.000000 -0.005030 
#    y 0.000000 1.757830 0.000000 
#    z -0.005030 0.000000 1.768800 
# 
# From -- ./inp_files/180717.got.cif
#   From: 2010.06.25/outbox.cif.g09.slc.cpg/sg12_91_cif.got.tgz:180717.got - 2010.06.28 00:19:55.
