data_PCOD8111432
_publ_section_title
;
Structure prediction by ZEFSAII (Michael W. Deem and Ramdas Pophale) SiO2 
 PCOD8111432
Probable space group: C 2/M
;
_chemical_formula_sum "Si O2"
_cell_formula_units_Z 64
_cell_length_a 9.707686
_cell_length_b 14.937039
_cell_length_c 28.914184
_cell_angle_alpha 90.000000
_cell_angle_beta 49.146885
_cell_angle_gamma 90.000000
_cell_volume 3171.293035
_symmetry_space_group_name_H-M "C 2/M"
_symmetry_group_IT_number 12
_symmetry_cell_setting 'monoclinic'
loop_
_space_group_symop_operation_xyz
x,y,z
-x,y,-z
-x,-y,-z
x,-y,z
1/2+x,1/2+y,z
1/2-x,1/2+y,-z
1/2-x,1/2-y,-z
1/2+x,1/2-y,z
loop_
_atom_site_type_symbol
_atom_site_label
_atom_site_fract_x
_atom_site_fract_y
_atom_site_fract_z
Si Si1 0.618865 0.653948 0.332116
Si Si2 0.339103 0.604422 0.999051
Si Si3 0.360415 0.729943 0.824321
Si Si4 0.923270 0.902800 0.290304
Si Si5 0.456623 0.242344 0.904623
Si Si6 0.526564 0.097747 0.242169
Si Si7 0.453990 0.854800 0.659862
Si Si8 0.357643 0.394924 0.569079
O O1 0.482677 0.594818 0.331108
O O2 0.821900 0.625842 0.274852
O O3 0.579161 0.752012 0.321980
O O4 0.587807 0.649069 0.393924
O O5 0.290885 0.500000 0.995646
O O6 0.171754 0.656495 0.059413
O O7 0.500000 0.602072 0.000000
O O8 0.397426 0.665965 0.942968
O O9 0.469310 0.669515 0.763825
O O10 0.467364 0.729244 0.848832
O O11 0.340312 0.831312 0.810115
O O12 0.151149 0.702247 0.877876
O O13 0.705093 0.887702 0.339277
O O14 0.965322 0.000000 0.259459
O O15 0.556242 0.090899 0.290341
O O16 0.567543 0.000000 0.211904
O O17 0.656452 0.869200 0.594747
O O18 0.500000 0.359080 0.500000
O O19 0.373340 0.500000 0.572894
#
# Coordination Sequence:
#
# PCOD8111432 Si02
#       8
#     8   8   8   8   8   8   8   8
#     4  11  20  39  61  85 120 160 206 250 303 374
#     4  10  22  45  70  91 118 167 215 248 304 370
#     4  12  23  39  60  96 133 156 201 255 307 355
#     4  12  23  37  59  90 126 163 197 245 311 370
#     4  11  24  40  66  94 126 158 201 262 308 350
#     4  11  22  39  62  86 121 172 209 237 293 376
#     4  11  20  39  61  85 120 160 206 250 303 374
#     4  10  22  40  61  86 116 158 214 263 301 362
#
# _framework density 20.181044
#
# number of rings (size 3 to 8) (size 9 to 14) (size 15 to 20)
#    0.000    1.000    3.750    5.250    0.000    2.500 
#    0.000    1.250    0.000    2.250    0.000    0.000 
#    0.000    0.000    0.000    0.000    0.000    0.000 
#
# Total GULP energy -396699.132938 kJ/mol
# GULP energy per Si atom -12396.847904 kJ/mol
# Density = 2.013511 g / cm^3
# Si number density = 20.181044 Si / 1000 Ang^3
#
#
#
# Elastic Constant Matrix: (Units=GPa)
#
#
# Indices 1 2 3 4 5 6 
#
# 1 98.0762 14.1884 49.0930 -0.0001 -12.8503 0.0001
# 2 14.1884 140.9561 39.6832 0.0000 -4.2702 0.0002
# 3 49.0930 39.6832 83.9855 0.0004 -5.7155 0.0004
# 4 -0.0001 0.0000 0.0004 18.5075 0.0000 -2.4964
# 5 -12.8503 -4.2702 -5.7155 0.0000 25.8752 0.0000
# 6 0.0001 0.0002 0.0004 -2.4964 0.0000 18.5869
#
#
#
# Elastic Compliance Matrix: (Units=1/GPa)
#
#
# Indices 1 2 3 4 5 6 
#
# 1 0.015366 0.001207 -0.009157 0.000000 0.005808 0.000000
# 2 0.001207 0.008284 -0.004555 0.000000 0.000961 0.000000
# 3 -0.009157 -0.004555 0.019342 -0.000001 -0.001027 0.000000
# 4 0.000000 0.000000 -0.000001 0.055029 0.000000 0.007391
# 5 0.005808 0.000961 -0.001027 0.000000 0.041463 0.000000
# 6 0.000000 0.000000 0.000000 0.007391 0.000000 0.054794
#
#
# Mechanical properties :
#
#
# Convention : Reuss Voigt Hill
#
# Bulk Modulus (GPa) = 55.60860 58.77191 57.19025
# Shear Modulus (GPa) = 22.19434 27.26411 24.72922
#
# Velocity S-wave (km/s) = 3.31986 3.67955 3.50432
# Velocity P-wave (km/s) = 6.50461 6.87297 6.69133
#
# Compressibility (1/GPa) = 0.01798283
#
# Stress axis : x y z
#
# Youngs Moduli (GPa) = 65.07739 120.71091 51.70116
#
# Poissons Ratio (x) = -0.14573 0.47345
# Poissons Ratio (y) = -0.07857 0.23548
# Poissons Ratio (z) = 0.59594 0.54980
#
# Static dielectric constant tensor:
#      x y z
#    x 3.871210 0.000000 -0.121000 
#    y 0.000000 3.895110 0.000000 
#    z -0.121000 0.000000 3.565240 
# 
# 
# High freq. dielectric constant tensor:
#      x y z
#    x 1.801030 0.000000 -0.007560 
#    y 0.000000 1.799100 0.000000 
#    z -0.007560 0.000000 1.767720 
# 
# From -- ./inp_files/372531.got.cif
#   From: 2010.06.25/outbox.cif.g09.slc.cpg/sg12_187_cif.got.tgz:372531.got - 2010.06.28 00:19:55.
