data_PCOD8111250
_publ_section_title
;
Structure prediction by ZEFSAII (Michael W. Deem and Ramdas Pophale) SiO2 
 PCOD8111250
Probable space group: C 2/M
;
_chemical_formula_sum "Si O2"
_cell_formula_units_Z 56
_cell_length_a 17.296896
_cell_length_b 30.763809
_cell_length_c 8.512837
_cell_angle_alpha 90.000000
_cell_angle_beta 38.077439
_cell_angle_gamma 90.000000
_cell_volume 2793.668227
_symmetry_space_group_name_H-M "C 2/M"
_symmetry_group_IT_number 12
_symmetry_cell_setting 'monoclinic'
loop_
_space_group_symop_operation_xyz
x,y,z
-x,y,-z
-x,-y,-z
x,-y,z
1/2+x,1/2+y,z
1/2-x,1/2+y,-z
1/2-x,1/2-y,-z
1/2+x,1/2-y,z
loop_
_atom_site_type_symbol
_atom_site_label
_atom_site_fract_x
_atom_site_fract_y
_atom_site_fract_z
Si Si1 0.974890 0.719299 0.359967
Si Si2 0.328786 0.379083 0.460628
Si Si3 0.481172 0.692891 0.853555
Si Si4 0.267340 0.847345 0.704696
Si Si5 0.621502 0.911022 0.219498
Si Si6 0.139831 0.949357 0.338786
Si Si7 0.406417 0.847914 0.008619
O O1 0.862181 0.688215 0.480079
O O2 0.000000 0.710805 0.500000
O O3 0.959321 0.770431 0.353888
O O4 0.088922 0.700470 0.073614
O O5 0.458648 0.354143 0.269381
O O6 0.285848 0.379541 0.346707
O O7 0.339847 0.426388 0.523873
O O8 0.235099 0.350248 0.711119
O O9 0.500000 0.709855 0.000000
O O10 0.336648 0.683544 0.048849
O O11 0.327737 0.875867 0.741362
O O12 0.500000 0.935270 0.500000
O O13 0.742782 0.939684 0.969210
O O14 0.561764 0.885734 0.167937
O O15 0.000000 0.935871 0.500000
O O16 0.142111 0.000000 0.371383
O O17 0.500000 0.857053 0.000000
#
# Coordination Sequence:
#
# PCOD8111250 Si02
#       7
#     8   8   8   8   8   8   8
#     4  12  23  36  54  84 118 161 211 245 296 349
#     4  10  22  39  63  85 117 158 203 249 307 362
#     4  10  25  37  55  83 118 163 207 261 295 354
#     4  11  21  40  59  85 122 162 205 250 308 359
#     4  11  20  38  65  93 124 159 204 249 310 369
#     4  10  23  43  68  94 124 159 200 250 309 377
#     4  11  19  35  58  83 114 158 200 242 298 360
#
# _framework density 20.045328999999999
#
# number of rings (size 3 to 8) (size 9 to 14) (size 15 to 20)
#    0.000    1.286    4.286    1.286    2.000    4.857 
#    0.000    0.714    0.000   20.143    0.000    0.000 
#    0.000    0.000    0.000    0.000    0.000    0.000 
#
# Total GULP energy -346902.022873 kJ/mol
# GULP energy per Si atom -12389.357960 kJ/mol
# Density = 1.999971 g / cm^3
# Si number density = 20.045329 Si / 1000 Ang^3
#
#
#
# Elastic Constant Matrix: (Units=GPa)
#
#
# Indices 1 2 3 4 5 6 
#
# 1 102.6268 46.0067 46.9667 0.0000 4.4795 0.0000
# 2 46.0067 92.1014 38.5724 0.0000 2.9553 0.0000
# 3 46.9667 38.5724 95.6807 0.0000 0.3414 0.0000
# 4 0.0000 0.0000 0.0000 26.4679 0.0000 -1.9767
# 5 4.4795 2.9553 0.3414 0.0000 24.1911 0.0000
# 6 0.0000 0.0000 0.0000 -1.9767 0.0000 16.7480
#
#
#
# Elastic Compliance Matrix: (Units=1/GPa)
#
#
# Indices 1 2 3 4 5 6 
#
# 1 0.014380 -0.005013 -0.005031 0.000000 -0.001979 0.000000
# 2 -0.005013 0.014867 -0.003530 0.000000 -0.000838 0.000000
# 3 -0.005031 -0.003530 0.014340 0.000000 0.001160 0.000000
# 4 0.000000 0.000000 0.000000 0.038118 0.000000 0.004499
# 5 -0.001979 -0.000838 0.001160 0.000000 0.041790 0.000000
# 6 0.000000 0.000000 0.000000 0.004499 0.000000 0.060240
#
#
# Mechanical properties :
#
#
# Convention : Reuss Voigt Hill
#
# Bulk Modulus (GPa) = 60.82764 61.50005 61.16385
# Shear Modulus (GPa) = 23.10961 24.07225 23.59093
#
# Velocity S-wave (km/s) = 3.39907 3.46915 3.43429
# Velocity P-wave (km/s) = 6.76874 6.84059 6.80476
#
# Compressibility (1/GPa) = 0.01643989
#
# Stress axis : x y z
#
# Youngs Moduli (GPa) = 69.54144 67.26437 69.73628
#
# Poissons Ratio (x) = 0.33717 0.35083
# Poissons Ratio (y) = 0.34859 0.24615
# Poissons Ratio (z) = 0.34985 0.23743
#
# Static dielectric constant tensor:
#      x y z
#    x 3.727180 0.000000 -0.055590 
#    y 0.000000 3.309850 0.000000 
#    z -0.055590 0.000000 4.398030 
# 
# 
# High freq. dielectric constant tensor:
#      x y z
#    x 1.785370 0.000000 -0.003820 
#    y 0.000000 1.748410 0.000000 
#    z -0.003820 0.000000 1.806790 
# 
# From -- ./inp_files/80003.got.cif
#   From: 2010.06.25/outbox.cif.g09.slc.cpg/sg12_41_cif.got.tgz:80003.got - 2010.06.28 00:19:55.
