data_PCOD8111091
_publ_section_title
;
Structure prediction by ZEFSAII (Michael W. Deem and Ramdas Pophale) SiO2 
 PCOD8111091
Probable space group: C 2/M
;
_chemical_formula_sum "Si O2"
_cell_formula_units_Z 64
_cell_length_a 25.019666
_cell_length_b 9.131561
_cell_length_c 14.754379
_cell_angle_alpha 90.000000
_cell_angle_beta 109.765274
_cell_angle_gamma 90.000000
_cell_volume 3172.318134
_symmetry_space_group_name_H-M "C 2/M"
_symmetry_group_IT_number 12
_symmetry_cell_setting 'monoclinic'
loop_
_space_group_symop_operation_xyz
x,y,z
-x,y,-z
-x,-y,-z
x,-y,z
1/2+x,1/2+y,z
1/2-x,1/2+y,-z
1/2-x,1/2-y,-z
1/2+x,1/2-y,z
loop_
_atom_site_type_symbol
_atom_site_label
_atom_site_fract_x
_atom_site_fract_y
_atom_site_fract_z
Si Si1 0.061642 0.165663 0.876171
Si Si2 0.870651 0.667209 0.632422
Si Si3 0.632596 0.329023 0.747363
Si Si4 0.144383 0.333567 0.578569
Si Si5 0.051043 0.668113 0.164499
Si Si6 0.639091 0.331943 0.088937
Si Si7 0.248923 0.325125 0.096800
Si Si8 0.766735 0.166747 0.599216
O O1 0.084255 0.216554 0.791358
O O2 0.012608 0.273506 0.881884
O O3 0.037466 0.000000 0.859152
O O4 0.115222 0.173378 0.973457
O O5 0.849310 0.500000 0.614064
O O6 0.874671 0.728798 0.531532
O O7 0.930215 0.680876 0.719081
O O8 0.824222 0.755126 0.667318
O O9 0.632653 0.500000 0.730958
O O10 0.615172 0.255697 0.642270
O O11 0.694116 0.278990 0.818004
O O12 0.123694 0.500000 0.574544
O O13 0.212585 0.320842 0.634177
O O14 0.052928 0.500000 0.132757
O O15 0.092268 0.764336 0.127525
O O16 0.651854 0.500000 0.125225
O O17 0.696642 0.237715 0.125790
O O18 0.243391 0.500000 0.082438
O O19 0.250000 0.250000 0.000000
O O20 0.750000 0.250000 0.500000
O O21 0.781571 0.000000 0.585722
#
# Coordination Sequence:
#
# PCOD8111091 Si02
#       8
#     8   8   8   8   8   8   8   8
#     4  10  22  43  62  82 116 157 196 240 297 356
#     4   9  20  38  55  78 117 153 190 243 295 344
#     4  10  22  39  59  85 119 157 195 237 291 347
#     4   9  19  35  55  82 113 151 195 236 285 347
#     4  11  24  40  61  90 117 151 200 252 298 347
#     4  11  23  41  63  88 121 159 195 241 298 357
#     4  11  22  39  61  90 124 159 195 240 296 353
#     4   9  17  30  50  77 109 146 187 230 282 342
#
# _framework density 20.174522
#
# number of rings (size 3 to 8) (size 9 to 14) (size 15 to 20)
#    0.000    2.000    1.250    2.625    1.750    7.500 
#    0.000    0.625    0.000    3.750    0.000    0.000 
#    0.000    0.000    0.000    0.000    0.000    0.000 
#
# Total GULP energy -396745.866063 kJ/mol
# GULP energy per Si atom -12398.308314 kJ/mol
# Density = 2.012860 g / cm^3
# Si number density = 20.174522 Si / 1000 Ang^3
#
#
#
# Elastic Constant Matrix: (Units=GPa)
#
#
# Indices 1 2 3 4 5 6 
#
# 1 71.8820 31.6833 9.0621 0.0000 -8.9138 0.0000
# 2 31.6833 87.9013 19.6870 0.0000 -8.4829 0.0000
# 3 9.0621 19.6870 54.6405 0.0000 -15.9991 0.0000
# 4 0.0000 0.0000 0.0000 30.5718 0.0000 -4.4884
# 5 -8.9138 -8.4829 -15.9991 0.0000 31.0816 0.0000
# 6 0.0000 0.0000 0.0000 -4.4884 0.0000 35.8207
#
#
#
# Elastic Compliance Matrix: (Units=1/GPa)
#
#
# Indices 1 2 3 4 5 6 
#
# 1 0.016859 -0.005815 0.000294 0.000000 0.003400 0.000000
# 2 -0.005815 0.014423 -0.004201 0.000000 0.000106 0.000000
# 3 0.000294 -0.004201 0.022908 0.000000 0.010730 0.000000
# 4 0.000000 0.000000 0.000000 0.033323 0.000000 0.004175
# 5 0.003400 0.000106 0.010730 0.000000 0.038700 0.000000
# 6 0.000000 0.000000 0.000000 0.004175 0.000000 0.028440
#
#
# Mechanical properties :
#
#
# Convention : Reuss Voigt Hill
#
# Bulk Modulus (GPa) = 28.77907 37.25429 33.01668
# Shear Modulus (GPa) = 26.92816 29.76090 28.34453
#
# Velocity S-wave (km/s) = 3.65740 3.84496 3.75235
# Velocity P-wave (km/s) = 5.66846 6.18205 5.93082
#
# Compressibility (1/GPa) = 0.03474747
#
# Stress axis : x y z
#
# Youngs Moduli (GPa) = 59.31550 69.33173 43.65278
#
# Poissons Ratio (x) = 0.40313 -0.01285
# Poissons Ratio (y) = 0.34489 0.18340
# Poissons Ratio (z) = -0.01746 0.29128
#
# Static dielectric constant tensor:
#      x y z
#    x 3.615080 0.000000 -0.014890 
#    y 0.000000 3.795480 0.000000 
#    z -0.014890 0.000000 3.614340 
# 
# 
# High freq. dielectric constant tensor:
#      x y z
#    x 1.773920 0.000000 -0.003960 
#    y 0.000000 1.789840 0.000000 
#    z -0.003960 0.000000 1.787310 
# 
# From -- ./inp_files/244140.got.cif
#   From: 2010.06.25/outbox.cif.g09.slc.cpg/sg12_123_cif.got.tgz:244140.got - 2010.06.28 00:19:55.
