data_PCOD8111772
_publ_section_title
;
Structure prediction by ZEFSAII (Michael W. Deem and Ramdas Pophale) SiO2 
 PCOD8111772
Probable space group: C 2/M
;
_chemical_formula_sum "Si O2"
_cell_formula_units_Z 32
_cell_length_a 14.908413
_cell_length_b 10.173899
_cell_length_c 12.775520
_cell_angle_alpha 90.000000
_cell_angle_beta 61.456564
_cell_angle_gamma 90.000000
_cell_volume 1702.225157
_symmetry_space_group_name_H-M "C 2/M"
_symmetry_group_IT_number 12
_symmetry_cell_setting 'monoclinic'
loop_
_space_group_symop_operation_xyz
x,y,z
-x,y,-z
-x,-y,-z
x,-y,z
1/2+x,1/2+y,z
1/2-x,1/2+y,-z
1/2-x,1/2-y,-z
1/2+x,1/2-y,z
loop_
_atom_site_type_symbol
_atom_site_label
_atom_site_fract_x
_atom_site_fract_y
_atom_site_fract_z
Si Si1 0.344903 0.500000 0.653787
Si Si2 0.566509 0.356262 0.813996
Si Si3 0.245753 0.728875 0.831692
Si Si4 0.071927 0.000000 0.613694
Si Si5 0.892216 0.647999 0.906287
O O1 0.284872 0.628510 0.723028
O O2 0.456705 0.500000 0.638833
O O3 0.348470 0.500000 0.525722
O O4 0.523708 0.500000 0.875191
O O5 0.670371 0.329636 0.817559
O O6 0.589011 0.369271 0.676316
O O7 0.485052 0.243635 0.884695
O O8 0.341049 0.809413 0.825589
O O9 0.191218 0.650056 0.955452
O O10 0.935113 0.500000 0.871407
#
# Coordination Sequence:
#
# PCOD8111772 Si02
#       5
#     4   8   8   4   8
#     4  11  20  42  64  87 116 163 206 249 290 363
#     4  10  22  41  59  91 119 162 198 244 302 355
#     4  11  22  36  63  88 125 154 202 245 307 350
#     4   9  22  42  64  82 117 166 207 240 299 352
#     4  11  23  37  59  93 126 156 195 249 302 364
#
# _framework density 18.798924
#
# number of rings (size 3 to 8) (size 9 to 14) (size 15 to 20)
#    0.750    0.750    3.750    1.500    1.750    5.000 
#    0.000    0.000    0.000    1.500    0.000    0.000 
#    0.000    0.000    0.000    0.000    0.000    0.000 
#
# Total GULP energy -198361.229003 kJ/mol
# GULP energy per Si atom -12397.576813 kJ/mol
# Density = 1.875614 g / cm^3
# Si number density = 18.798924 Si / 1000 Ang^3
#
#
#
# Elastic Constant Matrix: (Units=GPa)
#
#
# Indices 1 2 3 4 5 6 
#
# 1 91.1670 34.3885 4.7284 0.0000 1.1560 0.0000
# 2 34.3885 142.8836 25.5998 0.0000 -10.3720 0.0000
# 3 4.7284 25.5998 87.7400 0.0000 3.9363 0.0000
# 4 0.0000 0.0000 0.0000 24.1129 0.0000 4.5056
# 5 1.1560 -10.3720 3.9363 0.0000 22.5281 0.0000
# 6 0.0000 0.0000 0.0000 4.5056 0.0000 28.5035
#
#
#
# Elastic Compliance Matrix: (Units=1/GPa)
#
#
# Indices 1 2 3 4 5 6 
#
# 1 0.012164 -0.003147 0.000358 0.000000 -0.002136 0.000000
# 2 -0.003147 0.008538 -0.002525 0.000000 0.004533 0.000000
# 3 0.000358 -0.002525 0.012264 0.000000 -0.003324 0.000000
# 4 0.000000 0.000000 0.000000 0.042734 0.000000 -0.006755
# 5 -0.002136 0.004533 -0.003324 0.000000 0.047167 0.000000
# 6 0.000000 0.000000 0.000000 -0.006755 0.000000 0.036151
#
#
# Mechanical properties :
#
#
# Convention : Reuss Voigt Hill
#
# Bulk Modulus (GPa) = 44.76443 50.13600 47.45022
# Shear Modulus (GPa) = 28.23422 32.16715 30.20069
#
# Velocity S-wave (km/s) = 3.87965 4.14105 4.01248
# Velocity P-wave (km/s) = 6.62818 7.04215 6.83830
#
# Compressibility (1/GPa) = 0.02233916
#
# Stress axis : x y z
#
# Youngs Moduli (GPa) = 82.20709 117.13017 81.54110
#
# Poissons Ratio (x) = 0.36860 -0.02923
# Poissons Ratio (y) = 0.25870 0.20587
# Poissons Ratio (z) = -0.02947 0.29573
#
# Static dielectric constant tensor:
#      x y z
#    x 3.436240 0.000000 0.184660 
#    y 0.000000 3.334960 0.000000 
#    z 0.184660 0.000000 3.422740 
# 
# 
# High freq. dielectric constant tensor:
#      x y z
#    x 1.740120 0.000000 0.014400 
#    y 0.000000 1.726950 0.000000 
#    z 0.014400 0.000000 1.709950 
# 
# From -- ./inp_files/210548.got.cif
#   From: 2010.06.25/outbox.cif.g09.slc.cpg/sg12_106_cif.got.tgz:210548.got - 2010.06.28 00:19:55.
