data_PCOD8111640
_publ_section_title
;
Structure prediction by ZEFSAII (Michael W. Deem and Ramdas Pophale) SiO2 
 PCOD8111640
Probable space group: C 2/M
;
_chemical_formula_sum "Si O2"
_cell_formula_units_Z 64
_cell_length_a 10.776129
_cell_length_b 15.532619
_cell_length_c 23.908128
_cell_angle_alpha 90.000000
_cell_angle_beta 133.890677
_cell_angle_gamma 90.000000
_cell_volume 2883.937402
_symmetry_space_group_name_H-M "C 2/M"
_symmetry_group_IT_number 12
_symmetry_cell_setting 'monoclinic'
loop_
_space_group_symop_operation_xyz
x,y,z
-x,y,-z
-x,-y,-z
x,-y,z
1/2+x,1/2+y,z
1/2-x,1/2+y,-z
1/2-x,1/2-y,-z
1/2+x,1/2-y,z
loop_
_atom_site_type_symbol
_atom_site_label
_atom_site_fract_x
_atom_site_fract_y
_atom_site_fract_z
Si Si1 0.288796 0.404305 0.473805
Si Si2 0.968568 0.649934 0.430635
Si Si3 0.396306 0.406513 0.686523
Si Si4 0.373531 0.898507 0.690128
Si Si5 0.940746 0.818953 0.363639
Si Si6 0.963556 0.900607 0.149486
Si Si7 0.698849 0.245578 0.048758
Si Si8 0.754763 0.601415 0.149846
O O1 0.352563 0.500000 0.480889
O O2 0.204155 0.360609 0.392170
O O3 0.453552 0.355757 0.550053
O O4 0.138183 0.406034 0.472468
O O5 0.808118 0.586274 0.383301
O O6 0.932607 0.717555 0.370031
O O7 0.000000 0.696743 0.500000
O O8 0.473837 0.500000 0.694374
O O9 0.471738 0.335023 0.668710
O O10 0.433101 0.383284 0.761749
O O11 0.251912 0.858031 0.700049
O O12 0.572497 0.873936 0.761993
O O13 0.355165 0.000000 0.684856
O O14 0.089294 0.878844 0.136747
O O15 0.801977 0.836979 0.103521
O O16 0.900973 0.000000 0.125504
O O17 0.748032 0.336812 0.093442
O O18 0.500000 0.226236 0.000000
O O19 0.750000 0.250000 0.000000
O O20 0.756948 0.500000 0.132319
#
# Coordination Sequence:
#
# PCOD8111640 Si02
#       8
#     8   8   8   8   8   8   8   8
#     4  11  22  39  62  85 124 176 230 285 342 404
#     4  12  25  38  60  89 125 171 233 289 345 406
#     4  11  25  44  66  93 130 179 230 280 343 406
#     4  10  22  40  64  93 127 174 233 279 336 415
#     4  12  25  38  60  90 133 175 226 294 350 392
#     4  10  24  47  74 106 145 188 233 286 347 416
#     4  12  26  47  78 116 146 180 231 280 348 432
#     4  10  23  46  75 104 143 191 235 279 341 425
#
# _framework density 22.191880999999999
#
# number of rings (size 3 to 8) (size 9 to 14) (size 15 to 20)
#    0.000    1.000    2.500    3.750    3.500    6.500 
#    0.000    1.250    0.000    0.000    0.000    0.000 
#    0.000    0.000    0.000    0.000    0.000    0.000 
#
# Total GULP energy -396675.326043 kJ/mol
# GULP energy per Si atom -12396.103939 kJ/mol
# Density = 2.214137 g / cm^3
# Si number density = 22.191881 Si / 1000 Ang^3
#
#
#
# Elastic Constant Matrix: (Units=GPa)
#
#
# Indices 1 2 3 4 5 6 
#
# 1 120.2787 51.0717 53.0273 0.0000 9.8561 0.0000
# 2 51.0717 83.0742 48.6762 0.0000 -5.5646 0.0000
# 3 53.0273 48.6762 90.9527 0.0001 4.5681 0.0000
# 4 0.0000 0.0000 0.0001 -64.1846 0.0001 -24.1620
# 5 9.8561 -5.5646 4.5681 0.0001 48.3526 0.0000
# 6 0.0000 0.0000 0.0000 -24.1620 0.0000 25.9794
#
#
#
# Elastic Compliance Matrix: (Units=1/GPa)
#
#
# Indices 1 2 3 4 5 6 
#
# 1 0.012814 -0.005497 -0.004387 0.000000 -0.002830 0.000000
# 2 -0.005497 0.020314 -0.007878 0.000000 0.004203 0.000000
# 3 -0.004387 -0.007878 0.017854 0.000000 -0.001699 0.000000
# 4 0.000000 0.000000 0.000000 -0.011540 0.000000 -0.010733
# 5 -0.002830 0.004203 -0.001699 0.000000 0.021902 0.000000
# 6 0.000000 0.000000 0.000000 -0.010733 0.000000 0.028510
#
#
# Mechanical properties :
#
#
# Convention : Reuss Voigt Hill
#
# Bulk Modulus (GPa) = 64.68915 66.65066 65.66990
# Shear Modulus (GPa) = 38.30485 11.46483 24.88484
#
# Velocity S-wave (km/s) = 4.15911 2.27540 3.35229
# Velocity P-wave (km/s) = 7.23032 6.08295 6.68131
#
# Compressibility (1/GPa) = 0.01545854
#
# Stress axis : x y z
#
# Youngs Moduli (GPa) = 78.03960 49.22636 56.01001
#
# Poissons Ratio (x) = 0.27059 0.24571
# Poissons Ratio (y) = 0.42897 0.44126
# Poissons Ratio (z) = 0.34235 0.38781
#
# Static dielectric constant tensor:
#      x y z
#    x 4.093510 0.000000 0.061020 
#    y 0.000000 3.908610 0.000000 
#    z 0.061020 0.000000 4.019360 
# 
# 
# High freq. dielectric constant tensor:
#      x y z
#    x 1.883880 0.000000 0.005060 
#    y 0.000000 1.875270 0.000000 
#    z 0.005060 0.000000 1.862690 
# 
# From -- ./inp_files/358457.got.cif
#   From: 2010.06.25/outbox.cif.g09.slc.cpg/sg12_180_cif.got.tgz:358457.got - 2010.06.28 00:19:55.
