data_PCOD8111388
_publ_section_title
;
Structure prediction by ZEFSAII (Michael W. Deem and Ramdas Pophale) SiO2 
 PCOD8111388
Probable space group: C 2/M
;
_chemical_formula_sum "Si O2"
_cell_formula_units_Z 48
_cell_length_a 9.775985
_cell_length_b 9.144998
_cell_length_c 26.159710
_cell_angle_alpha 90.000000
_cell_angle_beta 90.297685
_cell_angle_gamma 90.000000
_cell_volume 2338.682171
_symmetry_space_group_name_H-M "C 2/M"
_symmetry_group_IT_number 12
_symmetry_cell_setting 'monoclinic'
loop_
_space_group_symop_operation_xyz
x,y,z
-x,y,-z
-x,-y,-z
x,-y,z
1/2+x,1/2+y,z
1/2-x,1/2+y,-z
1/2-x,1/2-y,-z
1/2+x,1/2-y,z
loop_
_atom_site_type_symbol
_atom_site_label
_atom_site_fract_x
_atom_site_fract_y
_atom_site_fract_z
Si Si1 0.044815 0.331898 0.611965
Si Si2 0.769622 0.668640 0.552945
Si Si3 0.279582 0.168940 0.219188
Si Si4 0.551595 0.668443 0.055159
Si Si5 0.278187 0.668939 0.113713
Si Si6 0.554527 0.168517 0.277770
O O1 0.092715 0.500000 0.615120
O O2 0.925754 0.312306 0.570246
O O3 0.173025 0.234352 0.596384
O O4 0.995542 0.276950 0.667119
O O5 0.731466 0.500000 0.545181
O O6 0.750000 0.750000 0.500000
O O7 0.251378 0.249836 0.166417
O O8 0.435845 0.190741 0.235920
O O9 0.183401 0.233918 0.262928
O O10 0.242475 0.000000 0.211663
O O11 0.598262 0.500000 0.052371
O O12 0.433944 0.690768 0.096951
O O13 0.680657 0.766458 0.069936
O O14 0.500000 0.722348 0.000000
O O15 0.241452 0.500000 0.121363
O O16 0.600964 0.000000 0.280777
#
# Coordination Sequence:
#
# PCOD8111388 Si02
#       6
#     8   8   8   8   8   8
#     4  10  22  40  60  85 117 150 189 238 288 341
#     4  11  23  38  59  86 116 153 194 237 287 342
#     4  11  23  38  59  86 115 150 191 235 284 339
#     4  10  22  40  61  87 118 151 191 239 288 340
#     4  11  23  38  59  86 116 153 193 234 284 340
#     4  10  22  40  61  86 116 150 190 237 288 342
#
# _framework density 20.524379
#
# number of rings (size 3 to 8) (size 9 to 14) (size 15 to 20)
#    0.000    1.500    0.000    4.500    0.000    9.667 
#    0.000    0.000    0.000    0.000    0.000    0.000 
#    0.000    0.000    0.000    0.000    0.000    0.000 
#
# Total GULP energy -297792.508473 kJ/mol
# GULP energy per Si atom -12408.021186 kJ/mol
# Density = 2.047767 g / cm^3
# Si number density = 20.524379 Si / 1000 Ang^3
#
#
#
# Elastic Constant Matrix: (Units=GPa)
#
#
# Indices 1 2 3 4 5 6 
#
# 1 43.8719 28.4123 -9.5047 0.0000 -4.7821 0.0000
# 2 28.4123 99.4562 24.7878 0.0000 -3.8864 0.0000
# 3 -9.5047 24.7878 87.4909 0.0000 -1.9183 0.0000
# 4 0.0000 0.0000 0.0000 37.2008 0.0000 -2.2692
# 5 -4.7821 -3.8864 -1.9183 0.0000 35.6860 0.0000
# 6 0.0000 0.0000 0.0000 -2.2692 0.0000 33.0075
#
#
#
# Elastic Compliance Matrix: (Units=1/GPa)
#
#
# Indices 1 2 3 4 5 6 
#
# 1 0.031298 -0.010409 0.006424 0.000000 0.003406 0.000000
# 2 -0.010409 0.014317 -0.005190 0.000000 -0.000115 0.000000
# 3 0.006424 -0.005190 0.013620 0.000000 0.001028 0.000000
# 4 0.000000 0.000000 0.000000 0.026994 0.000000 0.001856
# 5 0.003406 -0.000115 0.001028 0.000000 0.028521 0.000000
# 6 0.000000 0.000000 0.000000 0.001856 0.000000 0.030424
#
#
# Mechanical properties :
#
#
# Convention : Reuss Voigt Hill
#
# Bulk Modulus (GPa) = 24.45844 35.35664 29.90754
# Shear Modulus (GPa) = 28.22422 33.65376 30.93899
#
# Velocity S-wave (km/s) = 3.71233 4.05371 3.88677
# Velocity P-wave (km/s) = 5.50617 6.25892 5.89457
#
# Compressibility (1/GPa) = 0.04088569
#
# Stress axis : x y z
#
# Youngs Moduli (GPa) = 31.95136 69.84601 73.41889
#
# Poissons Ratio (x) = 0.72702 -0.47162
# Poissons Ratio (y) = 0.33258 0.38102
# Poissons Ratio (z) = -0.20525 0.36247
#
# Static dielectric constant tensor:
#      x y z
#    x 3.680780 0.000000 -0.009990 
#    y 0.000000 3.733360 0.000000 
#    z -0.009990 0.000000 3.753880 
# 
# 
# High freq. dielectric constant tensor:
#      x y z
#    x 1.806750 0.000000 -0.000230 
#    y 0.000000 1.804670 0.000000 
#    z -0.000230 0.000000 1.818970 
# 
# From -- ./inp_files/357329.got.cif
#   From: 2010.06.25/outbox.cif.g09.slc.cpg/sg12_179_cif.got.tgz:357329.got - 2010.06.28 00:19:55.
