data_PCOD8111207
_publ_section_title
;
Structure prediction by ZEFSAII (Michael W. Deem and Ramdas Pophale) SiO2 
 PCOD8111207
Probable space group: C 2/M
;
_chemical_formula_sum "Si O2"
_cell_formula_units_Z 48
_cell_length_a 22.225007
_cell_length_b 8.353102
_cell_length_c 18.464732
_cell_angle_alpha 90.000000
_cell_angle_beta 41.724135
_cell_angle_gamma 90.000000
_cell_volume 2281.444972
_symmetry_space_group_name_H-M "C 2/M"
_symmetry_group_IT_number 12
_symmetry_cell_setting 'monoclinic'
loop_
_space_group_symop_operation_xyz
x,y,z
-x,y,-z
-x,-y,-z
x,-y,z
1/2+x,1/2+y,z
1/2-x,1/2+y,-z
1/2-x,1/2-y,-z
1/2+x,1/2-y,z
loop_
_atom_site_type_symbol
_atom_site_label
_atom_site_fract_x
_atom_site_fract_y
_atom_site_fract_z
Si Si1 0.910433 0.814067 0.039565
Si Si2 0.229698 0.684600 0.726059
Si Si3 0.494229 0.320900 0.301215
Si Si4 0.575221 0.310611 0.488160
Si Si5 0.813865 0.179840 0.381231
Si Si6 0.152105 0.191259 0.062187
O O1 0.823008 0.787781 0.167719
O O2 0.930216 0.000000 0.011640
O O3 0.883492 0.742299 0.984308
O O4 0.000000 0.738147 0.000000
O O5 0.228551 0.500000 0.751517
O O6 0.330598 0.757304 0.626886
O O7 0.184891 0.702912 0.688026
O O8 0.521953 0.500000 0.300192
O O9 0.455421 0.232017 0.407700
O O10 0.417273 0.324695 0.310689
O O11 0.582622 0.240970 0.185632
O O12 0.500000 0.259813 0.500000
O O13 0.588218 0.500000 0.486242
O O14 0.750000 0.250000 0.500000
O O15 0.781294 0.000000 0.390902
O O16 0.152077 0.000000 0.059461
O O17 0.250000 0.250000 0.000000
#
# Coordination Sequence:
#
# PCOD8111207 Si02
#       6
#     8   8   8   8   8   8
#     4  10  22  42  63  85 117 161 207 246 292 356
#     4  11  22  36  59  91 118 147 192 245 297 348
#     4   9  18  35  58  81 111 153 195 231 279 350
#     4   9  18  32  53  83 114 147 190 235 280 343
#     4  11  20  35  58  86 119 153 190 235 288 348
#     4  10  22  39  62  88 116 155 201 247 296 351
#
# _framework density 21.039297000000001
#
# number of rings (size 3 to 8) (size 9 to 14) (size 15 to 20)
#    0.000    2.000    1.667    2.000    2.333    3.667 
#    0.000    3.333    0.000    2.000    0.000    0.000 
#    0.000    0.000    0.000    0.000    0.000    0.000 
#
# Total GULP energy -297417.997986 kJ/mol
# GULP energy per Si atom -12392.416583 kJ/mol
# Density = 2.099141 g / cm^3
# Si number density = 21.039297 Si / 1000 Ang^3
#
#
#
# Elastic Constant Matrix: (Units=GPa)
#
#
# Indices 1 2 3 4 5 6 
#
# 1 140.7834 7.9430 66.9679 -0.0005 -7.4422 0.0000
# 2 7.9430 20.2294 3.9602 -0.0024 -7.5356 0.0009
# 3 66.9679 3.9602 177.0782 -0.0019 -11.3587 0.0004
# 4 -0.0005 -0.0024 -0.0019 23.2894 0.0005 0.5874
# 5 -7.4422 -7.5356 -11.3587 0.0005 33.0551 0.0000
# 6 0.0000 0.0009 0.0004 0.5874 0.0000 23.6763
#
#
#
# Elastic Compliance Matrix: (Units=1/GPa)
#
#
# Indices 1 2 3 4 5 6 
#
# 1 0.008821 -0.002735 -0.003259 0.000000 0.000242 0.000000
# 2 -0.002735 0.054900 0.000583 0.000006 0.012100 -0.000002
# 3 -0.003259 0.000583 0.006982 0.000001 0.001798 0.000000
# 4 0.000000 0.000006 0.000001 0.042965 0.000001 -0.001066
# 5 0.000242 0.012100 0.001798 0.000001 0.033683 0.000000
# 6 0.000000 -0.000002 0.000000 -0.001066 0.000000 0.042263
#
#
# Mechanical properties :
#
#
# Convention : Reuss Voigt Hill
#
# Bulk Modulus (GPa) = 16.70002 55.09256 35.89629
# Shear Modulus (GPa) = 22.68635 33.28549 27.98592
#
# Velocity S-wave (km/s) = 3.28729 3.98183 3.65111
# Velocity P-wave (km/s) = 4.72897 6.88348 5.90531
#
# Compressibility (1/GPa) = 0.05988016
#
# Stress axis : x y z
#
# Youngs Moduli (GPa) = 113.37224 18.21484 143.22431
#
# Poissons Ratio (x) = 0.04982 0.46677
# Poissons Ratio (y) = 0.31008 -0.08346
# Poissons Ratio (z) = 0.36948 -0.01061
#
# Static dielectric constant tensor:
#      x y z
#    x 3.864880 0.000000 -0.056650 
#    y 0.000000 3.392290 0.000000 
#    z -0.056650 0.000000 3.991920 
# 
# 
# High freq. dielectric constant tensor:
#      x y z
#    x 1.830400 0.000000 0.000230 
#    y 0.000000 1.774170 0.000000 
#    z 0.000230 0.000000 1.845010 
# 
# From -- ./inp_files/327188.got.cif
#   From: 2010.06.25/outbox.cif.g09.slc.cpg/sg12_164_cif.got.tgz:327188.got - 2010.06.28 00:19:55.
