data_PCOD8111176
_publ_section_title
;
Structure prediction by ZEFSAII (Michael W. Deem and Ramdas Pophale) SiO2 
 PCOD8111176
Probable space group: C 2/M
;
_chemical_formula_sum "Si O2"
_cell_formula_units_Z 32
_cell_length_a 6.879123
_cell_length_b 17.785948
_cell_length_c 14.541269
_cell_angle_alpha 90.000000
_cell_angle_beta 120.053062
_cell_angle_gamma 90.000000
_cell_volume 1539.964016
_symmetry_space_group_name_H-M "C 2/M"
_symmetry_group_IT_number 12
_symmetry_cell_setting 'monoclinic'
loop_
_space_group_symop_operation_xyz
x,y,z
-x,y,-z
-x,-y,-z
x,-y,z
1/2+x,1/2+y,z
1/2-x,1/2+y,-z
1/2-x,1/2-y,-z
1/2+x,1/2-y,z
loop_
_atom_site_type_symbol
_atom_site_label
_atom_site_fract_x
_atom_site_fract_y
_atom_site_fract_z
Si Si1 0.966557 0.083730 0.706025
Si Si2 0.124320 0.701968 0.617151
Si Si3 0.881891 0.657829 0.729258
Si Si4 0.831891 0.912904 0.880216
O O1 0.214476 0.092723 0.722536
O O2 0.801720 0.142756 0.617479
O O3 0.961023 0.098917 0.814320
O O4 0.883236 0.000000 0.664051
O O5 0.254837 0.762043 0.713827
O O6 0.000000 0.739670 0.500000
O O7 0.942737 0.656514 0.635181
O O8 0.115499 0.642168 0.838233
O O9 0.756749 0.000000 0.873453
O O10 0.000000 0.888189 0.000000
#
# Coordination Sequence:
#
# PCOD8111176 Si02
#       4
#     8   8   8   8
#     4  10  22  39  61  90 121 155 202 249 292 351
#     4  11  23  39  63  85 120 164 201 240 299 358
#     4  11  21  37  62  89 117 156 199 248 291 350
#     4   9  20  40  64  89 120 158 198 244 301 358
#
# _framework density 20.779707999999999
#
# number of rings (size 3 to 8) (size 9 to 14) (size 15 to 20)
#    0.000    1.750    2.500    1.500    0.000    2.500 
#    0.000   10.000    0.000    0.000    0.000    0.000 
#    0.000    0.000    0.000    0.000    0.000    0.000 
#
# Total GULP energy -198241.651940 kJ/mol
# GULP energy per Si atom -12390.103246 kJ/mol
# Density = 2.073241 g / cm^3
# Si number density = 20.779708 Si / 1000 Ang^3
#
#
#
# Elastic Constant Matrix: (Units=GPa)
#
#
# Indices 1 2 3 4 5 6 
#
# 1 131.4007 32.4925 31.3676 0.0000 13.4979 0.0000
# 2 32.4925 100.1825 50.8075 0.0000 17.6678 0.0000
# 3 31.3676 50.8075 110.6111 0.0000 15.5044 0.0000
# 4 0.0000 0.0000 0.0000 29.8205 0.0000 6.7632
# 5 13.4979 17.6678 15.5044 0.0000 16.8295 0.0000
# 6 0.0000 0.0000 0.0000 6.7632 0.0000 38.8252
#
#
#
# Elastic Compliance Matrix: (Units=1/GPa)
#
#
# Indices 1 2 3 4 5 6 
#
# 1 0.008701 -0.001449 -0.001191 0.000000 -0.004360 0.000000
# 2 -0.001449 0.014680 -0.004978 0.000000 -0.009664 0.000000
# 3 -0.001191 -0.004978 0.012400 0.000000 -0.005243 0.000000
# 4 0.000000 0.000000 0.000000 0.034913 0.000000 -0.006082
# 5 -0.004360 -0.009664 -0.005243 0.000000 0.077891 0.000000
# 6 0.000000 0.000000 0.000000 -0.006082 0.000000 0.026816
#
#
# Mechanical properties :
#
#
# Convention : Reuss Voigt Hill
#
# Bulk Modulus (GPa) = 48.67162 63.50327 56.08745
# Shear Modulus (GPa) = 25.31837 32.26349 28.79093
#
# Velocity S-wave (km/s) = 3.49437 3.94464 3.72631
# Velocity P-wave (km/s) = 6.30511 7.16753 6.75010
#
# Compressibility (1/GPa) = 0.02054585
#
# Stress axis : x y z
#
# Youngs Moduli (GPa) = 114.93246 68.11760 80.64748
#
# Poissons Ratio (x) = 0.09872 0.09602
# Poissons Ratio (y) = 0.16656 0.40144
# Poissons Ratio (z) = 0.13684 0.33907
#
# Static dielectric constant tensor:
#      x y z
#    x 4.014110 0.000000 0.151360 
#    y 0.000000 3.753100 0.000000 
#    z 0.151360 0.000000 3.533650 
# 
# 
# High freq. dielectric constant tensor:
#      x y z
#    x 1.832810 0.000000 0.007060 
#    y 0.000000 1.807450 0.000000 
#    z 0.007060 0.000000 1.782810 
# 
# From -- ./inp_files/190966.got.cif
#   From: 2010.06.25/outbox.cif.g09.slc.cpg/sg12_96_cif.got.tgz:190966.got - 2010.06.28 00:19:55.
