data_PCOD8111911
_publ_section_title
;
Structure prediction by ZEFSAII (Michael W. Deem and Ramdas Pophale) SiO2 
 PCOD8111911
Probable space group: C 2/M
;
_chemical_formula_sum "Si O2"
_cell_formula_units_Z 48
_cell_length_a 14.472537
_cell_length_b 9.748280
_cell_length_c 23.609928
_cell_angle_alpha 90.000000
_cell_angle_beta 44.002138
_cell_angle_gamma 90.000000
_cell_volume 2313.957512
_symmetry_space_group_name_H-M "C 2/M"
_symmetry_group_IT_number 12
_symmetry_cell_setting 'monoclinic'
loop_
_space_group_symop_operation_xyz
x,y,z
-x,y,-z
-x,-y,-z
x,-y,z
1/2+x,1/2+y,z
1/2-x,1/2+y,-z
1/2-x,1/2-y,-z
1/2+x,1/2-y,z
loop_
_atom_site_type_symbol
_atom_site_label
_atom_site_fract_x
_atom_site_fract_y
_atom_site_fract_z
Si Si1 0.123247 0.156892 0.906112
Si Si2 0.183897 0.151736 0.365565
Si Si3 0.897734 0.154531 0.214696
Si Si4 0.463701 0.709896 0.379460
Si Si5 0.124762 0.839011 0.201969
Si Si6 0.318142 0.855589 0.533770
O O1 0.075696 0.179151 0.862885
O O2 0.237653 0.264127 0.871779
O O3 0.171714 0.000000 0.894529
O O4 0.000000 0.193253 0.000000
O O5 0.289846 0.237913 0.283537
O O6 0.151416 0.229504 0.438247
O O7 0.051437 0.129746 0.387030
O O8 0.239925 0.000000 0.355298
O O9 0.036718 0.177425 0.184868
O O10 0.844421 0.000000 0.249857
O O11 0.555406 0.742437 0.284674
O O12 0.403188 0.842517 0.438185
O O13 0.337454 0.625786 0.412540
O O14 0.146001 0.000000 0.208375
O O15 0.360213 0.000000 0.543897
#
# Coordination Sequence:
#
# PCOD8111911 Si02
#       6
#     8   8   8   8   8   8
#     4  10  23  43  67  97 129 160 200 254 311 371
#     4  12  24  39  62  91 124 162 209 263 313 362
#     4  10  22  41  64  90 125 165 204 251 308 373
#     4  11  24  40  62  90 125 166 210 260 308 364
#     4  11  22  41  66  91 124 168 208 251 309 369
#     4  11  25  44  63  88 125 169 216 260 309 368
#
# _framework density 20.743683000000001
#
# number of rings (size 3 to 8) (size 9 to 14) (size 15 to 20)
#    0.000    1.167    3.333    2.500    0.000    9.000 
#    0.000    0.000    0.000    0.000    0.000    0.000 
#    0.000    0.000    0.000    0.000    0.000    0.000 
#
# Total GULP energy -297484.388030 kJ/mol
# GULP energy per Si atom -12395.182835 kJ/mol
# Density = 2.069647 g / cm^3
# Si number density = 20.743683 Si / 1000 Ang^3
#
#
#
# Elastic Constant Matrix: (Units=GPa)
#
#
# Indices 1 2 3 4 5 6 
#
# 1 118.0699 48.9230 32.1395 0.0000 -5.6093 0.0000
# 2 48.9230 127.1910 56.7662 0.0000 -1.3087 0.0000
# 3 32.1395 56.7662 127.2851 0.0000 -3.6112 0.0000
# 4 0.0000 0.0000 0.0000 -19.1762 0.0000 21.9001
# 5 -5.6093 -1.3087 -3.6112 0.0000 30.3543 0.0000
# 6 0.0000 0.0000 0.0000 21.9001 0.0000 10.5281
#
#
#
# Elastic Compliance Matrix: (Units=1/GPa)
#
#
# Indices 1 2 3 4 5 6 
#
# 1 0.010262 -0.003489 -0.000989 0.000000 0.001628 0.000000
# 2 -0.003489 0.011003 -0.004044 0.000000 -0.000652 0.000000
# 3 -0.000989 -0.004044 0.009933 0.000000 0.000825 0.000000
# 4 0.000000 0.000000 0.000000 -0.015448 0.000000 0.032135
# 5 0.001628 -0.000652 0.000825 0.000000 0.033315 0.000000
# 6 0.000000 0.000000 0.000000 0.032135 0.000000 0.028138
#
#
# Mechanical properties :
#
#
# Convention : Reuss Voigt Hill
#
# Bulk Modulus (GPa) = 70.65677 72.02261 71.33969
# Shear Modulus (GPa) = 50.52304 19.98905 35.25605
#
# Velocity S-wave (km/s) = 4.94052 3.10759 4.12710
# Velocity P-wave (km/s) = 8.16583 6.90448 7.56150
#
# Compressibility (1/GPa) = 0.01415293
#
# Stress axis : x y z
#
# Youngs Moduli (GPa) = 97.44889 90.88801 100.67277
#
# Poissons Ratio (x) = 0.31711 0.09955
# Poissons Ratio (y) = 0.34000 0.40716
# Poissons Ratio (z) = 0.09637 0.36759
#
# Static dielectric constant tensor:
#      x y z
#    x 3.964780 0.000000 0.067430 
#    y 0.000000 3.672680 0.000000 
#    z 0.067430 0.000000 3.666100 
# 
# 
# High freq. dielectric constant tensor:
#      x y z
#    x 1.823880 0.000000 0.003480 
#    y 0.000000 1.806850 0.000000 
#    z 0.003480 0.000000 1.804070 
# 
# From -- ./inp_files/360232.got.cif
#   From: 2010.06.25/outbox.cif.g09.slc.cpg/sg12_181_cif.got.tgz:360232.got - 2010.06.28 00:19:55.
