data_PCOD8111591
_publ_section_title
;
Structure prediction by ZEFSAII (Michael W. Deem and Ramdas Pophale) SiO2 
 PCOD8111591
Probable space group: C 2/M
;
_chemical_formula_sum "Si O2"
_cell_formula_units_Z 48
_cell_length_a 19.620142
_cell_length_b 9.945632
_cell_length_c 12.434474
_cell_angle_alpha 90.000000
_cell_angle_beta 65.272484
_cell_angle_gamma 90.000000
_cell_volume 2203.914795
_symmetry_space_group_name_H-M "C 2/M"
_symmetry_group_IT_number 12
_symmetry_cell_setting 'monoclinic'
loop_
_space_group_symop_operation_xyz
x,y,z
-x,y,-z
-x,-y,-z
x,-y,z
1/2+x,1/2+y,z
1/2-x,1/2+y,-z
1/2-x,1/2-y,-z
1/2+x,1/2-y,z
loop_
_atom_site_type_symbol
_atom_site_label
_atom_site_fract_x
_atom_site_fract_y
_atom_site_fract_z
Si Si1 0.312487 0.338868 0.519115
Si Si2 0.563900 0.784510 0.188973
Si Si3 0.138366 0.649320 0.918519
Si Si4 0.451618 0.851899 0.430069
Si Si5 0.697138 0.347371 0.222351
Si Si6 0.951707 0.140893 0.137324
O O1 0.313646 0.500000 0.485782
O O2 0.250000 0.250000 0.500000
O O3 0.391659 0.265080 0.441101
O O4 0.296160 0.324834 0.655517
O O5 0.510068 0.879238 0.294213
O O6 0.634941 0.747400 0.213273
O O7 0.510087 0.659372 0.196155
O O8 0.590475 0.850950 0.059662
O O9 0.137491 0.500000 0.870435
O O10 0.223872 0.693249 0.884985
O O11 0.107074 0.739435 0.841549
O O12 0.500000 0.801477 0.500000
O O13 0.414395 0.000000 0.476752
O O14 0.675637 0.500000 0.208651
O O15 0.908010 0.000000 0.186915
O O16 0.000000 0.127391 0.000000
#
# Coordination Sequence:
#
# PCOD8111591 Si02
#       6
#     8   8   8   8   8   8
#     4  11  25  46  69  95 128 171 217 266 324 383
#     4  11  21  39  65  94 126 166 214 262 315 378
#     4  10  22  40  63  93 128 167 209 257 317 381
#     4  11  24  43  66  96 131 167 212 268 321 380
#     4  10  22  41  64  92 128 167 209 263 322 380
#     4   9  20  37  59  88 123 162 205 256 311 373
#
# _framework density 21.779425
#
# number of rings (size 3 to 8) (size 9 to 14) (size 15 to 20)
#    0.000    1.667    1.667    2.000    2.333    6.000 
#    0.000    2.500    0.000    0.000    0.000    0.000 
#    0.000    0.000    0.000    0.000    0.000    0.000 
#
# Total GULP energy -297332.654156 kJ/mol
# GULP energy per Si atom -12388.860590 kJ/mol
# Density = 2.172985 g / cm^3
# Si number density = 21.779425 Si / 1000 Ang^3
#
#
#
# Elastic Constant Matrix: (Units=GPa)
#
#
# Indices 1 2 3 4 5 6 
#
# 1 145.7932 88.4152 31.7206 0.0000 3.6854 0.0000
# 2 88.4152 150.4959 12.4000 0.0000 -0.3448 0.0000
# 3 31.7206 12.4000 71.4823 0.0000 -13.0687 0.0000
# 4 0.0000 0.0000 0.0000 37.9754 0.0000 -9.0163
# 5 3.6854 -0.3448 -13.0687 0.0000 36.6773 0.0000
# 6 0.0000 0.0000 0.0000 -9.0163 0.0000 30.3075
#
#
#
# Elastic Compliance Matrix: (Units=1/GPa)
#
#
# Indices 1 2 3 4 5 6 
#
# 1 0.012003 -0.006671 -0.004708 0.000000 -0.002946 0.000000
# 2 -0.006671 0.010453 0.001377 0.000000 0.001259 0.000000
# 3 -0.004708 0.001377 0.017039 0.000000 0.006557 0.000000
# 4 0.000000 0.000000 0.000000 0.028334 0.000000 0.008429
# 5 -0.002946 0.001259 0.006557 0.000000 0.029909 0.000000
# 6 0.000000 0.000000 0.000000 0.008429 0.000000 0.035503
#
#
# Mechanical properties :
#
#
# Convention : Reuss Voigt Hill
#
# Bulk Modulus (GPa) = 51.30381 70.31588 60.80984
# Shear Modulus (GPa) = 31.30060 36.67440 33.98750
#
# Velocity S-wave (km/s) = 3.79511 4.10799 3.95464
# Velocity P-wave (km/s) = 6.54301 7.40650 6.98811
#
# Compressibility (1/GPa) = 0.01949173
#
# Stress axis : x y z
#
# Youngs Moduli (GPa) = 83.31118 95.66567 58.69030
#
# Poissons Ratio (x) = 0.63815 0.27631
# Poissons Ratio (y) = 0.55574 -0.08082
# Poissons Ratio (z) = 0.39223 -0.13174
#
# Static dielectric constant tensor:
#      x y z
#    x 3.986720 0.000000 0.034990 
#    y 0.000000 4.313760 0.000000 
#    z 0.034990 0.000000 4.102830 
# 
# 
# High freq. dielectric constant tensor:
#      x y z
#    x 1.857160 0.000000 0.001620 
#    y 0.000000 1.856410 0.000000 
#    z 0.001620 0.000000 1.857120 
# 
# From -- ./inp_files/154204.got.cif
#   From: 2010.06.25/outbox.cif.g09.slc.cpg/sg12_78_cif.got.tgz:154204.got - 2010.06.28 00:19:55.
