data_PCOD8111971
_publ_section_title
;
Structure prediction by ZEFSAII (Michael W. Deem and Ramdas Pophale) SiO2 
 PCOD8111971
Probable space group: C 2/M
;
_chemical_formula_sum "Si O2"
_cell_formula_units_Z 56
_cell_length_a 27.420346
_cell_length_b 8.708265
_cell_length_c 12.527337
_cell_angle_alpha 90.000000
_cell_angle_beta 112.866274
_cell_angle_gamma 90.000000
_cell_volume 2756.247887
_symmetry_space_group_name_H-M "C 2/M"
_symmetry_group_IT_number 12
_symmetry_cell_setting 'monoclinic'
loop_
_space_group_symop_operation_xyz
x,y,z
-x,y,-z
-x,-y,-z
x,-y,z
1/2+x,1/2+y,z
1/2-x,1/2+y,-z
1/2-x,1/2-y,-z
1/2+x,1/2-y,z
loop_
_atom_site_type_symbol
_atom_site_label
_atom_site_fract_x
_atom_site_fract_y
_atom_site_fract_z
Si Si1 0.645181 0.818351 0.248243
Si Si2 0.263302 0.682046 0.309440
Si Si3 0.440475 0.678209 0.429965
Si Si4 0.600023 0.322237 0.837877
Si Si5 0.292777 0.820387 0.113168
Si Si6 0.441823 0.820540 0.993109
Si Si7 0.355091 0.819392 0.512078
O O1 0.703486 0.753503 0.268295
O O2 0.601356 0.755557 0.128353
O O3 0.629596 0.767525 0.354896
O O4 0.646478 0.000000 0.241957
O O5 0.263685 0.500000 0.308813
O O6 0.290702 0.741530 0.225897
O O7 0.299189 0.740075 0.437408
O O8 0.500000 0.734310 0.500000
O O9 0.433028 0.500000 0.452228
O O10 0.429132 0.712847 0.297316
O O11 0.401626 0.773349 0.471971
O O12 0.616443 0.500000 0.860239
O O13 0.651045 0.214538 0.892081
O O14 0.561559 0.275419 0.901030
O O15 0.283581 0.000000 0.117296
O O16 0.250000 0.750000 0.000000
O O17 0.432535 0.000000 0.008034
O O18 0.500000 0.788676 0.000000
O O19 0.346077 0.000000 0.497048
#
# Coordination Sequence:
#
# PCOD8111971 Si02
#       7
#     8   8   8   8   8   8   8
#     4   9  21  39  59  88 123 161 203 255 307 364
#     4  11  21  38  61  87 125 165 204 250 308 370
#     4  10  23  42  63  89 124 165 207 255 316 373
#     4  11  23  41  64  91 126 162 207 260 313 372
#     4  12  24  39  62  92 126 163 207 255 309 370
#     4  10  22  41  65  90 122 164 211 260 314 369
#     4  11  22  38  62  92 124 158 205 256 310 371
#
# _framework density 20.317475000000002
#
# number of rings (size 3 to 8) (size 9 to 14) (size 15 to 20)
#    0.000    1.429    1.429    3.857    2.000    2.286 
#    0.000    4.286    0.000    0.000    0.000    0.000 
#    0.000    0.000    0.000    0.000    0.000    0.000 
#
# Total GULP energy -347326.495408 kJ/mol
# GULP energy per Si atom -12404.517693 kJ/mol
# Density = 2.027123 g / cm^3
# Si number density = 20.317475 Si / 1000 Ang^3
#
#
#
# Elastic Constant Matrix: (Units=GPa)
#
#
# Indices 1 2 3 4 5 6 
#
# 1 129.6600 35.8397 63.3689 0.0000 7.3077 0.0000
# 2 35.8397 75.5059 39.1327 0.0000 0.1359 0.0000
# 3 63.3689 39.1327 114.7315 0.0000 -5.0862 0.0000
# 4 0.0000 0.0000 0.0000 24.1718 0.0000 1.7896
# 5 7.3077 0.1359 -5.0862 0.0000 42.6540 0.0000
# 6 0.0000 0.0000 0.0000 1.7896 0.0000 20.7259
#
#
#
# Elastic Compliance Matrix: (Units=1/GPa)
#
#
# Indices 1 2 3 4 5 6 
#
# 1 0.011212 -0.002489 -0.005457 0.000000 -0.002564 0.000000
# 2 -0.002489 0.016662 -0.004315 0.000000 -0.000141 0.000000
# 3 -0.005457 -0.004315 0.013314 0.000000 0.002536 0.000000
# 4 0.000000 0.000000 0.000000 0.041637 0.000000 -0.003595
# 5 -0.002564 -0.000141 0.002536 0.000000 0.024187 0.000000
# 6 0.000000 0.000000 0.000000 -0.003595 0.000000 0.048559
#
#
# Mechanical properties :
#
#
# Convention : Reuss Voigt Hill
#
# Bulk Modulus (GPa) = 60.00107 66.28666 63.14386
# Shear Modulus (GPa) = 26.93266 29.61409 28.27337
#
# Velocity S-wave (km/s) = 3.64482 3.82195 3.73443
# Velocity P-wave (km/s) = 6.87814 7.22307 7.05271
#
# Compressibility (1/GPa) = 0.01666637
#
# Stress axis : x y z
#
# Youngs Moduli (GPa) = 89.18872 60.01759 75.10684
#
# Poissons Ratio (x) = 0.14938 0.40989
# Poissons Ratio (y) = 0.22198 0.32406
# Poissons Ratio (z) = 0.48675 0.25895
#
# Static dielectric constant tensor:
#      x y z
#    x 3.655680 0.000000 0.162020 
#    y 0.000000 3.541040 0.000000 
#    z 0.162020 0.000000 3.828270 
# 
# 
# High freq. dielectric constant tensor:
#      x y z
#    x 1.803310 0.000000 0.000060 
#    y 0.000000 1.781330 0.000000 
#    z 0.000060 0.000000 1.809460 
# 
# From -- ./inp_files/180872.got.cif
#   From: 2010.06.25/outbox.cif.g09.slc.cpg/sg12_91_cif.got.tgz:180872.got - 2010.06.28 00:19:55.
