data_PCOD8111237
_publ_section_title
;
Structure prediction by ZEFSAII (Michael W. Deem and Ramdas Pophale) SiO2 
 PCOD8111237
Probable space group: C 2/M
;
_chemical_formula_sum "Si O2"
_cell_formula_units_Z 64
_cell_length_a 17.088048
_cell_length_b 14.530072
_cell_length_c 14.870337
_cell_angle_alpha 90.000000
_cell_angle_beta 51.680279
_cell_angle_gamma 90.000000
_cell_volume 2896.735585
_symmetry_space_group_name_H-M "C 2/M"
_symmetry_group_IT_number 12
_symmetry_cell_setting 'monoclinic'
loop_
_space_group_symop_operation_xyz
x,y,z
-x,y,-z
-x,-y,-z
x,-y,z
1/2+x,1/2+y,z
1/2-x,1/2+y,-z
1/2-x,1/2-y,-z
1/2+x,1/2-y,z
loop_
_atom_site_type_symbol
_atom_site_label
_atom_site_fract_x
_atom_site_fract_y
_atom_site_fract_z
Si Si1 0.916760 0.394074 0.984279
Si Si2 0.512808 0.836535 0.737506
Si Si3 0.884063 0.852982 0.362540
Si Si4 0.785297 0.398618 0.381807
Si Si5 0.260365 0.800740 0.212691
Si Si6 0.444014 0.603015 0.631341
Si Si7 0.206407 0.100882 0.757753
Si Si8 0.928456 0.396790 0.622364
O O1 0.902091 0.500000 0.968047
O O2 0.948195 0.338063 0.873929
O O3 0.812691 0.355012 0.094554
O O4 0.000000 0.380988 0.000000
O O5 0.582713 0.748439 0.683627
O O6 0.599539 0.913824 0.669253
O O7 0.433638 0.842363 0.712792
O O8 0.785494 0.850482 0.494629
O O9 0.859055 0.901214 0.285690
O O10 0.976224 0.903070 0.345027
O O11 0.740712 0.500000 0.393800
O O12 0.790503 0.338617 0.288059
O O13 0.141211 0.819904 0.287433
O O14 0.301542 0.694230 0.176113
O O15 0.500000 0.632474 0.500000
O O16 0.397357 0.500000 0.654733
O O17 0.322330 0.103837 0.649783
O O18 0.184664 0.000000 0.822055
O O19 0.965353 0.500000 0.616067
O O20 0.000000 0.346666 0.500000
#
# Coordination Sequence:
#
# PCOD8111237 Si02
#       8
#     8   8   8   8   8   8   8   8
#     4  11  22  41  68 100 139 177 223 284 341 402
#     4  12  24  40  67 100 137 178 227 275 344 404
#     4  12  24  40  62  98 138 182 224 273 333 411
#     4  12  22  36  63 100 139 174 216 272 341 408
#     4  12  24  41  67 100 133 176 225 275 341 403
#     4  11  23  40  64  99 141 179 222 278 342 409
#     4  11  24  43  63  90 131 180 229 276 331 400
#     4  10  22  39  62  93 131 173 222 277 332 395
#
# _framework density 22.093837000000001
#
# number of rings (size 3 to 8) (size 9 to 14) (size 15 to 20)
#    0.000    0.625    3.750    5.250    1.750    2.000 
#    0.000    2.500    0.000    6.375    0.000    0.000 
#    0.000    0.000    0.000    0.000    0.000    0.000 
#
# Total GULP energy -396527.169102 kJ/mol
# GULP energy per Si atom -12391.474034 kJ/mol
# Density = 2.204355 g / cm^3
# Si number density = 22.093837 Si / 1000 Ang^3
#
#
#
# Elastic Constant Matrix: (Units=GPa)
#
#
# Indices 1 2 3 4 5 6 
#
# 1 123.8092 16.5760 17.7633 0.0000 -3.3113 0.0000
# 2 16.5760 111.0761 31.8343 0.0000 0.2802 0.0000
# 3 17.7633 31.8343 113.8913 0.0000 -7.5608 0.0000
# 4 0.0000 0.0000 0.0000 17.5296 0.0000 -7.8454
# 5 -3.3113 0.2802 -7.5608 0.0000 25.6509 0.0000
# 6 0.0000 0.0000 0.0000 -7.8454 0.0000 29.4499
#
#
#
# Elastic Compliance Matrix: (Units=1/GPa)
#
#
# Indices 1 2 3 4 5 6 
#
# 1 0.008369 -0.000970 -0.000981 0.000000 0.000802 0.000000
# 2 -0.000970 0.009921 -0.002690 0.000000 -0.001026 0.000000
# 3 -0.000981 -0.002690 0.009872 0.000000 0.002813 0.000000
# 4 0.000000 0.000000 0.000000 0.064768 0.000000 0.017254
# 5 0.000802 -0.001026 0.002813 0.000000 0.039929 0.000000
# 6 0.000000 0.000000 0.000000 0.017254 0.000000 0.038552
#
#
# Mechanical properties :
#
#
# Convention : Reuss Voigt Hill
#
# Bulk Modulus (GPa) = 52.96477 53.45820 53.21148
# Shear Modulus (GPa) = 26.73991 33.36630 30.05311
#
# Velocity S-wave (km/s) = 3.48269 3.89036 3.69216
# Velocity P-wave (km/s) = 6.34010 6.66546 6.50481
#
# Compressibility (1/GPa) = 0.01888047
#
# Stress axis : x y z
#
# Youngs Moduli (GPa) = 119.48904 100.79534 101.29756
#
# Poissons Ratio (x) = 0.09775 0.09937
# Poissons Ratio (y) = 0.11588 0.27249
# Poissons Ratio (z) = 0.11722 0.27114
#
# Static dielectric constant tensor:
#      x y z
#    x 4.111260 0.000000 -0.037970 
#    y 0.000000 4.387200 0.000000 
#    z -0.037970 0.000000 3.670220 
# 
# 
# High freq. dielectric constant tensor:
#      x y z
#    x 1.878980 0.000000 -0.005250 
#    y 0.000000 1.887480 0.000000 
#    z -0.005250 0.000000 1.830060 
# 
# From -- ./inp_files/225703.got.cif
#   From: 2010.06.25/outbox.cif.g09.slc.cpg/sg12_113_cif.got.tgz:225703.got - 2010.06.28 00:19:55.
