data_PCOD8111495
_publ_section_title
;
Structure prediction by ZEFSAII (Michael W. Deem and Ramdas Pophale) SiO2 
 PCOD8111495
Probable space group: C 2/M
;
_chemical_formula_sum "Si O2"
_cell_formula_units_Z 40
_cell_length_a 18.187350
_cell_length_b 19.848033
_cell_length_c 5.057099
_cell_angle_alpha 90.000000
_cell_angle_beta 98.471191
_cell_angle_gamma 90.000000
_cell_volume 1805.610994
_symmetry_space_group_name_H-M "C 2/M"
_symmetry_group_IT_number 12
_symmetry_cell_setting 'monoclinic'
loop_
_space_group_symop_operation_xyz
x,y,z
-x,y,-z
-x,-y,-z
x,-y,z
1/2+x,1/2+y,z
1/2-x,1/2+y,-z
1/2-x,1/2-y,-z
1/2+x,1/2-y,z
loop_
_atom_site_type_symbol
_atom_site_label
_atom_site_fract_x
_atom_site_fract_y
_atom_site_fract_z
Si Si1 0.684222 0.861255 0.858971
Si Si2 0.962812 0.423184 0.226694
Si Si3 0.845856 0.920433 0.003826
Si Si4 0.584480 0.356597 0.446748
Si Si5 0.170622 0.724252 0.369738
O O1 0.625812 0.921173 0.869698
O O2 0.766474 0.890600 0.874944
O O3 0.652823 0.834903 0.562915
O O4 0.676046 0.802584 0.073052
O O5 0.989023 0.500000 0.245106
O O6 0.000000 0.387061 0.500000
O O7 0.000000 0.384582 0.000000
O O8 0.905024 0.905642 0.801435
O O9 0.841265 0.000000 0.051022
O O10 0.865961 0.883857 0.286894
O O11 0.500000 0.355932 0.500000
O O12 0.609293 0.282855 0.362166
O O13 0.250000 0.750000 0.500000
#
# Coordination Sequence:
#
# PCOD8111495 Si02
#       5
#     8   8   8   8   8
#     4  12  23  41  71  97 131 169 226 266 327 400
#     4  10  22  40  61  93 137 174 212 268 325 380
#     4  12  25  44  70  98 130 176 224 271 330 395
#     4  12  27  45  66  98 134 174 222 275 330 393
#     4  12  23  43  69  93 130 172 209 275 333 386
#
# _framework density 22.153167
#
# number of rings (size 3 to 8) (size 9 to 14) (size 15 to 20)
#    0.000    0.400    4.000    4.800    0.000    4.800 
#    0.000    6.000    0.000    0.000    0.000    0.000 
#    0.000    0.000    0.000    0.000    0.000    0.000 
#
# Total GULP energy -247916.578507 kJ/mol
# GULP energy per Si atom -12395.828925 kJ/mol
# Density = 2.210275 g / cm^3
# Si number density = 22.153167 Si / 1000 Ang^3
#
#
#
# Elastic Constant Matrix: (Units=GPa)
#
#
# Indices 1 2 3 4 5 6 
#
# 1 129.9478 37.1738 27.0405 0.0000 -10.7957 0.0000
# 2 37.1738 74.5986 12.3622 0.0000 -5.4890 0.0000
# 3 27.0405 12.3622 104.6767 0.0000 -17.7475 0.0000
# 4 0.0000 0.0000 0.0000 20.2634 0.0000 1.8860
# 5 -10.7957 -5.4890 -17.7475 0.0000 37.1779 0.0000
# 6 0.0000 0.0000 0.0000 1.8860 0.0000 33.3176
#
#
#
# Elastic Compliance Matrix: (Units=1/GPa)
#
#
# Indices 1 2 3 4 5 6 
#
# 1 0.009386 -0.004301 -0.001700 0.000000 0.001279 0.000000
# 2 -0.004301 0.015707 -0.000612 0.000000 0.000778 0.000000
# 3 -0.001700 -0.000612 0.010843 0.000000 0.004592 0.000000
# 4 0.000000 0.000000 0.000000 0.049611 0.000000 -0.002808
# 5 0.001279 0.000778 0.004592 0.000000 0.029576 0.000000
# 6 0.000000 0.000000 0.000000 -0.002808 0.000000 0.030173
#
#
# Mechanical properties :
#
#
# Convention : Reuss Voigt Hill
#
# Bulk Modulus (GPa) = 44.03336 51.37512 47.70424
# Shear Modulus (GPa) = 30.10360 33.66154 31.88257
#
# Velocity S-wave (km/s) = 3.69030 3.90229 3.79778
# Velocity P-wave (km/s) = 6.17072 6.59887 6.38838
#
# Compressibility (1/GPa) = 0.02271005
#
# Stress axis : x y z
#
# Youngs Moduli (GPa) = 106.54366 63.66519 92.22386
#
# Poissons Ratio (x) = 0.27385 0.15676
# Poissons Ratio (y) = 0.45828 0.05644
# Poissons Ratio (z) = 0.18110 0.03896
#
# Static dielectric constant tensor:
#      x y z
#    x 2.037200 0.000000 2.471510 
#    y 0.000000 9.545900 0.000000 
#    z 2.471510 0.000000 -0.592920 
# 
# 
# High freq. dielectric constant tensor:
#      x y z
#    x 1.881490 0.000000 -0.008920 
#    y 0.000000 1.861990 0.000000 
#    z -0.008920 0.000000 1.894710 
# 
# From -- ./inp_files/15304.got.cif
#   From: 2010.06.25/outbox.cif.g09.slc.cpg/sg12_8_cif.got.tgz:15304.got - 2010.06.28 00:19:55.
