data_PCOD8111231
_publ_section_title
;
Structure prediction by ZEFSAII (Michael W. Deem and Ramdas Pophale) SiO2 
 PCOD8111231
Probable space group: C 2/M
;
_chemical_formula_sum "Si O2"
_cell_formula_units_Z 44
_cell_length_a 9.762873
_cell_length_b 26.663006
_cell_length_c 9.862127
_cell_angle_alpha 90.000000
_cell_angle_beta 122.885713
_cell_angle_gamma 90.000000
_cell_volume 2155.808030
_symmetry_space_group_name_H-M "C 2/M"
_symmetry_group_IT_number 12
_symmetry_cell_setting 'monoclinic'
loop_
_space_group_symop_operation_xyz
x,y,z
-x,y,-z
-x,-y,-z
x,-y,z
1/2+x,1/2+y,z
1/2-x,1/2+y,-z
1/2-x,1/2-y,-z
1/2+x,1/2-y,z
loop_
_atom_site_type_symbol
_atom_site_label
_atom_site_fract_x
_atom_site_fract_y
_atom_site_fract_z
Si Si1 0.917737 0.849021 0.097487
Si Si2 0.142304 0.762976 0.311756
Si Si3 0.381951 0.443372 0.248569
Si Si4 0.500000 0.122063 0.500000
Si Si5 0.853436 0.302903 0.208712
Si Si6 0.248095 0.443969 0.462213
O O1 0.850980 0.900873 0.121775
O O2 0.042586 0.816552 0.259783
O O3 0.755075 0.817978 0.977735
O O4 0.000000 0.862752 0.000000
O O5 0.250000 0.750000 0.500000
O O6 0.258696 0.760164 0.243676
O O7 0.016279 0.717934 0.229809
O O8 0.341248 0.500000 0.174459
O O9 0.264827 0.430127 0.312463
O O10 0.572065 0.440119 0.382228
O O11 0.609937 0.153872 0.661832
O O12 0.376632 0.090797 0.525629
O O13 0.179664 0.500000 0.440901
#
# Coordination Sequence:
#
# PCOD8111231 Si02
#       6
#     8   8   8   4   8   8
#     4  10  22  39  62  92 126 162 205 259 311 365
#     4  11  21  41  60  87 120 162 205 254 304 370
#     4   9  19  39  64  92 122 158 207 252 305 370
#     4  12  21  38  60  90 124 158 211 248 308 370
#     4  11  24  40  61  88 124 160 206 258 305 367
#     4   9  19  36  61  89 123 162 202 254 303 367
#
# _framework density 20.409980999999998
#
# number of rings (size 3 to 8) (size 9 to 14) (size 15 to 20)
#    0.000    1.818    1.818    4.091    0.000    1.818 
#    6.545    4.545    0.000    2.182    0.000    0.000 
#    0.000    0.000    0.000    0.000    0.000    0.000 
#
# Total GULP energy -272632.642390 kJ/mol
# GULP energy per Si atom -12392.392836 kJ/mol
# Density = 2.036353 g / cm^3
# Si number density = 20.409981 Si / 1000 Ang^3
#
#
#
# Elastic Constant Matrix: (Units=GPa)
#
#
# Indices 1 2 3 4 5 6 
#
# 1 133.7931 72.4140 42.9921 0.0000 -0.9188 0.0000
# 2 72.4140 113.3816 64.3583 0.0000 -15.1704 0.0000
# 3 42.9921 64.3583 104.8186 0.0000 -0.9423 0.0000
# 4 0.0000 0.0000 0.0000 38.1092 0.0000 -11.0702
# 5 -0.9188 -15.1704 -0.9423 0.0000 23.3506 0.0000
# 6 0.0000 0.0000 0.0000 -11.0702 0.0000 39.0033
#
#
#
# Elastic Compliance Matrix: (Units=1/GPa)
#
#
# Indices 1 2 3 4 5 6 
#
# 1 0.011917 -0.008409 0.000230 0.000000 -0.004985 0.000000
# 2 -0.008409 0.021379 -0.009559 0.000000 0.013173 0.000000
# 3 0.000230 -0.009559 0.015265 0.000000 -0.005585 0.000000
# 4 0.000000 0.000000 0.000000 0.028598 0.000000 0.008117
# 5 -0.004985 0.013173 -0.005585 0.000000 0.050962 0.000000
# 6 0.000000 0.000000 0.000000 0.008117 0.000000 0.027943
#
#
# Mechanical properties :
#
#
# Convention : Reuss Voigt Hill
#
# Bulk Modulus (GPa) = 76.42078 79.05802 77.73940
# Shear Modulus (GPa) = 25.52305 31.57455 28.54880
#
# Velocity S-wave (km/s) = 3.54010 3.93748 3.74407
# Velocity P-wave (km/s) = 7.36437 7.71302 7.54071
#
# Compressibility (1/GPa) = 0.01308545
#
# Stress axis : x y z
#
# Youngs Moduli (GPa) = 83.91205 46.77507 65.50974
#
# Poissons Ratio (x) = 0.39333 -0.01509
# Poissons Ratio (y) = 0.70561 0.62622
# Poissons Ratio (z) = -0.01933 0.44713
#
# Static dielectric constant tensor:
#      x y z
#    x 3.983660 0.000000 0.044440 
#    y 0.000000 4.093420 0.000000 
#    z 0.044440 0.000000 3.735220 
# 
# 
# High freq. dielectric constant tensor:
#      x y z
#    x 1.809210 0.000000 0.002690 
#    y 0.000000 1.797450 0.000000 
#    z 0.002690 0.000000 1.784370 
# 
# From -- ./inp_files/41825.got.cif
#   From: 2010.06.25/outbox.cif.g09.slc.cpg/sg12_21_cif.got.tgz:41825.got - 2010.06.28 00:19:55.
