data_PCOD8111496
_publ_section_title
;
Structure prediction by ZEFSAII (Michael W. Deem and Ramdas Pophale) SiO2 
 PCOD8111496
Probable space group: C 2/M
;
_chemical_formula_sum "Si O2"
_cell_formula_units_Z 48
_cell_length_a 9.717350
_cell_length_b 21.998650
_cell_length_c 12.733543
_cell_angle_alpha 90.000000
_cell_angle_beta 66.304012
_cell_angle_gamma 90.000000
_cell_volume 2492.538961
_symmetry_space_group_name_H-M "C 2/M"
_symmetry_group_IT_number 12
_symmetry_cell_setting 'monoclinic'
loop_
_space_group_symop_operation_xyz
x,y,z
-x,y,-z
-x,-y,-z
x,-y,z
1/2+x,1/2+y,z
1/2-x,1/2+y,-z
1/2-x,1/2-y,-z
1/2+x,1/2-y,z
loop_
_atom_site_type_symbol
_atom_site_label
_atom_site_fract_x
_atom_site_fract_y
_atom_site_fract_z
Si Si1 0.367820 0.195417 0.125670
Si Si2 0.608430 0.375739 0.111134
Si Si3 0.937161 0.000000 0.770864
Si Si4 0.268893 0.000000 0.572222
Si Si5 0.500000 0.099960 0.500000
Si Si6 0.487779 0.127260 0.281270
Si Si7 0.667208 0.000000 0.689711
Si Si8 0.190034 0.166736 0.857809
O O1 0.234688 0.148178 0.150383
O O2 0.426841 0.180860 0.224682
O O3 0.291524 0.260959 0.135538
O O4 0.500000 0.186585 0.000000
O O5 0.582704 0.445404 0.143092
O O6 0.449837 0.341764 0.178501
O O7 0.659632 0.365587 0.977100
O O8 0.809376 0.000000 0.722080
O O9 0.100325 0.000000 0.666825
O O10 0.361715 0.941469 0.584444
O O11 0.265408 0.000000 0.447206
O O12 0.441216 0.139095 0.417862
O O13 0.666611 0.132756 0.230597
O O14 0.434239 0.060327 0.259508
#
# Coordination Sequence:
#
# PCOD8111496 Si02
#       8
#     8   8   4   4   4   8   4   8
#     4  12  21  41  64  88 123 170 213 244 303 373
#     4  11  23  36  58  92 127 155 203 254 303 373
#     4  12  22  37  58  96 132 153 197 261 326 356
#     4   9  19  38  65  83 125 171 202 245 298 385
#     4   9  20  40  62  96 118 164 216 241 306 370
#     4  11  22  39  67  88 124 165 204 262 301 367
#     4  10  22  40  61  94 119 158 214 251 314 369
#     4  11  23  39  61  88 120 169 210 248 300 365
#
# _framework density 19.257472
#
# number of rings (size 3 to 8) (size 9 to 14) (size 15 to 20)
#    0.000    1.167    5.000    3.250    0.000    2.667 
#    0.000    2.500    0.000    2.000    0.000    0.000 
#    0.000    0.000    0.000    0.000    0.000    0.000 
#
# Total GULP energy -297470.793282 kJ/mol
# GULP energy per Si atom -12394.616387 kJ/mol
# Density = 1.921364 g / cm^3
# Si number density = 19.257472 Si / 1000 Ang^3
#
#
#
# Elastic Constant Matrix: (Units=GPa)
#
#
# Indices 1 2 3 4 5 6 
#
# 1 112.9795 30.0252 45.8749 0.0000 -12.2705 0.0000
# 2 30.0252 103.0566 57.6629 0.0000 -13.5558 0.0000
# 3 45.8749 57.6629 96.7377 0.0000 8.8570 0.0000
# 4 0.0000 0.0000 0.0000 -1.8322 0.0000 -17.7215
# 5 -12.2705 -13.5558 8.8570 0.0000 36.0497 0.0000
# 6 0.0000 0.0000 0.0000 -17.7215 0.0000 18.0410
#
#
#
# Elastic Compliance Matrix: (Units=1/GPa)
#
#
# Indices 1 2 3 4 5 6 
#
# 1 0.012065 0.001260 -0.007050 0.000000 0.006313 0.000000
# 2 0.001260 0.017191 -0.011740 0.000000 0.009778 0.000000
# 3 -0.007050 -0.011740 0.021793 0.000000 -0.012169 0.000000
# 4 0.000000 0.000000 0.000000 -0.051975 0.000000 -0.051055
# 5 0.006313 0.009778 -0.012169 0.000000 0.036555 0.000000
# 6 0.000000 0.000000 0.000000 -0.051055 0.000000 0.005279
#
#
# Mechanical properties :
#
#
# Convention : Reuss Voigt Hill
#
# Bulk Modulus (GPa) = 62.54666 64.43332 63.48999
# Shear Modulus (GPa) = 61.50291 22.39907 41.95099
#
# Velocity S-wave (km/s) = 5.65743 3.41418 4.67243
# Velocity P-wave (km/s) = 8.67324 7.00526 7.88348
#
# Compressibility (1/GPa) = 0.01598806
#
# Stress axis : x y z
#
# Youngs Moduli (GPa) = 82.88665 58.16881 45.88652
#
# Poissons Ratio (x) = -0.07331 0.32352
# Poissons Ratio (y) = -0.10446 0.53872
# Poissons Ratio (z) = 0.58439 0.68291
#
# Static dielectric constant tensor:
#      x y z
#    x 3.995950 0.000000 0.071510 
#    y 0.000000 3.474320 0.000000 
#    z 0.071510 0.000000 3.401350 
# 
# 
# High freq. dielectric constant tensor:
#      x y z
#    x 1.774130 0.000000 0.008670 
#    y 0.000000 1.741450 0.000000 
#    z 0.008670 0.000000 1.733660 
# 
# From -- ./inp_files/122523.got.cif
#   From: 2010.06.25/outbox.cif.g09.slc.cpg/sg12_62_cif.got.tgz:122523.got - 2010.06.28 00:19:55.
