data_PCOD8111834
_publ_section_title
;
Structure prediction by ZEFSAII (Michael W. Deem and Ramdas Pophale) SiO2 
 PCOD8111834
Probable space group: C 2/M
;
_chemical_formula_sum "Si O2"
_cell_formula_units_Z 48
_cell_length_a 26.700712
_cell_length_b 8.721598
_cell_length_c 15.203555
_cell_angle_alpha 90.000000
_cell_angle_beta 40.675387
_cell_angle_gamma 90.000000
_cell_volume 2307.598245
_symmetry_space_group_name_H-M "C 2/M"
_symmetry_group_IT_number 12
_symmetry_cell_setting 'monoclinic'
loop_
_space_group_symop_operation_xyz
x,y,z
-x,y,-z
-x,-y,-z
x,-y,z
1/2+x,1/2+y,z
1/2-x,1/2+y,-z
1/2-x,1/2-y,-z
1/2+x,1/2-y,z
loop_
_atom_site_type_symbol
_atom_site_label
_atom_site_fract_x
_atom_site_fract_y
_atom_site_fract_z
Si Si1 0.970692 0.678736 0.775878
Si Si2 0.730640 0.678407 0.261248
Si Si3 0.054629 0.821557 0.506433
Si Si4 0.784092 0.823443 0.368229
Si Si5 0.964955 0.824733 0.138386
Si Si6 0.193060 0.180072 0.005379
O O1 0.953902 0.500000 0.791863
O O2 0.892678 0.767620 0.858433
O O3 0.034938 0.726231 0.619659
O O4 0.001598 0.716803 0.831106
O O5 0.748604 0.500000 0.224677
O O6 0.641433 0.714467 0.361715
O O7 0.751200 0.727728 0.331542
O O8 0.783473 0.771927 0.123897
O O9 0.000000 0.768450 0.500000
O O10 0.043638 0.000000 0.543472
O O11 0.750000 0.750000 0.500000
O O12 0.874647 0.806970 0.252242
O O13 0.758592 0.000000 0.393534
O O14 0.989259 0.000000 0.126223
O O15 0.000000 0.768297 0.000000
O O16 0.196927 0.000000 0.009170
O O17 0.250000 0.250000 0.000000
#
# Coordination Sequence:
#
# PCOD8111834 Si02
#       6
#     8   8   8   8   8   8
#     4  12  25  40  63  94 126 161 204 254 306 364
#     4  11  23  40  64  94 126 162 207 257 312 372
#     4  10  22  41  64  89 122 164 205 250 305 364
#     4  11  23  39  61  89 123 164 207 255 311 368
#     4  10  22  41  63  86 116 159 207 253 305 362
#     4  12  25  43  66  92 126 164 205 253 306 366
#
# _framework density 20.800847999999998
#
# number of rings (size 3 to 8) (size 9 to 14) (size 15 to 20)
#    0.000    1.000    0.000    7.000    0.000   10.000 
#    0.000    0.000    0.000    0.000    0.000    0.000 
#    0.000    0.000    0.000    0.000    0.000    0.000 
#
# Total GULP energy -297810.030841 kJ/mol
# GULP energy per Si atom -12408.751285 kJ/mol
# Density = 2.075350 g / cm^3
# Si number density = 20.800848 Si / 1000 Ang^3
#
#
#
# Elastic Constant Matrix: (Units=GPa)
#
#
# Indices 1 2 3 4 5 6 
#
# 1 81.5262 28.4226 2.3121 -0.0010 6.5339 0.0013
# 2 28.4226 126.6360 36.3269 0.0027 -2.8142 -0.0009
# 3 2.3121 36.3269 90.9777 0.0007 10.2102 0.0002
# 4 -0.0010 0.0027 0.0007 25.6781 -0.0009 -1.0989
# 5 6.5339 -2.8142 10.2102 -0.0009 37.5019 0.0005
# 6 0.0013 -0.0009 0.0002 -1.0989 0.0005 37.8609
#
#
#
# Elastic Compliance Matrix: (Units=1/GPa)
#
#
# Indices 1 2 3 4 5 6 
#
# 1 0.013707 -0.003548 0.001409 0.000001 -0.003038 0.000000
# 2 -0.003548 0.009942 -0.004160 -0.000001 0.002497 0.000000
# 3 0.001409 -0.004160 0.013079 0.000000 -0.004119 0.000000
# 4 0.000001 -0.000001 0.000000 0.038992 0.000001 0.001132
# 5 -0.003038 0.002497 -0.004119 0.000001 0.028503 0.000000
# 6 0.000000 0.000000 0.000000 0.001132 0.000000 0.026445
#
#
# Mechanical properties :
#
#
# Convention : Reuss Voigt Hill
#
# Bulk Modulus (GPa) = 41.44165 48.14038 44.79101
# Shear Modulus (GPa) = 33.04508 35.68007 34.36257
#
# Velocity S-wave (km/s) = 3.99010 4.14613 4.06886
# Velocity P-wave (km/s) = 6.41827 6.79075 6.60713
#
# Compressibility (1/GPa) = 0.02413031
#
# Stress axis : x y z
#
# Youngs Moduli (GPa) = 72.95807 100.58587 76.45811
#
# Poissons Ratio (x) = 0.35689 -0.10776
# Poissons Ratio (y) = 0.25887 0.31804
# Poissons Ratio (z) = -0.10282 0.41841
#
# Static dielectric constant tensor:
#      x y z
#    x 3.861750 0.000000 -0.033330 
#    y 0.000000 3.869830 0.000000 
#    z -0.033330 0.000000 4.091940 
# 
# 
# High freq. dielectric constant tensor:
#      x y z
#    x 1.829090 0.000000 -0.000340 
#    y 0.000000 1.818490 0.000000 
#    z -0.000340 0.000000 1.832380 
# 
# From -- ./inp_files/244606.got.cif
#   From: 2010.06.25/outbox.cif.g09.slc.cpg/sg12_123_cif.got.tgz:244606.got - 2010.06.28 00:19:55.
