data_PCOD8111882
_publ_section_title
;
Structure prediction by ZEFSAII (Michael W. Deem and Ramdas Pophale) SiO2 
 PCOD8111882
Probable space group: C 2/M
;
_chemical_formula_sum "Si O2"
_cell_formula_units_Z 48
_cell_length_a 17.221632
_cell_length_b 11.037216
_cell_length_c 24.297507
_cell_angle_alpha 90.000000
_cell_angle_beta 148.939498
_cell_angle_gamma 90.000000
_cell_volume 2382.852833
_symmetry_space_group_name_H-M "C 2/M"
_symmetry_group_IT_number 12
_symmetry_cell_setting 'monoclinic'
loop_
_space_group_symop_operation_xyz
x,y,z
-x,y,-z
-x,-y,-z
x,-y,z
1/2+x,1/2+y,z
1/2-x,1/2+y,-z
1/2-x,1/2-y,-z
1/2+x,1/2-y,z
loop_
_atom_site_type_symbol
_atom_site_label
_atom_site_fract_x
_atom_site_fract_y
_atom_site_fract_z
Si Si1 0.599869 0.231563 0.808703
Si Si2 0.927213 0.765232 0.812908
Si Si3 0.386568 0.500000 0.853279
Si Si4 0.774645 0.000000 0.903119
Si Si5 0.603641 0.141265 0.014437
Si Si6 0.163377 0.135797 0.599894
Si Si7 0.178099 0.357879 0.420315
O O1 0.506399 0.287627 0.802329
O O2 0.722240 0.331802 0.864691
O O3 0.492249 0.187917 0.693670
O O4 0.695409 0.113849 0.883754
O O5 0.776282 0.688317 0.713567
O O6 0.861680 0.886063 0.799252
O O7 0.051556 0.700659 0.926005
O O8 0.268027 0.500000 0.832136
O O9 0.554056 0.500000 0.976777
O O10 0.578619 0.000000 0.993892
O O11 0.500000 0.196519 0.000000
O O12 0.232955 0.141280 0.582100
O O13 0.000000 0.202750 0.500000
O O14 0.136679 0.000000 0.603969
O O15 0.179723 0.500000 0.444692
O O16 0.250000 0.250000 0.500000
#
# Coordination Sequence:
#
# PCOD8111882 Si02
#       7
#     8   8   4   4   8   8   8
#     4  11  23  39  64  86 121 164 207 249 306 374
#     4  11  23  38  62  89 123 159 209 251 301 372
#     4  11  24  38  59  92 126 164 205 250 309 371
#     4  11  22  40  62  86 123 170 206 244 305 380
#     4  11  24  38  58  92 127 156 200 256 307 364
#     4   9  20  41  65  86 116 159 204 250 309 372
#     4  10  22  41  63  92 120 161 209 258 312 374
#
# _framework density 20.143920999999999
#
# number of rings (size 3 to 8) (size 9 to 14) (size 15 to 20)
#    0.000    1.500    2.500    2.000    3.500    3.333 
#    4.500    3.750    0.000    0.000    0.000    0.000 
#    0.000    0.000    0.000    0.000    0.000    0.000 
#
# Total GULP energy -297442.128286 kJ/mol
# GULP energy per Si atom -12393.422012 kJ/mol
# Density = 2.009807 g / cm^3
# Si number density = 20.143921 Si / 1000 Ang^3
#
#
#
# Elastic Constant Matrix: (Units=GPa)
#
#
# Indices 1 2 3 4 5 6 
#
# 1 62.7643 24.9781 29.6403 0.0000 7.8324 -0.0001
# 2 24.9781 98.9362 46.5860 0.0006 -11.7001 0.0002
# 3 29.6403 46.5860 125.0507 0.0025 15.1840 0.0012
# 4 0.0000 0.0006 0.0025 37.0787 0.0006 0.5636
# 5 7.8324 -11.7001 15.1840 0.0006 32.3667 0.0002
# 6 -0.0001 0.0002 0.0012 0.5636 0.0002 28.7480
#
#
#
# Elastic Compliance Matrix: (Units=1/GPa)
#
#
# Indices 1 2 3 4 5 6 
#
# 1 0.019445 -0.004432 -0.002325 0.000000 -0.005217 0.000000
# 2 -0.004432 0.014955 -0.005628 0.000000 0.009119 0.000000
# 3 -0.002325 -0.005628 0.011477 -0.000001 -0.006856 0.000000
# 4 0.000000 0.000000 -0.000001 0.026978 0.000000 -0.000529
# 5 -0.005217 0.009119 -0.006856 0.000000 0.038671 0.000000
# 6 0.000000 0.000000 0.000000 -0.000529 0.000000 0.034795
#
#
# Mechanical properties :
#
#
# Convention : Reuss Voigt Hill
#
# Bulk Modulus (GPa) = 47.37475 54.35112 50.86293
# Shear Modulus (GPa) = 28.07011 32.00844 30.03928
#
# Velocity S-wave (km/s) = 3.73698 3.99054 3.86584
# Velocity P-wave (km/s) = 6.49532 6.94784 6.72539
#
# Compressibility (1/GPa) = 0.02110829
#
# Stress axis : x y z
#
# Youngs Moduli (GPa) = 51.42692 66.86830 87.13175
#
# Poissons Ratio (x) = 0.29633 0.20255
# Poissons Ratio (y) = 0.22790 0.49038
# Poissons Ratio (z) = 0.11955 0.37634
#
# Static dielectric constant tensor:
#      x y z
#    x 3.732140 0.000000 0.129070 
#    y 0.000000 3.853210 0.000000 
#    z 0.129070 0.000000 3.797380 
# 
# 
# High freq. dielectric constant tensor:
#      x y z
#    x 1.783070 0.000000 0.016230 
#    y 0.000000 1.787960 0.000000 
#    z 0.016230 0.000000 1.786520 
# 
# From -- ./inp_files/343460.got.cif
#   From: 2010.06.25/outbox.cif.g09.slc.cpg/sg12_172_cif.got.tgz:343460.got - 2010.06.28 00:19:55.
