data_PCOD8111043
_publ_section_title
;
Structure prediction by ZEFSAII (Michael W. Deem and Ramdas Pophale) SiO2 
 PCOD8111043
Probable space group: C 2/M
;
_chemical_formula_sum "Si O2"
_cell_formula_units_Z 56
_cell_length_a 21.622528
_cell_length_b 13.936564
_cell_length_c 19.679539
_cell_angle_alpha 90.000000
_cell_angle_beta 152.120648
_cell_angle_gamma 90.000000
_cell_volume 2773.078071
_symmetry_space_group_name_H-M "C 2/M"
_symmetry_group_IT_number 12
_symmetry_cell_setting 'monoclinic'
loop_
_space_group_symop_operation_xyz
x,y,z
-x,y,-z
-x,-y,-z
x,-y,z
1/2+x,1/2+y,z
1/2-x,1/2+y,-z
1/2-x,1/2-y,-z
1/2+x,1/2-y,z
loop_
_atom_site_type_symbol
_atom_site_label
_atom_site_fract_x
_atom_site_fract_y
_atom_site_fract_z
Si Si1 0.870853 0.396924 0.416739
Si Si2 0.670952 0.112494 0.224265
Si Si3 0.217006 0.887655 0.029767
Si Si4 0.348343 0.301945 0.167440
Si Si5 0.561262 0.297736 0.483940
Si Si6 0.115612 0.613326 0.020764
Si Si7 0.130618 0.887982 0.094404
O O1 0.827927 0.500000 0.408765
O O2 0.903871 0.312857 0.502079
O O3 0.760349 0.350230 0.259606
O O4 0.000000 0.419643 0.500000
O O5 0.803925 0.142904 0.392021
O O6 0.663157 0.154668 0.140166
O O7 0.671605 0.000000 0.215399
O O8 0.539586 0.140768 0.139504
O O9 0.343182 0.814261 0.151917
O O10 0.135029 0.866736 0.018736
O O11 0.262481 0.000000 0.070611
O O12 0.122982 0.858870 0.874953
O O13 0.457826 0.335657 0.327877
O O14 0.201354 0.333619 0.047414
O O15 0.500000 0.306637 0.500000
O O16 0.138495 0.500000 0.036098
O O17 0.127756 0.000000 0.105787
O O18 0.000000 0.839180 0.000000
#
# Coordination Sequence:
#
# PCOD8111043 Si02
#       7
#     8   8   8   8   8   8   8
#     4   9  18  32  51  78 113 147 180 228 289 341
#     4   9  19  33  52  80 117 150 185 233 283 329
#     4  10  22  39  57  83 117 153 194 241 286 341
#     4  11  22  36  59  85 113 153 198 234 284 342
#     4  11  20  32  51  85 118 148 188 238 287 337
#     4   9  18  35  55  79 110 151 192 230 277 335
#     4   9  18  34  58  84 107 138 186 238 286 335
#
# _framework density 20.194165999999999
#
# number of rings (size 3 to 8) (size 9 to 14) (size 15 to 20)
#    0.000    2.286    1.429    3.000    0.000    4.286 
#    0.000    0.000    0.000    9.429    0.000   18.000 
#    0.000    0.000    0.000    0.000    0.000    0.000 
#
# Total GULP energy -346924.268621 kJ/mol
# GULP energy per Si atom -12390.152451 kJ/mol
# Density = 2.014820 g / cm^3
# Si number density = 20.194166 Si / 1000 Ang^3
#
#
#
# Elastic Constant Matrix: (Units=GPa)
#
#
# Indices 1 2 3 4 5 6 
#
# 1 69.2799 16.3263 45.7099 0.0003 3.3498 -0.0002
# 2 16.3263 45.0819 9.3624 0.0011 7.9145 0.0005
# 3 45.7099 9.3624 136.8175 0.0024 11.3118 0.0020
# 4 0.0003 0.0011 0.0024 27.2736 0.0026 0.8288
# 5 3.3498 7.9145 11.3118 0.0026 27.8847 0.0020
# 6 -0.0002 0.0005 0.0020 0.8288 0.0020 22.5900
#
#
#
# Elastic Compliance Matrix: (Units=1/GPa)
#
#
# Indices 1 2 3 4 5 6 
#
# 1 0.020066 -0.006278 -0.006438 0.000000 0.001983 0.000001
# 2 -0.006278 0.025466 0.000921 0.000000 -0.006847 0.000000
# 3 -0.006438 0.000921 0.009679 0.000000 -0.003414 -0.000001
# 4 0.000000 0.000000 0.000000 0.036706 -0.000003 -0.001347
# 5 0.001983 -0.006847 -0.003414 -0.000003 0.038952 -0.000003
# 6 0.000001 0.000000 -0.000001 -0.001347 -0.000003 0.044317
#
#
# Mechanical properties :
#
#
# Convention : Reuss Voigt Hill
#
# Bulk Modulus (GPa) = 31.62471 43.77518 37.69995
# Shear Modulus (GPa) = 23.88723 27.53504 25.71113
#
# Velocity S-wave (km/s) = 3.44303 3.69659 3.57206
# Velocity P-wave (km/s) = 5.61251 6.32012 5.97679
#
# Compressibility (1/GPa) = 0.03162084
#
# Stress axis : x y z
#
# Youngs Moduli (GPa) = 49.83677 39.26772 103.31397
#
# Poissons Ratio (x) = 0.24651 0.66515
# Poissons Ratio (y) = 0.31286 -0.09514
# Poissons Ratio (z) = 0.32086 -0.03616
#
# Static dielectric constant tensor:
#      x y z
#    x 3.415970 0.000000 0.133950 
#    y 0.000000 3.928780 0.000000 
#    z 0.133950 0.000000 3.816740 
# 
# 
# High freq. dielectric constant tensor:
#      x y z
#    x 1.747210 0.000000 0.008110 
#    y 0.000000 1.809170 0.000000 
#    z 0.008110 0.000000 1.776090 
# 
# From -- ./inp_files/284595.got.cif
#   From: 2010.06.25/outbox.cif.g09.slc.cpg/sg12_143_cif.got.tgz:284595.got - 2010.06.28 00:19:55.
