data_PCOD8111856
_publ_section_title
;
Structure prediction by ZEFSAII (Michael W. Deem and Ramdas Pophale) SiO2 
 PCOD8111856
Probable space group: C 2/M
;
_chemical_formula_sum "Si O2"
_cell_formula_units_Z 48
_cell_length_a 9.311615
_cell_length_b 13.725460
_cell_length_c 23.227739
_cell_angle_alpha 90.000000
_cell_angle_beta 45.300107
_cell_angle_gamma 90.000000
_cell_volume 2110.118074
_symmetry_space_group_name_H-M "C 2/M"
_symmetry_group_IT_number 12
_symmetry_cell_setting 'monoclinic'
loop_
_space_group_symop_operation_xyz
x,y,z
-x,y,-z
-x,-y,-z
x,-y,z
1/2+x,1/2+y,z
1/2-x,1/2+y,-z
1/2-x,1/2-y,-z
1/2+x,1/2-y,z
loop_
_atom_site_type_symbol
_atom_site_label
_atom_site_fract_x
_atom_site_fract_y
_atom_site_fract_z
Si Si1 0.908054 0.383562 0.859611
Si Si2 0.224860 0.886255 0.681475
Si Si3 0.184451 0.616265 0.986646
Si Si4 0.481251 0.270839 0.441995
Si Si5 0.852838 0.114054 0.709811
Si Si6 0.627898 0.384257 0.835697
O O1 0.911543 0.500000 0.857613
O O2 0.760036 0.343091 0.851493
O O3 0.133226 0.340549 0.786014
O O4 0.833101 0.346000 0.942793
O O5 0.396450 0.830104 0.598009
O O6 0.231947 0.853525 0.746257
O O7 0.004613 0.859248 0.718597
O O8 0.270482 0.000000 0.661075
O O9 0.178919 0.500000 0.986528
O O10 0.398369 0.656368 0.902304
O O11 0.000000 0.657541 0.000000
O O12 0.500000 0.316264 0.500000
O O13 0.250000 0.250000 0.500000
O O14 0.565375 0.348410 0.373672
O O15 0.828855 0.000000 0.709691
O O16 0.617292 0.500000 0.842733
#
# Coordination Sequence:
#
# PCOD8111856 Si02
#       6
#     8   8   8   8   8   8
#     4   9  17  29  50  82 118 155 199 248 294 343
#     4  10  22  41  64  88 121 162 201 243 300 365
#     4   9  15  25  45  76 117 160 201 242 287 347
#     4  12  26  44  65  92 120 153 199 251 308 366
#     4  10  22  41  63  89 122 160 200 246 301 361
#     4   9  17  29  50  82 117 156 200 246 294 345
#
# _framework density 22.747540999999998
#
# number of rings (size 3 to 8) (size 9 to 14) (size 15 to 20)
#    0.000    2.167    1.667    1.500    2.333    7.333 
#    0.000    0.000    0.000    1.000    0.000    0.000 
#    0.000    0.000    0.000    0.000    0.000    0.000 
#
# Total GULP energy -297657.507248 kJ/mol
# GULP energy per Si atom -12402.396135 kJ/mol
# Density = 2.269577 g / cm^3
# Si number density = 22.747541 Si / 1000 Ang^3
#
#
#
# Elastic Constant Matrix: (Units=GPa)
#
#
# Indices 1 2 3 4 5 6 
#
# 1 158.5182 11.3519 54.1825 0.0001 2.7567 0.0003
# 2 11.3519 11.8592 -1.2590 -0.0001 -3.6065 0.0002
# 3 54.1825 -1.2590 135.9010 0.0001 0.0945 0.0004
# 4 0.0001 -0.0001 0.0001 16.3826 0.0002 0.3020
# 5 2.7567 -3.6065 0.0945 0.0002 58.2440 -0.0004
# 6 0.0003 0.0002 0.0004 0.3020 -0.0004 20.3841
#
#
#
# Elastic Compliance Matrix: (Units=1/GPa)
#
#
# Indices 1 2 3 4 5 6 
#
# 1 0.008041 -0.008317 -0.003282 0.000000 -0.000890 0.000000
# 2 -0.008317 0.094628 0.004188 0.000001 0.006246 -0.000001
# 3 -0.003282 0.004188 0.008706 0.000000 0.000401 0.000000
# 4 0.000000 0.000001 0.000000 0.061057 0.000000 -0.000905
# 5 -0.000890 0.006246 0.000401 0.000000 0.017597 0.000000
# 6 0.000000 -0.000001 0.000000 -0.000905 0.000000 0.049071
#
#
# Mechanical properties :
#
#
# Convention : Reuss Voigt Hill
#
# Bulk Modulus (GPa) = 10.35704 48.31436 29.33570
# Shear Modulus (GPa) = 17.47598 35.13566 26.30582
#
# Velocity S-wave (km/s) = 2.77475 3.93439 3.40431
# Velocity P-wave (km/s) = 3.85079 6.47493 5.32698
#
# Compressibility (1/GPa) = 0.09655271
#
# Stress axis : x y z
#
# Youngs Moduli (GPa) = 124.35547 10.56771 114.86968
#
# Poissons Ratio (x) = 0.08789 0.37706
# Poissons Ratio (y) = 1.03423 -0.48109
# Poissons Ratio (z) = 0.40820 -0.04426
#
# Static dielectric constant tensor:
#      x y z
#    x 4.331890 0.000000 -0.053360 
#    y 0.000000 3.760360 0.000000 
#    z -0.053360 0.000000 4.036290 
# 
# 
# High freq. dielectric constant tensor:
#      x y z
#    x 1.909720 0.000000 0.000680 
#    y 0.000000 1.888030 0.000000 
#    z 0.000680 0.000000 1.902580 
# 
# From -- ./inp_files/256725.got.cif
#   From: 2010.06.25/outbox.cif.g09.slc.cpg/sg12_129_cif.got.tgz:256725.got - 2010.06.28 00:19:55.
