data_PCOD8111919
_publ_section_title
;
Structure prediction by ZEFSAII (Michael W. Deem and Ramdas Pophale) SiO2 
 PCOD8111919
Probable space group: C 2/M
;
_chemical_formula_sum "Si O2"
_cell_formula_units_Z 40
_cell_length_a 17.655788
_cell_length_b 8.500646
_cell_length_c 13.482993
_cell_angle_alpha 90.000000
_cell_angle_beta 71.121876
_cell_angle_gamma 90.000000
_cell_volume 1914.751434
_symmetry_space_group_name_H-M "C 2/M"
_symmetry_group_IT_number 12
_symmetry_cell_setting 'monoclinic'
loop_
_space_group_symop_operation_xyz
x,y,z
-x,y,-z
-x,-y,-z
x,-y,z
1/2+x,1/2+y,z
1/2-x,1/2+y,-z
1/2-x,1/2-y,-z
1/2+x,1/2-y,z
loop_
_atom_site_type_symbol
_atom_site_label
_atom_site_fract_x
_atom_site_fract_y
_atom_site_fract_z
Si Si1 0.786405 0.182161 0.200632
Si Si2 0.876649 0.182866 0.802666
Si Si3 0.990088 0.318690 0.387671
Si Si4 0.683318 0.816817 0.599947
Si Si5 0.089010 0.678915 0.002274
O O1 0.701980 0.216958 0.186084
O O2 0.795755 0.282514 0.295796
O O3 0.855697 0.224432 0.095110
O O4 0.791778 0.000000 0.226679
O O5 0.942471 0.213038 0.691118
O O6 0.854143 0.000000 0.814600
O O7 0.911990 0.236635 0.892014
O O8 0.000360 0.500000 0.349325
O O9 0.904035 0.249340 0.391277
O O10 0.000000 0.301478 0.500000
O O11 0.750000 0.750000 0.500000
O O12 0.681341 0.000000 0.581875
O O13 0.120582 0.500000 0.998178
O O14 0.000000 0.681738 0.000000
#
# Coordination Sequence:
#
# PCOD8111919 Si02
#       5
#     8   8   8   8   8
#     4  12  25  42  64  90 125 165 208 257 308 365
#     4  12  25  41  64  93 125 161 206 257 309 368
#     4  10  22  41  64  91 125 164 204 250 307 366
#     4  11  23  40  64  94 128 165 207 254 306 366
#     4  11  24  43  66  92 125 163 204 252 308 369
#
# _framework density 20.890440999999999
#
# number of rings (size 3 to 8) (size 9 to 14) (size 15 to 20)
#    0.000    0.800    0.000    7.800    0.000   10.000 
#    0.000    0.000    0.000    0.000    0.000    0.000 
#    0.000    0.000    0.000    0.000    0.000    0.000 
#
# Total GULP energy -248163.797020 kJ/mol
# GULP energy per Si atom -12408.189851 kJ/mol
# Density = 2.084289 g / cm^3
# Si number density = 20.890441 Si / 1000 Ang^3
#
#
#
# Elastic Constant Matrix: (Units=GPa)
#
#
# Indices 1 2 3 4 5 6 
#
# 1 107.6094 24.5466 33.0498 0.0000 -11.8356 0.0000
# 2 24.5466 70.1465 10.7554 0.0000 -6.7533 0.0000
# 3 33.0498 10.7554 103.6721 0.0000 2.5879 0.0000
# 4 0.0000 0.0000 0.0000 12.0472 0.0000 -11.8056
# 5 -11.8356 -6.7533 2.5879 0.0000 34.4919 0.0000
# 6 0.0000 0.0000 0.0000 -11.8056 0.0000 17.9707
#
#
#
# Elastic Compliance Matrix: (Units=1/GPa)
#
#
# Indices 1 2 3 4 5 6 
#
# 1 0.011450 -0.003140 -0.003414 0.000000 0.003570 0.000000
# 2 -0.003140 0.015654 -0.000674 0.000000 0.002038 0.000000
# 3 -0.003414 -0.000674 0.010857 0.000000 -0.002118 0.000000
# 4 0.000000 0.000000 0.000000 0.233010 0.000000 0.153072
# 5 0.003570 0.002038 -0.002118 0.000000 0.030775 0.000000
# 6 0.000000 0.000000 0.000000 0.153072 0.000000 0.156205
#
#
# Mechanical properties :
#
#
# Convention : Reuss Voigt Hill
#
# Bulk Modulus (GPa) = 42.54137 46.45908 44.50022
# Shear Modulus (GPa) = 10.41143 27.10703 18.75923
#
# Velocity S-wave (km/s) = 2.23487 3.60610 2.99988
# Velocity P-wave (km/s) = 5.20267 6.29494 5.77469
#
# Compressibility (1/GPa) = 0.02350653
#
# Stress axis : x y z
#
# Youngs Moduli (GPa) = 87.33495 63.88098 92.10803
#
# Poissons Ratio (x) = 0.20056 0.31442
# Poissons Ratio (y) = 0.27420 0.06208
# Poissons Ratio (z) = 0.29813 0.04306
#
# Static dielectric constant tensor:
#      x y z
#    x 4.090300 0.000000 -0.041990 
#    y 0.000000 3.887430 0.000000 
#    z -0.041990 0.000000 3.796280 
# 
# 
# High freq. dielectric constant tensor:
#      x y z
#    x 1.837280 0.000000 0.000350 
#    y 0.000000 1.823710 0.000000 
#    z 0.000350 0.000000 1.834760 
# 
# From -- ./inp_files/151722.got.cif
#   From: 2010.06.25/outbox.cif.g09.slc.cpg/sg12_76_cif.got.tgz:151722.got - 2010.06.28 00:19:55.
