data_PCOD8111105
_publ_section_title
;
Structure prediction by ZEFSAII (Michael W. Deem and Ramdas Pophale) SiO2 
 PCOD8111105
Probable space group: C 2/M
;
_chemical_formula_sum "Si O2"
_cell_formula_units_Z 56
_cell_length_a 21.561968
_cell_length_b 28.416917
_cell_length_c 9.517943
_cell_angle_alpha 90.000000
_cell_angle_beta 151.970078
_cell_angle_gamma 90.000000
_cell_volume 2740.589793
_symmetry_space_group_name_H-M "C 2/M"
_symmetry_group_IT_number 12
_symmetry_cell_setting 'monoclinic'
loop_
_space_group_symop_operation_xyz
x,y,z
-x,y,-z
-x,-y,-z
x,-y,z
1/2+x,1/2+y,z
1/2-x,1/2+y,-z
1/2-x,1/2-y,-z
1/2+x,1/2-y,z
loop_
_atom_site_type_symbol
_atom_site_label
_atom_site_fract_x
_atom_site_fract_y
_atom_site_fract_z
Si Si1 0.433857 0.405423 0.720288
Si Si2 0.603651 0.553523 0.830622
Si Si3 0.257613 0.180087 0.662345
Si Si4 0.599353 0.000000 0.329054
Si Si5 0.903702 0.571142 0.430656
Si Si6 0.880700 0.723613 0.668670
Si Si7 0.496415 0.174966 0.336780
Si Si8 0.148321 0.000000 0.353939
O O1 0.554045 0.411315 0.852195
O O2 0.356711 0.357245 0.538799
O O3 0.337025 0.451867 0.524313
O O4 0.500000 0.399153 0.000000
O O5 0.500000 0.559854 0.500000
O O6 0.603412 0.500000 0.886542
O O7 0.751400 0.566515 0.075930
O O8 0.219438 0.234895 0.569587
O O9 0.329333 0.176596 0.652567
O O10 0.349543 0.171935 0.980847
O O11 0.574867 0.955050 0.378552
O O12 0.747899 0.000000 0.566023
O O13 0.500000 0.000000 0.000000
O O14 0.000000 0.550999 0.500000
O O15 0.936212 0.624555 0.523965
O O16 0.919009 0.708404 0.590774
O O17 0.000000 0.745262 0.000000
O O18 0.500000 0.197005 0.500000
O O19 0.000000 0.000000 0.000000
#
# Coordination Sequence:
#
# PCOD8111105 Si02
#       8
#     8   8   8   4   8   8   8   4
#     4  11  23  39  64  94 128 167 211 271 324 384
#     4  11  25  44  66  92 128 176 226 269 320 381
#     4  10  22  40  68  94 127 168 218 263 334 394
#     4  12  27  37  63 101 125 171 228 268 322 384
#     4  11  25  46  65  90 134 177 221 270 331 397
#     4   9  20  42  66  95 126 164 216 271 329 397
#     4  10  24  41  64  93 129 171 210 271 330 392
#     4  10  22  39  59  89 134 163 206 272 322 372
#
# _framework density 20.433557
#
# number of rings (size 3 to 8) (size 9 to 14) (size 15 to 20)
#    0.000    1.571    1.429    2.357   10.000    1.143 
#    0.000    0.714    0.000    0.000    0.000    0.000 
#    0.000    0.000    0.000    0.000    0.000    0.000 
#
# Total GULP energy -346956.091598 kJ/mol
# GULP energy per Si atom -12391.288986 kJ/mol
# Density = 2.038705 g / cm^3
# Si number density = 20.433557 Si / 1000 Ang^3
#
#
#
# Elastic Constant Matrix: (Units=GPa)
#
#
# Indices 1 2 3 4 5 6 
#
# 1 160.7767 34.6723 69.6057 0.0000 2.8880 0.0000
# 2 34.6723 77.2437 44.9225 0.0000 -0.0283 0.0000
# 3 69.6057 44.9225 142.8557 0.0000 1.7693 0.0000
# 4 0.0000 0.0000 0.0000 32.2651 0.0000 0.8787
# 5 2.8880 -0.0283 1.7693 0.0000 35.8290 0.0000
# 6 0.0000 0.0000 0.0000 0.8787 0.0000 -21.3337
#
#
#
# Elastic Compliance Matrix: (Units=1/GPa)
#
#
# Indices 1 2 3 4 5 6 
#
# 1 0.008055 -0.001636 -0.003404 0.000000 -0.000482 0.000000
# 2 -0.001636 0.016178 -0.004295 0.000000 0.000357 0.000000
# 3 -0.003404 -0.004295 0.010012 0.000000 -0.000223 0.000000
# 4 0.000000 0.000000 0.000000 0.030958 0.000000 0.001275
# 5 -0.000482 0.000357 -0.000223 0.000000 0.027961 0.000000
# 6 0.000000 0.000000 0.000000 0.001275 0.000000 -0.046822
#
#
# Mechanical properties :
#
#
# Convention : Reuss Voigt Hill
#
# Bulk Modulus (GPa) = 64.20426 75.47521 69.83973
# Shear Modulus (GPa) = 71.22025 24.79713 48.00869
#
# Velocity S-wave (km/s) = 5.91018 3.48738 4.85242
# Velocity P-wave (km/s) = 8.83532 7.29609 8.10234
#
# Compressibility (1/GPa) = 0.01557529
#
# Stress axis : x y z
#
# Youngs Moduli (GPa) = 124.14395 61.81173 99.87890
#
# Poissons Ratio (x) = 0.10112 0.34003
# Poissons Ratio (y) = 0.20310 0.42895
# Poissons Ratio (z) = 0.42264 0.26546
#
# Static dielectric constant tensor:
#      x y z
#    x 3.988030 0.000000 -0.011570 
#    y 0.000000 3.769180 0.000000 
#    z -0.011570 0.000000 3.799960 
# 
# 
# High freq. dielectric constant tensor:
#      x y z
#    x 1.812070 0.000000 0.003030 
#    y 0.000000 1.789800 0.000000 
#    z 0.003030 0.000000 1.798940 
# 
# From -- ./inp_files/91690.got.cif
#   From: 2010.06.25/outbox.cif.g09.slc.cpg/sg12_46_cif.got.tgz:91690.got - 2010.06.28 00:19:55.
