data_PCOD8111110
_publ_section_title
;
Structure prediction by ZEFSAII (Michael W. Deem and Ramdas Pophale) SiO2 
 PCOD8111110
Probable space group: C 2/M
;
_chemical_formula_sum "Si O2"
_cell_formula_units_Z 56
_cell_length_a 9.406476
_cell_length_b 27.363220
_cell_length_c 18.585373
_cell_angle_alpha 90.000000
_cell_angle_beta 140.065007
_cell_angle_gamma 90.000000
_cell_volume 3070.753992
_symmetry_space_group_name_H-M "C 2/M"
_symmetry_group_IT_number 12
_symmetry_cell_setting 'monoclinic'
loop_
_space_group_symop_operation_xyz
x,y,z
-x,y,-z
-x,-y,-z
x,-y,z
1/2+x,1/2+y,z
1/2-x,1/2+y,-z
1/2-x,1/2-y,-z
1/2+x,1/2-y,z
loop_
_atom_site_type_symbol
_atom_site_label
_atom_site_fract_x
_atom_site_fract_y
_atom_site_fract_z
Si Si1 0.793402 0.054690 0.544352
Si Si2 0.278938 0.053666 0.320988
Si Si3 0.837772 0.796830 0.997240
Si Si4 0.464420 0.186998 0.747695
Si Si5 0.691278 0.650733 0.228262
Si Si6 0.741412 0.711986 0.387160
Si Si7 0.996641 0.153958 0.416404
O O1 0.538452 0.064119 0.428303
O O2 0.834925 0.058028 0.645479
O O3 0.930785 0.097521 0.559383
O O4 0.864363 0.000000 0.545016
O O5 0.171625 0.092218 0.224558
O O6 0.235749 0.000000 0.271797
O O7 0.630954 0.821523 0.878429
O O8 0.750000 0.750000 0.000000
O O9 0.000000 0.776575 0.000000
O O10 0.967421 0.831940 0.102399
O O11 0.580058 0.164909 0.722118
O O12 0.391757 0.241932 0.697378
O O13 0.262122 0.156467 0.702414
O O14 0.711957 0.669403 0.317675
O O15 0.637665 0.691681 0.421795
O O16 0.000000 0.724494 0.500000
O O17 0.000000 0.173089 0.500000
#
# Coordination Sequence:
#
# PCOD8111110 Si02
#       7
#     8   8   8   8   8   8   8
#     4   9  18  34  57  84 115 150 188 233 283 343
#     4   9  17  33  59  86 110 147 196 233 277 341
#     4  10  22  39  60  82 110 148 197 241 281 335
#     4  11  24  38  54  82 117 148 192 237 285 336
#     4  11  21  38  60  82 114 151 192 241 278 335
#     4  12  23  36  56  81 115 158 191 227 279 343
#     4  12  24  36  54  85 121 152 187 233 289 343
#
# _framework density 18.236564000000001
#
# number of rings (size 3 to 8) (size 9 to 14) (size 15 to 20)
#    0.000    1.429    2.857    4.714    2.000    2.000 
#    0.000    0.714    0.000    4.714    0.000    2.000 
#    0.000    0.000    0.000    0.000    0.000    0.000 
#
# Total GULP energy -347008.922717 kJ/mol
# GULP energy per Si atom -12393.175811 kJ/mol
# Density = 1.819506 g / cm^3
# Si number density = 18.236564 Si / 1000 Ang^3
#
#
#
# Elastic Constant Matrix: (Units=GPa)
#
#
# Indices 1 2 3 4 5 6 
#
# 1 96.2487 37.5692 47.4538 -0.0030 3.0346 -0.0006
# 2 37.5692 125.0131 47.4930 0.0008 -1.4287 0.0001
# 3 47.4538 47.4930 95.4623 -0.0236 6.0262 -0.0049
# 4 -0.0030 0.0008 -0.0236 -25.1234 -0.0103 -11.6989
# 5 3.0346 -1.4287 6.0262 -0.0103 24.8964 -0.0022
# 6 -0.0006 0.0001 -0.0049 -11.6989 -0.0022 28.9064
#
#
#
# Elastic Compliance Matrix: (Units=1/GPa)
#
#
# Indices 1 2 3 4 5 6 
#
# 1 0.014140 -0.001964 -0.006028 0.000004 -0.000377 0.000001
# 2 -0.001964 0.010214 -0.004222 0.000003 0.001848 0.000001
# 3 -0.006028 -0.004222 0.015783 -0.000012 -0.003328 -0.000002
# 4 0.000004 0.000003 -0.000012 -0.033492 -0.000013 -0.013555
# 5 -0.000377 0.001848 -0.003328 -0.000013 0.041124 -0.000003
# 6 0.000001 0.000001 -0.000002 -0.013555 -0.000003 0.029109
#
#
# Mechanical properties :
#
#
# Convention : Reuss Voigt Hill
#
# Bulk Modulus (GPa) = 63.65797 64.63956 64.14876
# Shear Modulus (GPa) = 46.92949 18.01645 32.47297
#
# Velocity S-wave (km/s) = 5.07835 3.14655 4.22435
# Velocity P-wave (km/s) = 8.32879 6.98018 7.68413
#
# Compressibility (1/GPa) = 0.01570895
#
# Stress axis : x y z
#
# Youngs Moduli (GPa) = 70.72000 97.90066 63.36059
#
# Poissons Ratio (x) = 0.19223 0.38196
# Poissons Ratio (y) = 0.13886 0.26753
# Poissons Ratio (z) = 0.42633 0.41336
#
# Static dielectric constant tensor:
#      x y z
#    x 3.433060 0.000000 0.165900 
#    y 0.000000 3.342570 -0.000010 
#    z 0.165900 -0.000010 3.591190 
# 
# 
# High freq. dielectric constant tensor:
#      x y z
#    x 1.712520 0.000000 -0.000880 
#    y 0.000000 1.705350 0.000000 
#    z -0.000880 0.000000 1.693900 
# 
# From -- ./inp_files/125335.got.cif
#   From: 2010.06.25/outbox.cif.g09.slc.cpg/sg12_63_cif.got.tgz:125335.got - 2010.06.28 00:19:55.
