data_PCOD8111333
_publ_section_title
;
Structure prediction by ZEFSAII (Michael W. Deem and Ramdas Pophale) SiO2 
 PCOD8111333
Probable space group: C 2/M
;
_chemical_formula_sum "Si O2"
_cell_formula_units_Z 40
_cell_length_a 19.516636
_cell_length_b 17.555124
_cell_length_c 5.272474
_cell_angle_alpha 90.000000
_cell_angle_beta 88.558117
_cell_angle_gamma 90.000000
_cell_volume 1805.867054
_symmetry_space_group_name_H-M "C 2/M"
_symmetry_group_IT_number 12
_symmetry_cell_setting 'monoclinic'
loop_
_space_group_symop_operation_xyz
x,y,z
-x,y,-z
-x,-y,-z
x,-y,z
1/2+x,1/2+y,z
1/2-x,1/2+y,-z
1/2-x,1/2-y,-z
1/2+x,1/2-y,z
loop_
_atom_site_type_symbol
_atom_site_label
_atom_site_fract_x
_atom_site_fract_y
_atom_site_fract_z
Si Si1 0.697594 0.204982 0.672564
Si Si2 0.000000 0.775060 0.000000
Si Si3 0.191195 0.911641 0.310565
Si Si4 0.369385 0.655775 0.164665
Si Si5 0.570082 0.159783 0.348215
Si Si6 0.044957 0.500000 0.243358
O O1 0.750000 0.250000 0.500000
O O2 0.735857 0.128911 0.764211
O O3 0.672781 0.265049 0.889926
O O4 0.629725 0.185607 0.524676
O O5 0.951249 0.827590 0.181972
O O6 0.055669 0.724366 0.142827
O O7 0.155324 0.880719 0.568747
O O8 0.206918 0.000000 0.346492
O O9 0.141929 0.899673 0.073333
O O10 0.500000 0.146264 0.500000
O O11 0.590914 0.077387 0.226511
O O12 0.000000 0.500000 0.500000
O O13 0.000000 0.500000 0.000000
#
# Coordination Sequence:
#
# PCOD8111333 Si02
#       6
#     8   4   8   8   8   4
#     4  10  22  42  69  99 134 176 229 278 332 405
#     4  12  22  39  71  96 132 182 228 284 340 400
#     4  11  25  46  69  99 138 179 225 284 346 406
#     4  11  24  44  70 101 135 177 232 282 337 411
#     4  11  22  40  64  96 136 175 224 274 337 404
#     4  10  22  40  56  92 136 176 211 268 329 404
#
# _framework density 22.150023999999998
#
# number of rings (size 3 to 8) (size 9 to 14) (size 15 to 20)
#    0.000    1.200    3.000    3.600    1.400    1.600 
#    0.000    3.000    2.200    0.000    0.000    0.000 
#    0.000    0.000    0.000    0.000    0.000    0.000 
#
# Total GULP energy -247836.153566 kJ/mol
# GULP energy per Si atom -12391.807678 kJ/mol
# Density = 2.209961 g / cm^3
# Si number density = 22.150024 Si / 1000 Ang^3
#
#
#
# Elastic Constant Matrix: (Units=GPa)
#
#
# Indices 1 2 3 4 5 6 
#
# 1 102.1133 47.6979 13.4957 0.0000 -6.0105 0.0000
# 2 47.6979 139.7845 28.3424 0.0000 -1.0559 0.0000
# 3 13.4957 28.3424 105.7687 0.0000 -3.6628 0.0000
# 4 0.0000 0.0000 0.0000 29.9452 0.0000 4.8183
# 5 -6.0105 -1.0559 -3.6628 0.0000 31.0872 0.0000
# 6 0.0000 0.0000 0.0000 4.8183 0.0000 12.0401
#
#
#
# Elastic Compliance Matrix: (Units=1/GPa)
#
#
# Indices 1 2 3 4 5 6 
#
# 1 0.011805 -0.003936 -0.000379 0.000000 0.002104 0.000000
# 2 -0.003936 0.008877 -0.001900 0.000000 -0.000683 0.000000
# 3 -0.000379 -0.001900 0.010048 0.000000 0.001046 0.000000
# 4 0.000000 0.000000 0.000000 0.035693 0.000000 -0.014284
# 5 0.002104 -0.000683 0.001046 0.000000 0.032674 0.000000
# 6 0.000000 0.000000 0.000000 -0.014284 0.000000 0.088772
#
#
# Mechanical properties :
#
#
# Convention : Reuss Voigt Hill
#
# Bulk Modulus (GPa) = 54.64086 58.52653 56.58369
# Shear Modulus (GPa) = 24.22485 31.82320 28.02403
#
# Velocity S-wave (km/s) = 3.31066 3.79451 3.56081
# Velocity P-wave (km/s) = 6.27184 6.75854 6.51974
#
# Compressibility (1/GPa) = 0.01830132
#
# Stress axis : x y z
#
# Youngs Moduli (GPa) = 84.70779 112.65201 99.51883
#
# Poissons Ratio (x) = 0.44335 0.03770
# Poissons Ratio (y) = 0.33337 0.18911
# Poissons Ratio (z) = 0.03209 0.21406
#
# Static dielectric constant tensor:
#      x y z
#    x 4.181120 0.000000 -0.138220 
#    y 0.000000 3.932790 0.000000 
#    z -0.138220 0.000000 3.860360 
# 
# 
# High freq. dielectric constant tensor:
#      x y z
#    x 1.869400 0.000000 -0.003950 
#    y 0.000000 1.879850 0.000000 
#    z -0.003950 0.000000 1.866220 
# 
# From -- ./inp_files/20240.got.cif
#   From: 2010.06.25/outbox.cif.g09.slc.cpg/sg12_11_cif.got.tgz:20240.got - 2010.06.28 00:19:55.
