data_PCOD8111905
_publ_section_title
;
Structure prediction by ZEFSAII (Michael W. Deem and Ramdas Pophale) SiO2 
 PCOD8111905
Probable space group: C 2/M
;
_chemical_formula_sum "Si O2"
_cell_formula_units_Z 40
_cell_length_a 9.493393
_cell_length_b 18.286756
_cell_length_c 12.092922
_cell_angle_alpha 90.000000
_cell_angle_beta 110.361849
_cell_angle_gamma 90.000000
_cell_volume 1968.190308
_symmetry_space_group_name_H-M "C 2/M"
_symmetry_group_IT_number 12
_symmetry_cell_setting 'monoclinic'
loop_
_space_group_symop_operation_xyz
x,y,z
-x,y,-z
-x,-y,-z
x,-y,z
1/2+x,1/2+y,z
1/2-x,1/2+y,-z
1/2-x,1/2-y,-z
1/2+x,1/2-y,z
loop_
_atom_site_type_symbol
_atom_site_label
_atom_site_fract_x
_atom_site_fract_y
_atom_site_fract_z
Si Si1 0.031963 0.082751 0.344473
Si Si2 0.157194 0.651529 0.519280
Si Si3 0.324035 0.195327 0.934606
Si Si4 0.790890 0.201516 0.341082
Si Si5 0.092324 0.082473 0.925444
O O1 0.204956 0.099058 0.415545
O O2 0.924732 0.141488 0.375127
O O3 0.014706 0.089118 0.208946
O O4 0.992062 0.000000 0.373634
O O5 0.147432 0.722203 0.596423
O O6 0.164486 0.673731 0.392080
O O7 0.000000 0.609374 0.500000
O O8 0.285887 0.215992 0.798005
O O9 0.253753 0.117000 0.944495
O O10 0.500000 0.191700 0.000000
O O11 0.250000 0.250000 0.000000
O O12 0.128686 0.000000 0.969769
O O13 0.000000 0.121593 0.000000
#
# Coordination Sequence:
#
# PCOD8111905 Si02
#       5
#     8   8   8   8   8
#     4  10  22  41  64  90 123 165 208 249 305 372
#     4  11  23  37  62  89 123 160 203 258 306 361
#     4  11  25  37  61  93 122 158 203 260 300 362
#     4  10  23  41  60  87 123 165 203 247 310 373
#     4   9  20  40  63  88 123 165 202 246 311 373
#
# _framework density 20.323238
#
# number of rings (size 3 to 8) (size 9 to 14) (size 15 to 20)
#    0.000    1.800    0.000    3.600   11.200    2.400 
#    0.000    0.000    0.000    0.000    0.000    0.000 
#    0.000    0.000    0.000    0.000    0.000    0.000 
#
# Total GULP energy -247964.460134 kJ/mol
# GULP energy per Si atom -12398.223007 kJ/mol
# Density = 2.027698 g / cm^3
# Si number density = 20.323238 Si / 1000 Ang^3
#
#
#
# Elastic Constant Matrix: (Units=GPa)
#
#
# Indices 1 2 3 4 5 6 
#
# 1 152.5686 26.1166 78.5751 0.0000 5.1762 0.0000
# 2 26.1166 73.7400 45.3839 0.0000 -2.0680 0.0000
# 3 78.5751 45.3839 143.0154 0.0000 -8.5971 0.0000
# 4 0.0000 0.0000 0.0000 39.1452 0.0000 -4.9442
# 5 5.1762 -2.0680 -8.5971 0.0000 33.6217 0.0000
# 6 0.0000 0.0000 0.0000 -4.9442 0.0000 27.6818
#
#
#
# Elastic Compliance Matrix: (Units=1/GPa)
#
#
# Indices 1 2 3 4 5 6 
#
# 1 0.009397 -0.000156 -0.005282 0.000000 -0.002807 0.000000
# 2 -0.000156 0.016859 -0.005282 0.000000 -0.000290 0.000000
# 3 -0.005282 -0.005282 0.011781 0.000000 0.003501 0.000000
# 4 0.000000 0.000000 0.000000 0.026136 0.000000 0.004668
# 5 -0.002807 -0.000290 0.003501 0.000000 0.031052 0.000000
# 6 0.000000 0.000000 0.000000 0.004668 0.000000 0.036959
#
#
# Mechanical properties :
#
#
# Convention : Reuss Voigt Hill
#
# Bulk Modulus (GPa) = 60.25102 74.38614 67.31858
# Shear Modulus (GPa) = 31.41615 34.70630 33.06123
#
# Velocity S-wave (km/s) = 3.93596 4.13693 4.03770
# Velocity P-wave (km/s) = 7.09693 7.71362 7.41169
#
# Compressibility (1/GPa) = 0.01659723
#
# Stress axis : x y z
#
# Youngs Moduli (GPa) = 106.42138 59.31579 84.88449
#
# Poissons Ratio (x) = 0.00925 0.44835
# Poissons Ratio (y) = 0.01660 0.44833
# Poissons Ratio (z) = 0.56211 0.31329
#
# Static dielectric constant tensor:
#      x y z
#    x 3.879790 0.000000 -0.175830 
#    y 0.000000 3.838980 0.000000 
#    z -0.175830 0.000000 3.756150 
# 
# 
# High freq. dielectric constant tensor:
#      x y z
#    x 1.796380 0.000000 -0.013310 
#    y 0.000000 1.785290 0.000000 
#    z -0.013310 0.000000 1.810870 
# 
# From -- ./inp_files/119151.got.cif
#   From: 2010.06.25/outbox.cif.g09.slc.cpg/sg12_60_cif.got.tgz:119151.got - 2010.06.28 00:19:55.
