data_PCOD8111810
_publ_section_title
;
Structure prediction by ZEFSAII (Michael W. Deem and Ramdas Pophale) SiO2 
 PCOD8111810
Probable space group: C 2/M
;
_chemical_formula_sum "Si O2"
_cell_formula_units_Z 64
_cell_length_a 11.696964
_cell_length_b 17.527826
_cell_length_c 29.068907
_cell_angle_alpha 90.000000
_cell_angle_beta 148.599709
_cell_angle_gamma 90.000000
_cell_volume 3105.126336
_symmetry_space_group_name_H-M "C 2/M"
_symmetry_group_IT_number 12
_symmetry_cell_setting 'monoclinic'
loop_
_space_group_symop_operation_xyz
x,y,z
-x,y,-z
-x,-y,-z
x,-y,z
1/2+x,1/2+y,z
1/2-x,1/2+y,-z
1/2-x,1/2-y,-z
1/2+x,1/2-y,z
loop_
_atom_site_type_symbol
_atom_site_label
_atom_site_fract_x
_atom_site_fract_y
_atom_site_fract_z
Si Si1 0.747293 0.323167 0.416295
Si Si2 0.648639 0.845291 0.296564
Si Si3 0.689903 0.087740 0.877617
Si Si4 0.956868 0.338509 0.638772
Si Si5 0.743253 0.590330 0.912255
Si Si6 0.116763 0.088563 0.456344
Si Si7 0.389258 0.670481 0.731807
Si Si8 0.591814 0.409434 0.958307
O O1 0.610880 0.250383 0.387767
O O2 0.726474 0.391989 0.445115
O O3 0.658558 0.354395 0.337149
O O4 0.000000 0.297357 0.500000
O O5 0.556468 0.899031 0.224392
O O6 0.529983 0.864308 0.303838
O O7 0.591486 0.761042 0.260288
O O8 0.905112 0.858591 0.390450
O O9 0.858897 0.121865 0.897585
O O10 0.748011 0.000000 0.901029
O O11 0.727040 0.119948 0.941987
O O12 0.780973 0.392217 0.553669
O O13 0.191010 0.355347 0.696527
O O14 0.709208 0.500000 0.894463
O O15 0.614981 0.632098 0.826604
O O16 0.645615 0.623892 0.926536
O O17 0.000000 0.611378 0.000000
O O18 0.052967 0.000000 0.436174
O O19 0.597975 0.500000 0.954907
#
# Coordination Sequence:
#
# PCOD8111810 Si02
#       8
#     8   8   8   8   8   8   8   8
#     4  11  22  42  67  88 126 174 210 252 312 373
#     4  11  23  38  60  91 128 160 207 259 311 370
#     4   9  17  33  58  85 116 153 196 250 312 367
#     4  11  22  42  65  86 124 170 210 256 310 374
#     4  10  22  41  62  87 122 161 206 259 312 368
#     4  12  25  40  63  95 128 164 209 259 312 368
#     4  11  23  41  66  90 121 168 215 251 315 377
#     4   8  16  34  59  83 110 154 198 242 310 369
#
# _framework density 20.611079
#
# number of rings (size 3 to 8) (size 9 to 14) (size 15 to 20)
#    0.000    1.625    2.500    4.125    0.000    3.750 
#    2.250    1.875    0.000    0.000    0.000    0.000 
#    0.000    0.000    0.000    0.000    0.000    0.000 
#
# Total GULP energy -396744.045987 kJ/mol
# GULP energy per Si atom -12398.251437 kJ/mol
# Density = 2.056417 g / cm^3
# Si number density = 20.611079 Si / 1000 Ang^3
#
#
#
# Elastic Constant Matrix: (Units=GPa)
#
#
# Indices 1 2 3 4 5 6 
#
# 1 57.7549 23.2946 21.1813 -0.0002 -11.7815 -0.0002
# 2 23.2946 60.1540 36.4418 0.0001 -6.1647 0.0000
# 3 21.1813 36.4418 136.2020 0.0003 -11.3932 0.0000
# 4 -0.0002 0.0001 0.0003 33.9775 0.0001 -3.2777
# 5 -11.7815 -6.1647 -11.3932 0.0001 35.4018 0.0000
# 6 -0.0002 0.0000 0.0000 -3.2777 0.0000 19.2056
#
#
#
# Elastic Compliance Matrix: (Units=1/GPa)
#
#
# Indices 1 2 3 4 5 6 
#
# 1 0.021752 -0.007257 -0.000967 0.000000 0.005664 0.000000
# 2 -0.007257 0.022372 -0.004864 0.000000 -0.000085 0.000000
# 3 -0.000967 -0.004864 0.008937 0.000000 0.001707 0.000000
# 4 0.000000 0.000000 0.000000 0.029924 0.000000 0.005107
# 5 0.005664 -0.000085 0.001707 0.000000 0.030667 0.000000
# 6 0.000000 0.000000 0.000000 0.005107 0.000000 0.052940
#
#
# Mechanical properties :
#
#
# Convention : Reuss Voigt Hill
#
# Bulk Modulus (GPa) = 37.19735 46.21626 41.70680
# Shear Modulus (GPa) = 24.78567 29.26320 27.02443
#
# Velocity S-wave (km/s) = 3.47153 3.77208 3.62492
# Velocity P-wave (km/s) = 5.84424 6.43764 6.14810
#
# Compressibility (1/GPa) = 0.02688364
#
# Stress axis : x y z
#
# Youngs Moduli (GPa) = 45.97364 44.69782 111.89713
#
# Poissons Ratio (x) = 0.32437 0.10824
# Poissons Ratio (y) = 0.33362 0.54432
# Poissons Ratio (z) = 0.04447 0.21743
#
# Static dielectric constant tensor:
#      x y z
#    x 3.929720 0.000000 -0.130000 
#    y 0.000000 3.336510 0.000000 
#    z -0.130000 0.000000 3.740650 
# 
# 
# High freq. dielectric constant tensor:
#      x y z
#    x 1.814270 0.000000 -0.010690 
#    y 0.000000 1.773130 0.000000 
#    z -0.010690 0.000000 1.816810 
# 
# From -- ./inp_files/374501.got.cif
#   From: 2010.06.25/outbox.cif.g09.slc.cpg/sg12_188_cif.got.tgz:374501.got - 2010.06.28 00:19:55.
