data_PCOD8111318
_publ_section_title
;
Structure prediction by ZEFSAII (Michael W. Deem and Ramdas Pophale) SiO2 
 PCOD8111318
Probable space group: C 2/M
;
_chemical_formula_sum "Si O2"
_cell_formula_units_Z 48
_cell_length_a 25.517504
_cell_length_b 13.277941
_cell_length_c 9.460650
_cell_angle_alpha 90.000000
_cell_angle_beta 39.704075
_cell_angle_gamma 90.000000
_cell_volume 2047.717922
_symmetry_space_group_name_H-M "C 2/M"
_symmetry_group_IT_number 12
_symmetry_cell_setting 'monoclinic'
loop_
_space_group_symop_operation_xyz
x,y,z
-x,y,-z
-x,-y,-z
x,-y,z
1/2+x,1/2+y,z
1/2-x,1/2+y,-z
1/2-x,1/2-y,-z
1/2+x,1/2-y,z
loop_
_atom_site_type_symbol
_atom_site_label
_atom_site_fract_x
_atom_site_fract_y
_atom_site_fract_z
Si Si1 0.659479 0.612165 0.469333
Si Si2 0.590792 0.386336 0.305170
Si Si3 0.294123 0.384116 0.184781
Si Si4 0.880277 0.327655 0.397548
Si Si5 0.664307 0.818155 0.814267
Si Si6 0.974567 0.385106 0.707013
O O1 0.629336 0.500000 0.582742
O O2 0.643686 0.623011 0.335851
O O3 0.608801 0.706069 0.638093
O O4 0.755253 0.621387 0.305544
O O5 0.500000 0.332332 0.500000
O O6 0.572174 0.500000 0.300708
O O7 0.650757 0.345730 0.059235
O O8 0.309988 0.500000 0.199605
O O9 0.198515 0.364898 0.348438
O O10 0.315406 0.301076 0.262228
O O11 0.872848 0.367663 0.251238
O O12 0.954909 0.377363 0.322693
O O13 0.602005 0.823505 0.074536
O O14 0.947561 0.500000 0.745586
O O15 0.000000 0.341646 0.500000
#
# Coordination Sequence:
#
# PCOD8111318 Si02
#       6
#     8   8   8   8   8   8
#     4  10  22  39  66  97 132 173 222 274 326 387
#     4   9  20  37  60  95 131 172 218 266 329 385
#     4  10  22  39  66  97 132 173 222 274 326 387
#     4  11  25  42  66  99 133 176 221 267 331 392
#     4  11  25  42  66  99 133 176 221 267 331 392
#     4  11  27  47  70  97 130 172 220 272 326 391
#
# _framework density 23.440729000000001
#
# number of rings (size 3 to 8) (size 9 to 14) (size 15 to 20)
#    0.000    1.667    0.000    3.500    7.000    6.667 
#    0.000    0.000    0.000    2.000    0.000    0.000 
#    0.000    0.000    0.000    0.000    0.000    0.000 
#
# Total GULP energy -297337.334824 kJ/mol
# GULP energy per Si atom -12389.055618 kJ/mol
# Density = 2.338738 g / cm^3
# Si number density = 23.440729 Si / 1000 Ang^3
#
#
#
# Elastic Constant Matrix: (Units=GPa)
#
#
# Indices 1 2 3 4 5 6 
#
# 1 113.9938 19.2678 2.7099 0.0000 13.1544 0.0000
# 2 19.2678 117.5517 14.3523 0.0000 0.2900 0.0000
# 3 2.7099 14.3523 64.7959 0.0000 -2.3271 0.0000
# 4 0.0000 0.0000 0.0000 23.7393 0.0000 -0.2961
# 5 13.1544 0.2900 -2.3271 0.0000 26.6989 0.0000
# 6 0.0000 0.0000 0.0000 -0.2961 0.0000 26.0976
#
#
#
# Elastic Compliance Matrix: (Units=1/GPa)
#
#
# Indices 1 2 3 4 5 6 
#
# 1 0.009582 -0.001531 -0.000231 0.000000 -0.004724 0.000000
# 2 -0.001531 0.008990 -0.001910 0.000000 0.000490 0.000000
# 3 -0.000231 -0.001910 0.015920 0.000000 0.001522 0.000000
# 4 0.000000 0.000000 0.000000 0.042130 0.000000 0.000478
# 5 -0.004724 0.000490 0.001522 0.000000 0.039910 0.000000
# 6 0.000000 0.000000 0.000000 0.000478 0.000000 0.038323
#
#
# Mechanical properties :
#
#
# Convention : Reuss Voigt Hill
#
# Bulk Modulus (GPa) = 36.83418 41.00016 38.91717
# Shear Modulus (GPa) = 29.19745 32.64126 30.91936
#
# Velocity S-wave (km/s) = 3.53312 3.73567 3.63580
# Velocity P-wave (km/s) = 5.69137 6.01132 5.85353
#
# Compressibility (1/GPa) = 0.02714870
#
# Stress axis : x y z
#
# Youngs Moduli (GPa) = 104.36453 111.23816 62.81246
#
# Poissons Ratio (x) = 0.17027 0.01453
# Poissons Ratio (y) = 0.15974 0.11995
# Poissons Ratio (z) = 0.02415 0.21242
#
# Static dielectric constant tensor:
#      x y z
#    x 4.062830 0.000000 -0.044770 
#    y 0.000000 4.354450 0.000000 
#    z -0.044770 0.000000 4.257540 
# 
# 
# High freq. dielectric constant tensor:
#      x y z
#    x 1.923320 0.000000 0.000590 
#    y 0.000000 1.941880 0.000000 
#    z 0.000590 0.000000 1.916970 
# 
# From -- ./inp_files/104975.got.cif
#   From: 2010.06.25/outbox.cif.g09.slc.cpg/sg12_53_cif.got.tgz:104975.got - 2010.06.28 00:19:55.
