data_PCOD8111666
_publ_section_title
;
Structure prediction by ZEFSAII (Michael W. Deem and Ramdas Pophale) SiO2 
 PCOD8111666
Probable space group: C 2/M
;
_chemical_formula_sum "Si O2"
_cell_formula_units_Z 48
_cell_length_a 17.010940
_cell_length_b 12.810458
_cell_length_c 10.973183
_cell_angle_alpha 90.000000
_cell_angle_beta 76.605838
_cell_angle_gamma 90.000000
_cell_volume 2326.210032
_symmetry_space_group_name_H-M "C 2/M"
_symmetry_group_IT_number 12
_symmetry_cell_setting 'monoclinic'
loop_
_space_group_symop_operation_xyz
x,y,z
-x,y,-z
-x,-y,-z
x,-y,z
1/2+x,1/2+y,z
1/2-x,1/2+y,-z
1/2-x,1/2-y,-z
1/2+x,1/2-y,z
loop_
_atom_site_type_symbol
_atom_site_label
_atom_site_fract_x
_atom_site_fract_y
_atom_site_fract_z
Si Si1 0.783678 0.381241 0.709181
Si Si2 0.574173 0.881784 0.887648
Si Si3 0.108038 0.192849 0.713599
Si Si4 0.563435 0.618531 0.213418
Si Si5 0.666199 0.204499 0.062178
Si Si6 0.909977 0.236991 0.549266
O O1 0.780158 0.500000 0.669312
O O2 0.691923 0.338272 0.747400
O O3 0.827495 0.369798 0.823186
O O4 0.841177 0.323110 0.593212
O O5 0.582927 0.809816 0.765051
O O6 0.567308 0.000000 0.841964
O O7 0.500000 0.848887 0.000000
O O8 0.648458 0.867392 0.952185
O O9 0.118202 0.182308 0.565026
O O10 0.033057 0.118711 0.777004
O O11 0.594600 0.500000 0.181335
O O12 0.604519 0.699067 0.104760
O O13 0.586478 0.652556 0.343162
O O14 0.750000 0.250000 0.000000
O O15 0.000000 0.286635 0.500000
#
# Coordination Sequence:
#
# PCOD8111666 Si02
#       6
#     8   8   8   8   8   8
#     4  11  23  38  61  89 119 157 196 246 304 351
#     4  11  23  41  64  87 120 164 202 242 298 356
#     4  11  21  41  62  90 123 155 200 253 292 356
#     4  10  22  40  65  90 118 161 201 247 305 354
#     4  11  22  42  59  87 126 154 199 250 292 358
#     4   9  22  41  61  86 123 155 198 252 295 354
#
# _framework density 20.634422000000001
#
# number of rings (size 3 to 8) (size 9 to 14) (size 15 to 20)
#    0.000    1.500    3.333    1.500    0.000    6.000 
#    0.000    0.833    0.000    0.000    0.000    0.000 
#    0.000    0.000    0.000    0.000    0.000    0.000 
#
# Total GULP energy -297487.627173 kJ/mol
# GULP energy per Si atom -12395.317799 kJ/mol
# Density = 2.058746 g / cm^3
# Si number density = 20.634422 Si / 1000 Ang^3
#
#
#
# Elastic Constant Matrix: (Units=GPa)
#
#
# Indices 1 2 3 4 5 6 
#
# 1 89.5679 26.1830 1.6039 0.0000 -11.8420 0.0000
# 2 26.1830 110.8980 11.3224 0.0000 -8.4417 0.0000
# 3 1.6039 11.3224 41.1810 0.0000 -2.1766 0.0000
# 4 0.0000 0.0000 0.0000 18.9892 0.0000 -2.8691
# 5 -11.8420 -8.4417 -2.1766 0.0000 37.6627 0.0000
# 6 0.0000 0.0000 0.0000 -2.8691 0.0000 24.0420
#
#
#
# Elastic Compliance Matrix: (Units=1/GPa)
#
#
# Indices 1 2 3 4 5 6 
#
# 1 0.012389 -0.002718 0.000440 0.000000 0.003312 0.000000
# 2 -0.002718 0.010017 -0.002583 0.000000 0.001241 0.000000
# 3 0.000440 -0.002583 0.025029 0.000000 0.001006 0.000000
# 4 0.000000 0.000000 0.000000 0.053628 0.000000 0.006400
# 5 0.003312 0.001241 0.001006 0.000000 0.027929 0.000000
# 6 0.000000 0.000000 0.000000 0.006400 0.000000 0.042358
#
#
# Mechanical properties :
#
#
# Convention : Reuss Voigt Hill
#
# Bulk Modulus (GPa) = 26.51539 35.54061 31.02800
# Shear Modulus (GPa) = 25.82065 29.64130 27.73098
#
# Velocity S-wave (km/s) = 3.54126 3.79423 3.66993
# Velocity P-wave (km/s) = 5.44047 6.03790 5.74695
#
# Compressibility (1/GPa) = 0.03771394
#
# Stress axis : x y z
#
# Youngs Moduli (GPa) = 80.71551 99.82853 39.95341
#
# Poissons Ratio (x) = 0.27132 -0.01757
# Poissons Ratio (y) = 0.21938 0.10319
# Poissons Ratio (z) = -0.03550 0.25782
#
# Static dielectric constant tensor:
#      x y z
#    x 32.137860 0.000000 12.371270 
#    y 0.000000 3.547840 0.000000 
#    z 12.371270 0.000000 9.194500 
# 
# 
# High freq. dielectric constant tensor:
#      x y z
#    x 1.823050 0.000000 -0.001620 
#    y 0.000000 1.789360 0.000000 
#    z -0.001620 0.000000 1.806990 
# 
# From -- ./inp_files/153716.got.cif
#   From: 2010.06.25/outbox.cif.g09.slc.cpg/sg12_77_cif.got.tgz:153716.got - 2010.06.28 00:19:55.
