data_PCOD8111566
_publ_section_title
;
Structure prediction by ZEFSAII (Michael W. Deem and Ramdas Pophale) SiO2 
 PCOD8111566
Probable space group: C 2/M
;
_chemical_formula_sum "Si O2"
_cell_formula_units_Z 32
_cell_length_a 21.575658
_cell_length_b 12.951869
_cell_length_c 15.457702
_cell_angle_alpha 90.000000
_cell_angle_beta 160.542616
_cell_angle_gamma 90.000000
_cell_volume 1438.876134
_symmetry_space_group_name_H-M "C 2/M"
_symmetry_group_IT_number 12
_symmetry_cell_setting 'monoclinic'
loop_
_space_group_symop_operation_xyz
x,y,z
-x,y,-z
-x,-y,-z
x,-y,z
1/2+x,1/2+y,z
1/2-x,1/2+y,-z
1/2-x,1/2-y,-z
1/2+x,1/2-y,z
loop_
_atom_site_type_symbol
_atom_site_label
_atom_site_fract_x
_atom_site_fract_y
_atom_site_fract_z
Si Si1 0.046502 0.115598 0.234954
Si Si2 0.090515 0.677921 0.208358
Si Si3 0.669593 0.884402 0.981140
Si Si4 0.354825 0.822079 0.236981
O O1 0.074817 0.197490 0.194606
O O2 0.195361 0.141502 0.506908
O O3 0.076069 0.000000 0.237774
O O4 0.843675 0.124587 0.009542
O O5 0.988065 0.624588 0.153934
O O6 0.000000 0.640370 0.000000
O O7 0.572272 0.858498 0.760726
O O8 0.752653 0.000000 0.090948
O O9 0.835234 0.802509 0.215446
O O10 0.500000 0.859629 0.500000
#
# Coordination Sequence:
#
# PCOD8111566 Si02
#       4
#     8   8   8   8
#     4  10  22  40  63  90 120 158 205 252 301 360
#     4  10  23  42  62  90 126 159 200 253 302 357
#     4  10  22  40  63  90 120 158 205 252 301 360
#     4  10  23  42  62  90 126 159 200 253 302 357
#
# _framework density 22.239578000000002
#
# number of rings (size 3 to 8) (size 9 to 14) (size 15 to 20)
#    0.000    2.000    0.000    1.500    0.000   21.000 
#    0.000    0.000    0.000    0.000    0.000    0.000 
#    0.000    0.000    0.000    0.000    0.000    0.000 
#
# Total GULP energy -198388.208827 kJ/mol
# GULP energy per Si atom -12399.263052 kJ/mol
# Density = 2.218896 g / cm^3
# Si number density = 22.239578 Si / 1000 Ang^3
#
#
#
# Elastic Constant Matrix: (Units=GPa)
#
#
# Indices 1 2 3 4 5 6 
#
# 1 130.4534 20.6531 75.7649 -0.0005 -13.6506 -0.0008
# 2 20.6531 163.4159 11.2713 -0.0002 14.1405 -0.0003
# 3 75.7649 11.2713 147.3266 -0.0001 -11.7610 -0.0002
# 4 -0.0005 -0.0002 -0.0001 12.0440 -0.0004 3.9521
# 5 -13.6506 14.1405 -11.7610 -0.0004 29.0266 -0.0007
# 6 -0.0008 -0.0003 -0.0002 3.9521 -0.0007 14.6650
#
#
#
# Elastic Compliance Matrix: (Units=1/GPa)
#
#
# Indices 1 2 3 4 5 6 
#
# 1 0.011479 -0.001406 -0.005488 0.000000 0.003860 0.000001
# 2 -0.001406 0.006645 -0.000100 0.000000 -0.003939 0.000000
# 3 -0.005488 -0.000100 0.009730 0.000000 0.001410 0.000000
# 4 0.000000 0.000000 0.000000 0.091083 0.000001 -0.024546
# 5 0.003860 -0.003939 0.001410 0.000001 0.038757 0.000002
# 6 0.000001 0.000000 0.000000 -0.024546 0.000002 0.074804
#
#
# Mechanical properties :
#
#
# Convention : Reuss Voigt Hill
#
# Bulk Modulus (GPa) = 72.11408 72.95274 72.53341
# Shear Modulus (GPa) = 19.91179 33.38089 26.64634
#
# Velocity S-wave (km/s) = 2.99546 3.87844 3.46518
# Velocity P-wave (km/s) = 6.66784 7.27535 6.97821
#
# Compressibility (1/GPa) = 0.01386692
#
# Stress axis : x y z
#
# Youngs Moduli (GPa) = 87.11372 150.49395 102.77567
#
# Poissons Ratio (x) = 0.21164 0.56400
# Poissons Ratio (y) = 0.12251 0.01023
# Poissons Ratio (z) = 0.47805 0.01499
#
# Static dielectric constant tensor:
#      x y z
#    x 3.802820 0.000000 -0.024630 
#    y 0.000000 4.192440 0.000000 
#    z -0.024630 0.000000 3.819180 
# 
# 
# High freq. dielectric constant tensor:
#      x y z
#    x 1.862310 0.000000 0.001720 
#    y 0.000000 1.887380 0.000000 
#    z 0.001720 0.000000 1.861170 
# 
# From -- ./inp_files/85388.got.cif
#   From: 2010.06.25/outbox.cif.g09.slc.cpg/sg12_43_cif.got.tgz:85388.got - 2010.06.28 00:19:55.
