data_PCOD8111994
_publ_section_title
;
Structure prediction by ZEFSAII (Michael W. Deem and Ramdas Pophale) SiO2 
 PCOD8111994
Probable space group: C 2/M
;
_chemical_formula_sum "Si O2"
_cell_formula_units_Z 40
_cell_length_a 17.673030
_cell_length_b 8.588620
_cell_length_c 13.622657
_cell_angle_alpha 90.000000
_cell_angle_beta 109.124296
_cell_angle_gamma 90.000000
_cell_volume 1953.622907
_symmetry_space_group_name_H-M "C 2/M"
_symmetry_group_IT_number 12
_symmetry_cell_setting 'monoclinic'
loop_
_space_group_symop_operation_xyz
x,y,z
-x,y,-z
-x,-y,-z
x,-y,z
1/2+x,1/2+y,z
1/2-x,1/2+y,-z
1/2-x,1/2-y,-z
1/2+x,1/2-y,z
loop_
_atom_site_type_symbol
_atom_site_label
_atom_site_fract_x
_atom_site_fract_y
_atom_site_fract_z
Si Si1 0.027388 0.178626 0.903312
Si Si2 0.783521 0.183146 0.299319
Si Si3 0.414398 0.184060 0.500290
Si Si4 0.619832 0.680254 0.302904
Si Si5 0.686090 0.818429 0.898456
O O1 0.098210 0.294192 0.904718
O O2 0.955018 0.206782 0.798951
O O3 0.057482 0.000000 0.912337
O O4 0.000000 0.224486 0.000000
O O5 0.844839 0.255967 0.401443
O O6 0.695005 0.242445 0.282700
O O7 0.808670 0.228874 0.201240
O O8 0.786405 0.000000 0.312581
O O9 0.500000 0.249712 0.500000
O O10 0.398469 0.239282 0.602744
O O11 0.414030 0.000000 0.497488
O O12 0.638290 0.500000 0.328894
O O13 0.702709 0.000000 0.888542
O O14 0.750000 0.750000 0.000000
#
# Coordination Sequence:
#
# PCOD8111994 Si02
#       5
#     8   8   8   8   8
#     4  10  22  41  65  93 126 164 206 254 308 365
#     4  12  25  42  65  92 125 163 207 257 310 368
#     4  11  24  42  64  91 125 164 208 257 309 368
#     4  11  23  40  64  93 127 165 207 256 310 369
#     4  12  25  42  65  93 127 164 206 254 306 366
#
# _framework density 20.474779000000002
#
# number of rings (size 3 to 8) (size 9 to 14) (size 15 to 20)
#    0.000    0.800    0.000    7.800    0.000    8.400 
#    0.000    0.000    0.000    0.000    0.000    0.000 
#    0.000    0.000    0.000    0.000    0.000    0.000 
#
# Total GULP energy -248153.158715 kJ/mol
# GULP energy per Si atom -12407.657936 kJ/mol
# Density = 2.042818 g / cm^3
# Si number density = 20.474779 Si / 1000 Ang^3
#
#
#
# Elastic Constant Matrix: (Units=GPa)
#
#
# Indices 1 2 3 4 5 6 
#
# 1 115.6887 30.1266 30.9854 0.0000 -8.7141 0.0000
# 2 30.1266 76.0532 11.6249 0.0000 10.6318 0.0000
# 3 30.9854 11.6249 139.0740 0.0000 -10.0051 0.0000
# 4 0.0000 0.0000 0.0000 5.1177 0.0000 3.9920
# 5 -8.7141 10.6318 -10.0051 0.0000 30.8267 0.0000
# 6 0.0000 0.0000 0.0000 3.9920 0.0000 31.4029
#
#
#
# Elastic Compliance Matrix: (Units=1/GPa)
#
#
# Indices 1 2 3 4 5 6 
#
# 1 0.010565 -0.004483 -0.001693 0.000000 0.003983 0.000000
# 2 -0.004483 0.016044 -0.000851 0.000000 -0.007077 0.000000
# 3 -0.001693 -0.000851 0.007808 0.000000 0.002349 0.000000
# 4 0.000000 0.000000 0.000000 0.216907 0.000000 -0.027573
# 5 0.003983 -0.007077 0.002349 0.000000 0.036769 0.000000
# 6 0.000000 0.000000 0.000000 -0.027573 0.000000 0.035349
#
#
# Mechanical properties :
#
#
# Convention : Reuss Voigt Hill
#
# Bulk Modulus (GPa) = 49.11004 52.92108 51.01556
# Shear Modulus (GPa) = 14.52295 30.67473 22.59884
#
# Velocity S-wave (km/s) = 2.66618 3.87482 3.32586
# Velocity P-wave (km/s) = 5.78927 6.77658 6.30229
#
# Compressibility (1/GPa) = 0.02036243
#
# Stress axis : x y z
#
# Youngs Moduli (GPa) = 94.65503 62.32858 128.07905
#
# Poissons Ratio (x) = 0.27942 0.21677
# Poissons Ratio (y) = 0.42435 0.10904
# Poissons Ratio (z) = 0.16020 0.05307
#
# Static dielectric constant tensor:
#      x y z
#    x 3.992970 0.000000 0.001540 
#    y 0.000000 3.882980 0.000000 
#    z 0.001540 0.000000 3.852670 
# 
# 
# High freq. dielectric constant tensor:
#      x y z
#    x 1.820210 0.000000 0.000310 
#    y 0.000000 1.811940 0.000000 
#    z 0.000310 0.000000 1.824130 
# 
# From -- ./inp_files/151953.got.cif
#   From: 2010.06.25/outbox.cif.g09.slc.cpg/sg12_76_cif.got.tgz:151953.got - 2010.06.28 00:19:55.
