data_PCOD8111896
_publ_section_title
;
Structure prediction by ZEFSAII (Michael W. Deem and Ramdas Pophale) SiO2 
 PCOD8111896
Probable space group: C 2/M
;
_chemical_formula_sum "Si O2"
_cell_formula_units_Z 48
_cell_length_a 13.309389
_cell_length_b 23.879203
_cell_length_c 6.826466
_cell_angle_alpha 90.000000
_cell_angle_beta 86.198813
_cell_angle_gamma 90.000000
_cell_volume 2164.798202
_symmetry_space_group_name_H-M "C 2/M"
_symmetry_group_IT_number 12
_symmetry_cell_setting 'monoclinic'
loop_
_space_group_symop_operation_xyz
x,y,z
-x,y,-z
-x,-y,-z
x,-y,z
1/2+x,1/2+y,z
1/2-x,1/2+y,-z
1/2-x,1/2-y,-z
1/2+x,1/2-y,z
loop_
_atom_site_type_symbol
_atom_site_label
_atom_site_fract_x
_atom_site_fract_y
_atom_site_fract_z
Si Si1 0.229001 0.673067 0.172325
Si Si2 0.530553 0.434406 0.290716
Si Si3 0.257611 0.437469 0.654519
Si Si4 0.104178 0.348313 0.565868
Si Si5 0.821152 0.938101 0.195157
Si Si6 0.398927 0.758655 0.116509
O O1 0.173037 0.675666 0.385359
O O2 0.249974 0.608592 0.105615
O O3 0.335005 0.704747 0.186513
O O4 0.163054 0.700920 0.015910
O O5 0.500000 0.404370 0.500000
O O6 0.538462 0.500000 0.328437
O O7 0.646885 0.416984 0.217623
O O8 0.440465 0.423370 0.144957
O O9 0.220294 0.500000 0.716640
O O10 0.163934 0.395006 0.684369
O O11 0.301095 0.437999 0.429669
O O12 0.072533 0.295152 0.699131
O O13 0.000000 0.375415 0.500000
O O14 0.796332 0.000000 0.111194
O O15 0.500000 0.736715 0.000000
#
# Coordination Sequence:
#
# PCOD8111896 Si02
#       6
#     8   8   8   8   8   8
#     4  10  22  41  64  89 119 156 198 243 297 355
#     4   7  10  21  43  75 114 147 180 229 284 340
#     4   8  15  28  50  83 120 156 195 240 292 349
#     4  11  21  38  63  87 117 157 202 250 292 345
#     4   8  14  29  56  87 117 150 189 239 299 356
#     4  11  23  43  63  85 119 158 199 250 298 343
#
# _framework density 22.172968999999998
#
# number of rings (size 3 to 8) (size 9 to 14) (size 15 to 20)
#    0.000    2.833    1.667    2.500    0.000    0.333 
#    6.000    3.333    0.000    1.500    0.000    0.000 
#    0.000    0.000    0.000    0.167    0.000    0.000 
#
# Total GULP energy -297402.085287 kJ/mol
# GULP energy per Si atom -12391.753554 kJ/mol
# Density = 2.212250 g / cm^3
# Si number density = 22.172969 Si / 1000 Ang^3
#
#
#
# Elastic Constant Matrix: (Units=GPa)
#
#
# Indices 1 2 3 4 5 6 
#
# 1 154.7811 50.7165 21.8572 0.0000 -1.0533 0.0000
# 2 50.7165 93.4211 12.9451 0.0000 -0.2166 0.0000
# 3 21.8572 12.9451 29.2592 0.0000 -11.2455 0.0000
# 4 0.0000 0.0000 0.0000 23.6699 0.0000 -24.0318
# 5 -1.0533 -0.2166 -11.2455 0.0000 39.5235 0.0000
# 6 0.0000 0.0000 0.0000 -24.0318 0.0000 108.3745
#
#
#
# Elastic Compliance Matrix: (Units=1/GPa)
#
#
# Indices 1 2 3 4 5 6 
#
# 1 0.008439 -0.003883 -0.005062 0.000000 -0.001237 0.000000
# 2 -0.003883 0.013274 -0.003350 0.000000 -0.000984 0.000000
# 3 -0.005062 -0.003350 0.044217 0.000000 0.012428 0.000000
# 4 0.000000 0.000000 0.000000 0.054523 0.000000 0.012090
# 5 -0.001237 -0.000984 0.012428 0.000000 0.028799 0.000000
# 6 0.000000 0.000000 0.000000 0.012090 0.000000 0.011908
#
#
# Mechanical properties :
#
#
# Convention : Reuss Voigt Hill
#
# Bulk Modulus (GPa) = 24.18925 49.83323 37.01124
# Shear Modulus (GPa) = 25.05865 47.10975 36.08420
#
# Velocity S-wave (km/s) = 3.36541 4.61439 4.03848
# Velocity P-wave (km/s) = 5.10238 7.13538 6.20274
#
# Compressibility (1/GPa) = 0.04134068
#
# Stress axis : x y z
#
# Youngs Moduli (GPa) = 118.49091 75.33384 22.61559
#
# Poissons Ratio (x) = 0.29253 0.11447
# Poissons Ratio (y) = 0.46011 0.07577
# Poissons Ratio (z) = 0.59977 0.25239
#
# Static dielectric constant tensor:
#      x y z
#    x 4.259200 0.000000 -0.001470 
#    y 0.000000 3.901500 0.000000 
#    z -0.001470 0.000000 3.831600 
# 
# 
# High freq. dielectric constant tensor:
#      x y z
#    x 1.874390 0.000000 -0.000500 
#    y 0.000000 1.846910 0.000000 
#    z -0.000500 0.000000 1.874570 
# 
# From -- ./inp_files/50711.got.cif
#   From: 2010.06.25/outbox.cif.g09.slc.cpg/sg12_26_cif.got.tgz:50711.got - 2010.06.28 00:19:55.
