data_PCOD8111735
_publ_section_title
;
Structure prediction by ZEFSAII (Michael W. Deem and Ramdas Pophale) SiO2 
 PCOD8111735
Probable space group: C 2/M
;
_chemical_formula_sum "Si O2"
_cell_formula_units_Z 44
_cell_length_a 12.094579
_cell_length_b 20.796767
_cell_length_c 9.010935
_cell_angle_alpha 90.000000
_cell_angle_beta 105.980319
_cell_angle_gamma 90.000000
_cell_volume 2178.917688
_symmetry_space_group_name_H-M "C 2/M"
_symmetry_group_IT_number 12
_symmetry_cell_setting 'monoclinic'
loop_
_space_group_symop_operation_xyz
x,y,z
-x,y,-z
-x,-y,-z
x,-y,z
1/2+x,1/2+y,z
1/2-x,1/2+y,-z
1/2-x,1/2-y,-z
1/2+x,1/2-y,z
loop_
_atom_site_type_symbol
_atom_site_label
_atom_site_fract_x
_atom_site_fract_y
_atom_site_fract_z
Si Si1 0.642970 0.890429 0.397097
Si Si2 0.600200 0.000000 0.154618
Si Si3 0.000000 0.709622 0.500000
Si Si4 0.693689 0.000000 0.621538
Si Si5 0.045996 0.000000 0.349754
Si Si6 0.729657 0.500000 0.033324
Si Si7 0.883373 0.168153 0.381780
Si Si8 0.932240 0.893225 0.109794
O O1 0.552439 0.832781 0.385760
O O2 0.635796 0.934442 0.542187
O O3 0.770987 0.862010 0.417406
O O4 0.598190 0.934520 0.246789
O O5 0.500000 0.000000 0.000000
O O6 0.718493 0.000000 0.110412
O O7 0.106149 0.754401 0.596251
O O8 0.817909 0.000000 0.592049
O O9 0.682831 0.000000 0.795702
O O10 0.000000 0.000000 0.500000
O O11 0.007636 0.937912 0.244356
O O12 0.656365 0.435449 0.018275
O O13 0.874986 0.157615 0.200483
O O14 0.000000 0.137254 0.500000
O O15 0.000000 0.857639 0.000000
#
# Coordination Sequence:
#
# PCOD8111735 Si02
#       8
#     8   4   4   4   4   4   8   8
#     4  11  23  45  65  97 125 163 221 257 313 383
#     4  11  26  42  69  93 129 166 198 264 330 379
#     4  10  26  41  68  87 124 178 222 260 292 366
#     4  11  22  33  65  93 124 164 195 261 311 386
#     4  11  19  29  52  93 129 161 197 242 329 378
#     4  11  21  35  55  97 128 161 195 256 332 373
#     4  10  22  40  67  90 125 169 215 264 309 369
#     4  11  19  34  56  94 135 157 197 261 322 385
#
# _framework density 20.193512999999999
#
# number of rings (size 3 to 8) (size 9 to 14) (size 15 to 20)
#    0.545    0.727    3.636    3.818    5.091    0.727 
#    0.000    1.364    0.000    3.273    0.000    0.000 
#    0.000    0.000    0.000    0.000    0.000    0.000 
#
# Total GULP energy -272601.696685 kJ/mol
# GULP energy per Si atom -12390.986213 kJ/mol
# Density = 2.014755 g / cm^3
# Si number density = 20.193513 Si / 1000 Ang^3
#
#
#
# Elastic Constant Matrix: (Units=GPa)
#
#
# Indices 1 2 3 4 5 6 
#
# 1 62.8728 40.7119 25.3851 0.0000 -5.0071 0.0000
# 2 40.7119 123.6217 50.7716 0.0000 -6.9644 0.0000
# 3 25.3851 50.7716 135.1486 0.0000 -16.1702 0.0000
# 4 0.0000 0.0000 0.0000 13.8090 0.0000 -2.6368
# 5 -5.0071 -6.9644 -16.1702 0.0000 40.7566 0.0000
# 6 0.0000 0.0000 0.0000 -2.6368 0.0000 38.8881
#
#
#
# Elastic Compliance Matrix: (Units=1/GPa)
#
#
# Indices 1 2 3 4 5 6 
#
# 1 0.020520 -0.006111 -0.001451 0.000000 0.000901 0.000000
# 2 -0.006111 0.011387 -0.003136 0.000000 -0.000049 0.000000
# 3 -0.001451 -0.003136 0.009201 0.000000 0.002936 0.000000
# 4 0.000000 0.000000 0.000000 0.073367 0.000000 0.004975
# 5 0.000901 -0.000049 0.002936 0.000000 0.025803 0.000000
# 6 0.000000 0.000000 0.000000 0.004975 0.000000 0.026052
#
#
# Mechanical properties :
#
#
# Convention : Reuss Voigt Hill
#
# Bulk Modulus (GPa) = 50.72892 61.70892 56.21892
# Shear Modulus (GPa) = 25.73399 32.34236 29.03818
#
# Velocity S-wave (km/s) = 3.57370 4.00637 3.79620
# Velocity P-wave (km/s) = 6.49649 7.21294 6.86407
#
# Compressibility (1/GPa) = 0.01971262
#
# Stress axis : x y z
#
# Youngs Moduli (GPa) = 48.73354 87.82065 108.68278
#
# Poissons Ratio (x) = 0.53669 0.15766
# Poissons Ratio (y) = 0.29782 0.34080
# Poissons Ratio (z) = 0.07070 0.27538
#
# Static dielectric constant tensor:
#      x y z
#    x 3.732230 0.000000 -0.270290 
#    y 0.000000 3.588120 0.000000 
#    z -0.270290 0.000000 3.743450 
# 
# 
# High freq. dielectric constant tensor:
#      x y z
#    x 1.788530 0.000000 -0.017880 
#    y 0.000000 1.771340 0.000000 
#    z -0.017880 0.000000 1.788130 
# 
# From -- ./inp_files/49442.got.cif
#   From: 2010.06.25/outbox.cif.g09.slc.cpg/sg12_25_cif.got.tgz:49442.got - 2010.06.28 00:19:55.
