data_PCOD8111053
_publ_section_title
;
Structure prediction by ZEFSAII (Michael W. Deem and Ramdas Pophale) SiO2 
 PCOD8111053
Probable space group: C 2/M
;
_chemical_formula_sum "Si O2"
_cell_formula_units_Z 56
_cell_length_a 29.706425
_cell_length_b 8.832670
_cell_length_c 21.750729
_cell_angle_alpha 90.000000
_cell_angle_beta 149.274595
_cell_angle_gamma 90.000000
_cell_volume 2915.899987
_symmetry_space_group_name_H-M "C 2/M"
_symmetry_group_IT_number 12
_symmetry_cell_setting 'monoclinic'
loop_
_space_group_symop_operation_xyz
x,y,z
-x,y,-z
-x,-y,-z
x,-y,z
1/2+x,1/2+y,z
1/2-x,1/2+y,-z
1/2-x,1/2-y,-z
1/2+x,1/2-y,z
loop_
_atom_site_type_symbol
_atom_site_label
_atom_site_fract_x
_atom_site_fract_y
_atom_site_fract_z
Si Si1 0.526361 0.321372 0.805296
Si Si2 0.471986 0.177910 0.615759
Si Si3 0.357603 0.679379 0.845423
Si Si4 0.481697 0.677717 0.885706
Si Si5 0.788946 0.674452 0.985747
Si Si6 0.668854 0.677217 0.632419
Si Si7 0.380664 0.328139 0.290588
O O1 0.528389 0.500000 0.796218
O O2 0.480840 0.243019 0.694323
O O3 0.471945 0.275794 0.802826
O O4 0.624873 0.264659 0.932424
O O5 0.381995 0.240914 0.482120
O O6 0.555945 0.219033 0.672850
O O7 0.465170 0.000000 0.612422
O O8 0.340893 0.500000 0.829939
O O9 0.395547 0.728655 0.822797
O O10 0.267656 0.765067 0.751939
O O11 0.427681 0.740357 0.978122
O O12 0.490658 0.500000 0.903327
O O13 0.812403 0.500000 0.027212
O O14 0.719488 0.689778 0.849231
O O15 0.750000 0.750000 0.000000
O O16 0.669551 0.500000 0.620467
O O17 0.617432 0.714345 0.635390
O O18 0.413824 0.500000 0.318869
#
# Coordination Sequence:
#
# PCOD8111053 Si02
#       7
#     8   8   8   8   8   8   8
#     4  11  21  36  57  83 116 152 187 228 281 334
#     4  12  25  39  56  79 109 149 195 237 276 331
#     4   9  17  36  62  89 116 143 183 229 275 330
#     4   8  17  34  61  90 116 147 180 224 280 334
#     4  11  21  34  54  82 114 149 184 225 274 329
#     4  11  23  39  58  82 112 148 187 231 284 333
#     4  10  22  39  58  80 112 150 186 229 282 333
#
# _framework density 19.205048999999999
#
# number of rings (size 3 to 8) (size 9 to 14) (size 15 to 20)
#    0.000    1.714    1.429    4.714    0.000    3.429 
#    0.000    4.286    0.000    0.000    0.000    0.000 
#    0.000    0.000    0.000    0.000    0.000    0.000 
#
# Total GULP energy -347224.402353 kJ/mol
# GULP energy per Si atom -12400.871513 kJ/mol
# Density = 1.916134 g / cm^3
# Si number density = 19.205049 Si / 1000 Ang^3
#
#
#
# Elastic Constant Matrix: (Units=GPa)
#
#
# Indices 1 2 3 4 5 6 
#
# 1 104.2661 53.8221 34.6656 0.0000 -14.7414 0.0000
# 2 53.8221 106.8162 40.5283 0.0000 -12.3529 0.0000
# 3 34.6656 40.5283 79.8220 0.0000 -13.6749 0.0000
# 4 0.0000 0.0000 0.0000 28.3342 0.0000 3.9036
# 5 -14.7414 -12.3529 -13.6749 0.0000 24.4332 0.0000
# 6 0.0000 0.0000 0.0000 3.9036 0.0000 20.2688
#
#
#
# Elastic Compliance Matrix: (Units=1/GPa)
#
#
# Indices 1 2 3 4 5 6 
#
# 1 0.013882 -0.005569 -0.002487 0.000000 0.004168 0.000000
# 2 -0.005569 0.014011 -0.004488 0.000000 0.001212 0.000000
# 3 -0.002487 -0.004488 0.016857 0.000000 0.005665 0.000000
# 4 0.000000 0.000000 0.000000 0.036255 0.000000 -0.006982
# 5 0.004168 0.001212 0.005665 0.000000 0.047226 0.000000
# 6 0.000000 0.000000 0.000000 -0.006982 0.000000 0.050682
#
#
# Mechanical properties :
#
#
# Convention : Reuss Voigt Hill
#
# Bulk Modulus (GPa) = 50.85885 60.99290 55.92587
# Shear Modulus (GPa) = 23.74694 25.39980 24.57337
#
# Velocity S-wave (km/s) = 3.52020 3.64065 3.58093
# Velocity P-wave (km/s) = 6.56216 7.03563 6.80301
#
# Compressibility (1/GPa) = 0.01966226
#
# Stress axis : x y z
#
# Youngs Moduli (GPa) = 72.03727 71.37351 59.32249
#
# Poissons Ratio (x) = 0.39748 0.14754
# Poissons Ratio (y) = 0.40118 0.26621
# Poissons Ratio (z) = 0.17916 0.32029
#
# Static dielectric constant tensor:
#      x y z
#    x 3.699940 0.000000 -0.078400 
#    y 0.000000 3.521690 0.000000 
#    z -0.078400 0.000000 3.580130 
# 
# 
# High freq. dielectric constant tensor:
#      x y z
#    x 1.750810 0.000000 -0.009130 
#    y 0.000000 1.740110 0.000000 
#    z -0.009130 0.000000 1.746950 
# 
# From -- ./inp_files/249309.got.cif
#   From: 2010.06.25/outbox.cif.g09.slc.cpg/sg12_125_cif.got.tgz:249309.got - 2010.06.28 00:19:55.
