data_PCOD8111549
_publ_section_title
;
Structure prediction by ZEFSAII (Michael W. Deem and Ramdas Pophale) SiO2 
 PCOD8111549
Probable space group: C 2/M
;
_chemical_formula_sum "Si O2"
_cell_formula_units_Z 48
_cell_length_a 27.708221
_cell_length_b 7.581388
_cell_length_c 14.786470
_cell_angle_alpha 90.000000
_cell_angle_beta 133.319907
_cell_angle_gamma 90.000000
_cell_volume 2259.828203
_symmetry_space_group_name_H-M "C 2/M"
_symmetry_group_IT_number 12
_symmetry_cell_setting 'monoclinic'
loop_
_space_group_symop_operation_xyz
x,y,z
-x,y,-z
-x,-y,-z
x,-y,z
1/2+x,1/2+y,z
1/2-x,1/2+y,-z
1/2-x,1/2-y,-z
1/2+x,1/2-y,z
loop_
_atom_site_type_symbol
_atom_site_label
_atom_site_fract_x
_atom_site_fract_y
_atom_site_fract_z
Si Si1 0.069724 0.209860 0.624447
Si Si2 0.275826 0.698048 0.936009
Si Si3 0.977322 0.500000 0.110881
Si Si4 0.717011 0.302569 0.363518
Si Si5 0.807663 0.195648 0.327097
Si Si6 0.574001 0.298507 0.834927
Si Si7 0.386861 0.000000 0.820113
O O1 0.126181 0.286061 0.629774
O O2 0.079342 0.274067 0.739402
O O3 0.000000 0.282794 0.500000
O O4 0.074442 0.000000 0.627522
O O5 0.252972 0.500000 0.884589
O O6 0.245063 0.825566 0.821859
O O7 0.250000 0.750000 0.000000
O O8 0.354215 0.714562 0.028888
O O9 0.973741 0.674896 0.167913
O O10 0.051064 0.500000 0.166946
O O11 0.918016 0.500000 0.960749
O O12 0.687036 0.500000 0.331512
O O13 0.750000 0.250000 0.500000
O O14 0.777186 0.308630 0.368937
O O15 0.658550 0.171906 0.256169
O O16 0.822673 0.000000 0.384082
O O17 0.546745 0.500000 0.802133
#
# Coordination Sequence:
#
# PCOD8111549 Si02
#       7
#     8   8   4   8   8   8   4
#     4   9  19  37  59  88 135 181 220 263 326 407
#     4  11  21  33  56  90 129 174 219 270 329 393
#     4  11  26  44  73  98 142 182 225 288 350 423
#     4  12  25  47  74 100 134 174 232 295 347 406
#     4  11  21  37  62  95 129 170 215 275 335 394
#     4  10  22  40  62  97 136 180 226 270 335 410
#     4  11  26  50  70 106 133 177 234 290 358 406
#
# _framework density 21.240551
#
# number of rings (size 3 to 8) (size 9 to 14) (size 15 to 20)
#    0.000    1.333    3.333    2.000    2.333    4.000 
#    1.500    3.750    0.000    0.000    0.000    0.000 
#    0.000    0.000    0.000    0.000    0.000    0.000 
#
# Total GULP energy -297563.927635 kJ/mol
# GULP energy per Si atom -12398.496985 kJ/mol
# Density = 2.119221 g / cm^3
# Si number density = 21.240551 Si / 1000 Ang^3
#
#
#
# Elastic Constant Matrix: (Units=GPa)
#
#
# Indices 1 2 3 4 5 6 
#
# 1 157.2078 48.0801 59.5058 0.0000 -5.7032 0.0000
# 2 48.0801 114.7312 26.2768 0.0000 4.7951 0.0000
# 3 59.5058 26.2768 112.3136 0.0000 2.8360 0.0000
# 4 0.0000 0.0000 0.0000 21.7549 0.0000 -6.3081
# 5 -5.7032 4.7951 2.8360 0.0000 35.1985 0.0000
# 6 0.0000 0.0000 0.0000 -6.3081 0.0000 24.9069
#
#
#
# Elastic Compliance Matrix: (Units=1/GPa)
#
#
# Indices 1 2 3 4 5 6 
#
# 1 0.008860 -0.002869 -0.004077 0.000000 0.002155 0.000000
# 2 -0.002869 0.010180 -0.000816 0.000000 -0.001786 0.000000
# 3 -0.004077 -0.000816 0.011292 0.000000 -0.001459 0.000000
# 4 0.000000 0.000000 0.000000 0.049610 0.000000 0.012564
# 5 0.002155 -0.001786 -0.001459 0.000000 0.029120 0.000000
# 6 0.000000 0.000000 0.000000 0.012564 0.000000 0.043332
#
#
# Mechanical properties :
#
#
# Convention : Reuss Voigt Hill
#
# Bulk Modulus (GPa) = 67.54097 72.44200 69.99149
# Shear Modulus (GPa) = 28.92600 33.06473 30.99536
#
# Velocity S-wave (km/s) = 3.69430 3.94976 3.82416
# Velocity P-wave (km/s) = 7.07561 7.41487 7.24723
#
# Compressibility (1/GPa) = 0.01480583
#
# Stress axis : x y z
#
# Youngs Moduli (GPa) = 112.86639 98.23140 88.56010
#
# Poissons Ratio (x) = 0.28184 0.36109
# Poissons Ratio (y) = 0.32383 0.07231
# Poissons Ratio (z) = 0.46020 0.08020
#
# Static dielectric constant tensor:
#      x y z
#    x 3.814190 0.000000 0.133220 
#    y 0.000000 3.781730 0.000000 
#    z 0.133220 0.000000 3.551190 
# 
# 
# High freq. dielectric constant tensor:
#      x y z
#    x 1.836140 0.000000 -0.007140 
#    y 0.000000 1.831540 0.000000 
#    z -0.007140 0.000000 1.829410 
# 
# From -- ./inp_files/249393.got.cif
#   From: 2010.06.25/outbox.cif.g09.slc.cpg/sg12_125_cif.got.tgz:249393.got - 2010.06.28 00:19:55.
