data_PCOD8111003
_publ_section_title
;
Structure prediction by ZEFSAII (Michael W. Deem and Ramdas Pophale) SiO2 
 PCOD8111003
Probable space group: C 2/M
;
_chemical_formula_sum "Si O2"
_cell_formula_units_Z 48
_cell_length_a 8.611187
_cell_length_b 27.242953
_cell_length_c 20.188679
_cell_angle_alpha 90.000000
_cell_angle_beta 28.840958
_cell_angle_gamma 90.000000
_cell_volume 2284.622134
_symmetry_space_group_name_H-M "C 2/M"
_symmetry_group_IT_number 12
_symmetry_cell_setting 'monoclinic'
loop_
_space_group_symop_operation_xyz
x,y,z
-x,y,-z
-x,-y,-z
x,-y,z
1/2+x,1/2+y,z
1/2-x,1/2+y,-z
1/2-x,1/2-y,-z
1/2+x,1/2-y,z
loop_
_atom_site_type_symbol
_atom_site_label
_atom_site_fract_x
_atom_site_fract_y
_atom_site_fract_z
Si Si1 0.768098 0.106933 0.148969
Si Si2 0.129049 0.098415 0.650936
Si Si3 0.616465 0.295057 0.647011
Si Si4 0.366196 0.444206 0.874819
Si Si5 0.349650 0.444458 0.626009
Si Si6 0.767284 0.303771 0.344826
O O1 0.537908 0.059280 0.229432
O O2 0.533269 0.153481 0.244119
O O3 0.988106 0.096535 0.130627
O O4 0.000000 0.113763 0.000000
O O5 0.500000 0.092958 0.500000
O O6 0.032987 0.152995 0.713440
O O7 0.033751 0.058357 0.740617
O O8 0.965341 0.090825 0.641065
O O9 0.435272 0.295454 0.645362
O O10 0.519468 0.245723 0.722450
O O11 0.000000 0.291441 0.500000
O O12 0.402537 0.500000 0.888287
O O13 0.000000 0.429766 0.000000
O O14 0.500000 0.426688 0.500000
O O15 0.455752 0.500000 0.601003
O O16 0.500000 0.315746 0.500000
#
# Coordination Sequence:
#
# PCOD8111003 Si02
#       6
#     8   8   8   8   8   8
#     4  12  26  43  65  96 129 174 220 271 328 393
#     4  11  23  39  66  99 131 164 214 266 325 386
#     4  10  22  38  68 101 129 169 213 266 327 385
#     4  11  26  45  66  91 128 176 219 266 323 391
#     4  11  23  41  67  98 131 169 215 271 327 387
#     4  11  23  42  69  99 130 170 218 270 325 394
#
# _framework density 21.01004
#
# number of rings (size 3 to 8) (size 9 to 14) (size 15 to 20)
#    0.000    1.000    1.667    5.500    7.000    5.333 
#    0.000    1.667    0.000    0.000    0.000    0.000 
#    0.000    0.000    0.000    0.000    0.000    0.000 
#
# Total GULP energy -297457.717564 kJ/mol
# GULP energy per Si atom -12394.071565 kJ/mol
# Density = 2.096222 g / cm^3
# Si number density = 21.010040 Si / 1000 Ang^3
#
#
#
# Elastic Constant Matrix: (Units=GPa)
#
#
# Indices 1 2 3 4 5 6 
#
# 1 160.9427 58.2316 49.6690 0.0143 -10.8235 0.0032
# 2 58.2316 116.1021 45.2135 0.0086 -10.1682 0.0145
# 3 49.6690 45.2135 123.0520 0.0555 -3.0578 0.0432
# 4 0.0143 0.0086 0.0555 12.9802 -0.0303 -11.9424
# 5 -10.8235 -10.1682 -3.0578 -0.0303 27.3137 -0.0257
# 6 0.0032 0.0145 0.0432 -11.9424 -0.0257 39.8129
#
#
#
# Elastic Compliance Matrix: (Units=1/GPa)
#
#
# Indices 1 2 3 4 5 6 
#
# 1 0.008098 -0.003088 -0.002089 0.000014 0.001825 0.000008
# 2 -0.003088 0.011542 -0.002926 0.000022 0.002745 0.000007
# 3 -0.002089 -0.002926 0.010025 -0.000069 -0.000795 -0.000031
# 4 0.000014 0.000022 -0.000069 0.106407 0.000154 0.031918
# 5 0.001825 0.002745 -0.000795 0.000154 0.038268 0.000071
# 6 0.000008 0.000007 -0.000031 0.031918 0.000071 0.034692
#
#
# Mechanical properties :
#
#
# Convention : Reuss Voigt Hill
#
# Bulk Modulus (GPa) = 74.29940 78.48055 76.38998
# Shear Modulus (GPa) = 21.76513 32.48689 27.12601
#
# Velocity S-wave (km/s) = 3.22209 3.93651 3.59708
# Velocity P-wave (km/s) = 7.02019 7.62210 7.32733
#
# Compressibility (1/GPa) = 0.01345906
#
# Stress axis : x y z
#
# Youngs Moduli (GPa) = 123.48463 86.63948 99.74924
#
# Poissons Ratio (x) = 0.26758 0.20834
# Poissons Ratio (y) = 0.38138 0.29188
# Poissons Ratio (z) = 0.25791 0.25352
#
# Static dielectric constant tensor:
#      x y z
#    x 3.935660 0.000010 -0.092090 
#    y 0.000010 4.250240 0.000030 
#    z -0.092090 0.000030 3.648530 
# 
# 
# High freq. dielectric constant tensor:
#      x y z
#    x 1.842220 0.000000 -0.006930 
#    y 0.000000 1.842310 0.000000 
#    z -0.006930 0.000000 1.795760 
# 
# From -- ./inp_files/260215.got.cif
#   From: 2010.06.25/outbox.cif.g09.slc.cpg/sg12_131_cif.got.tgz:260215.got - 2010.06.28 00:19:55.
