data_PCOD8111597
_publ_section_title
;
Structure prediction by ZEFSAII (Michael W. Deem and Ramdas Pophale) SiO2 
 PCOD8111597
Probable space group: C 2/M
;
_chemical_formula_sum "Si O2"
_cell_formula_units_Z 48
_cell_length_a 21.675543
_cell_length_b 26.092283
_cell_length_c 12.555132
_cell_angle_alpha 90.000000
_cell_angle_beta 160.786692
_cell_angle_gamma 90.000000
_cell_volume 2336.752622
_symmetry_space_group_name_H-M "C 2/M"
_symmetry_group_IT_number 12
_symmetry_cell_setting 'monoclinic'
loop_
_space_group_symop_operation_xyz
x,y,z
-x,y,-z
-x,-y,-z
x,-y,z
1/2+x,1/2+y,z
1/2-x,1/2+y,-z
1/2-x,1/2-y,-z
1/2+x,1/2-y,z
loop_
_atom_site_type_symbol
_atom_site_label
_atom_site_fract_x
_atom_site_fract_y
_atom_site_fract_z
Si Si1 0.776199 0.719030 0.232271
Si Si2 0.614795 0.183905 0.922597
Si Si3 0.395699 0.703488 0.722576
Si Si4 0.465792 0.440586 0.569847
Si Si5 0.173970 0.374664 0.220683
Si Si6 0.313334 0.121863 0.152012
O O1 0.803304 0.678651 0.183592
O O2 0.919552 0.707829 0.561376
O O3 0.792328 0.776305 0.208141
O O4 0.560848 0.722486 0.916239
O O5 0.674438 0.132614 0.954489
O O6 0.583231 0.167362 0.993436
O O7 0.250000 0.750000 0.500000
O O8 0.304295 0.653525 0.519415
O O9 0.500000 0.685540 0.000000
O O10 0.500000 0.432137 0.500000
O O11 0.462462 0.500000 0.593549
O O12 0.282639 0.416073 0.325166
O O13 0.644086 0.413465 0.914693
O O14 0.000000 0.401167 0.000000
O O15 0.500000 0.093839 0.500000
#
# Coordination Sequence:
#
# PCOD8111597 Si02
#       6
#     8   8   8   8   8   8
#     4  11  21  35  56  89 130 173 210 261 307 386
#     4  11  22  36  58  92 131 169 213 249 322 382
#     4  12  23  37  57  87 130 179 219 250 311 385
#     4  11  24  46  73  96 123 166 219 279 334 377
#     4  12  24  41  65  93 132 171 212 271 313 387
#     4  10  22  40  63  94 125 164 211 265 327 386
#
# _framework density 20.541326999999999
#
# number of rings (size 3 to 8) (size 9 to 14) (size 15 to 20)
#    0.000    0.833    3.333    6.000    0.000    0.667 
#    0.000    0.000    0.000    0.500    0.000    0.000 
#    0.000    0.000    0.000    0.000    0.000    0.000 
#
# Total GULP energy -297437.686319 kJ/mol
# GULP energy per Si atom -12393.236930 kJ/mol
# Density = 2.049457 g / cm^3
# Si number density = 20.541327 Si / 1000 Ang^3
#
#
#
# Elastic Constant Matrix: (Units=GPa)
#
#
# Indices 1 2 3 4 5 6 
#
# 1 105.6728 39.5481 56.0567 0.0000 5.1287 0.0000
# 2 39.5481 96.9430 51.0779 0.0000 7.3316 0.0000
# 3 56.0567 51.0779 119.8779 0.0001 8.4026 0.0001
# 4 0.0000 0.0000 0.0001 12.5013 0.0001 7.7519
# 5 5.1287 7.3316 8.4026 0.0001 43.7388 0.0000
# 6 0.0000 0.0000 0.0001 7.7519 0.0000 20.9708
#
#
#
# Elastic Compliance Matrix: (Units=1/GPa)
#
#
# Indices 1 2 3 4 5 6 
#
# 1 0.013125 -0.002728 -0.004966 0.000000 -0.000128 0.000000
# 2 -0.002728 0.013927 -0.004579 0.000000 -0.001135 0.000000
# 3 -0.004966 -0.004579 0.012691 0.000000 -0.001088 0.000000
# 4 0.000000 0.000000 0.000000 0.103780 0.000000 -0.038363
# 5 -0.000128 -0.001135 -0.001088 0.000000 0.023277 0.000000
# 6 0.000000 0.000000 0.000000 -0.038363 0.000000 0.061866
#
#
# Mechanical properties :
#
#
# Convention : Reuss Voigt Hill
#
# Bulk Modulus (GPa) = 65.80239 68.42877 67.11558
# Shear Modulus (GPa) = 19.35908 27.16291 23.26099
#
# Velocity S-wave (km/s) = 3.07326 3.64036 3.36877
# Velocity P-wave (km/s) = 6.68557 7.14526 6.91923
#
# Compressibility (1/GPa) = 0.01519702
#
# Stress axis : x y z
#
# Youngs Moduli (GPa) = 76.19250 71.80555 78.79535
#
# Poissons Ratio (x) = 0.19589 0.39129
# Poissons Ratio (y) = 0.20786 0.36077
# Poissons Ratio (z) = 0.37837 0.32877
#
# Static dielectric constant tensor:
#      x y z
#    x 3.978330 0.000000 0.369310 
#    y 0.000000 3.376840 0.000000 
#    z 0.369310 0.000000 5.707520 
# 
# 
# High freq. dielectric constant tensor:
#      x y z
#    x 1.816010 0.000000 0.000090 
#    y 0.000000 1.763310 0.000000 
#    z 0.000090 0.000000 1.820490 
# 
# From -- ./inp_files/122051.got.cif
#   From: 2010.06.25/outbox.cif.g09.slc.cpg/sg12_62_cif.got.tgz:122051.got - 2010.06.28 00:19:55.
