data_PCOD8111985
_publ_section_title
;
Structure prediction by ZEFSAII (Michael W. Deem and Ramdas Pophale) SiO2 
 PCOD8111985
Probable space group: C 2/M
;
_chemical_formula_sum "Si O2"
_cell_formula_units_Z 64
_cell_length_a 14.028986
_cell_length_b 17.489646
_cell_length_c 17.414666
_cell_angle_alpha 90.000000
_cell_angle_beta 132.249017
_cell_angle_gamma 90.000000
_cell_volume 3162.925298
_symmetry_space_group_name_H-M "C 2/M"
_symmetry_group_IT_number 12
_symmetry_cell_setting 'monoclinic'
loop_
_space_group_symop_operation_xyz
x,y,z
-x,y,-z
-x,-y,-z
x,-y,z
1/2+x,1/2+y,z
1/2-x,1/2+y,-z
1/2-x,1/2-y,-z
1/2+x,1/2-y,z
loop_
_atom_site_type_symbol
_atom_site_label
_atom_site_fract_x
_atom_site_fract_y
_atom_site_fract_z
Si Si1 0.026741 0.414754 0.769422
Si Si2 0.262413 0.588532 0.415092
Si Si3 0.816192 0.830030 0.295794
Si Si4 0.624771 0.280345 0.975513
Si Si5 0.547914 0.413414 0.349619
Si Si6 0.747589 0.824578 0.805302
Si Si7 0.046779 0.912468 0.172750
Si Si8 0.537107 0.864570 0.104652
O O1 0.058759 0.500000 0.758808
O O2 0.129431 0.358047 0.789083
O O3 0.029691 0.414050 0.864170
O O4 0.887319 0.388319 0.662667
O O5 0.277792 0.500000 0.397983
O O6 0.336485 0.642744 0.394399
O O7 0.324501 0.603876 0.531656
O O8 0.803162 0.738247 0.282912
O O9 0.690154 0.871684 0.194156
O O10 0.935692 0.855068 0.309319
O O11 0.655651 0.284646 0.082348
O O12 0.750000 0.250000 0.000000
O O13 0.577930 0.361904 0.917155
O O14 0.506411 0.222373 0.902698
O O15 0.500073 0.500000 0.338884
O O16 0.584275 0.400463 0.281338
O O17 0.825043 0.890996 0.804407
O O18 0.009846 0.000000 0.134359
O O19 0.500000 0.895380 0.000000
#
# Coordination Sequence:
#
# PCOD8111985 Si02
#       8
#     8   8   8   8   8   8   8   8
#     4  10  23  40  62  89 120 164 207 253 312 371
#     4   9  20  42  66  90 124 163 205 259 324 377
#     4  11  21  35  64  92 119 160 208 249 309 379
#     4  12  22  41  64  86 124 173 202 250 319 363
#     4  10  22  41  65  92 125 163 206 262 319 371
#     4  12  23  40  63  86 127 167 208 254 305 367
#     4  11  25  42  63  92 124 166 218 258 297 368
#     4  11  21  38  60  89 122 160 200 250 311 372
#
# _framework density 20.234432000000002
#
# number of rings (size 3 to 8) (size 9 to 14) (size 15 to 20)
#    0.000    1.250    3.750    2.250    0.000    3.250 
#    0.000    4.375    0.000    3.000    0.000    0.000 
#    0.000    0.000    0.000    0.000    0.000    0.000 
#
# Total GULP energy -396899.725898 kJ/mol
# GULP energy per Si atom -12403.116434 kJ/mol
# Density = 2.018838 g / cm^3
# Si number density = 20.234432 Si / 1000 Ang^3
#
#
#
# Elastic Constant Matrix: (Units=GPa)
#
#
# Indices 1 2 3 4 5 6 
#
# 1 109.9592 35.6927 46.4711 0.0000 0.9306 0.0000
# 2 35.6927 86.5886 37.9719 0.0000 0.4975 0.0000
# 3 46.4711 37.9719 97.8027 0.0000 -6.3031 0.0000
# 4 0.0000 0.0000 0.0000 31.0939 0.0000 1.9334
# 5 0.9306 0.4975 -6.3031 0.0000 27.4339 0.0000
# 6 0.0000 0.0000 0.0000 1.9334 0.0000 34.1596
#
#
#
# Elastic Compliance Matrix: (Units=1/GPa)
#
#
# Indices 1 2 3 4 5 6 
#
# 1 0.012025 -0.002895 -0.004682 0.000000 -0.001431 0.000000
# 2 -0.002895 0.014678 -0.004399 0.000000 -0.001179 0.000000
# 3 -0.004682 -0.004399 0.014385 0.000000 0.003544 0.000000
# 4 0.000000 0.000000 0.000000 0.032274 0.000000 -0.001827
# 5 -0.001431 -0.001179 0.003544 0.000000 0.037335 0.000000
# 6 0.000000 0.000000 0.000000 -0.001827 0.000000 0.029378
#
#
# Mechanical properties :
#
#
# Convention : Reuss Voigt Hill
#
# Bulk Modulus (GPa) = 58.35578 59.40243 58.87911
# Shear Modulus (GPa) = 29.45674 30.15179 29.80427
#
# Velocity S-wave (km/s) = 3.81960 3.86440 3.84206
# Velocity P-wave (km/s) = 6.95377 7.02369 6.98882
#
# Compressibility (1/GPa) = 0.01713626
#
# Stress axis : x y z
#
# Youngs Moduli (GPa) = 83.16123 68.12781 69.51450
#
# Poissons Ratio (x) = 0.19726 0.32544
# Poissons Ratio (y) = 0.24079 0.30580
# Poissons Ratio (z) = 0.38933 0.29970
#
# Static dielectric constant tensor:
#      x y z
#    x 3.650070 0.000000 -0.065880 
#    y 0.000000 3.635710 0.000000 
#    z -0.065880 0.000000 3.726130 
# 
# 
# High freq. dielectric constant tensor:
#      x y z
#    x 1.797140 0.000000 -0.000160 
#    y 0.000000 1.785390 0.000000 
#    z -0.000160 0.000000 1.786690 
# 
# From -- ./inp_files/270707.got.cif
#   From: 2010.06.25/outbox.cif.g09.slc.cpg/sg12_136_cif.got.tgz:270707.got - 2010.06.28 00:19:55.
