data_PCOD8111137
_publ_section_title
;
Structure prediction by ZEFSAII (Michael W. Deem and Ramdas Pophale) SiO2 
 PCOD8111137
Probable space group: C 2/M
;
_chemical_formula_sum "Si O2"
_cell_formula_units_Z 64
_cell_length_a 30.071065
_cell_length_b 8.633267
_cell_length_c 16.003579
_cell_angle_alpha 90.000000
_cell_angle_beta 132.934366
_cell_angle_gamma 90.000000
_cell_volume 3041.809101
_symmetry_space_group_name_H-M "C 2/M"
_symmetry_group_IT_number 12
_symmetry_cell_setting 'monoclinic'
loop_
_space_group_symop_operation_xyz
x,y,z
-x,y,-z
-x,-y,-z
x,-y,z
1/2+x,1/2+y,z
1/2-x,1/2+y,-z
1/2-x,1/2-y,-z
1/2+x,1/2-y,z
loop_
_atom_site_type_symbol
_atom_site_label
_atom_site_fract_x
_atom_site_fract_y
_atom_site_fract_z
Si Si1 0.796070 0.182397 0.125135
Si Si2 0.750934 0.180134 0.247493
Si Si3 0.046109 0.681505 0.913461
Si Si4 0.472822 0.818841 0.552682
Si Si5 0.871710 0.819790 0.849238
Si Si6 0.422103 0.318361 0.211180
Si Si7 0.135002 0.178420 0.496397
Si Si8 0.406206 0.180844 0.726188
O O1 0.780275 0.238778 0.198152
O O2 0.863736 0.238641 0.188444
O O3 0.792687 0.000000 0.113635
O O4 0.750000 0.250000 0.000000
O O5 0.691636 0.280370 0.188039
O O6 0.797656 0.208166 0.382896
O O7 0.732902 0.000000 0.217994
O O8 0.053332 0.500000 0.906644
O O9 0.085910 0.776057 0.896492
O O10 0.976188 0.734004 0.818076
O O11 0.072912 0.725569 0.037933
O O12 0.500000 0.761607 0.500000
O O13 0.520241 0.780469 0.685922
O O14 0.411195 0.724990 0.489089
O O15 0.458062 0.000000 0.534275
O O16 0.868837 0.772727 0.748575
O O17 0.884793 0.000000 0.875508
O O18 0.434218 0.500000 0.238587
O O19 0.123915 0.282759 0.401257
O O20 0.124957 0.000000 0.459717
O O21 0.399954 0.000000 0.736360
#
# Coordination Sequence:
#
# PCOD8111137 Si02
#       8
#     8   8   8   8   8   8   8   8
#     4  10  22  39  60  89 124 165 211 258 311 372
#     4  10  23  44  65  89 126 170 214 261 320 380
#     4  11  23  41  65  94 130 167 207 258 322 386
#     4  11  23  38  58  88 125 166 209 253 309 374
#     4  12  26  42  65  95 125 163 215 267 318 376
#     4  11  22  37  61  92 125 161 208 260 313 371
#     4  11  23  41  67  94 125 165 212 267 318 372
#     4  11  24  43  67  94 128 167 209 258 322 387
#
# _framework density 21.040112000000001
#
# number of rings (size 3 to 8) (size 9 to 14) (size 15 to 20)
#    0.000    1.125    1.250    4.875    0.000   10.000 
#    0.000    0.000    0.000    0.000    0.000    0.000 
#    0.000    0.000    0.000    0.000    0.000    0.000 
#
# Total GULP energy -397046.856342 kJ/mol
# GULP energy per Si atom -12407.714261 kJ/mol
# Density = 2.099222 g / cm^3
# Si number density = 21.040112 Si / 1000 Ang^3
#
#
#
# Elastic Constant Matrix: (Units=GPa)
#
#
# Indices 1 2 3 4 5 6 
#
# 1 101.0591 33.5654 21.7865 0.0000 -10.8376 0.0000
# 2 33.5654 60.5656 21.7260 0.0000 7.3680 0.0000
# 3 21.7865 21.7260 90.7628 0.0000 -3.6804 0.0000
# 4 0.0000 0.0000 0.0000 34.0909 0.0000 -2.4615
# 5 -10.8376 7.3680 -3.6804 0.0000 34.6792 0.0000
# 6 0.0000 0.0000 0.0000 -2.4615 0.0000 34.1418
#
#
#
# Elastic Compliance Matrix: (Units=1/GPa)
#
#
# Indices 1 2 3 4 5 6 
#
# 1 0.013284 -0.007645 -0.001129 0.000000 0.005656 0.000000
# 2 -0.007645 0.023128 -0.004015 0.000000 -0.007729 0.000000
# 3 -0.001129 -0.004015 0.012323 0.000000 0.001808 0.000000
# 4 0.000000 0.000000 0.000000 0.029487 0.000000 0.002126
# 5 0.005656 -0.007729 0.001808 0.000000 0.032437 0.000000
# 6 0.000000 0.000000 0.000000 0.002126 0.000000 0.029443
#
#
# Mechanical properties :
#
#
# Convention : Reuss Voigt Hill
#
# Bulk Modulus (GPa) = 43.18221 45.17149 44.17685
# Shear Modulus (GPa) = 28.83502 32.26968 30.55235
#
# Velocity S-wave (km/s) = 3.70601 3.92053 3.81478
# Velocity P-wave (km/s) = 6.23547 6.48150 6.35967
#
# Compressibility (1/GPa) = 0.02315768
#
# Stress axis : x y z
#
# Youngs Moduli (GPa) = 75.27599 43.23708 81.14843
#
# Poissons Ratio (x) = 0.33055 0.09165
# Poissons Ratio (y) = 0.57550 0.32577
# Poissons Ratio (z) = 0.08502 0.17358
#
# Static dielectric constant tensor:
#      x y z
#    x 3.948010 0.000000 -0.083320 
#    y 0.000000 3.668060 0.000000 
#    z -0.083320 0.000000 3.796960 
# 
# 
# High freq. dielectric constant tensor:
#      x y z
#    x 1.833250 0.000000 -0.006410 
#    y 0.000000 1.823590 0.000000 
#    z -0.006410 0.000000 1.830960 
# 
# From -- ./inp_files/250058.got.cif
#   From: 2010.06.25/outbox.cif.g09.slc.cpg/sg12_126_cif.got.tgz:250058.got - 2010.06.28 00:19:55.
