data_PCOD8111665
_publ_section_title
;
Structure prediction by ZEFSAII (Michael W. Deem and Ramdas Pophale) SiO2 
 PCOD8111665
Probable space group: C 2/M
;
_chemical_formula_sum "Si O2"
_cell_formula_units_Z 56
_cell_length_a 14.564373
_cell_length_b 26.444647
_cell_length_c 8.684409
_cell_angle_alpha 90.000000
_cell_angle_beta 56.846036
_cell_angle_gamma 90.000000
_cell_volume 2800.277881
_symmetry_space_group_name_H-M "C 2/M"
_symmetry_group_IT_number 12
_symmetry_cell_setting 'monoclinic'
loop_
_space_group_symop_operation_xyz
x,y,z
-x,y,-z
-x,-y,-z
x,-y,z
1/2+x,1/2+y,z
1/2-x,1/2+y,-z
1/2-x,1/2-y,-z
1/2+x,1/2-y,z
loop_
_atom_site_type_symbol
_atom_site_label
_atom_site_fract_x
_atom_site_fract_y
_atom_site_fract_z
Si Si1 0.608213 0.234990 0.309262
Si Si2 0.426226 0.500000 0.292286
Si Si3 0.871944 0.152878 0.776754
Si Si4 0.698404 0.901280 0.122406
Si Si5 0.689593 0.849443 0.434295
Si Si6 0.611274 0.388216 0.565304
Si Si7 0.671211 0.500000 0.954307
Si Si8 0.514930 0.844360 0.163695
O O1 0.500000 0.249472 0.500000
O O2 0.657888 0.288042 0.211590
O O3 0.688984 0.205940 0.354468
O O4 0.580355 0.200859 0.186985
O O5 0.396218 0.449105 0.412651
O O6 0.355302 0.500000 0.201862
O O7 0.556477 0.500000 0.148618
O O8 0.842931 0.122916 0.646724
O O9 0.997282 0.140167 0.703453
O O10 0.795119 0.136996 0.986885
O O11 0.657516 0.890073 0.333139
O O12 0.591971 0.894431 0.109352
O O13 0.751437 0.955462 0.061642
O O14 0.809550 0.862781 0.383561
O O15 0.602528 0.853897 0.651597
O O16 0.500000 0.830175 0.000000
#
# Coordination Sequence:
#
# PCOD8111665 Si02
#       8
#     8   4   8   8   8   8   4   8
#     4   9  19  41  60  88 128 168 209 249 312 372
#     4  11  22  40  64  92 132 164 210 260 317 378
#     4  11  23  38  59  95 134 160 206 263 308 376
#     4  11  22  41  64  91 124 164 211 257 313 375
#     4  10  22  40  65  89 123 171 209 258 308 380
#     4  11  22  39  62  95 127 165 209 260 314 367
#     4  11  22  39  65  94 120 166 206 261 324 369
#     4  10  22  43  64  89 125 163 210 259 313 370
#
# _framework density 19.998014000000001
#
# number of rings (size 3 to 8) (size 9 to 14) (size 15 to 20)
#    0.000    1.571    4.286    2.143    0.000    5.143 
#    5.143    2.500    0.000    0.000    0.000    0.000 
#    0.000    0.000    0.000    0.000    0.000    0.000 
#
# Total GULP energy -347121.599787 kJ/mol
# GULP energy per Si atom -12397.199992 kJ/mol
# Density = 1.995250 g / cm^3
# Si number density = 19.998014 Si / 1000 Ang^3
#
#
#
# Elastic Constant Matrix: (Units=GPa)
#
#
# Indices 1 2 3 4 5 6 
#
# 1 93.3412 59.0061 30.5910 0.0000 14.3089 0.0000
# 2 59.0061 150.1893 32.5067 0.0000 -1.5204 0.0000
# 3 30.5910 32.5067 100.3405 0.0000 10.5661 0.0000
# 4 0.0000 0.0000 0.0000 32.0628 0.0000 -6.2359
# 5 14.3089 -1.5204 10.5661 0.0000 25.3832 0.0000
# 6 0.0000 0.0000 0.0000 -6.2359 0.0000 24.8560
#
#
#
# Elastic Compliance Matrix: (Units=1/GPa)
#
#
# Indices 1 2 3 4 5 6 
#
# 1 0.016686 -0.006180 -0.002150 0.000000 -0.008882 0.000000
# 2 -0.006180 0.009501 -0.001695 0.000000 0.004759 0.000000
# 3 -0.002150 -0.001695 0.011560 0.000000 -0.003702 0.000000
# 4 0.000000 0.000000 0.000000 0.032789 0.000000 0.008226
# 5 -0.008882 0.004759 -0.003702 0.000000 0.046229 0.000000
# 6 0.000000 0.000000 0.000000 0.008226 0.000000 0.042295
#
#
# Mechanical properties :
#
#
# Convention : Reuss Voigt Hill
#
# Bulk Modulus (GPa) = 56.50342 65.34209 60.92276
# Shear Modulus (GPa) = 27.02545 31.24489 29.13517
#
# Velocity S-wave (km/s) = 3.68014 3.95701 3.82108
# Velocity P-wave (km/s) = 6.80983 7.32273 7.07093
#
# Compressibility (1/GPa) = 0.01769804
#
# Stress axis : x y z
#
# Youngs Moduli (GPa) = 59.92900 105.24735 86.50224
#
# Poissons Ratio (x) = 0.65047 0.18596
# Poissons Ratio (y) = 0.37038 0.14662
# Poissons Ratio (z) = 0.12883 0.17839
#
# Static dielectric constant tensor:
#      x y z
#    x 3.711270 0.000000 0.002830 
#    y 0.000000 3.681970 0.000000 
#    z 0.002830 0.000000 3.656750 
# 
# 
# High freq. dielectric constant tensor:
#      x y z
#    x 1.780240 0.000000 -0.000060 
#    y 0.000000 1.775190 0.000000 
#    z -0.000060 0.000000 1.785780 
# 
# From -- ./inp_files/66874.got.cif
#   From: 2010.06.25/outbox.cif.g09.slc.cpg/sg12_34_cif.got.tgz:66874.got - 2010.06.28 00:19:55.
