data_PCOD8111213
_publ_section_title
;
Structure prediction by ZEFSAII (Michael W. Deem and Ramdas Pophale) SiO2 
 PCOD8111213
Probable space group: C 2/M
;
_chemical_formula_sum "Si O2"
_cell_formula_units_Z 56
_cell_length_a 21.996576
_cell_length_b 8.960458
_cell_length_c 14.435748
_cell_angle_alpha 90.000000
_cell_angle_beta 68.811851
_cell_angle_gamma 90.000000
_cell_volume 2652.932422
_symmetry_space_group_name_H-M "C 2/M"
_symmetry_group_IT_number 12
_symmetry_cell_setting 'monoclinic'
loop_
_space_group_symop_operation_xyz
x,y,z
-x,y,-z
-x,-y,-z
x,-y,z
1/2+x,1/2+y,z
1/2-x,1/2+y,-z
1/2-x,1/2-y,-z
1/2+x,1/2-y,z
loop_
_atom_site_type_symbol
_atom_site_label
_atom_site_fract_x
_atom_site_fract_y
_atom_site_fract_z
Si Si1 0.047244 0.676878 0.558218
Si Si2 0.747693 0.667582 0.767307
Si Si3 0.424959 0.329962 0.948610
Si Si4 0.309803 0.168504 0.920849
Si Si5 0.198381 0.324071 0.458907
Si Si6 0.043311 0.169656 0.746749
Si Si7 0.118235 0.324644 0.850951
O O1 0.043512 0.500000 0.568586
O O2 0.122975 0.730716 0.509111
O O3 0.018439 0.749817 0.667525
O O4 0.000000 0.730452 0.500000
O O5 0.718623 0.500000 0.772244
O O6 0.803938 0.667389 0.813240
O O7 0.779746 0.724137 0.655309
O O8 0.692197 0.780254 0.833916
O O9 0.405740 0.500000 0.982326
O O10 0.374047 0.258770 0.907052
O O11 0.492211 0.320747 0.857846
O O12 0.428687 0.241388 0.043368
O O13 0.315041 0.000000 0.957155
O O14 0.250000 0.250000 0.000000
O O15 0.201538 0.500000 0.473034
O O16 0.250000 0.250000 0.500000
O O17 0.105209 0.256214 0.755853
O O18 0.061883 0.000000 0.712433
O O19 0.108524 0.500000 0.852276
#
# Coordination Sequence:
#
# PCOD8111213 Si02
#       7
#     8   8   8   8   8   8   8
#     4  10  23  43  68  95 127 164 212 271 322 377
#     4  10  22  39  62  89 125 164 202 249 311 375
#     4  11  24  41  61  88 125 166 207 254 309 371
#     4  11  22  37  61  90 123 164 205 254 307 367
#     4  10  22  41  64  94 124 163 210 259 319 375
#     4  11  25  43  64  89 124 166 207 256 314 374
#     4  12  24  39  63  94 125 161 207 256 309 375
#
# _framework density 21.108716000000001
#
# number of rings (size 3 to 8) (size 9 to 14) (size 15 to 20)
#    0.000    1.286    1.429    3.857    2.000    8.286 
#    0.000    0.000    0.000    0.000    0.000    0.000 
#    0.000    0.000    0.000    0.000    0.000    0.000 
#
# Total GULP energy -347214.110338 kJ/mol
# GULP energy per Si atom -12400.503941 kJ/mol
# Density = 2.106067 g / cm^3
# Si number density = 21.108716 Si / 1000 Ang^3
#
#
#
# Elastic Constant Matrix: (Units=GPa)
#
#
# Indices 1 2 3 4 5 6 
#
# 1 119.0597 41.5636 32.1465 0.0000 20.3886 0.0000
# 2 41.5636 102.4720 41.1770 0.0000 7.3747 0.0000
# 3 32.1465 41.1770 104.7842 0.0000 22.1515 0.0000
# 4 0.0000 0.0000 0.0000 31.0899 0.0000 3.8266
# 5 20.3886 7.3747 22.1515 0.0000 38.7268 0.0000
# 6 0.0000 0.0000 0.0000 3.8266 0.0000 30.8457
#
#
#
# Elastic Compliance Matrix: (Units=1/GPa)
#
#
# Indices 1 2 3 4 5 6 
#
# 1 0.010672 -0.003646 -0.000910 0.000000 -0.004403 0.000000
# 2 -0.003646 0.012841 -0.004342 0.000000 0.001957 0.000000
# 3 -0.000910 -0.004342 0.012801 0.000000 -0.006016 0.000000
# 4 0.000000 0.000000 0.000000 0.032664 0.000000 -0.004052
# 5 -0.004403 0.001957 -0.006016 0.000000 0.031208 0.000000
# 6 0.000000 0.000000 0.000000 -0.004052 0.000000 0.032922
#
#
# Mechanical properties :
#
#
# Convention : Reuss Voigt Hill
#
# Bulk Modulus (GPa) = 54.00129 61.78781 57.89455
# Shear Modulus (GPa) = 31.83174 34.22772 33.02973
#
# Velocity S-wave (km/s) = 3.88750 4.03115 3.95998
# Velocity P-wave (km/s) = 6.76670 7.14155 6.95665
#
# Compressibility (1/GPa) = 0.01851808
#
# Stress axis : x y z
#
# Youngs Moduli (GPa) = 93.70504 77.87396 78.12167
#
# Poissons Ratio (x) = 0.28392 0.07112
# Poissons Ratio (y) = 0.34163 0.33917
# Poissons Ratio (z) = 0.08531 0.33809
#
# Static dielectric constant tensor:
#      x y z
#    x 3.962990 0.000000 0.230260 
#    y 0.000000 3.781790 0.000000 
#    z 0.230260 0.000000 3.863290 
# 
# 
# High freq. dielectric constant tensor:
#      x y z
#    x 1.835570 0.000000 0.012910 
#    y 0.000000 1.824940 0.000000 
#    z 0.012910 0.000000 1.832900 
# 
# From -- ./inp_files/238235.got.cif
#   From: 2010.06.25/outbox.cif.g09.slc.cpg/sg12_120_cif.got.tgz:238235.got - 2010.06.28 00:19:55.
