data_PCOD8111568
_publ_section_title
;
Structure prediction by ZEFSAII (Michael W. Deem and Ramdas Pophale) SiO2 
 PCOD8111568
Probable space group: C 2/M
;
_chemical_formula_sum "Si O2"
_cell_formula_units_Z 40
_cell_length_a 29.157938
_cell_length_b 9.069371
_cell_length_c 7.802836
_cell_angle_alpha 90.000000
_cell_angle_beta 74.917874
_cell_angle_gamma 90.000000
_cell_volume 1992.337711
_symmetry_space_group_name_H-M "C 2/M"
_symmetry_group_IT_number 12
_symmetry_cell_setting 'monoclinic'
loop_
_space_group_symop_operation_xyz
x,y,z
-x,y,-z
-x,-y,-z
x,-y,z
1/2+x,1/2+y,z
1/2-x,1/2+y,-z
1/2-x,1/2-y,-z
1/2+x,1/2-y,z
loop_
_atom_site_type_symbol
_atom_site_label
_atom_site_fract_x
_atom_site_fract_y
_atom_site_fract_z
Si Si1 0.104516 0.668944 0.719548
Si Si2 0.055719 0.170815 0.453614
Si Si3 0.894489 0.168230 0.937793
Si Si4 0.794926 0.169454 0.878424
Si Si5 0.204499 0.329554 0.468123
O O1 0.089166 0.500000 0.737829
O O2 0.076365 0.743848 0.594036
O O3 0.161130 0.686282 0.641991
O O4 0.089164 0.739659 0.914111
O O5 0.078917 0.231644 0.255631
O O6 0.000000 0.197505 0.500000
O O7 0.069233 0.000000 0.463067
O O8 0.837829 0.180352 0.970618
O O9 0.910041 0.000000 0.954079
O O10 0.811255 0.250038 0.690278
O O11 0.781945 0.000000 0.850287
O O12 0.750000 0.250000 0.000000
O O13 0.216753 0.500000 0.419053
O O14 0.250000 0.250000 0.500000
#
# Coordination Sequence:
#
# PCOD8111568 Si02
#       5
#     8   8   8   8   8
#     4  11  24  40  62  92 127 165 203 255 314 370
#     4  10  22  43  69  93 120 160 211 262 311 368
#     4  10  22  40  63  90 122 163 206 254 308 368
#     4  11  22  37  59  88 123 164 207 255 309 366
#     4  11  23  38  58  87 123 166 210 255 308 368
#
# _framework density 20.076917000000002
#
# number of rings (size 3 to 8) (size 9 to 14) (size 15 to 20)
#    0.000    1.400    2.000    3.000    0.000    9.200 
#    0.000    4.000    0.000    0.000    0.000    0.000 
#    0.000    0.000    0.000    0.000    0.000    0.000 
#
# Total GULP energy -248109.605806 kJ/mol
# GULP energy per Si atom -12405.480290 kJ/mol
# Density = 2.003122 g / cm^3
# Si number density = 20.076917 Si / 1000 Ang^3
#
#
#
# Elastic Constant Matrix: (Units=GPa)
#
#
# Indices 1 2 3 4 5 6 
#
# 1 81.2733 56.8083 52.4844 0.0000 4.8805 0.0000
# 2 56.8083 135.9448 77.1261 0.0000 15.2280 0.0000
# 3 52.4844 77.1261 162.6220 0.0000 16.7517 0.0000
# 4 0.0000 0.0000 0.0000 32.6780 0.0000 3.4890
# 5 4.8805 15.2280 16.7517 0.0000 32.9883 0.0000
# 6 0.0000 0.0000 0.0000 3.4890 0.0000 29.5820
#
#
#
# Elastic Compliance Matrix: (Units=1/GPa)
#
#
# Indices 1 2 3 4 5 6 
#
# 1 0.018582 -0.006096 -0.003285 0.000000 0.001733 0.000000
# 2 -0.006096 0.012238 -0.003533 0.000000 -0.002954 0.000000
# 3 -0.003285 -0.003533 0.009145 0.000000 -0.002527 0.000000
# 4 0.000000 0.000000 0.000000 0.030992 0.000000 -0.003655
# 5 0.001733 -0.002954 -0.002527 0.000000 0.032704 0.000000
# 6 0.000000 0.000000 0.000000 -0.003655 0.000000 0.034235
#
#
# Mechanical properties :
#
#
# Convention : Reuss Voigt Hill
#
# Bulk Modulus (GPa) = 70.72411 83.63085 77.17748
# Shear Modulus (GPa) = 29.68494 31.94442 30.81468
#
# Velocity S-wave (km/s) = 3.84938 3.99319 3.92194
# Velocity P-wave (km/s) = 7.42024 7.93766 7.68331
#
# Compressibility (1/GPa) = 0.01413945
#
# Stress axis : x y z
#
# Youngs Moduli (GPa) = 53.81571 81.71166 109.34875
#
# Poissons Ratio (x) = 0.49808 0.35917
# Poissons Ratio (y) = 0.32804 0.38629
# Poissons Ratio (z) = 0.17677 0.28866
#
# Static dielectric constant tensor:
#      x y z
#    x 3.542610 0.000000 -0.084410 
#    y 0.000000 3.792480 0.000000 
#    z -0.084410 0.000000 3.737930 
# 
# 
# High freq. dielectric constant tensor:
#      x y z
#    x 1.781920 0.000000 0.000020 
#    y 0.000000 1.788000 0.000000 
#    z 0.000020 0.000000 1.793970 
# 
# From -- ./inp_files/101010.got.cif
#   From: 2010.06.25/outbox.cif.g09.slc.cpg/sg12_51_cif.got.tgz:101010.got - 2010.06.28 00:19:55.
