data_PCOD8111000
_publ_section_title
;
Structure prediction by ZEFSAII (Michael W. Deem and Ramdas Pophale) SiO2 
 PCOD8111000
Probable space group: C 2/M
;
_chemical_formula_sum "Si O2"
_cell_formula_units_Z 48
_cell_length_a 9.148842
_cell_length_b 19.294662
_cell_length_c 14.621069
_cell_angle_alpha 90.000000
_cell_angle_beta 112.660911
_cell_angle_gamma 90.000000
_cell_volume 2381.719197
_symmetry_space_group_name_H-M "C 2/M"
_symmetry_group_IT_number 12
_symmetry_cell_setting 'monoclinic'
loop_
_space_group_symop_operation_xyz
x,y,z
-x,y,-z
-x,-y,-z
x,-y,z
1/2+x,1/2+y,z
1/2-x,1/2+y,-z
1/2-x,1/2-y,-z
1/2+x,1/2-y,z
loop_
_atom_site_type_symbol
_atom_site_label
_atom_site_fract_x
_atom_site_fract_y
_atom_site_fract_z
Si Si1 0.323105 0.709634 0.604948
Si Si2 0.667513 0.265819 0.742247
Si Si3 0.597020 0.119653 0.783049
Si Si4 0.817234 0.000000 0.073437
Si Si5 0.133684 0.576122 0.603484
Si Si6 0.122958 0.626326 0.105097
Si Si7 0.163350 0.000000 0.136576
O O1 0.250000 0.750000 0.500000
O O2 0.513281 0.706428 0.650603
O O3 0.288286 0.750019 0.690164
O O4 0.260958 0.630826 0.595327
O O5 0.638408 0.200551 0.802302
O O6 0.746624 0.319601 0.830418
O O7 0.533659 0.107904 0.664789
O O8 0.473712 0.096644 0.830977
O O9 0.752307 0.071893 0.818263
O O10 0.718566 0.934225 0.080477
O O11 0.997810 0.000000 0.153467
O O12 0.846294 0.000000 0.973864
O O13 0.212938 0.500000 0.644838
O O14 0.000000 0.562083 0.500000
O O15 0.000000 0.657468 0.000000
#
# Coordination Sequence:
#
# PCOD8111000 Si02
#       7
#     8   8   8   4   8   8   4
#     4  11  22  44  68  94 132 172 218 277 330 403
#     4  11  25  41  66  99 129 174 226 266 341 391
#     4  11  22  43  66  91 134 172 219 275 325 402
#     4  11  26  41  68  94 126 179 225 276 330 396
#     4  10  22  38  66  99 129 169 219 269 336 398
#     4  12  25  44  64  96 137 178 224 274 332 392
#     4  11  23  44  68  95 122 173 230 270 331 392
#
# _framework density 20.153510000000001
#
# number of rings (size 3 to 8) (size 9 to 14) (size 15 to 20)
#    0.000    1.000    4.167    3.250    4.667    0.667 
#    3.000    0.000    0.000    1.000    0.000    0.000 
#    0.000    0.000    0.000    0.000    0.000    0.000 
#
# Total GULP energy -297432.175514 kJ/mol
# GULP energy per Si atom -12393.007313 kJ/mol
# Density = 2.010764 g / cm^3
# Si number density = 20.153510 Si / 1000 Ang^3
#
#
#
# Elastic Constant Matrix: (Units=GPa)
#
#
# Indices 1 2 3 4 5 6 
#
# 1 92.2375 31.5362 38.7139 0.0000 7.6671 0.0000
# 2 31.5362 133.1745 45.6150 0.0000 13.4637 0.0000
# 3 38.7139 45.6150 97.2171 0.0000 8.5374 0.0000
# 4 0.0000 0.0000 0.0000 47.8946 0.0000 -13.9765
# 5 7.6671 13.4637 8.5374 0.0000 42.0626 0.0000
# 6 0.0000 0.0000 0.0000 -13.9765 0.0000 43.5733
#
#
#
# Elastic Compliance Matrix: (Units=1/GPa)
#
#
# Indices 1 2 3 4 5 6 
#
# 1 0.013337 -0.001508 -0.004513 0.000000 -0.001032 0.000000
# 2 -0.001508 0.009294 -0.003587 0.000000 -0.001972 0.000000
# 3 -0.004513 -0.003587 0.013840 0.000000 -0.000838 0.000000
# 4 0.000000 0.000000 0.000000 0.023035 0.000000 0.007389
# 5 -0.001032 -0.001972 -0.000838 0.000000 0.024764 0.000000
# 6 0.000000 0.000000 0.000000 0.007389 0.000000 0.025320
#
#
# Mechanical properties :
#
#
# Convention : Reuss Voigt Hill
#
# Bulk Modulus (GPa) = 57.95382 61.59547 59.77464
# Shear Modulus (GPa) = 37.15867 40.49037 38.82452
#
# Velocity S-wave (km/s) = 4.29859 4.48716 4.39388
# Velocity P-wave (km/s) = 7.31134 7.58127 7.44753
#
# Compressibility (1/GPa) = 0.01725512
#
# Stress axis : x y z
#
# Youngs Moduli (GPa) = 74.97852 107.59511 72.25398
#
# Poissons Ratio (x) = 0.16227 0.32607
# Poissons Ratio (y) = 0.11308 0.25918
# Poissons Ratio (z) = 0.33836 0.38596
#
# Static dielectric constant tensor:
#      x y z
#    x 3.715300 0.000000 0.027710 
#    y 0.000000 3.834080 0.000000 
#    z 0.027710 0.000000 3.985290 
# 
# 
# High freq. dielectric constant tensor:
#      x y z
#    x 1.782120 0.000000 -0.003780 
#    y 0.000000 1.792840 0.000000 
#    z -0.003780 0.000000 1.802540 
# 
# From -- ./inp_files/197205.got.cif
#   From: 2010.06.25/outbox.cif.g09.slc.cpg/sg12_99_cif.got.tgz:197205.got - 2010.06.28 00:19:55.
