data_PCOD8111936
_publ_section_title
;
Structure prediction by ZEFSAII (Michael W. Deem and Ramdas Pophale) SiO2 
 PCOD8111936
Probable space group: C 2/M
;
_chemical_formula_sum "Si O2"
_cell_formula_units_Z 48
_cell_length_a 15.798080
_cell_length_b 8.574889
_cell_length_c 29.268548
_cell_angle_alpha 90.000000
_cell_angle_beta 144.857309
_cell_angle_gamma 90.000000
_cell_volume 2282.263926
_symmetry_space_group_name_H-M "C 2/M"
_symmetry_group_IT_number 12
_symmetry_cell_setting 'monoclinic'
loop_
_space_group_symop_operation_xyz
x,y,z
-x,y,-z
-x,-y,-z
x,-y,z
1/2+x,1/2+y,z
1/2-x,1/2+y,-z
1/2-x,1/2-y,-z
1/2+x,1/2-y,z
loop_
_atom_site_type_symbol
_atom_site_label
_atom_site_fract_x
_atom_site_fract_y
_atom_site_fract_z
Si Si1 0.944181 0.319235 0.193918
Si Si2 0.078828 0.680497 0.663310
Si Si3 0.371471 0.315386 0.909902
Si Si4 0.888016 0.820047 0.653120
Si Si5 0.122692 0.680632 0.187436
Si Si6 0.586675 0.320344 0.492669
O O1 0.958805 0.500000 0.213624
O O2 0.782181 0.257239 0.135812
O O3 0.069644 0.226062 0.276817
O O4 0.976727 0.293324 0.154286
O O5 0.067845 0.500000 0.671636
O O6 0.028724 0.784279 0.684040
O O7 0.978852 0.711802 0.575355
O O8 0.247023 0.727929 0.729079
O O9 0.371816 0.500000 0.904511
O O10 0.404126 0.242864 0.875082
O O11 0.500000 0.257602 0.000000
O O12 0.756572 0.716454 0.575265
O O13 0.842381 0.000000 0.631018
O O14 0.164746 0.500000 0.203700
O O15 0.500000 0.280349 0.500000
O O16 0.569045 0.500000 0.470313
#
# Coordination Sequence:
#
# PCOD8111936 Si02
#       6
#     8   8   8   8   8   8
#     4  10  22  41  64  92 130 170 208 259 319 374
#     4  12  24  40  62  88 123 165 210 262 316 371
#     4  10  22  42  67  94 127 169 212 257 314 380
#     4  12  24  39  62  91 123 163 213 262 311 372
#     4  11  23  40  64  95 128 167 213 261 316 375
#     4  11  24  41  60  86 123 165 210 261 314 368
#
# _framework density 21.031746999999999
#
# number of rings (size 3 to 8) (size 9 to 14) (size 15 to 20)
#    0.000    1.000    1.667    5.500    0.000    7.667 
#    0.000    0.000    0.000    0.000    0.000    0.000 
#    0.000    0.000    0.000    0.000    0.000    0.000 
#
# Total GULP energy -297722.829907 kJ/mol
# GULP energy per Si atom -12405.117913 kJ/mol
# Density = 2.098388 g / cm^3
# Si number density = 21.031747 Si / 1000 Ang^3
#
#
#
# Elastic Constant Matrix: (Units=GPa)
#
#
# Indices 1 2 3 4 5 6 
#
# 1 130.7929 33.1128 54.6417 0.0000 -14.7344 0.0000
# 2 33.1128 63.4926 27.3017 0.0000 -8.1527 0.0001
# 3 54.6417 27.3017 138.7969 0.0000 -7.8119 0.0000
# 4 0.0000 0.0000 0.0000 30.8905 0.0000 -6.3464
# 5 -14.7344 -8.1527 -7.8119 0.0000 24.9567 0.0000
# 6 0.0000 0.0001 0.0000 -6.3464 0.0000 34.0574
#
#
#
# Elastic Compliance Matrix: (Units=1/GPa)
#
#
# Indices 1 2 3 4 5 6 
#
# 1 0.010290 -0.003510 -0.003138 0.000000 0.003946 0.000000
# 2 -0.003510 0.018948 -0.002151 0.000000 0.003444 0.000000
# 3 -0.003138 -0.002151 0.008876 0.000000 0.000223 0.000000
# 4 0.000000 0.000000 0.000000 0.033661 0.000000 0.006273
# 5 0.003946 0.003444 0.000223 0.000000 0.043594 0.000000
# 6 0.000000 0.000000 0.000000 0.006273 0.000000 0.030531
#
#
# Mechanical properties :
#
#
# Convention : Reuss Voigt Hill
#
# Bulk Modulus (GPa) = 48.74752 62.57719 55.66235
# Shear Modulus (GPa) = 29.35341 32.51601 30.93471
#
# Velocity S-wave (km/s) = 3.73992 3.93624 3.83934
# Velocity P-wave (km/s) = 6.47130 7.10471 6.79539
#
# Compressibility (1/GPa) = 0.02051386
#
# Stress axis : x y z
#
# Youngs Moduli (GPa) = 97.18101 52.77652 112.66318
#
# Poissons Ratio (x) = 0.18526 0.35359
# Poissons Ratio (y) = 0.34113 0.24237
# Poissons Ratio (z) = 0.30500 0.11354
#
# Static dielectric constant tensor:
#      x y z
#    x 3.974840 0.000000 0.031460 
#    y 0.000000 3.701800 0.000000 
#    z 0.031460 0.000000 3.785470 
# 
# 
# High freq. dielectric constant tensor:
#      x y z
#    x 1.838630 0.000000 -0.002100 
#    y 0.000000 1.822570 0.000000 
#    z -0.002100 0.000000 1.818980 
# 
# From -- ./inp_files/360306.got.cif
#   From: 2010.06.25/outbox.cif.g09.slc.cpg/sg12_181_cif.got.tgz:360306.got - 2010.06.28 00:19:55.
