data_PCOD8111364
_publ_section_title
;
Structure prediction by ZEFSAII (Michael W. Deem and Ramdas Pophale) SiO2 
 PCOD8111364
Probable space group: C 2/M
;
_chemical_formula_sum "Si O2"
_cell_formula_units_Z 44
_cell_length_a 8.804836
_cell_length_b 20.932173
_cell_length_c 12.402262
_cell_angle_alpha 90.000000
_cell_angle_beta 82.299812
_cell_angle_gamma 90.000000
_cell_volume 2265.179317
_symmetry_space_group_name_H-M "C 2/M"
_symmetry_group_IT_number 12
_symmetry_cell_setting 'monoclinic'
loop_
_space_group_symop_operation_xyz
x,y,z
-x,y,-z
-x,-y,-z
x,-y,z
1/2+x,1/2+y,z
1/2-x,1/2+y,-z
1/2-x,1/2-y,-z
1/2+x,1/2-y,z
loop_
_atom_site_type_symbol
_atom_site_label
_atom_site_fract_x
_atom_site_fract_y
_atom_site_fract_z
Si Si1 0.244253 0.794785 0.898925
Si Si2 0.000000 0.892340 0.000000
Si Si3 0.157998 0.069621 0.425247
Si Si4 0.089020 0.315254 0.800747
Si Si5 0.701704 0.570900 0.175623
Si Si6 0.656211 0.812271 0.546494
O O1 0.166539 0.752919 0.814035
O O2 0.412254 0.818350 0.851178
O O3 0.250000 0.750000 0.000000
O O4 0.136247 0.853951 0.931719
O O5 0.073764 0.931083 0.092958
O O6 0.129957 0.085882 0.300866
O O7 0.248483 0.123428 0.483742
O O8 0.000000 0.065030 0.500000
O O9 0.241036 0.000000 0.426217
O O10 0.171614 0.373799 0.856754
O O11 0.105807 0.319018 0.673338
O O12 0.777681 0.500000 0.168716
O O13 0.500000 0.812983 0.500000
O O14 0.750000 0.750000 0.500000
#
# Coordination Sequence:
#
# PCOD8111364 Si02
#       6
#     8   4   8   8   8   8
#     4  12  21  37  60  85 112 150 200 239 291 346
#     4  12  23  36  62  86 119 150 198 250 286 358
#     4   9  20  40  64  84 115 160 201 242 295 358
#     4  11  22  39  61  85 119 155 193 243 292 353
#     4  10  22  40  59  86 120 157 195 241 296 350
#     4  11  23  37  58  90 124 152 192 246 302 350
#
# _framework density 19.424510000000001
#
# number of rings (size 3 to 8) (size 9 to 14) (size 15 to 20)
#    0.000    1.273    3.636    1.909    0.000    6.182 
#    0.000    2.727    0.000    0.000    0.000    0.000 
#    0.000    0.000    0.000    0.000    0.000    0.000 
#
# Total GULP energy -272592.372014 kJ/mol
# GULP energy per Si atom -12390.562364 kJ/mol
# Density = 1.938030 g / cm^3
# Si number density = 19.424510 Si / 1000 Ang^3
#
#
#
# Elastic Constant Matrix: (Units=GPa)
#
#
# Indices 1 2 3 4 5 6 
#
# 1 128.0097 60.9933 40.0318 0.0000 -3.4371 0.0000
# 2 60.9933 135.3631 30.4947 0.0000 -1.9557 0.0000
# 3 40.0318 30.4947 50.2316 0.0000 0.2504 0.0000
# 4 0.0000 0.0000 0.0000 17.4035 0.0000 15.4174
# 5 -3.4371 -1.9557 0.2504 0.0000 39.9130 0.0000
# 6 0.0000 0.0000 0.0000 15.4174 0.0000 10.9524
#
#
#
# Elastic Compliance Matrix: (Units=1/GPa)
#
#
# Indices 1 2 3 4 5 6 
#
# 1 0.011853 -0.003706 -0.007201 0.000000 0.000884 0.000000
# 2 -0.003706 0.009725 -0.002951 0.000000 0.000176 0.000000
# 3 -0.007201 -0.002951 0.027443 0.000000 -0.000937 0.000000
# 4 0.000000 0.000000 0.000000 -0.232607 0.000000 0.327433
# 5 0.000884 0.000176 -0.000937 0.000000 0.025145 0.000000
# 6 0.000000 0.000000 0.000000 0.327433 0.000000 -0.369613
#
#
# Mechanical properties :
#
#
# Convention : Reuss Voigt Hill
#
# Bulk Modulus (GPa) = 46.93809 64.07157 55.50483
# Shear Modulus (GPa) = -10.13714 25.79276 7.82781
#
# Velocity S-wave (km/s) = -2.28693 3.64792 2.00963
# Velocity P-wave (km/s) = 4.15252 7.12738 5.83279
#
# Compressibility (1/GPa) = 0.02130466
#
# Stress axis : x y z
#
# Youngs Moduli (GPa) = 84.36383 102.82988 36.43932
#
# Poissons Ratio (x) = 0.38109 0.26240
# Poissons Ratio (y) = 0.31265 0.10754
# Poissons Ratio (z) = 0.60751 0.30347
#
# Static dielectric constant tensor:
#      x y z
#    x 3.514920 0.000000 0.103900 
#    y 0.000000 -4.579250 0.000000 
#    z 0.103900 0.000000 3.671230 
# 
# 
# High freq. dielectric constant tensor:
#      x y z
#    x 1.748570 0.000000 0.002230 
#    y 0.000000 1.766420 0.000000 
#    z 0.002230 0.000000 1.770430 
# 
# From -- ./inp_files/120694.got.cif
#   From: 2010.06.25/outbox.cif.g09.slc.cpg/sg12_61_cif.got.tgz:120694.got - 2010.06.28 00:19:55.
