data_PCOD8111072
_publ_section_title
;
Structure prediction by ZEFSAII (Michael W. Deem and Ramdas Pophale) SiO2 
 PCOD8111072
Probable space group: C 2/M
;
_chemical_formula_sum "Si O2"
_cell_formula_units_Z 56
_cell_length_a 21.353088
_cell_length_b 17.995284
_cell_length_c 17.926884
_cell_angle_alpha 90.000000
_cell_angle_beta 22.642531
_cell_angle_gamma 90.000000
_cell_volume 2651.935514
_symmetry_space_group_name_H-M "C 2/M"
_symmetry_group_IT_number 12
_symmetry_cell_setting 'monoclinic'
loop_
_space_group_symop_operation_xyz
x,y,z
-x,y,-z
-x,-y,-z
x,-y,z
1/2+x,1/2+y,z
1/2-x,1/2+y,-z
1/2-x,1/2-y,-z
1/2+x,1/2-y,z
loop_
_atom_site_type_symbol
_atom_site_label
_atom_site_fract_x
_atom_site_fract_y
_atom_site_fract_z
Si Si1 0.633345 0.298551 0.291751
Si Si2 0.403829 0.912505 0.030744
Si Si3 0.826474 0.084701 0.176281
Si Si4 0.937150 0.415304 0.422168
Si Si5 0.974062 0.802437 0.304728
Si Si6 0.378241 0.851590 0.339920
Si Si7 0.266841 0.348014 0.093526
O O1 0.500000 0.278530 0.500000
O O2 0.731169 0.370685 0.212941
O O3 0.549450 0.308454 0.303720
O O4 0.760256 0.230517 0.144449
O O5 0.366234 0.000000 0.071997
O O6 0.500000 0.889110 0.000000
O O7 0.511124 0.890696 0.842369
O O8 0.681533 0.120821 0.384560
O O9 0.790339 0.087814 0.128645
O O10 0.838343 0.000000 0.190601
O O11 0.000000 0.125126 0.000000
O O12 0.982303 0.500000 0.391922
O O13 0.848480 0.409650 0.439885
O O14 0.097078 0.364676 0.239757
O O15 0.794082 0.835100 0.508204
O O16 0.966343 0.720552 0.277826
O O17 0.088588 0.851240 0.124970
#
# Coordination Sequence:
#
# PCOD8111072 Si02
#       7
#     8   8   8   8   8   8   8
#     4  12  24  42  67  97 128 166 216 269 329 385
#     4  11  25  46  68  93 128 172 222 275 329 385
#     4  10  22  39  58  89 130 168 208 254 306 378
#     4  11  22  38  63  92 129 172 208 252 317 387
#     4  11  24  41  65  95 132 159 211 273 321 376
#     4  11  22  43  65  93 126 168 210 265 323 386
#     4  12  22  39  62  94 129 167 207 261 314 384
#
# _framework density 21.116652999999999
#
# number of rings (size 3 to 8) (size 9 to 14) (size 15 to 20)
#    0.000    0.857    2.857    5.143    0.000    2.000 
#    0.000    4.286    0.000    0.000    0.000    0.000 
#    0.000    0.000    0.000    0.000    0.000    0.000 
#
# Total GULP energy -347222.961637 kJ/mol
# GULP energy per Si atom -12400.820058 kJ/mol
# Density = 2.106859 g / cm^3
# Si number density = 21.116653 Si / 1000 Ang^3
#
#
#
# Elastic Constant Matrix: (Units=GPa)
#
#
# Indices 1 2 3 4 5 6 
#
# 1 130.7513 19.6931 30.8428 0.0180 3.7825 -0.0123
# 2 19.6931 63.6735 16.4406 0.0293 -11.0258 -0.0237
# 3 30.8428 16.4406 92.7156 0.0458 6.1599 -0.0392
# 4 0.0180 0.0293 0.0458 28.3542 -0.0109 -2.7266
# 5 3.7825 -11.0258 6.1599 -0.0109 44.4186 0.0059
# 6 -0.0123 -0.0237 -0.0392 -2.7266 0.0059 34.0449
#
#
#
# Elastic Compliance Matrix: (Units=1/GPa)
#
#
# Indices 1 2 3 4 5 6 
#
# 1 0.008572 -0.002195 -0.002400 0.000000 -0.000942 -0.000001
# 2 -0.002195 0.017977 -0.002792 -0.000010 0.005036 0.000007
# 3 -0.002400 -0.002792 0.012224 -0.000015 -0.002184 0.000010
# 4 0.000000 -0.000010 -0.000015 0.035542 0.000008 0.002847
# 5 -0.000942 0.005036 -0.002184 0.000008 0.024146 -0.000003
# 6 -0.000001 0.000007 0.000010 0.002847 -0.000003 0.029601
#
#
# Mechanical properties :
#
#
# Convention : Reuss Voigt Hill
#
# Bulk Modulus (GPa) = 41.66707 46.78815 44.22761
# Shear Modulus (GPa) = 33.14862 36.04113 34.59488
#
# Velocity S-wave (km/s) = 3.96635 4.13578 4.05195
# Velocity P-wave (km/s) = 6.38362 6.70905 6.54836
#
# Compressibility (1/GPa) = 0.02399977
#
# Stress axis : x y z
#
# Youngs Moduli (GPa) = 116.65892 55.62667 81.80461
#
# Poissons Ratio (x) = 0.12208 0.19632
# Poissons Ratio (y) = 0.25602 0.22842
# Poissons Ratio (z) = 0.27996 0.15532
#
# Static dielectric constant tensor:
#      x y z
#    x 3.877400 -0.000010 -0.010260 
#    y -0.000010 3.675750 0.000030 
#    z -0.010260 0.000030 3.917060 
# 
# 
# High freq. dielectric constant tensor:
#      x y z
#    x 1.840670 0.000000 0.002510 
#    y 0.000000 1.813020 0.000000 
#    z 0.002510 0.000000 1.839110 
# 
# From -- ./inp_files/285998.got.cif
#   From: 2010.06.25/outbox.cif.g09.slc.cpg/sg12_143_cif.got.tgz:285998.got - 2010.06.28 00:19:55.
