data_PCOD8111020
_publ_section_title
;
Structure prediction by ZEFSAII (Michael W. Deem and Ramdas Pophale) SiO2 
 PCOD8111020
Probable space group: C 2/M
;
_chemical_formula_sum "Si O2"
_cell_formula_units_Z 56
_cell_length_a 17.916073
_cell_length_b 8.961178
_cell_length_c 24.673959
_cell_angle_alpha 90.000000
_cell_angle_beta 47.339710
_cell_angle_gamma 90.000000
_cell_volume 2913.138931
_symmetry_space_group_name_H-M "C 2/M"
_symmetry_group_IT_number 12
_symmetry_cell_setting 'monoclinic'
loop_
_space_group_symop_operation_xyz
x,y,z
-x,y,-z
-x,-y,-z
x,-y,z
1/2+x,1/2+y,z
1/2-x,1/2+y,-z
1/2-x,1/2-y,-z
1/2+x,1/2-y,z
loop_
_atom_site_type_symbol
_atom_site_label
_atom_site_fract_x
_atom_site_fract_y
_atom_site_fract_z
Si Si1 0.535015 0.177244 0.880020
Si Si2 0.287321 0.329075 0.146485
Si Si3 0.924636 0.672723 0.258818
Si Si4 0.733924 0.171937 0.581398
Si Si5 0.912318 0.829276 0.427371
Si Si6 0.934160 0.675976 0.714578
Si Si7 0.324764 0.328479 0.004594
O O1 0.624567 0.222309 0.876195
O O2 0.559558 0.244496 0.808104
O O3 0.523919 0.000000 0.885760
O O4 0.432658 0.248591 0.952357
O O5 0.311437 0.500000 0.150865
O O6 0.182158 0.272569 0.224768
O O7 0.275348 0.315097 0.087986
O O8 0.950089 0.500000 0.239818
O O9 0.807636 0.697560 0.336790
O O10 0.002991 0.740533 0.264629
O O11 0.855909 0.199425 0.513726
O O12 0.672968 0.286797 0.574253
O O13 0.708702 0.000000 0.576622
O O14 0.015103 0.735706 0.366370
O O15 0.943790 0.000000 0.405425
O O16 0.942126 0.500000 0.710221
O O17 0.338776 0.500000 0.980623
O O18 0.250000 0.250000 0.000000
#
# Coordination Sequence:
#
# PCOD8111020 Si02
#       7
#     8   8   8   8   8   8   8
#     4  11  22  36  56  81 108 137 173 215 256 302
#     4  10  22  39  56  75 104 143 177 206 252 312
#     4   8  15  30  51  73  98 133 173 208 249 304
#     4   8  14  26  43  64  96 135 167 199 249 309
#     4   9  15  23  41  71 100 124 161 213 258 296
#     4   9  17  32  52  70  96 135 173 208 253 308
#     4  11  23  40  61  82 106 135 170 211 255 306
#
# _framework density 19.223251000000001
#
# number of rings (size 3 to 8) (size 9 to 14) (size 15 to 20)
#    0.000    2.571    0.000    3.429    0.000    6.286 
#    0.000    8.571    0.000    0.857    0.000    6.000 
#    0.000    0.000    0.000    0.000    0.000    0.000 
#
# Total GULP energy -346962.125659 kJ/mol
# GULP energy per Si atom -12391.504488 kJ/mol
# Density = 1.917950 g / cm^3
# Si number density = 19.223251 Si / 1000 Ang^3
#
#
#
# Elastic Constant Matrix: (Units=GPa)
#
#
# Indices 1 2 3 4 5 6 
#
# 1 58.2849 26.9049 28.1825 0.0000 -20.6880 0.0000
# 2 26.9049 60.4984 39.8789 0.0000 -12.2471 -0.0002
# 3 28.1825 39.8789 141.6769 0.0000 -29.2465 0.0000
# 4 0.0000 0.0000 0.0000 30.1314 0.0000 -3.0633
# 5 -20.6880 -12.2471 -29.2465 0.0000 23.5336 0.0000
# 6 0.0000 -0.0002 0.0000 -3.0633 0.0000 22.4873
#
#
#
# Elastic Compliance Matrix: (Units=1/GPa)
#
#
# Indices 1 2 3 4 5 6 
#
# 1 0.028544 -0.009186 0.001480 0.000000 0.022152 0.000000
# 2 -0.009186 0.023638 -0.005318 0.000000 -0.002383 0.000000
# 3 0.001480 -0.005318 0.010704 0.000000 0.011837 0.000000
# 4 0.000000 0.000000 0.000000 0.033654 0.000000 0.004585
# 5 0.022152 -0.002383 0.011837 0.000000 0.075436 0.000000
# 6 0.000000 0.000000 0.000000 0.004585 0.000000 0.045094
#
#
# Mechanical properties :
#
#
# Convention : Reuss Voigt Hill
#
# Bulk Modulus (GPa) = 27.14489 50.04364 38.59426
# Shear Modulus (GPa) = 19.57735 26.26337 22.92036
#
# Velocity S-wave (km/s) = 3.19473 3.70026 3.45675
# Velocity P-wave (km/s) = 5.26877 6.65923 6.00438
#
# Compressibility (1/GPa) = 0.03683935
#
# Stress axis : x y z
#
# Youngs Moduli (GPa) = 35.03313 42.30540 93.42129
#
# Poissons Ratio (x) = 0.38861 -0.13831
# Poissons Ratio (y) = 0.32181 0.49683
# Poissons Ratio (z) = -0.05187 0.22499
#
# Static dielectric constant tensor:
#      x y z
#    x 3.402600 0.000000 -0.177550 
#    y 0.000000 3.463900 0.000000 
#    z -0.177550 0.000000 4.331900 
# 
# 
# High freq. dielectric constant tensor:
#      x y z
#    x 1.697800 0.000000 -0.004670 
#    y 0.000000 1.734270 0.000000 
#    z -0.004670 0.000000 1.779410 
# 
# From -- ./inp_files/342568.got.cif
#   From: 2010.06.25/outbox.cif.g09.slc.cpg/sg12_172_cif.got.tgz:342568.got - 2010.06.28 00:19:55.
