data_PCOD8111368
_publ_section_title
;
Structure prediction by ZEFSAII (Michael W. Deem and Ramdas Pophale) SiO2 
 PCOD8111368
Probable space group: C 2/M
;
_chemical_formula_sum "Si O2"
_cell_formula_units_Z 56
_cell_length_a 9.833482
_cell_length_b 27.401414
_cell_length_c 12.480489
_cell_angle_alpha 90.000000
_cell_angle_beta 113.494699
_cell_angle_gamma 90.000000
_cell_volume 3084.090819
_symmetry_space_group_name_H-M "C 2/M"
_symmetry_group_IT_number 12
_symmetry_cell_setting 'monoclinic'
loop_
_space_group_symop_operation_xyz
x,y,z
-x,y,-z
-x,-y,-z
x,-y,z
1/2+x,1/2+y,z
1/2-x,1/2+y,-z
1/2-x,1/2-y,-z
1/2+x,1/2-y,z
loop_
_atom_site_type_symbol
_atom_site_label
_atom_site_fract_x
_atom_site_fract_y
_atom_site_fract_z
Si Si1 0.338911 0.052812 0.407315
Si Si2 0.158966 0.702660 0.000897
Si Si3 0.090178 0.696603 0.751452
Si Si4 0.168910 0.947427 0.568276
Si Si5 0.723140 0.153102 0.387797
Si Si6 0.613141 0.690425 0.756379
Si Si7 0.698774 0.649442 0.339208
O O1 0.500000 0.069698 0.500000
O O2 0.231524 0.043787 0.471339
O O3 0.264459 0.097227 0.317229
O O4 0.351065 0.000000 0.348828
O O5 0.136933 0.673693 0.881939
O O6 0.250000 0.750000 0.000000
O O7 0.256794 0.673979 0.120006
O O8 0.000000 0.716594 0.000000
O O9 0.057614 0.754143 0.755324
O O10 0.219618 0.690682 0.704809
O O11 0.946521 0.668303 0.666834
O O12 0.258346 0.902773 0.651011
O O13 0.000000 0.930790 0.500000
O O14 0.181295 0.000000 0.634763
O O15 0.824195 0.187056 0.344693
O O16 0.775391 0.157323 0.526578
O O17 0.476764 0.653841 0.735560
#
# Coordination Sequence:
#
# PCOD8111368 Si02
#       7
#     8   8   8   8   8   8   8
#     4   9  17  32  52  74 106 142 178 220 258 307
#     4  10  22  40  60  76  97 138 195 239 260 292
#     4  11  23  36  54  76 108 144 184 222 257 313
#     4   9  17  30  50  74 102 138 178 216 256 305
#     4  11  20  35  52  78 115 144 171 215 266 330
#     4  11  23  36  54  76 108 146 182 221 261 311
#     4  11  22  33  52  84 113 142 175 212 273 333
#
# _framework density 18.157700999999999
#
# number of rings (size 3 to 8) (size 9 to 14) (size 15 to 20)
#    0.000    1.714    1.429    5.143    6.000    3.429 
#    0.000    0.000    0.000    0.000    0.000    6.000 
#    0.000    0.000    0.000    0.000    0.000    0.000 
#
# Total GULP energy -346918.659281 kJ/mol
# GULP energy per Si atom -12389.952117 kJ/mol
# Density = 1.811637 g / cm^3
# Si number density = 18.157701 Si / 1000 Ang^3
#
#
#
# Elastic Constant Matrix: (Units=GPa)
#
#
# Indices 1 2 3 4 5 6 
#
# 1 124.6847 18.7286 43.6095 0.0000 13.0098 0.0000
# 2 18.7286 77.2984 38.3372 0.0000 7.1650 0.0000
# 3 43.6095 38.3372 92.3497 0.0000 8.9855 0.0000
# 4 0.0000 0.0000 0.0000 3.5113 0.0000 5.4879
# 5 13.0098 7.1650 8.9855 0.0000 29.5891 0.0000
# 6 0.0000 0.0000 0.0000 5.4879 0.0000 27.3191
#
#
#
# Elastic Compliance Matrix: (Units=1/GPa)
#
#
# Indices 1 2 3 4 5 6 
#
# 1 0.009861 0.000069 -0.004391 0.000000 -0.003019 0.000000
# 2 0.000069 0.016401 -0.006648 0.000000 -0.001983 0.000000
# 3 -0.004391 -0.006648 0.015784 0.000000 -0.001253 0.000000
# 4 0.000000 0.000000 0.000000 0.415130 0.000000 -0.083392
# 5 -0.003019 -0.001983 -0.001253 0.000000 0.035984 0.000000
# 6 0.000000 0.000000 0.000000 -0.083392 0.000000 0.053356
#
#
# Mechanical properties :
#
#
# Convention : Reuss Voigt Hill
#
# Bulk Modulus (GPa) = 49.74079 55.07593 52.40836
# Shear Modulus (GPa) = 8.69325 24.99441 16.84383
#
# Velocity S-wave (km/s) = 2.19044 3.71417 3.04902
# Velocity P-wave (km/s) = 5.81813 6.98507 6.42814
#
# Compressibility (1/GPa) = 0.02010422
#
# Stress axis : x y z
#
# Youngs Moduli (GPa) = 101.41199 60.97085 63.35637
#
# Poissons Ratio (x) = -0.00418 0.27821
# Poissons Ratio (y) = -0.00695 0.42120
# Poissons Ratio (z) = 0.44532 0.40534
#
# Static dielectric constant tensor:
#      x y z
#    x 3.455790 0.000000 0.040110 
#    y 0.000000 3.844200 0.000000 
#    z 0.040110 0.000000 3.612720 
# 
# 
# High freq. dielectric constant tensor:
#      x y z
#    x 1.732270 0.000000 0.008360 
#    y 0.000000 1.692260 0.000000 
#    z 0.008360 0.000000 1.663930 
# 
# From -- ./inp_files/125826.got.cif
#   From: 2010.06.25/outbox.cif.g09.slc.cpg/sg12_63_cif.got.tgz:125826.got - 2010.06.28 00:19:55.
