data_PCOD8111242
_publ_section_title
;
Structure prediction by ZEFSAII (Michael W. Deem and Ramdas Pophale) SiO2 
 PCOD8111242
Probable space group: C 2/M
;
_chemical_formula_sum "Si O2"
_cell_formula_units_Z 40
_cell_length_a 32.809851
_cell_length_b 7.489853
_cell_length_c 25.689351
_cell_angle_alpha 90.000000
_cell_angle_beta 18.666352
_cell_angle_gamma 90.000000
_cell_volume 2020.494001
_symmetry_space_group_name_H-M "C 2/M"
_symmetry_group_IT_number 12
_symmetry_cell_setting 'monoclinic'
loop_
_space_group_symop_operation_xyz
x,y,z
-x,y,-z
-x,-y,-z
x,-y,z
1/2+x,1/2+y,z
1/2-x,1/2+y,-z
1/2-x,1/2-y,-z
1/2+x,1/2-y,z
loop_
_atom_site_type_symbol
_atom_site_label
_atom_site_fract_x
_atom_site_fract_y
_atom_site_fract_z
Si Si1 0.592717 0.289936 0.535821
Si Si2 0.567439 0.287930 0.367851
Si Si3 0.649111 0.798959 0.975968
Si Si4 0.621569 0.705780 0.123641
Si Si5 0.202614 0.000000 0.730909
Si Si6 0.437516 0.500000 0.993378
O O1 0.626786 0.500000 0.491027
O O2 0.509641 0.219939 0.588220
O O3 0.506248 0.245839 0.690296
O O4 0.722365 0.177583 0.377877
O O5 0.500000 0.208612 0.500000
O O6 0.571718 0.500000 0.362694
O O7 0.709991 0.214159 0.194266
O O8 0.565995 0.675156 0.038874
O O9 0.643824 0.000000 0.959560
O O10 0.606002 0.809278 0.088246
O O11 0.625009 0.500000 0.105729
O O12 0.750000 0.750000 0.000000
O O13 0.173941 0.000000 0.827810
O O14 0.072430 0.000000 0.857466
#
# Coordination Sequence:
#
# PCOD8111242 Si02
#       6
#     8   8   8   8   4   4
#     4  10  22  39  62  94 128 167 206 258 321 387
#     4   9  17  31  54  89 125 156 197 246 309 390
#     4  11  22  39  64  92 129 171 204 261 327 381
#     4  11  21  36  62  98 136 168 209 252 310 393
#     4  11  26  45  69  87 125 168 221 276 320 367
#     4  11  26  47  63  95 121 164 229 276 310 377
#
# _framework density 19.797138
#
# number of rings (size 3 to 8) (size 9 to 14) (size 15 to 20)
#    0.000    1.600    3.000    1.800    2.800    4.000 
#    0.000    5.000    0.000    0.000    0.000    0.000 
#    0.000    0.000    0.000    0.000    0.000    0.000 
#
# Total GULP energy -247974.967877 kJ/mol
# GULP energy per Si atom -12398.748394 kJ/mol
# Density = 1.975208 g / cm^3
# Si number density = 19.797138 Si / 1000 Ang^3
#
#
#
# Elastic Constant Matrix: (Units=GPa)
#
#
# Indices 1 2 3 4 5 6 
#
# 1 116.0756 36.5418 50.9687 0.0016 13.0518 -0.0030
# 2 36.5418 96.1642 42.4672 -0.0125 -1.1266 0.0048
# 3 50.9687 42.4672 96.0874 -0.0582 10.1438 -0.0255
# 4 0.0016 -0.0125 -0.0582 31.4730 -0.0144 -2.6150
# 5 13.0518 -1.1266 10.1438 -0.0144 34.6390 -0.0039
# 6 -0.0030 0.0048 -0.0255 -2.6150 -0.0039 20.7837
#
#
#
# Elastic Compliance Matrix: (Units=1/GPa)
#
#
# Indices 1 2 3 4 5 6 
#
# 1 0.011873 -0.002375 -0.004920 -0.000013 -0.003110 -0.000006
# 2 -0.002375 0.013554 -0.005027 -0.000003 0.002808 -0.000010
# 3 -0.004920 -0.005027 0.015541 0.000028 -0.002861 0.000022
# 4 -0.000013 -0.000003 0.000028 0.032109 0.000010 0.004040
# 5 -0.003110 0.002808 -0.002861 0.000010 0.030970 0.000002
# 6 -0.000006 -0.000010 0.000022 0.004040 0.000002 0.048623
#
#
# Mechanical properties :
#
#
# Convention : Reuss Voigt Hill
#
# Bulk Modulus (GPa) = 61.26085 63.14251 62.20168
# Shear Modulus (GPa) = 27.35900 29.26911 28.31405
#
# Velocity S-wave (km/s) = 3.72152 3.84923 3.78591
# Velocity P-wave (km/s) = 7.03404 7.19163 7.11327
#
# Compressibility (1/GPa) = 0.01632364
#
# Stress axis : x y z
#
# Youngs Moduli (GPa) = 84.22589 73.77684 64.34791
#
# Poissons Ratio (x) = 0.17525 0.31657
# Poissons Ratio (y) = 0.20008 0.32347
# Poissons Ratio (z) = 0.41436 0.37087
#
# Static dielectric constant tensor:
#      x y z
#    x 3.576700 0.000020 0.255290 
#    y 0.000020 3.503650 0.000120 
#    z 0.255290 0.000120 3.667010 
# 
# 
# High freq. dielectric constant tensor:
#      x y z
#    x 1.766370 0.000000 0.022850 
#    y 0.000000 1.777780 0.000010 
#    z 0.022850 0.000010 1.766620 
# 
# From -- ./inp_files/352976.got.cif
#   From: 2010.06.25/outbox.cif.g09.slc.cpg/sg12_177_cif.got.tgz:352976.got - 2010.06.28 00:19:55.
