data_PCOD8111970
_publ_section_title
;
Structure prediction by ZEFSAII (Michael W. Deem and Ramdas Pophale) SiO2 
 PCOD8111970
Probable space group: C 2/M
;
_chemical_formula_sum "Si O2"
_cell_formula_units_Z 48
_cell_length_a 11.889128
_cell_length_b 17.825714
_cell_length_c 11.536736
_cell_angle_alpha 90.000000
_cell_angle_beta 80.597398
_cell_angle_gamma 90.000000
_cell_volume 2412.156508
_symmetry_space_group_name_H-M "C 2/M"
_symmetry_group_IT_number 12
_symmetry_cell_setting 'monoclinic'
loop_
_space_group_symop_operation_xyz
x,y,z
-x,y,-z
-x,-y,-z
x,-y,z
1/2+x,1/2+y,z
1/2-x,1/2+y,-z
1/2-x,1/2-y,-z
1/2+x,1/2-y,z
loop_
_atom_site_type_symbol
_atom_site_label
_atom_site_fract_x
_atom_site_fract_y
_atom_site_fract_z
Si Si1 0.482900 0.308753 0.695445
Si Si2 0.659170 0.088615 0.989428
Si Si3 0.920365 0.912655 0.911843
Si Si4 0.011732 0.353114 0.810275
Si Si5 0.318495 0.677477 0.513275
Si Si6 0.096222 0.585038 0.565441
O O1 0.456360 0.373749 0.788734
O O2 0.502170 0.230618 0.759965
O O3 0.593072 0.335267 0.605399
O O4 0.376504 0.307389 0.626930
O O5 0.791973 0.105977 0.969413
O O6 0.603312 0.139640 0.898438
O O7 0.632820 0.000000 0.974962
O O8 0.609532 0.117135 0.121070
O O9 0.939574 0.000000 0.888093
O O10 0.000000 0.881309 0.000000
O O11 0.054779 0.408216 0.703539
O O12 0.250000 0.750000 0.500000
O O13 0.226139 0.611594 0.530704
O O14 0.101353 0.500000 0.524825
O O15 0.000000 0.626568 0.500000
#
# Coordination Sequence:
#
# PCOD8111970 Si02
#       6
#     8   8   8   8   8   8
#     4  11  25  39  65  92 125 170 210 254 319 382
#     4  10  22  41  65  90 122 162 206 262 317 363
#     4  10  24  44  62  88 128 168 211 259 309 375
#     4  11  21  38  62  95 124 155 204 263 307 376
#     4  11  23  43  61  90 132 166 203 262 319 370
#     4  11  23  40  66  95 123 163 210 257 312 370
#
# _framework density 19.899206
#
# number of rings (size 3 to 8) (size 9 to 14) (size 15 to 20)
#    0.000    1.333    1.667    4.000    2.333    6.000 
#    0.000    5.000    0.000    0.000    0.000    0.000 
#    0.000    0.000    0.000    0.000    0.000    0.000 
#
# Total GULP energy -297542.137752 kJ/mol
# GULP energy per Si atom -12397.589073 kJ/mol
# Density = 1.985391 g / cm^3
# Si number density = 19.899206 Si / 1000 Ang^3
#
#
#
# Elastic Constant Matrix: (Units=GPa)
#
#
# Indices 1 2 3 4 5 6 
#
# 1 173.4788 56.7861 87.0584 0.0000 -2.8739 0.0000
# 2 56.7861 78.4121 53.3711 0.0000 -2.2333 0.0000
# 3 87.0584 53.3711 154.7309 0.0000 -10.2068 0.0000
# 4 0.0000 0.0000 0.0000 30.6906 0.0000 -7.1571
# 5 -2.8739 -2.2333 -10.2068 0.0000 17.6844 0.0000
# 6 0.0000 0.0000 0.0000 -7.1571 0.0000 31.8693
#
#
#
# Elastic Compliance Matrix: (Units=1/GPa)
#
#
# Indices 1 2 3 4 5 6 
#
# 1 0.008908 -0.003947 -0.003730 0.000000 -0.001204 0.000000
# 2 -0.003947 0.018441 -0.004189 0.000000 -0.000730 0.000000
# 3 -0.003730 -0.004189 0.010325 0.000000 0.004824 0.000000
# 4 0.000000 0.000000 0.000000 0.034384 0.000000 0.007722
# 5 -0.001204 -0.000730 0.004824 0.000000 0.059043 0.000000
# 6 0.000000 0.000000 0.000000 0.007722 0.000000 0.033112
#
#
# Mechanical properties :
#
#
# Convention : Reuss Voigt Hill
#
# Bulk Modulus (GPa) = 71.71885 89.00588 80.36237
# Shear Modulus (GPa) = 25.96149 30.00929 27.98539
#
# Velocity S-wave (km/s) = 3.61591 3.88759 3.75421
# Velocity P-wave (km/s) = 7.31795 8.06081 7.69834
#
# Compressibility (1/GPa) = 0.01394333
#
# Stress axis : x y z
#
# Youngs Moduli (GPa) = 112.25398 54.22563 96.85583
#
# Poissons Ratio (x) = 0.21401 0.36130
# Poissons Ratio (y) = 0.44303 0.40569
# Poissons Ratio (z) = 0.41874 0.22713
#
# Static dielectric constant tensor:
#      x y z
#    x 3.636100 0.000000 0.037230 
#    y 0.000000 3.405160 0.000000 
#    z 0.037230 0.000000 3.740740 
# 
# 
# High freq. dielectric constant tensor:
#      x y z
#    x 1.792500 0.000000 -0.002960 
#    y 0.000000 1.772340 0.000000 
#    z -0.002960 0.000000 1.790590 
# 
# From -- ./inp_files/131643.got.cif
#   From: 2010.06.25/outbox.cif.g09.slc.cpg/sg12_66_cif.got.tgz:131643.got - 2010.06.28 00:19:55.
