data_PCOD8111363
_publ_section_title
;
Structure prediction by ZEFSAII (Michael W. Deem and Ramdas Pophale) SiO2 
 PCOD8111363
Probable space group: C 2/M
;
_chemical_formula_sum "Si O2"
_cell_formula_units_Z 56
_cell_length_a 26.905110
_cell_length_b 8.961005
_cell_length_c 11.857707
_cell_angle_alpha 90.000000
_cell_angle_beta 76.160262
_cell_angle_gamma 90.000000
_cell_volume 2775.858961
_symmetry_space_group_name_H-M "C 2/M"
_symmetry_group_IT_number 12
_symmetry_cell_setting 'monoclinic'
loop_
_space_group_symop_operation_xyz
x,y,z
-x,y,-z
-x,-y,-z
x,-y,z
1/2+x,1/2+y,z
1/2-x,1/2+y,-z
1/2-x,1/2-y,-z
1/2+x,1/2-y,z
loop_
_atom_site_type_symbol
_atom_site_label
_atom_site_fract_x
_atom_site_fract_y
_atom_site_fract_z
Si Si1 0.898874 0.825826 0.287167
Si Si2 0.415614 0.173536 0.805875
Si Si3 0.116491 0.325786 0.931248
Si Si4 0.005448 0.823236 0.623248
Si Si5 0.733880 0.823556 0.893056
Si Si6 0.804934 0.823712 0.488532
Si Si7 0.181923 0.674788 0.292935
O O1 0.909936 0.752129 0.160604
O O2 0.842078 0.787237 0.363253
O O3 0.941082 0.766541 0.353125
O O4 0.905882 0.000000 0.266577
O O5 0.459403 0.268994 0.725485
O O6 0.361938 0.205688 0.774025
O O7 0.429690 0.000000 0.789361
O O8 0.410453 0.225885 0.938289
O O9 0.109373 0.500000 0.919240
O O10 0.175613 0.281341 0.901795
O O11 0.000000 0.756370 0.500000
O O12 0.003120 0.000000 0.619594
O O13 0.765846 0.752158 0.774683
O O14 0.742818 0.000000 0.894959
O O15 0.750000 0.750000 0.000000
O O16 0.750000 0.750000 0.500000
O O17 0.832917 0.751808 0.581393
O O18 0.798458 0.000000 0.509650
O O19 0.191877 0.500000 0.305509
#
# Coordination Sequence:
#
# PCOD8111363 Si02
#       7
#     8   8   8   8   8   8   8
#     4  10  23  41  61  87 120 156 198 248 301 359
#     4  10  22  40  60  87 120 154 197 247 298 355
#     4  10  22  40  59  85 123 160 197 242 296 358
#     4  10  22  42  65  88 116 151 196 250 302 357
#     4  11  21  36  58  86 122 163 203 245 296 355
#     4  11  23  40  61  88 121 159 201 247 303 361
#     4  11  22  38  59  87 123 158 201 253 299 357
#
# _framework density 20.173933999999999
#
# number of rings (size 3 to 8) (size 9 to 14) (size 15 to 20)
#    0.000    1.571    1.429    3.000    0.000    8.857 
#    0.000    2.857    0.000    0.000    0.000    0.000 
#    0.000    0.000    0.000    0.000    0.000    0.000 
#
# Total GULP energy -347303.739278 kJ/mol
# GULP energy per Si atom -12403.704974 kJ/mol
# Density = 2.012802 g / cm^3
# Si number density = 20.173934 Si / 1000 Ang^3
#
#
#
# Elastic Constant Matrix: (Units=GPa)
#
#
# Indices 1 2 3 4 5 6 
#
# 1 102.6607 38.2586 62.1455 0.0000 5.9971 0.0000
# 2 38.2586 47.7693 33.9759 0.0000 4.7647 0.0000
# 3 62.1455 33.9759 146.5478 0.0000 15.0943 0.0000
# 4 0.0000 0.0000 0.0000 40.3597 0.0000 1.0954
# 5 5.9971 4.7647 15.0943 0.0000 39.9364 0.0000
# 6 0.0000 0.0000 0.0000 1.0954 0.0000 33.6649
#
#
#
# Elastic Compliance Matrix: (Units=1/GPa)
#
#
# Indices 1 2 3 4 5 6 
#
# 1 0.016126 -0.009657 -0.004650 0.000000 0.000488 0.000000
# 2 -0.009657 0.030877 -0.002948 0.000000 -0.001119 0.000000
# 3 -0.004650 -0.002948 0.009750 0.000000 -0.002635 0.000000
# 4 0.000000 0.000000 0.000000 0.024799 0.000000 -0.000807
# 5 0.000488 -0.001119 -0.002635 0.000000 0.026096 0.000000
# 6 0.000000 0.000000 0.000000 -0.000807 0.000000 0.029731
#
#
# Mechanical properties :
#
#
# Convention : Reuss Voigt Hill
#
# Bulk Modulus (GPa) = 44.95684 62.85976 53.90830
# Shear Modulus (GPa) = 27.88579 33.63206 30.75893
#
# Velocity S-wave (km/s) = 3.72192 4.08745 3.90896
# Velocity P-wave (km/s) = 6.38774 7.31457 6.86681
#
# Compressibility (1/GPa) = 0.02224356
#
# Stress axis : x y z
#
# Youngs Moduli (GPa) = 62.01217 32.38697 102.55938
#
# Poissons Ratio (x) = 0.31275 0.47688
# Poissons Ratio (y) = 0.59884 0.30236
# Poissons Ratio (z) = 0.28834 0.09548
#
# Static dielectric constant tensor:
#      x y z
#    x 3.594290 0.000000 0.147830 
#    y 0.000000 3.622600 0.000000 
#    z 0.147830 0.000000 3.805490 
# 
# 
# High freq. dielectric constant tensor:
#      x y z
#    x 1.789740 0.000000 0.004530 
#    y 0.000000 1.783180 0.000000 
#    z 0.004530 0.000000 1.804530 
# 
# From -- ./inp_files/180831.got.cif
#   From: 2010.06.25/outbox.cif.g09.slc.cpg/sg12_91_cif.got.tgz:180831.got - 2010.06.28 00:19:55.
