data_PCOD8111725
_publ_section_title
;
Structure prediction by ZEFSAII (Michael W. Deem and Ramdas Pophale) SiO2 
 PCOD8111725
Probable space group: C 2/M
;
_chemical_formula_sum "Si O2"
_cell_formula_units_Z 48
_cell_length_a 29.277634
_cell_length_b 8.454947
_cell_length_c 14.925149
_cell_angle_alpha 90.000000
_cell_angle_beta 140.340455
_cell_angle_gamma 90.000000
_cell_volume 2357.973664
_symmetry_space_group_name_H-M "C 2/M"
_symmetry_group_IT_number 12
_symmetry_cell_setting 'monoclinic'
loop_
_space_group_symop_operation_xyz
x,y,z
-x,y,-z
-x,-y,-z
x,-y,z
1/2+x,1/2+y,z
1/2-x,1/2+y,-z
1/2-x,1/2-y,-z
1/2+x,1/2-y,z
loop_
_atom_site_type_symbol
_atom_site_label
_atom_site_fract_x
_atom_site_fract_y
_atom_site_fract_z
Si Si1 0.327210 0.315220 0.641472
Si Si2 0.175351 0.683588 0.852552
Si Si3 0.825613 0.818085 0.338757
Si Si4 0.177543 0.818571 0.160923
Si Si5 0.423581 0.680938 0.151039
Si Si6 0.076882 0.317859 0.363994
O O1 0.329640 0.500000 0.622375
O O2 0.250000 0.250000 0.500000
O O3 0.344176 0.279205 0.770463
O O4 0.387702 0.226612 0.676785
O O5 0.185081 0.500000 0.845968
O O6 0.150986 0.771975 0.725777
O O7 0.113737 0.707662 0.832485
O O8 0.250000 0.750000 0.000000
O O9 0.741131 0.792548 0.223072
O O10 0.867172 0.710523 0.472128
O O11 0.844516 0.000000 0.385190
O O12 0.203263 0.000000 0.191286
O O13 0.108651 0.783960 0.995759
O O14 0.409851 0.500000 0.158280
O O15 0.507449 0.712508 0.275297
O O16 0.054371 0.500000 0.328349
#
# Coordination Sequence:
#
# PCOD8111725 Si02
#       6
#     8   8   8   8   8   8
#     4  11  22  39  65  97 129 169 217 266 322 383
#     4  12  24  41  66  98 132 170 215 263 319 382
#     4  12  24  40  67  97 127 168 219 268 319 383
#     4  10  22  40  66  95 129 168 213 266 322 381
#     4  11  24  44  67  95 131 170 215 269 327 382
#     4  12  26  44  64  93 134 173 214 269 329 385
#
# _framework density 20.356462000000001
#
# number of rings (size 3 to 8) (size 9 to 14) (size 15 to 20)
#    0.000    0.667    3.333    5.500    0.000    2.667 
#    0.000    6.667    0.000    0.000    0.000    0.000 
#    0.000    0.000    0.000    0.000    0.000    0.000 
#
# Total GULP energy -297804.162202 kJ/mol
# GULP energy per Si atom -12408.506758 kJ/mol
# Density = 2.031013 g / cm^3
# Si number density = 20.356462 Si / 1000 Ang^3
#
#
#
# Elastic Constant Matrix: (Units=GPa)
#
#
# Indices 1 2 3 4 5 6 
#
# 1 123.0926 20.5979 34.0642 0.0000 -9.3192 0.0000
# 2 20.5979 82.8598 23.0721 0.0000 -9.3862 0.0000
# 3 34.0642 23.0721 58.6042 0.0000 -4.3126 0.0000
# 4 0.0000 0.0000 0.0000 31.2443 0.0000 1.4289
# 5 -9.3192 -9.3862 -4.3126 0.0000 43.9652 0.0000
# 6 0.0000 0.0000 0.0000 1.4289 0.0000 36.8901
#
#
#
# Elastic Compliance Matrix: (Units=1/GPa)
#
#
# Indices 1 2 3 4 5 6 
#
# 1 0.009830 -0.000813 -0.005291 0.000000 0.001391 0.000000
# 2 -0.000813 0.013875 -0.004820 0.000000 0.002317 0.000000
# 3 -0.005291 -0.004820 0.022037 0.000000 0.000011 0.000000
# 4 0.000000 0.000000 0.000000 0.032063 0.000000 -0.001242
# 5 0.001391 0.002317 0.000011 0.000000 0.023536 0.000000
# 6 0.000000 0.000000 0.000000 -0.001242 0.000000 0.027156
#
#
# Mechanical properties :
#
#
# Convention : Reuss Voigt Hill
#
# Bulk Modulus (GPa) = 41.84956 46.66944 44.25950
# Shear Modulus (GPa) = 31.58394 34.87475 33.22934
#
# Velocity S-wave (km/s) = 3.94324 4.14358 4.04465
# Velocity P-wave (km/s) = 6.42924 6.77260 6.60316
#
# Compressibility (1/GPa) = 0.02389511
#
# Stress axis : x y z
#
# Youngs Moduli (GPa) = 101.73427 72.07157 45.37726
#
# Poissons Ratio (x) = 0.05857 0.24010
# Poissons Ratio (y) = 0.08267 0.21870
# Poissons Ratio (z) = 0.53830 0.34736
#
# Static dielectric constant tensor:
#      x y z
#    x 3.867790 0.000000 -0.270500 
#    y 0.000000 3.679040 0.000000 
#    z -0.270500 0.000000 3.601370 
# 
# 
# High freq. dielectric constant tensor:
#      x y z
#    x 1.803650 0.000000 -0.012070 
#    y 0.000000 1.806040 0.000000 
#    z -0.012070 0.000000 1.796560 
# 
# From -- ./inp_files/229900.got.cif
#   From: 2010.06.25/outbox.cif.g09.slc.cpg/sg12_115_cif.got.tgz:229900.got - 2010.06.28 00:19:55.
