data_PCOD8111837
_publ_section_title
;
Structure prediction by ZEFSAII (Michael W. Deem and Ramdas Pophale) SiO2 
 PCOD8111837
Probable space group: C 2/M
;
_chemical_formula_sum "Si O2"
_cell_formula_units_Z 56
_cell_length_a 9.117773
_cell_length_b 17.590600
_cell_length_c 26.256357
_cell_angle_alpha 90.000000
_cell_angle_beta 37.240644
_cell_angle_gamma 90.000000
_cell_volume 2548.455069
_symmetry_space_group_name_H-M "C 2/M"
_symmetry_group_IT_number 12
_symmetry_cell_setting 'monoclinic'
loop_
_space_group_symop_operation_xyz
x,y,z
-x,y,-z
-x,-y,-z
x,-y,z
1/2+x,1/2+y,z
1/2-x,1/2+y,-z
1/2-x,1/2-y,-z
1/2+x,1/2-y,z
loop_
_atom_site_type_symbol
_atom_site_label
_atom_site_fract_x
_atom_site_fract_y
_atom_site_fract_z
Si Si1 0.266019 0.801686 0.446264
Si Si2 0.332380 0.308280 0.851861
Si Si3 0.580399 0.089423 0.421506
Si Si4 0.402443 0.085474 0.951418
Si Si5 0.580354 0.586728 0.855566
Si Si6 0.554068 0.146174 0.169243
Si Si7 0.967322 0.188127 0.700909
O O1 0.250000 0.750000 0.500000
O O2 0.410990 0.876558 0.423768
O O3 0.409753 0.758404 0.361962
O O4 0.000000 0.824972 0.500000
O O5 0.549891 0.358638 0.815205
O O6 0.318165 0.226007 0.882614
O O7 0.385465 0.285259 0.779206
O O8 0.085017 0.355327 0.927449
O O9 0.500000 0.116417 0.500000
O O10 0.854907 0.117186 0.340375
O O11 0.569551 0.000000 0.418095
O O12 0.414496 0.090533 0.887248
O O13 0.480939 0.000000 0.945385
O O14 0.133777 0.103478 0.044986
O O15 0.582759 0.500000 0.835910
O O16 0.831317 0.606007 0.813507
O O17 0.272572 0.159754 0.262168
#
# Coordination Sequence:
#
# PCOD8111837 Si02
#       7
#     8   8   8   8   8   8   8
#     4  12  22  43  76 103 124 179 218 265 320 403
#     4  11  24  39  61  93 126 166 215 278 325 385
#     4  11  24  43  68 102 136 168 213 269 325 388
#     4  10  22  41  63  86 125 176 220 263 331 406
#     4  11  23  41  63  91 126 170 224 271 322 394
#     4  11  24  38  62  96 126 167 214 281 322 378
#     4  11  23  43  65  92 131 175 215 252 330 403
#
# _framework density 21.974095999999999
#
# number of rings (size 3 to 8) (size 9 to 14) (size 15 to 20)
#    0.000    1.000    2.857    4.286    0.000    9.429 
#    0.000    0.000    0.000    0.857    0.000    0.000 
#    0.000    0.000    0.000    0.000    0.000    0.000 
#
# Total GULP energy -347299.647379 kJ/mol
# GULP energy per Si atom -12403.558835 kJ/mol
# Density = 2.192408 g / cm^3
# Si number density = 21.974096 Si / 1000 Ang^3
#
#
#
# Elastic Constant Matrix: (Units=GPa)
#
#
# Indices 1 2 3 4 5 6 
#
# 1 135.3956 36.9166 31.5657 -0.0025 -24.6562 0.0031
# 2 36.9166 105.8940 29.1527 0.0002 -7.4679 -0.0028
# 3 31.5657 29.1527 86.3655 -0.0038 -16.4241 -0.0064
# 4 -0.0025 0.0002 -0.0038 20.8310 0.0084 -4.4163
# 5 -24.6562 -7.4679 -16.4241 0.0084 38.1580 -0.0071
# 6 0.0031 -0.0028 -0.0064 -4.4163 -0.0071 38.1506
#
#
#
# Elastic Compliance Matrix: (Units=1/GPa)
#
#
# Indices 1 2 3 4 5 6 
#
# 1 0.009321 -0.002452 -0.001661 -0.000001 0.004828 0.000000
# 2 -0.002452 0.011067 -0.002972 -0.000001 -0.000698 0.000000
# 3 -0.001661 -0.002972 0.014022 0.000001 0.004381 0.000003
# 4 -0.000001 -0.000001 0.000001 0.049213 -0.000010 0.005697
# 5 0.004828 -0.000698 0.004381 -0.000010 0.031075 0.000005
# 6 0.000000 0.000000 0.000003 0.005697 0.000005 0.026871
#
#
# Mechanical properties :
#
#
# Convention : Reuss Voigt Hill
#
# Bulk Modulus (GPa) = 49.40674 58.10279 53.75477
# Shear Modulus (GPa) = 30.77181 34.76258 32.76720
#
# Velocity S-wave (km/s) = 3.74621 3.98173 3.86576
# Velocity P-wave (km/s) = 6.42223 6.90201 6.66644
#
# Compressibility (1/GPa) = 0.02024015
#
# Stress axis : x y z
#
# Youngs Moduli (GPa) = 107.28892 90.35728 71.31590
#
# Poissons Ratio (x) = 0.22152 0.11845
# Poissons Ratio (y) = 0.26303 0.21198
# Poissons Ratio (z) = 0.17820 0.26857
#
# Static dielectric constant tensor:
#      x y z
#    x 4.347860 -0.000040 -0.131410 
#    y -0.000040 3.942770 0.000050 
#    z -0.131410 0.000050 3.945630 
# 
# 
# High freq. dielectric constant tensor:
#      x y z
#    x 1.881170 0.000000 -0.004910 
#    y 0.000000 1.865160 0.000000 
#    z -0.004910 0.000000 1.852580 
# 
# From -- ./inp_files/356686.got.cif
#   From: 2010.06.25/outbox.cif.g09.slc.cpg/sg12_179_cif.got.tgz:356686.got - 2010.06.28 00:19:55.
