data_PCOD8111451
_publ_section_title
;
Structure prediction by ZEFSAII (Michael W. Deem and Ramdas Pophale) SiO2 
 PCOD8111451
Probable space group: C 2/M
;
_chemical_formula_sum "Si O2"
_cell_formula_units_Z 48
_cell_length_a 28.665160
_cell_length_b 9.066286
_cell_length_c 9.545664
_cell_angle_alpha 90.000000
_cell_angle_beta 99.237623
_cell_angle_gamma 90.000000
_cell_volume 2448.616384
_symmetry_space_group_name_H-M "C 2/M"
_symmetry_group_IT_number 12
_symmetry_cell_setting 'monoclinic'
loop_
_space_group_symop_operation_xyz
x,y,z
-x,y,-z
-x,-y,-z
x,-y,z
1/2+x,1/2+y,z
1/2-x,1/2+y,-z
1/2-x,1/2-y,-z
1/2+x,1/2-y,z
loop_
_atom_site_type_symbol
_atom_site_label
_atom_site_fract_x
_atom_site_fract_y
_atom_site_fract_z
Si Si1 0.615223 0.164187 0.961081
Si Si2 0.722235 0.165754 0.103353
Si Si3 0.873830 0.674424 0.349834
Si Si4 0.233344 0.325356 0.631050
Si Si5 0.454053 0.325209 0.565131
Si Si6 0.956547 0.174457 0.887353
O O1 0.611797 0.225292 0.800231
O O2 0.593007 0.000000 0.957516
O O3 0.668656 0.156915 0.033187
O O4 0.590336 0.270443 0.059348
O O5 0.728379 0.262744 0.243485
O O6 0.742268 0.000000 0.133940
O O7 0.750000 0.250000 0.000000
O O8 0.879353 0.500000 0.368732
O O9 0.819920 0.722027 0.354081
O O10 0.907480 0.752829 0.477724
O O11 0.237882 0.500000 0.623260
O O12 0.250000 0.250000 0.500000
O O13 0.500000 0.274041 0.500000
O O14 0.447847 0.500000 0.555186
O O15 0.459706 0.269228 0.728327
O O16 0.956211 0.000000 0.887910
O O17 0.000000 0.236761 0.000000
#
# Coordination Sequence:
#
# PCOD8111451 Si02
#       6
#     8   8   8   8   8   8
#     4  10  22  40  61  87 120 157 199 245 297 356
#     4  11  22  40  63  90 123 164 208 253 302 357
#     4  10  22  41  61  85 120 159 198 244 298 357
#     4  11  24  42  61  88 125 164 208 255 303 362
#     4  10  22  40  62  89 120 154 196 245 297 357
#     4  10  22  40  62  90 120 152 195 247 299 354
#
# _framework density 19.602906999999998
#
# number of rings (size 3 to 8) (size 9 to 14) (size 15 to 20)
#    0.000    1.667    1.667    2.000    2.333    6.000 
#    0.000    0.000    0.000    0.000    0.000    0.000 
#    0.000    0.000    0.000    0.000    0.000    0.000 
#
# Total GULP energy -297602.826135 kJ/mol
# GULP energy per Si atom -12400.117756 kJ/mol
# Density = 1.955829 g / cm^3
# Si number density = 19.602907 Si / 1000 Ang^3
#
#
#
# Elastic Constant Matrix: (Units=GPa)
#
#
# Indices 1 2 3 4 5 6 
#
# 1 73.1665 32.7280 50.3287 0.0000 -3.2455 0.0000
# 2 32.7280 54.3802 44.9553 0.0000 0.8563 0.0000
# 3 50.3287 44.9553 186.3578 0.0000 -4.2012 0.0000
# 4 0.0000 0.0000 0.0000 34.5854 0.0000 1.8282
# 5 -3.2455 0.8563 -4.2012 0.0000 40.7797 0.0000
# 6 0.0000 0.0000 0.0000 1.8282 0.0000 35.1238
#
#
#
# Elastic Compliance Matrix: (Units=1/GPa)
#
#
# Indices 1 2 3 4 5 6 
#
# 1 0.020154 -0.009594 -0.003095 0.000000 0.001487 0.000000
# 2 -0.009594 0.027583 -0.004102 0.000000 -0.001765 0.000000
# 3 -0.003095 -0.004102 0.007205 0.000000 0.000582 0.000000
# 4 0.000000 0.000000 0.000000 0.028994 0.000000 -0.001509
# 5 0.001487 -0.001765 0.000582 0.000000 0.024737 0.000000
# 6 0.000000 0.000000 0.000000 -0.001509 0.000000 0.028549
#
#
# Mechanical properties :
#
#
# Convention : Reuss Voigt Hill
#
# Bulk Modulus (GPa) = 46.82152 63.32539 55.07346
# Shear Modulus (GPa) = 28.10190 34.49060 31.29625
#
# Velocity S-wave (km/s) = 3.79034 4.19915 3.99997
# Velocity P-wave (km/s) = 6.56448 7.47560 7.03481
#
# Compressibility (1/GPa) = 0.02135770
#
# Stress axis : x y z
#
# Youngs Moduli (GPa) = 49.61823 36.25485 138.79984
#
# Poissons Ratio (x) = 0.34784 0.42957
# Poissons Ratio (y) = 0.47605 0.56943
# Poissons Ratio (z) = 0.15356 0.14874
#
# Static dielectric constant tensor:
#      x y z
#    x 3.484260 0.000000 -0.079760 
#    y 0.000000 3.561440 0.000000 
#    z -0.079760 0.000000 3.454610 
# 
# 
# High freq. dielectric constant tensor:
#      x y z
#    x 1.766510 0.000000 0.001070 
#    y 0.000000 1.760690 0.000000 
#    z 0.001070 0.000000 1.783830 
# 
# From -- ./inp_files/108653.got.cif
#   From: 2010.06.25/outbox.cif.g09.slc.cpg/sg12_55_cif.got.tgz:108653.got - 2010.06.28 00:19:55.
