data_PCOD8111599
_publ_section_title
;
Structure prediction by ZEFSAII (Michael W. Deem and Ramdas Pophale) SiO2 
 PCOD8111599
Probable space group: C 2/M
;
_chemical_formula_sum "Si O2"
_cell_formula_units_Z 64
_cell_length_a 8.987494
_cell_length_b 17.655500
_cell_length_c 30.818294
_cell_angle_alpha 90.000000
_cell_angle_beta 39.909094
_cell_angle_gamma 90.000000
_cell_volume 3137.416789
_symmetry_space_group_name_H-M "C 2/M"
_symmetry_group_IT_number 12
_symmetry_cell_setting 'monoclinic'
loop_
_space_group_symop_operation_xyz
x,y,z
-x,y,-z
-x,-y,-z
x,-y,z
1/2+x,1/2+y,z
1/2-x,1/2+y,-z
1/2-x,1/2-y,-z
1/2+x,1/2-y,z
loop_
_atom_site_type_symbol
_atom_site_label
_atom_site_fract_x
_atom_site_fract_y
_atom_site_fract_z
Si Si1 0.994280 0.586350 0.237613
Si Si2 0.172879 0.411756 0.628010
Si Si3 0.807470 0.690402 0.670175
Si Si4 0.003900 0.224532 0.450966
Si Si5 0.928026 0.299697 0.897888
Si Si6 0.921420 0.154329 0.093939
Si Si7 0.322158 0.687838 0.742621
Si Si8 0.887675 0.414423 0.980305
O O1 0.039056 0.500000 0.215395
O O2 0.946998 0.598809 0.298644
O O3 0.767060 0.613122 0.262229
O O4 0.223350 0.632880 0.173094
O O5 0.227962 0.500000 0.606147
O O6 0.414202 0.364180 0.570231
O O7 0.983462 0.380374 0.635730
O O8 0.539847 0.665934 0.724899
O O9 0.862184 0.746738 0.697739
O O10 0.834497 0.729817 0.617606
O O11 0.750000 0.250000 0.500000
O O12 0.000000 0.255012 0.500000
O O13 0.691384 0.320944 0.926338
O O14 0.991024 0.366022 0.917449
O O15 0.909255 0.221341 0.927864
O O16 0.129059 0.284253 0.818639
O O17 0.105623 0.087418 0.045009
O O18 0.965910 0.500000 0.953741
O O19 0.000000 0.385378 0.000000
#
# Coordination Sequence:
#
# PCOD8111599 Si02
#       8
#     8   8   8   8   8   8   8   8
#     4  10  22  40  63  94 130 169 210 264 328 381
#     4  11  24  42  65  97 135 170 215 273 326 377
#     4  12  21  41  66  96 130 169 220 259 317 386
#     4  12  23  41  68  97 126 173 218 257 309 389
#     4  11  23  37  62  94 121 158 216 263 316 370
#     4  11  22  40  63  90 124 165 209 262 320 386
#     4  11  21  37  66  93 128 170 215 269 312 383
#     4  11  25  43  61  85 123 167 210 262 322 385
#
# _framework density 20.398948000000001
#
# number of rings (size 3 to 8) (size 9 to 14) (size 15 to 20)
#    0.000    0.875    3.750    4.125    0.000    4.750 
#    0.000    1.250    0.000    0.750    0.000    0.000 
#    0.000    0.000    0.000    0.000    0.000    0.000 
#
# Total GULP energy -396520.488039 kJ/mol
# GULP energy per Si atom -12391.265251 kJ/mol
# Density = 2.035252 g / cm^3
# Si number density = 20.398948 Si / 1000 Ang^3
#
#
#
# Elastic Constant Matrix: (Units=GPa)
#
#
# Indices 1 2 3 4 5 6 
#
# 1 135.8330 58.9022 31.1777 -0.0027 -7.4520 0.0025
# 2 58.9022 98.4793 27.1788 0.0083 1.3064 -0.0048
# 3 31.1777 27.1788 69.4202 -0.0013 3.8031 -0.0024
# 4 -0.0027 0.0083 -0.0013 26.1651 0.0035 -6.9962
# 5 -7.4520 1.3064 3.8031 0.0035 44.1024 0.0006
# 6 0.0025 -0.0048 -0.0024 -6.9962 0.0006 30.3109
#
#
#
# Elastic Compliance Matrix: (Units=1/GPa)
#
#
# Indices 1 2 3 4 5 6 
#
# 1 0.010511 -0.005583 -0.002654 0.000002 0.002170 -0.000002
# 2 -0.005583 0.014350 -0.003050 -0.000005 -0.001105 0.000001
# 3 -0.002654 -0.003050 0.016890 0.000002 -0.001815 0.000002
# 4 0.000002 -0.000005 0.000002 0.040733 -0.000003 0.009402
# 5 0.002170 -0.001105 -0.001815 -0.000003 0.023230 -0.000002
# 6 -0.000002 0.000001 0.000002 0.009402 -0.000002 0.035162
#
#
# Mechanical properties :
#
#
# Convention : Reuss Voigt Hill
#
# Bulk Modulus (GPa) = 52.14434 59.80553 55.97494
# Shear Modulus (GPa) = 29.43876 32.54726 30.99301
#
# Velocity S-wave (km/s) = 3.80300 3.99875 3.90210
# Velocity P-wave (km/s) = 6.70086 7.12051 6.91387
#
# Compressibility (1/GPa) = 0.01917754
#
# Stress axis : x y z
#
# Youngs Moduli (GPa) = 95.13534 69.68432 59.20508
#
# Poissons Ratio (x) = 0.38908 0.15711
# Poissons Ratio (y) = 0.53118 0.18059
# Poissons Ratio (z) = 0.25246 0.21255
#
# Static dielectric constant tensor:
#      x y z
#    x 3.701920 -0.000090 0.357940 
#    y -0.000090 3.638130 0.000140 
#    z 0.357940 0.000140 3.378060 
# 
# 
# High freq. dielectric constant tensor:
#      x y z
#    x 1.811170 0.000000 0.005510 
#    y 0.000000 1.784580 0.000000 
#    z 0.005510 0.000000 1.806310 
# 
# From -- ./inp_files/372953.got.cif
#   From: 2010.06.25/outbox.cif.g09.slc.cpg/sg12_187_cif.got.tgz:372953.got - 2010.06.28 00:19:55.
