data_PCOD8111674
_publ_section_title
;
Structure prediction by ZEFSAII (Michael W. Deem and Ramdas Pophale) SiO2 
 PCOD8111674
Probable space group: C 2/M
;
_chemical_formula_sum "Si O2"
_cell_formula_units_Z 64
_cell_length_a 18.117790
_cell_length_b 16.445823
_cell_length_c 15.282098
_cell_angle_alpha 90.000000
_cell_angle_beta 42.432088
_cell_angle_gamma 90.000000
_cell_volume 3072.307807
_symmetry_space_group_name_H-M "C 2/M"
_symmetry_group_IT_number 12
_symmetry_cell_setting 'monoclinic'
loop_
_space_group_symop_operation_xyz
x,y,z
-x,y,-z
-x,-y,-z
x,-y,z
1/2+x,1/2+y,z
1/2-x,1/2+y,-z
1/2-x,1/2-y,-z
1/2+x,1/2-y,z
loop_
_atom_site_type_symbol
_atom_site_label
_atom_site_fract_x
_atom_site_fract_y
_atom_site_fract_z
Si Si1 0.331251 0.592943 0.769910
Si Si2 0.802147 0.338096 0.964780
Si Si3 0.870108 0.405155 0.538570
Si Si4 0.004287 0.407109 0.097320
Si Si5 0.604645 0.903906 0.290088
Si Si6 0.274684 0.151697 0.306204
Si Si7 0.691030 0.696465 0.622789
Si Si8 0.926622 0.904494 0.398410
O O1 0.314683 0.500000 0.756040
O O2 0.260716 0.647078 0.764384
O O3 0.459261 0.616005 0.654051
O O4 0.286272 0.606572 0.907145
O O5 0.819631 0.366538 0.850600
O O6 0.917562 0.345874 0.916576
O O7 0.750000 0.250000 0.000000
O O8 0.882907 0.500000 0.535763
O O9 0.856162 0.371422 0.649530
O O10 0.765443 0.381672 0.575323
O O11 0.978565 0.373067 0.393399
O O12 0.047429 0.500000 0.070695
O O13 0.879117 0.403373 0.240214
O O14 0.000000 0.380046 0.000000
O O15 0.613129 0.000000 0.273035
O O16 0.316569 0.244759 0.286341
O O17 0.172248 0.120302 0.451766
O O18 0.750000 0.750000 0.500000
O O19 0.580687 0.654077 0.681697
O O20 0.922025 0.000000 0.377642
#
# Coordination Sequence:
#
# PCOD8111674 Si02
#       8
#     8   8   8   8   8   8   8   8
#     4  11  23  43  65  90 127 172 220 260 314 391
#     4  12  27  39  64  94 134 172 208 265 329 391
#     4   9  19  39  66  92 126 166 217 270 323 389
#     4  11  23  42  67  94 127 167 216 269 326 386
#     4   9  20  39  65  95 121 164 220 268 318 381
#     4  11  23  39  64  95 129 166 216 273 324 380
#     4  10  23  37  55  93 129 164 201 263 332 380
#     4  10  22  40  65  92 126 170 217 262 317 394
#
# _framework density 20.831244999999999
#
# number of rings (size 3 to 8) (size 9 to 14) (size 15 to 20)
#    0.000    1.625    1.250    3.750    7.000    2.000 
#    4.500    0.000    0.000    0.000    0.000    3.500 
#    0.000    0.000    0.000    0.000    0.000    0.000 
#
# Total GULP energy -396548.426464 kJ/mol
# GULP energy per Si atom -12392.138327 kJ/mol
# Density = 2.078383 g / cm^3
# Si number density = 20.831245 Si / 1000 Ang^3
#
#
#
# Elastic Constant Matrix: (Units=GPa)
#
#
# Indices 1 2 3 4 5 6 
#
# 1 114.6779 56.9144 39.2418 0.0000 -13.5540 0.0000
# 2 56.9144 81.5063 30.0729 0.0000 1.1276 0.0000
# 3 39.2418 30.0729 112.1434 0.0000 0.2294 0.0000
# 4 0.0000 0.0000 0.0000 26.8878 0.0000 3.5984
# 5 -13.5540 1.1276 0.2294 0.0000 35.2373 0.0000
# 6 0.0000 0.0000 0.0000 3.5984 0.0000 40.1275
#
#
#
# Elastic Compliance Matrix: (Units=1/GPa)
#
#
# Indices 1 2 3 4 5 6 
#
# 1 0.015191 -0.009685 -0.002731 0.000000 0.006171 0.000000
# 2 -0.009685 0.019797 -0.001911 0.000000 -0.004346 0.000000
# 3 -0.002731 -0.001911 0.010387 0.000000 -0.001057 0.000000
# 4 0.000000 0.000000 0.000000 0.037643 0.000000 -0.003376
# 5 0.006171 -0.004346 -0.001057 0.000000 0.030899 0.000000
# 6 0.000000 0.000000 0.000000 -0.003376 0.000000 0.025223
#
#
# Mechanical properties :
#
#
# Convention : Reuss Voigt Hill
#
# Bulk Modulus (GPa) = 59.80471 62.30953 61.05712
# Shear Modulus (GPa) = 28.84038 32.59041 30.71540
#
# Velocity S-wave (km/s) = 3.72489 3.95966 3.84407
# Velocity P-wave (km/s) = 6.87541 7.13314 7.00546
#
# Compressibility (1/GPa) = 0.01672109
#
# Stress axis : x y z
#
# Youngs Moduli (GPa) = 65.83014 50.51248 96.27032
#
# Poissons Ratio (x) = 0.48922 0.26292
# Poissons Ratio (y) = 0.63757 0.18397
# Poissons Ratio (z) = 0.17978 0.09653
#
# Static dielectric constant tensor:
#      x y z
#    x 4.045720 0.000000 0.123960 
#    y 0.000000 3.886210 0.000000 
#    z 0.123960 0.000000 3.867610 
# 
# 
# High freq. dielectric constant tensor:
#      x y z
#    x 1.824080 0.000000 0.000170 
#    y 0.000000 1.808060 0.000000 
#    z 0.000170 0.000000 1.807380 
# 
# From -- ./inp_files/226817.got.cif
#   From: 2010.06.25/outbox.cif.g09.slc.cpg/sg12_114_cif.got.tgz:226817.got - 2010.06.28 00:19:55.
