data_PCOD8111239
_publ_section_title
;
Structure prediction by ZEFSAII (Michael W. Deem and Ramdas Pophale) SiO2 
 PCOD8111239
Probable space group: C 2/M
;
_chemical_formula_sum "Si O2"
_cell_formula_units_Z 56
_cell_length_a 9.621485
_cell_length_b 12.986193
_cell_length_c 21.758125
_cell_angle_alpha 90.000000
_cell_angle_beta 96.458496
_cell_angle_gamma 90.000000
_cell_volume 2701.347385
_symmetry_space_group_name_H-M "C 2/M"
_symmetry_group_IT_number 12
_symmetry_cell_setting 'monoclinic'
loop_
_space_group_symop_operation_xyz
x,y,z
-x,y,-z
-x,-y,-z
x,-y,z
1/2+x,1/2+y,z
1/2-x,1/2+y,-z
1/2-x,1/2-y,-z
1/2+x,1/2-y,z
loop_
_atom_site_type_symbol
_atom_site_label
_atom_site_fract_x
_atom_site_fract_y
_atom_site_fract_z
Si Si1 0.571101 0.878556 0.142879
Si Si2 0.488029 0.120614 0.426978
Si Si3 0.767608 0.620692 0.159759
Si Si4 0.132446 0.229075 0.043180
Si Si5 0.102147 0.883626 0.266586
Si Si6 0.288824 0.383254 0.253686
Si Si7 0.223512 0.254963 0.368026
O O1 0.423974 0.835605 0.161172
O O2 0.597652 0.835310 0.076295
O O3 0.687727 0.837216 0.196048
O O4 0.571313 0.000000 0.135849
O O5 0.500000 0.119411 0.500000
O O6 0.350766 0.189128 0.403988
O O7 0.631023 0.174845 0.409545
O O8 0.476089 0.000000 0.402865
O O9 0.769658 0.500000 0.166735
O O10 0.676196 0.645486 0.095573
O O11 0.701574 0.666287 0.219150
O O12 0.250000 0.250000 0.000000
O O13 0.000000 0.185159 0.000000
O O14 0.116739 0.824373 0.331356
O O15 0.944277 0.876931 0.234161
O O16 0.146521 0.000000 0.282519
O O17 0.241904 0.500000 0.264332
O O18 0.285348 0.327035 0.318404
#
# Coordination Sequence:
#
# PCOD8111239 Si02
#       7
#     8   8   8   8   8   8   8
#     4  10  23  42  63  87 122 162 201 255 323 386
#     4  11  26  46  68 100 140 182 232 279 323 391
#     4  10  23  42  62  88 123 160 203 259 324 385
#     4  12  25  40  60  85 115 157 209 259 308 375
#     4  10  22  39  62  94 127 159 207 268 328 394
#     4  10  22  39  62  94 126 160 207 263 327 397
#     4  12  22  42  70  97 132 180 220 274 336 388
#
# _framework density 20.730395000000001
#
# number of rings (size 3 to 8) (size 9 to 14) (size 15 to 20)
#    0.000    1.286    2.857    2.143    4.000    3.429 
#    0.000    0.000    0.000    3.429    0.000    0.000 
#    0.000    0.000    0.000    0.000    0.000    0.000 
#
# Total GULP energy -347113.024737 kJ/mol
# GULP energy per Si atom -12396.893741 kJ/mol
# Density = 2.068321 g / cm^3
# Si number density = 20.730395 Si / 1000 Ang^3
#
#
#
# Elastic Constant Matrix: (Units=GPa)
#
#
# Indices 1 2 3 4 5 6 
#
# 1 132.0699 40.5142 47.3465 0.0000 -3.0716 0.0000
# 2 40.5142 88.5480 32.1323 0.0000 -4.8533 0.0000
# 3 47.3465 32.1323 110.2499 0.0000 -6.6266 0.0000
# 4 0.0000 0.0000 0.0000 38.4211 0.0000 2.8110
# 5 -3.0716 -4.8533 -6.6266 0.0000 45.9181 0.0000
# 6 0.0000 0.0000 0.0000 2.8110 0.0000 28.6788
#
#
#
# Elastic Compliance Matrix: (Units=1/GPa)
#
#
# Indices 1 2 3 4 5 6 
#
# 1 0.009736 -0.003291 -0.003232 0.000000 -0.000163 0.000000
# 2 -0.003291 0.013771 -0.002548 0.000000 0.000868 0.000000
# 3 -0.003232 -0.002548 0.011269 0.000000 0.001141 0.000000
# 4 0.000000 0.000000 0.000000 0.026215 0.000000 -0.002570
# 5 -0.000163 0.000868 0.001141 0.000000 0.022023 0.000000
# 6 0.000000 0.000000 0.000000 -0.002570 0.000000 0.035121
#
#
# Mechanical properties :
#
#
# Convention : Reuss Voigt Hill
#
# Bulk Modulus (GPa) = 60.11411 63.42819 61.77115
# Shear Modulus (GPa) = 35.25522 36.66193 35.95857
#
# Velocity S-wave (km/s) = 4.12837 4.20993 4.16935
# Velocity P-wave (km/s) = 7.19622 7.36848 7.28286
#
# Compressibility (1/GPa) = 0.01663503
#
# Stress axis : x y z
#
# Youngs Moduli (GPa) = 102.71121 72.61505 88.73551
#
# Poissons Ratio (x) = 0.23896 0.28678
# Poissons Ratio (y) = 0.33800 0.22612
# Poissons Ratio (z) = 0.33194 0.18504
#
# Static dielectric constant tensor:
#      x y z
#    x 4.104270 0.000000 0.043950 
#    y 0.000000 4.047940 0.000000 
#    z 0.043950 0.000000 3.857250 
# 
# 
# High freq. dielectric constant tensor:
#      x y z
#    x 1.822900 0.000000 -0.001490 
#    y 0.000000 1.829830 0.000000 
#    z -0.001490 0.000000 1.806700 
# 
# From -- ./inp_files/300127.got.cif
#   From: 2010.06.25/outbox.cif.g09.slc.cpg/sg12_151_cif.got.tgz:300127.got - 2010.06.28 00:19:55.
