data_PCOD8111823
_publ_section_title
;
Structure prediction by ZEFSAII (Michael W. Deem and Ramdas Pophale) SiO2 
 PCOD8111823
Probable space group: C 2/M
;
_chemical_formula_sum "Si O2"
_cell_formula_units_Z 64
_cell_length_a 15.327378
_cell_length_b 8.699089
_cell_length_c 23.832563
_cell_angle_alpha 90.000000
_cell_angle_beta 88.842558
_cell_angle_gamma 90.000000
_cell_volume 3177.047959
_symmetry_space_group_name_H-M "C 2/M"
_symmetry_group_IT_number 12
_symmetry_cell_setting 'monoclinic'
loop_
_space_group_symop_operation_xyz
x,y,z
-x,y,-z
-x,-y,-z
x,-y,z
1/2+x,1/2+y,z
1/2-x,1/2+y,-z
1/2-x,1/2-y,-z
1/2+x,1/2-y,z
loop_
_atom_site_type_symbol
_atom_site_label
_atom_site_fract_x
_atom_site_fract_y
_atom_site_fract_z
Si Si1 0.097399 0.319572 0.140822
Si Si2 0.595270 0.176843 0.369457
Si Si3 0.899439 0.321740 0.358001
Si Si4 0.079529 0.178486 0.870696
Si Si5 0.848024 0.820434 0.745700
Si Si6 0.255196 0.681412 0.061100
Si Si7 0.756714 0.180277 0.560846
Si Si8 0.838025 0.177381 0.249194
O O1 0.106214 0.500000 0.152708
O O2 0.102431 0.227748 0.198752
O O3 0.173502 0.260760 0.098775
O O4 0.005360 0.278816 0.113197
O O5 0.493476 0.201977 0.385793
O O6 0.610701 0.227025 0.305725
O O7 0.652308 0.274742 0.411791
O O8 0.622454 0.000000 0.375707
O O9 0.884337 0.500000 0.342483
O O10 0.824604 0.260892 0.400853
O O11 0.896469 0.220514 0.301829
O O12 0.156479 0.237567 0.910088
O O13 0.104941 0.209092 0.806210
O O14 0.059232 0.000000 0.881665
O O15 0.746128 0.784754 0.751818
O O16 0.861697 0.000000 0.734466
O O17 0.253079 0.500000 0.056692
O O18 0.250000 0.750000 0.000000
O O19 0.750000 0.250000 0.500000
O O20 0.752170 0.000000 0.554664
O O21 0.808211 0.000000 0.252143
#
# Coordination Sequence:
#
# PCOD8111823 Si02
#       8
#     8   8   8   8   8   8   8   8
#     4  11  23  41  63  91 124 160 203 251 303 364
#     4  11  23  41  65  93 124 162 203 251 307 362
#     4  10  23  41  62  91 126 160 201 249 304 364
#     4  10  22  41  62  90 125 160 200 250 304 363
#     4  12  23  37  61  93 127 162 200 245 304 368
#     4  10  23  43  63  86 121 160 206 256 305 359
#     4  11  24  43  64  89 122 163 209 259 307 360
#     4  11  21  37  63  91 125 162 200 246 303 363
#
# _framework density 20.144486000000001
#
# number of rings (size 3 to 8) (size 9 to 14) (size 15 to 20)
#    0.000    1.250    2.500    3.375    0.000    7.000 
#    0.000    5.000    0.000    0.000    0.000    0.000 
#    0.000    0.000    0.000    0.000    0.000    0.000 
#
# Total GULP energy -396993.931256 kJ/mol
# GULP energy per Si atom -12406.060352 kJ/mol
# Density = 2.009864 g / cm^3
# Si number density = 20.144486 Si / 1000 Ang^3
#
#
#
# Elastic Constant Matrix: (Units=GPa)
#
#
# Indices 1 2 3 4 5 6 
#
# 1 133.5027 22.5042 48.4134 0.0000 16.1789 0.0000
# 2 22.5042 40.3777 21.3729 0.0000 1.8038 0.0000
# 3 48.4134 21.3729 134.4774 0.0000 17.6641 0.0000
# 4 0.0000 0.0000 0.0000 36.1128 0.0000 3.8352
# 5 16.1789 1.8038 17.6641 0.0000 15.7287 0.0000
# 6 0.0000 0.0000 0.0000 3.8352 0.0000 35.4189
#
#
#
# Elastic Compliance Matrix: (Units=1/GPa)
#
#
# Indices 1 2 3 4 5 6 
#
# 1 0.009772 -0.004116 -0.001883 0.000000 -0.007465 0.000000
# 2 -0.004116 0.028830 -0.003780 0.000000 0.005172 0.000000
# 3 -0.001883 -0.003780 0.009858 0.000000 -0.008700 0.000000
# 4 0.000000 0.000000 0.000000 0.028013 0.000000 -0.003033
# 5 -0.007465 0.005172 -0.008700 0.000000 0.080434 0.000000
# 6 0.000000 0.000000 0.000000 -0.003033 0.000000 0.028562
#
#
# Mechanical properties :
#
#
# Convention : Reuss Voigt Hill
#
# Bulk Modulus (GPa) = 34.60023 54.77097 44.68560
# Shear Modulus (GPa) = 23.29269 31.85656 27.57462
#
# Velocity S-wave (km/s) = 3.40410 3.98100 3.70380
# Velocity P-wave (km/s) = 5.71523 6.95552 6.36565
#
# Compressibility (1/GPa) = 0.02890154
#
# Stress axis : x y z
#
# Youngs Moduli (GPa) = 102.33442 34.68646 101.44359
#
# Poissons Ratio (x) = 0.14277 0.19105
# Poissons Ratio (y) = 0.42120 0.38342
# Poissons Ratio (z) = 0.19273 0.13110
#
# Static dielectric constant tensor:
#      x y z
#    x 5.118800 0.000000 -2.167840 
#    y 0.000000 3.479620 0.000000 
#    z -2.167840 0.000000 7.071690 
# 
# 
# High freq. dielectric constant tensor:
#      x y z
#    x 1.802490 0.000000 0.003120 
#    y 0.000000 1.786660 0.000000 
#    z 0.003120 0.000000 1.782450 
# 
# From -- ./inp_files/338883.got.cif
#   From: 2010.06.25/outbox.cif.g09.slc.cpg/sg12_170_cif.got.tgz:338883.got - 2010.06.28 00:19:55.
