data_PCOD8111966
_publ_section_title
;
Structure prediction by ZEFSAII (Michael W. Deem and Ramdas Pophale) SiO2 
 PCOD8111966
Probable space group: C 2/M
;
_chemical_formula_sum "Si O2"
_cell_formula_units_Z 64
_cell_length_a 33.063810
_cell_length_b 8.735613
_cell_length_c 16.482285
_cell_angle_alpha 90.000000
_cell_angle_beta 42.273642
_cell_angle_gamma 90.000000
_cell_volume 3202.338032
_symmetry_space_group_name_H-M "C 2/M"
_symmetry_group_IT_number 12
_symmetry_cell_setting 'monoclinic'
loop_
_space_group_symop_operation_xyz
x,y,z
-x,y,-z
-x,-y,-z
x,-y,z
1/2+x,1/2+y,z
1/2-x,1/2+y,-z
1/2-x,1/2-y,-z
1/2+x,1/2-y,z
loop_
_atom_site_type_symbol
_atom_site_label
_atom_site_fract_x
_atom_site_fract_y
_atom_site_fract_z
Si Si1 0.212879 0.681942 0.481750
Si Si2 0.415031 0.325164 0.342765
Si Si3 0.092751 0.825019 0.218158
Si Si4 0.249275 0.319389 0.742419
Si Si5 0.634958 0.675118 0.326935
Si Si6 0.532392 0.178497 0.578475
Si Si7 0.982745 0.825934 0.938226
Si Si8 0.123746 0.679895 0.002830
O O1 0.209460 0.500000 0.492985
O O2 0.250000 0.750000 0.500000
O O3 0.147843 0.754562 0.588396
O O4 0.242681 0.728616 0.352701
O O5 0.406856 0.500000 0.385550
O O6 0.443241 0.221626 0.370011
O O7 0.457180 0.316947 0.202844
O O8 0.140093 0.805697 0.221828
O O9 0.115893 0.735327 0.106106
O O10 0.029159 0.767116 0.346326
O O11 0.085104 0.000000 0.202557
O O12 0.248532 0.500000 0.725445
O O13 0.302469 0.274490 0.725469
O O14 0.187337 0.261476 0.874152
O O15 0.619774 0.500000 0.372230
O O16 0.581283 0.780656 0.438366
O O17 0.518590 0.000000 0.595266
O O18 0.929290 0.732674 0.977028
O O19 0.960262 0.000000 0.981198
O O20 0.000000 0.755339 0.000000
O O21 0.122636 0.500000 0.007231
#
# Coordination Sequence:
#
# PCOD8111966 Si02
#       8
#     8   8   8   8   8   8   8   8
#     4  12  26  43  66  96 128 167 211 259 311 369
#     4  11  22  40  66  94 129 167 203 258 314 369
#     4  11  23  40  63  91 122 168 213 253 311 377
#     4  10  23  44  65  90 125 165 208 260 317 372
#     4  10  22  41  65  89 123 167 211 254 311 378
#     4  12  23  37  61  95 129 162 204 260 316 369
#     4  10  23  42  65  93 124 164 208 252 309 375
#     4  11  24  41  63  92 125 162 206 262 315 366
#
# _framework density 19.985398
#
# number of rings (size 3 to 8) (size 9 to 14) (size 15 to 20)
#    0.000    1.125    2.500    3.750    1.750    4.750 
#    0.000    0.000    0.000    0.000    0.000    0.000 
#    0.000    0.000    0.000    0.000    0.000    0.000 
#
# Total GULP energy -396934.383595 kJ/mol
# GULP energy per Si atom -12404.199487 kJ/mol
# Density = 1.993991 g / cm^3
# Si number density = 19.985398 Si / 1000 Ang^3
#
#
#
# Elastic Constant Matrix: (Units=GPa)
#
#
# Indices 1 2 3 4 5 6 
#
# 1 137.0255 16.2465 67.2014 0.0003 6.1813 -0.0007
# 2 16.2465 47.2202 43.8831 0.0001 0.8353 0.0038
# 3 67.2014 43.8831 125.6534 -0.0026 -2.9217 0.0044
# 4 0.0003 0.0001 -0.0026 25.7172 0.0001 14.7010
# 5 6.1813 0.8353 -2.9217 0.0001 40.7130 -0.0009
# 6 -0.0007 0.0038 0.0044 14.7010 -0.0009 -15.5083
#
#
#
# Elastic Compliance Matrix: (Units=1/GPa)
#
#
# Indices 1 2 3 4 5 6 
#
# 1 0.010224 0.002435 -0.006367 0.000000 -0.002059 -0.000001
# 2 0.002435 0.032017 -0.012529 -0.000002 -0.001926 0.000002
# 3 -0.006367 -0.012529 0.015794 0.000001 0.002357 0.000002
# 4 0.000000 -0.000002 0.000001 0.025219 0.000001 0.023906
# 5 -0.002059 -0.001926 0.002357 0.000001 0.025084 -0.000001
# 6 -0.000001 0.000002 0.000002 0.023906 -0.000001 -0.041820
#
#
# Mechanical properties :
#
#
# Convention : Reuss Voigt Hill
#
# Bulk Modulus (GPa) = 39.81706 62.72904 51.27305
# Shear Modulus (GPa) = 46.37842 22.35559 34.36701
#
# Velocity S-wave (km/s) = 4.82250 3.34817 4.15131
# Velocity P-wave (km/s) = 7.13968 6.81194 6.97774
#
# Compressibility (1/GPa) = 0.02511486
#
# Stress axis : x y z
#
# Youngs Moduli (GPa) = 97.80526 31.23355 63.31663
#
# Poissons Ratio (x) = -0.07606 0.40311
# Poissons Ratio (y) = -0.23818 0.79328
# Poissons Ratio (z) = 0.62268 0.39132
#
# Static dielectric constant tensor:
#      x y z
#    x 3.757150 0.000000 0.093340 
#    y 0.000000 3.701180 0.000000 
#    z 0.093340 0.000000 3.573620 
# 
# 
# High freq. dielectric constant tensor:
#      x y z
#    x 1.795370 0.000000 0.004900 
#    y 0.000000 1.782970 0.000000 
#    z 0.004900 0.000000 1.785150 
# 
# From -- ./inp_files/249706.got.cif
#   From: 2010.06.25/outbox.cif.g09.slc.cpg/sg12_125_cif.got.tgz:249706.got - 2010.06.28 00:19:55.
