data_PCOD8111365
_publ_section_title
;
Structure prediction by ZEFSAII (Michael W. Deem and Ramdas Pophale) SiO2 
 PCOD8111365
Probable space group: C 2/M
;
_chemical_formula_sum "Si O2"
_cell_formula_units_Z 44
_cell_length_a 27.764355
_cell_length_b 13.699664
_cell_length_c 19.473701
_cell_angle_alpha 90.000000
_cell_angle_beta 17.216179
_cell_angle_gamma 90.000000
_cell_volume 2192.325928
_symmetry_space_group_name_H-M "C 2/M"
_symmetry_group_IT_number 12
_symmetry_cell_setting 'monoclinic'
loop_
_space_group_symop_operation_xyz
x,y,z
-x,y,-z
-x,-y,-z
x,-y,z
1/2+x,1/2+y,z
1/2-x,1/2+y,-z
1/2-x,1/2-y,-z
1/2+x,1/2-y,z
loop_
_atom_site_type_symbol
_atom_site_label
_atom_site_fract_x
_atom_site_fract_y
_atom_site_fract_z
Si Si1 0.521321 0.000000 0.550852
Si Si2 0.324461 0.500000 0.770230
Si Si3 0.623848 0.113423 0.770040
Si Si4 0.657999 0.500000 0.094934
Si Si5 0.107757 0.682490 0.028612
Si Si6 0.609333 0.791100 0.419349
Si Si7 0.967985 0.807766 0.337014
O O1 0.500000 0.000000 0.500000
O O2 0.617147 0.901032 0.440196
O O3 0.347119 0.000000 0.822701
O O4 0.500000 0.500000 0.500000
O O5 0.362321 0.500000 0.797465
O O6 0.228406 0.593848 0.876302
O O7 0.548056 0.146597 0.801357
O O8 0.784040 0.176588 0.563695
O O9 0.671285 0.000000 0.703098
O O10 0.500000 0.134954 0.000000
O O11 0.573253 0.404269 0.179529
O O12 0.047796 0.722435 0.183265
O O13 0.205973 0.762807 0.850617
O O14 0.500000 0.783498 0.500000
O O15 0.529997 0.721516 0.585380
#
# Coordination Sequence:
#
# PCOD8111365 Si02
#       7
#     4   4   8   4   8   8   8
#     4  10  22  40  59  86 131 170 206 240 300 388
#     4  12  26  39  63  99 133 164 208 267 320 373
#     4  11  23  44  70  92 123 166 213 272 330 368
#     4  12  24  39  62  97 128 168 208 255 316 383
#     4  12  24  42  67  93 129 169 213 267 320 373
#     4  11  23  41  64  94 132 170 207 257 317 381
#     4  12  24  41  67  95 128 166 216 265 318 379
#
# _framework density 20.070008999999999
#
# number of rings (size 3 to 8) (size 9 to 14) (size 15 to 20)
#    0.000    0.545    3.636    6.545    0.000    2.182 
#    0.000    0.000    0.000    1.091    0.000    0.000 
#    0.000    0.000    0.000    0.000    0.000    0.000 
#
# Total GULP energy -272892.762537 kJ/mol
# GULP energy per Si atom -12404.216479 kJ/mol
# Density = 2.002433 g / cm^3
# Si number density = 20.070009 Si / 1000 Ang^3
#
#
#
# Elastic Constant Matrix: (Units=GPa)
#
#
# Indices 1 2 3 4 5 6 
#
# 1 100.2017 32.5035 38.1687 -0.0022 8.0913 0.0035
# 2 32.5035 117.1571 67.1563 -0.0008 -3.0361 -0.0034
# 3 38.1687 67.1563 124.4747 -0.0085 10.3186 0.0038
# 4 -0.0022 -0.0008 -0.0085 52.4754 0.0017 -1.1199
# 5 8.0913 -3.0361 10.3186 0.0017 40.1320 0.0001
# 6 0.0035 -0.0034 0.0038 -1.1199 0.0001 28.1085
#
#
#
# Elastic Compliance Matrix: (Units=1/GPa)
#
#
# Indices 1 2 3 4 5 6 
#
# 1 0.011663 -0.001917 -0.002386 0.000000 -0.001883 -0.000001
# 2 -0.001917 0.012967 -0.006663 -0.000001 0.003081 0.000003
# 3 -0.002386 -0.006663 0.012632 0.000002 -0.003271 -0.000002
# 4 0.000000 -0.000001 0.000002 0.019073 -0.000001 0.000760
# 5 -0.001883 0.003081 -0.003271 -0.000001 0.026371 0.000001
# 6 -0.000001 0.000003 -0.000002 0.000760 0.000001 0.035607
#
#
# Mechanical properties :
#
#
# Convention : Reuss Voigt Hill
#
# Bulk Modulus (GPa) = 65.23758 68.61005 66.92381
# Shear Modulus (GPa) = 34.39889 37.74351 36.07120
#
# Velocity S-wave (km/s) = 4.14447 4.34128 4.24402
# Velocity P-wave (km/s) = 7.44834 7.70640 7.57847
#
# Compressibility (1/GPa) = 0.01532859
#
# Stress axis : x y z
#
# Youngs Moduli (GPa) = 85.74469 77.12049 79.16671
#
# Poissons Ratio (x) = 0.14782 0.18889
# Poissons Ratio (y) = 0.16435 0.52752
# Poissons Ratio (z) = 0.20459 0.51389
#
# Static dielectric constant tensor:
#      x y z
#    x 3.605130 -0.000010 0.070120 
#    y -0.000010 4.424120 0.000010 
#    z 0.070120 0.000010 3.677880 
# 
# 
# High freq. dielectric constant tensor:
#      x y z
#    x 1.781210 0.000000 0.010730 
#    y 0.000000 1.797930 0.000000 
#    z 0.010730 0.000000 1.790070 
# 
# From -- ./inp_files/290031.got.cif
#   From: 2010.06.25/outbox.cif.g09.slc.cpg/sg12_146_cif.got.tgz:290031.got - 2010.06.28 00:19:55.
