data_PCOD8111676
_publ_section_title
;
Structure prediction by ZEFSAII (Michael W. Deem and Ramdas Pophale) SiO2 
 PCOD8111676
Probable space group: C 2/M
;
_chemical_formula_sum "Si O2"
_cell_formula_units_Z 64
_cell_length_a 27.355244
_cell_length_b 18.439492
_cell_length_c 9.628687
_cell_angle_alpha 90.000000
_cell_angle_beta 42.225265
_cell_angle_gamma 90.000000
_cell_volume 3264.046839
_symmetry_space_group_name_H-M "C 2/M"
_symmetry_group_IT_number 12
_symmetry_cell_setting 'monoclinic'
loop_
_space_group_symop_operation_xyz
x,y,z
-x,y,-z
-x,-y,-z
x,-y,z
1/2+x,1/2+y,z
1/2-x,1/2+y,-z
1/2-x,1/2-y,-z
1/2+x,1/2-y,z
loop_
_atom_site_type_symbol
_atom_site_label
_atom_site_fract_x
_atom_site_fract_y
_atom_site_fract_z
Si Si1 0.055594 0.915504 0.760887
Si Si2 0.282673 0.315674 0.843637
Si Si3 0.804370 0.828307 0.481326
Si Si4 0.070982 0.582020 0.044792
Si Si5 0.657055 0.917829 0.143473
Si Si6 0.052321 0.813030 0.518913
Si Si7 0.574286 0.846252 0.559797
Si Si8 0.158314 0.328350 0.650773
O O1 0.136964 0.892080 0.632534
O O2 0.029770 0.873285 0.678338
O O3 0.056501 0.000000 0.723939
O O4 0.000000 0.896714 0.000000
O O5 0.276432 0.301685 0.691383
O O6 0.366382 0.326281 0.708932
O O7 0.250000 0.250000 0.000000
O O8 0.239196 0.388395 0.974157
O O9 0.840853 0.758658 0.330253
O O10 0.737166 0.858973 0.531472
O O11 0.071373 0.500000 0.985434
O O12 0.127500 0.588761 0.050725
O O13 0.989880 0.600208 0.262840
O O14 0.094026 0.638060 0.877820
O O15 0.604307 0.870013 0.348450
O O16 0.657674 0.000000 0.196500
O O17 0.044638 0.735401 0.609923
O O18 0.000000 0.819909 0.500000
O O19 0.640696 0.849904 0.529459
#
# Coordination Sequence:
#
# PCOD8111676 Si02
#       8
#     8   8   8   8   8   8   8   8
#     4  10  23  45  67  93 125 161 208 263 323 376
#     4  11  20  41  63  94 125 160 210 261 308 366
#     4  10  22  40  65  93 122 165 207 260 309 374
#     4  11  25  40  62  93 130 171 209 254 310 385
#     4  11  23  42  65  89 127 173 209 253 317 376
#     4  11  24  41  66  97 126 169 212 263 316 374
#     4  12  23  40  62  97 132 169 206 257 310 374
#     4  11  22  40  63  93 124 166 212 254 308 368
#
# _framework density 19.607562000000001
#
# number of rings (size 3 to 8) (size 9 to 14) (size 15 to 20)
#    0.000    1.125    5.000    1.875    1.750    5.250 
#    4.500    0.000    0.000    0.000    0.000    0.000 
#    0.000    0.000    0.000    0.000    0.000    0.000 
#
# Total GULP energy -396912.619984 kJ/mol
# GULP energy per Si atom -12403.519374 kJ/mol
# Density = 1.956293 g / cm^3
# Si number density = 19.607562 Si / 1000 Ang^3
#
#
#
# Elastic Constant Matrix: (Units=GPa)
#
#
# Indices 1 2 3 4 5 6 
#
# 1 130.5774 46.3143 27.3773 0.0000 -2.4986 0.0000
# 2 46.3143 107.0147 62.7353 0.0000 6.3132 0.0000
# 3 27.3773 62.7353 102.1484 0.0000 1.3031 0.0000
# 4 0.0000 0.0000 0.0000 34.1159 0.0000 -1.2178
# 5 -2.4986 6.3132 1.3031 0.0000 27.3459 0.0000
# 6 0.0000 0.0000 0.0000 -1.2178 0.0000 28.0276
#
#
#
# Elastic Compliance Matrix: (Units=1/GPa)
#
#
# Indices 1 2 3 4 5 6 
#
# 1 0.009131 -0.004076 0.000033 0.000000 0.001774 0.000000
# 2 -0.004076 0.016662 -0.009092 0.000000 -0.003786 0.000000
# 3 0.000033 -0.009092 0.015347 0.000000 0.001371 0.000000
# 4 0.000000 0.000000 0.000000 0.029357 0.000000 0.001276
# 5 0.001774 -0.003786 0.001371 0.000000 0.037539 0.000000
# 6 0.000000 0.000000 0.000000 0.001276 0.000000 0.035735
#
#
# Mechanical properties :
#
#
# Convention : Reuss Voigt Hill
#
# Bulk Modulus (GPa) = 67.24721 68.06604 67.65663
# Shear Modulus (GPa) = 28.57166 31.45212 30.01189
#
# Velocity S-wave (km/s) = 3.82144 4.00944 3.91657
# Velocity P-wave (km/s) = 7.33773 7.49825 7.41842
#
# Compressibility (1/GPa) = 0.01487051
#
# Stress axis : x y z
#
# Youngs Moduli (GPa) = 109.51805 60.01630 65.15739
#
# Poissons Ratio (x) = 0.24462 -0.00218
# Poissons Ratio (y) = 0.44639 0.59244
# Poissons Ratio (z) = -0.00366 0.54570
#
# Static dielectric constant tensor:
#      x y z
#    x 3.690440 0.000000 -0.028360 
#    y 0.000000 3.600890 0.000000 
#    z -0.028360 0.000000 3.654460 
# 
# 
# High freq. dielectric constant tensor:
#      x y z
#    x 1.770280 0.000000 -0.001860 
#    y 0.000000 1.762770 0.000000 
#    z -0.001860 0.000000 1.766070 
# 
# From -- ./inp_files/112838.got.cif
#   From: 2010.06.25/outbox.cif.g09.slc.cpg/sg12_57_cif.got.tgz:112838.got - 2010.06.28 00:19:55.
