data_PCOD8111481
_publ_section_title
;
Structure prediction by ZEFSAII (Michael W. Deem and Ramdas Pophale) SiO2 
 PCOD8111481
Probable space group: C 2/M
;
_chemical_formula_sum "Si O2"
_cell_formula_units_Z 64
_cell_length_a 31.226186
_cell_length_b 8.653703
_cell_length_c 15.065908
_cell_angle_alpha 90.000000
_cell_angle_beta 131.049920
_cell_angle_gamma 90.000000
_cell_volume 3070.201544
_symmetry_space_group_name_H-M "C 2/M"
_symmetry_group_IT_number 12
_symmetry_cell_setting 'monoclinic'
loop_
_space_group_symop_operation_xyz
x,y,z
-x,y,-z
-x,-y,-z
x,-y,z
1/2+x,1/2+y,z
1/2-x,1/2+y,-z
1/2-x,1/2-y,-z
1/2+x,1/2-y,z
loop_
_atom_site_type_symbol
_atom_site_label
_atom_site_fract_x
_atom_site_fract_y
_atom_site_fract_z
Si Si1 0.965483 0.178514 0.363158
Si Si2 0.131381 0.320929 0.673722
Si Si3 0.744191 0.676942 0.088379
Si Si4 0.364823 0.679350 0.503042
Si Si5 0.249620 0.319921 0.596411
Si Si6 0.463646 0.321071 0.038297
Si Si7 0.833128 0.816548 0.860024
Si Si8 0.028133 0.321015 0.285509
O O1 0.902343 0.247843 0.289338
O O2 0.993306 0.278666 0.324880
O O3 0.000000 0.201824 0.500000
O O4 0.962493 0.000000 0.329624
O O5 0.115033 0.500000 0.637795
O O6 0.197879 0.299651 0.779222
O O7 0.111506 0.220169 0.562052
O O8 0.730726 0.500000 0.051851
O O9 0.694440 0.747309 0.084651
O O10 0.750000 0.750000 0.000000
O O11 0.349140 0.500000 0.491279
O O12 0.310568 0.786115 0.441903
O O13 0.413643 0.722134 0.640299
O O14 0.259101 0.500000 0.598821
O O15 0.250000 0.250000 0.500000
O O16 0.298812 0.250854 0.727660
O O17 0.465591 0.500000 0.069741
O O18 0.398458 0.266050 0.937844
O O19 0.500000 0.292399 0.000000
O O20 0.490416 0.215119 0.149393
O O21 0.826176 0.000000 0.851584
O O22 0.044291 0.500000 0.309134
#
# Coordination Sequence:
#
# PCOD8111481 Si02
#       8
#     8   8   8   8   8   8   8   8
#     4  11  23  39  61  92 127 167 213 257 308 383
#     4  11  22  39  62  90 127 166 208 264 327 385
#     4  10  22  40  61  89 125 169 214 259 317 385
#     4  12  24  41  65  95 128 168 217 268 324 392
#     4  11  23  42  67  98 131 168 211 265 328 390
#     4  10  23  44  70  96 127 173 223 271 323 387
#     4   9  20  42  66  92 130 173 213 261 322 385
#     4  12  26  43  65  94 131 172 216 272 328 386
#
# _framework density 20.845537
#
# number of rings (size 3 to 8) (size 9 to 14) (size 15 to 20)
#    0.000    1.250    2.500    3.375    3.500    1.750 
#    0.000    1.250    0.000    0.000    0.000    0.000 
#    0.000    0.000    0.000    0.000    0.000    0.000 
#
# Total GULP energy -396858.220308 kJ/mol
# GULP energy per Si atom -12401.819385 kJ/mol
# Density = 2.079809 g / cm^3
# Si number density = 20.845537 Si / 1000 Ang^3
#
#
#
# Elastic Constant Matrix: (Units=GPa)
#
#
# Indices 1 2 3 4 5 6 
#
# 1 121.2970 23.7171 57.9519 0.0002 6.1518 -0.0001
# 2 23.7171 68.5181 32.2934 0.0001 -7.1562 0.0000
# 3 57.9519 32.2934 120.2398 0.0002 -4.3311 -0.0001
# 4 0.0002 0.0001 0.0002-1456.1372 0.0000 449.6865
# 5 6.1518 -7.1562 -4.3311 0.0000 37.4246 0.0000
# 6 -0.0001 0.0000 -0.0001 449.6865 0.0000 -105.7928
#
#
#
# Elastic Compliance Matrix: (Units=1/GPa)
#
#
# Indices 1 2 3 4 5 6 
#
# 1 0.011109 -0.001788 -0.004973 0.000000 -0.002743 0.000000
# 2 -0.001788 0.017271 -0.003663 0.000000 0.003173 0.000000
# 3 -0.004973 -0.003663 0.011750 0.000000 0.001477 0.000000
# 4 0.000000 0.000000 0.000000 0.002196 0.000000 0.009336
# 5 -0.002743 0.003173 0.001477 0.000000 0.027949 0.000000
# 6 0.000000 0.000000 0.000000 0.009336 0.000000 0.030230
#
#
# Mechanical properties :
#
#
# Convention : Reuss Voigt Hill
#
# Bulk Modulus (GPa) = 51.85747 59.77554 55.81651
# Shear Modulus (GPa) = 39.12991 -291.82824 -126.34917
#
# Velocity S-wave (km/s) = 4.33729 -11.84481 -7.79382
# Velocity P-wave (km/s) = 7.07205 12.58286 7.35916
#
# Compressibility (1/GPa) = 0.01928362
#
# Stress axis : x y z
#
# Youngs Moduli (GPa) = 90.01888 57.89997 85.10452
#
# Poissons Ratio (x) = 0.10353 0.42320
# Poissons Ratio (y) = 0.16096 0.31170
# Poissons Ratio (z) = 0.44764 0.21206
#
# Static dielectric constant tensor:
#      x y z
#    x 2.937500 0.000000 1.136070 
#    y 0.000000 3.637600 0.000000 
#    z 1.136070 0.000000 2.925910 
# 
# 
# High freq. dielectric constant tensor:
#      x y z
#    x 1.830530 0.000000 0.004380 
#    y 0.000000 1.800960 0.000000 
#    z 0.004380 0.000000 1.820130 
# 
# From -- ./inp_files/250079.got.cif
#   From: 2010.06.25/outbox.cif.g09.slc.cpg/sg12_126_cif.got.tgz:250079.got - 2010.06.28 00:19:55.
