data_PCOD8111112
_publ_section_title
;
Structure prediction by ZEFSAII (Michael W. Deem and Ramdas Pophale) SiO2 
 PCOD8111112
Probable space group: C 2/M
;
_chemical_formula_sum "Si O2"
_cell_formula_units_Z 48
_cell_length_a 9.990225
_cell_length_b 22.534281
_cell_length_c 12.406389
_cell_angle_alpha 90.000000
_cell_angle_beta 114.180439
_cell_angle_gamma 90.000000
_cell_volume 2547.903691
_symmetry_space_group_name_H-M "C 2/M"
_symmetry_group_IT_number 12
_symmetry_cell_setting 'monoclinic'
loop_
_space_group_symop_operation_xyz
x,y,z
-x,y,-z
-x,-y,-z
x,-y,z
1/2+x,1/2+y,z
1/2-x,1/2+y,-z
1/2-x,1/2-y,-z
1/2+x,1/2-y,z
loop_
_atom_site_type_symbol
_atom_site_label
_atom_site_fract_x
_atom_site_fract_y
_atom_site_fract_z
Si Si1 0.305256 0.127723 0.108432
Si Si2 0.231781 0.000000 0.121559
Si Si3 0.141860 0.813530 0.245433
Si Si4 0.953325 0.000000 0.155528
Si Si5 0.380047 0.825530 0.743143
Si Si6 0.155755 0.694404 0.503765
Si Si7 0.344262 0.376064 0.170680
O O1 0.184635 0.157941 0.145585
O O2 0.457203 0.162270 0.160969
O O3 0.331354 0.059130 0.152295
O O4 0.243730 0.132152 0.968416
O O5 0.128511 0.000000 0.193341
O O6 0.127813 0.000000 0.984450
O O7 0.158730 0.742743 0.245934
O O8 0.251706 0.840013 0.373660
O O9 0.975204 0.828708 0.219288
O O10 0.909340 0.058211 0.207474
O O11 0.370822 0.843585 0.613588
O O12 0.264329 0.866329 0.766134
O O13 0.250000 0.750000 0.500000
O O14 0.000000 0.715180 0.500000
#
# Coordination Sequence:
#
# PCOD8111112 Si02
#       7
#     8   4   8   4   8   8   8
#     4  11  21  38  59  87 118 154 194 233 291 344
#     4   9  18  35  61  80 108 157 202 235 267 345
#     4  11  22  37  61  85 118 155 193 234 285 349
#     4   9  18  37  57  82 111 152 206 231 272 341
#     4  11  24  37  56  88 123 150 187 240 295 344
#     4  10  22  39  60  82 113 157 203 234 274 345
#     4  11  23  36  60  88 118 155 189 240 289 344
#
# _framework density 18.839016000000001
#
# number of rings (size 3 to 8) (size 9 to 14) (size 15 to 20)
#    0.000    1.500    3.333    2.000    7.000    4.667 
#    0.000    2.500    0.000    6.000    0.000    0.000 
#    0.000    0.000    0.000    0.000    0.000    0.000 
#
# Total GULP energy -297608.110687 kJ/mol
# GULP energy per Si atom -12400.337945 kJ/mol
# Density = 1.879614 g / cm^3
# Si number density = 18.839016 Si / 1000 Ang^3
#
#
#
# Elastic Constant Matrix: (Units=GPa)
#
#
# Indices 1 2 3 4 5 6 
#
# 1 125.6817 14.9559 51.7117 0.0000 -8.6005 0.0000
# 2 14.9559 77.6994 32.9084 0.0000 -6.4474 0.0000
# 3 51.7117 32.9084 91.7086 0.0000 -5.2894 0.0000
# 4 0.0000 0.0000 0.0000 5.5189 0.0000 -5.2238
# 5 -8.6005 -6.4474 -5.2894 0.0000 33.4952 0.0000
# 6 0.0000 0.0000 0.0000 -5.2238 0.0000 20.2384
#
#
#
# Elastic Compliance Matrix: (Units=1/GPa)
#
#
# Indices 1 2 3 4 5 6 
#
# 1 0.010495 0.000703 -0.006062 0.000000 0.001873 0.000000
# 2 0.000703 0.015369 -0.005783 0.000000 0.002226 0.000000
# 3 -0.006062 -0.005783 0.016393 0.000000 -0.000081 0.000000
# 4 0.000000 0.000000 0.000000 0.239774 0.000000 0.061888
# 5 0.001873 0.002226 -0.000081 0.000000 0.030752 0.000000
# 6 0.000000 0.000000 0.000000 0.061888 0.000000 0.065385
#
#
# Mechanical properties :
#
#
# Convention : Reuss Voigt Hill
#
# Bulk Modulus (GPa) = 50.06881 54.91576 52.49228
# Shear Modulus (GPa) = 12.28170 24.88474 18.58322
#
# Velocity S-wave (km/s) = 2.55606 3.63838 3.14414
# Velocity P-wave (km/s) = 5.94526 6.84571 6.41131
#
# Compressibility (1/GPa) = 0.01997251
#
# Stress axis : x y z
#
# Youngs Moduli (GPa) = 95.27950 65.06725 61.00245
#
# Poissons Ratio (x) = -0.04573 0.36981
# Poissons Ratio (y) = -0.06696 0.35276
# Poissons Ratio (z) = 0.57760 0.37627
#
# Static dielectric constant tensor:
#      x y z
#    x 3.496070 0.000000 -0.035470 
#    y 0.000000 3.498010 0.000000 
#    z -0.035470 0.000000 3.883540 
# 
# 
# High freq. dielectric constant tensor:
#      x y z
#    x 1.745750 0.000000 -0.002360 
#    y 0.000000 1.713960 0.000000 
#    z -0.002360 0.000000 1.727370 
# 
# From -- ./inp_files/122595.got.cif
#   From: 2010.06.25/outbox.cif.g09.slc.cpg/sg12_62_cif.got.tgz:122595.got - 2010.06.28 00:19:55.
