data_PCOD8111990
_publ_section_title
;
Structure prediction by ZEFSAII (Michael W. Deem and Ramdas Pophale) SiO2 
 PCOD8111990
Probable space group: C 2/M
;
_chemical_formula_sum "Si O2"
_cell_formula_units_Z 56
_cell_length_a 9.097508
_cell_length_b 18.311436
_cell_length_c 15.671257
_cell_angle_alpha 90.000000
_cell_angle_beta 73.362048
_cell_angle_gamma 90.000000
_cell_volume 2501.350428
_symmetry_space_group_name_H-M "C 2/M"
_symmetry_group_IT_number 12
_symmetry_cell_setting 'monoclinic'
loop_
_space_group_symop_operation_xyz
x,y,z
-x,y,-z
-x,-y,-z
x,-y,z
1/2+x,1/2+y,z
1/2-x,1/2+y,-z
1/2-x,1/2-y,-z
1/2+x,1/2-y,z
loop_
_atom_site_type_symbol
_atom_site_label
_atom_site_fract_x
_atom_site_fract_y
_atom_site_fract_z
Si Si1 0.804919 0.082199 0.716719
Si Si2 0.037830 0.823120 0.585655
Si Si3 0.753306 0.159882 0.886995
Si Si4 0.473246 0.916000 0.733016
Si Si5 0.712400 0.086872 0.073663
Si Si6 0.113419 0.332200 0.412185
Si Si7 0.435378 0.702966 0.098440
O O1 0.754398 0.091657 0.823305
O O2 0.652734 0.101599 0.686860
O O3 0.950381 0.131382 0.671731
O O4 0.856352 0.000000 0.692274
O O5 0.218564 0.821244 0.575521
O O6 0.000000 0.859726 0.500000
O O7 0.968128 0.743031 0.597502
O O8 0.669785 0.229014 0.855818
O O9 0.926673 0.189676 0.860575
O O10 0.686384 0.130009 0.988516
O O11 0.429963 0.897051 0.838995
O O12 0.371064 0.875191 0.679311
O O13 0.435700 0.000000 0.724615
O O14 0.855945 0.123940 0.097518
O O15 0.740142 0.000000 0.054258
O O16 0.000000 0.371981 0.500000
O O17 0.500000 0.733582 0.000000
#
# Coordination Sequence:
#
# PCOD8111990 Si02
#       7
#     8   8   8   8   8   8   8
#     4  11  26  43  65  97 130 173 225 273 330 392
#     4  11  24  44  72 101 134 172 210 272 325 391
#     4  11  25  41  65  93 130 175 222 277 326 384
#     4  10  24  43  65  96 134 176 221 271 327 389
#     4  10  22  41  65  92 132 176 221 272 326 384
#     4  11  23  44  73 102 133 171 216 263 327 392
#     4  10  23  40  61  91 122 169 222 274 324 385
#
# _framework density 22.387906999999998
#
# number of rings (size 3 to 8) (size 9 to 14) (size 15 to 20)
#    0.000    1.429    0.000    5.571    8.000    4.286 
#    0.000    2.143    0.000    0.000    0.000    0.000 
#    0.000    0.000    0.000    0.000    0.000    0.000 
#
# Total GULP energy -347007.929795 kJ/mol
# GULP energy per Si atom -12393.140350 kJ/mol
# Density = 2.233695 g / cm^3
# Si number density = 22.387907 Si / 1000 Ang^3
#
#
#
# Elastic Constant Matrix: (Units=GPa)
#
#
# Indices 1 2 3 4 5 6 
#
# 1 140.8306 45.8676 40.9453 0.0000 -6.8912 0.0000
# 2 45.8676 91.1790 41.6913 0.0000 -4.7532 0.0000
# 3 40.9453 41.6913 115.9280 0.0000 2.1733 0.0000
# 4 0.0000 0.0000 0.0000 35.6570 0.0000 -0.5567
# 5 -6.8912 -4.7532 2.1733 0.0000 30.2761 0.0000
# 6 0.0000 0.0000 0.0000 -0.5567 0.0000 29.3245
#
#
#
# Elastic Compliance Matrix: (Units=1/GPa)
#
#
# Indices 1 2 3 4 5 6 
#
# 1 0.008876 -0.003512 -0.001902 0.000000 0.001606 0.000000
# 2 -0.003512 0.014692 -0.004077 0.000000 0.001800 0.000000
# 3 -0.001902 -0.004077 0.010799 0.000000 -0.001848 0.000000
# 4 0.000000 0.000000 0.000000 0.028053 0.000000 0.000533
# 5 0.001606 0.001800 -0.001848 0.000000 0.033810 0.000000
# 6 0.000000 0.000000 0.000000 0.000533 0.000000 0.034111
#
#
# Mechanical properties :
#
#
# Convention : Reuss Voigt Hill
#
# Bulk Modulus (GPa) = 64.99860 67.21621 66.10741
# Shear Modulus (GPa) = 32.37253 33.68041 33.02647
#
# Velocity S-wave (km/s) = 3.80673 3.88287 3.84499
# Velocity P-wave (km/s) = 6.95827 7.08455 7.02170
#
# Compressibility (1/GPa) = 0.01538495
#
# Stress axis : x y z
#
# Youngs Moduli (GPa) = 112.66264 68.06385 92.60273
#
# Poissons Ratio (x) = 0.23902 0.17615
# Poissons Ratio (y) = 0.39563 0.37756
# Poissons Ratio (z) = 0.21431 0.27751
#
# Static dielectric constant tensor:
#      x y z
#    x 3.869080 0.000000 -0.023340 
#    y 0.000000 3.886110 0.000000 
#    z -0.023340 0.000000 4.201690 
# 
# 
# High freq. dielectric constant tensor:
#      x y z
#    x 1.890100 0.000000 -0.004560 
#    y 0.000000 1.878820 0.000000 
#    z -0.004560 0.000000 1.878920 
# 
# From -- ./inp_files/257014.got.cif
#   From: 2010.06.25/outbox.cif.g09.slc.cpg/sg12_129_cif.got.tgz:257014.got - 2010.06.28 00:19:55.
