data_PCOD8111188
_publ_section_title
;
Structure prediction by ZEFSAII (Michael W. Deem and Ramdas Pophale) SiO2 
 PCOD8111188
Probable space group: C 2/M
;
_chemical_formula_sum "Si O2"
_cell_formula_units_Z 40
_cell_length_a 28.256164
_cell_length_b 7.474753
_cell_length_c 9.361401
_cell_angle_alpha 90.000000
_cell_angle_beta 80.822867
_cell_angle_gamma 90.000000
_cell_volume 1951.893161
_symmetry_space_group_name_H-M "C 2/M"
_symmetry_group_IT_number 12
_symmetry_cell_setting 'monoclinic'
loop_
_space_group_symop_operation_xyz
x,y,z
-x,y,-z
-x,-y,-z
x,-y,z
1/2+x,1/2+y,z
1/2-x,1/2+y,-z
1/2-x,1/2-y,-z
1/2+x,1/2-y,z
loop_
_atom_site_type_symbol
_atom_site_label
_atom_site_fract_x
_atom_site_fract_y
_atom_site_fract_z
Si Si1 0.386168 0.208567 0.020364
Si Si2 0.109820 0.710016 0.649181
Si Si3 0.203856 0.291600 0.113991
Si Si4 0.459641 0.500000 0.906097
Si Si5 0.031109 0.000000 0.623716
Si Si6 0.297316 0.208945 0.566595
O O1 0.340617 0.282711 0.955082
O O2 0.430271 0.318096 0.938105
O O3 0.396160 0.000000 0.987842
O O4 0.378021 0.247322 0.191403
O O5 0.099279 0.500000 0.627506
O O6 0.155533 0.781693 0.537272
O O7 0.063405 0.822289 0.624582
O O8 0.197702 0.500000 0.136426
O O9 0.206258 0.204344 0.272202
O O10 0.250000 0.250000 0.000000
O O11 0.485676 0.500000 0.745926
O O12 0.500000 0.500000 0.000000
O O13 0.000000 0.000000 0.500000
O O14 0.250000 0.250000 0.500000
O O15 0.303154 0.000000 0.578204
#
# Coordination Sequence:
#
# PCOD8111188 Si02
#       6
#     8   8   8   4   4   8
#     4  10  22  41  67  93 127 165 209 265 320 376
#     4  10  22  43  66  91 128 167 209 262 321 378
#     4  10  22  39  61  93 125 163 208 256 315 378
#     4  12  24  44  66  98 126 166 220 266 318 374
#     4  12  28  44  64  98 128 168 222 264 318 380
#     4  10  22  39  61  91 126 167 206 252 316 381
#
# _framework density 20.492923999999999
#
# number of rings (size 3 to 8) (size 9 to 14) (size 15 to 20)
#    0.000    1.600    2.000    1.200    5.600    4.000 
#    0.000    0.000    0.000    0.000    0.000    0.000 
#    0.000    0.000    0.000    0.000    0.000    0.000 
#
# Total GULP energy -247926.827732 kJ/mol
# GULP energy per Si atom -12396.341387 kJ/mol
# Density = 2.044628 g / cm^3
# Si number density = 20.492924 Si / 1000 Ang^3
#
#
#
# Elastic Constant Matrix: (Units=GPa)
#
#
# Indices 1 2 3 4 5 6 
#
# 1 188.1148 55.6607 115.1099 0.0000 4.7056 0.0000
# 2 55.6607 73.8514 43.9202 0.0000 -2.2060 0.0000
# 3 115.1099 43.9202 208.1138 0.0000 -2.3018 0.0000
# 4 0.0000 0.0000 0.0000 19.9922 0.0000 -6.2952
# 5 4.7056 -2.2060 -2.3018 0.0000 54.6763 0.0000
# 6 0.0000 0.0000 0.0000 -6.2952 0.0000 40.0945
#
#
#
# Elastic Compliance Matrix: (Units=1/GPa)
#
#
# Indices 1 2 3 4 5 6 
#
# 1 0.009228 -0.004513 -0.004165 0.000000 -0.001152 0.000000
# 2 -0.004513 0.017704 -0.001228 0.000000 0.001051 0.000000
# 3 -0.004165 -0.001228 0.007375 0.000000 0.000619 0.000000
# 4 0.000000 0.000000 0.000000 0.052621 0.000000 0.008262
# 5 -0.001152 0.001051 0.000619 0.000000 0.018457 0.000000
# 6 0.000000 0.000000 0.000000 0.008262 0.000000 0.026238
#
#
# Mechanical properties :
#
#
# Convention : Reuss Voigt Hill
#
# Bulk Modulus (GPa) = 68.98946 99.94019 84.46483
# Shear Modulus (GPa) = 31.99645 39.97855 35.98750
#
# Velocity S-wave (km/s) = 3.95567 4.42163 4.19512
# Velocity P-wave (km/s) = 7.38926 8.65689 8.04807
#
# Compressibility (1/GPa) = 0.01449497
#
# Stress axis : x y z
#
# Youngs Moduli (GPa) = 108.36041 56.48434 135.59878
#
# Poissons Ratio (x) = 0.25491 0.56473
# Poissons Ratio (y) = 0.48903 0.16658
# Poissons Ratio (z) = 0.45129 0.06939
#
# Static dielectric constant tensor:
#      x y z
#    x 4.059860 0.000000 0.111550 
#    y 0.000000 3.702760 0.000000 
#    z 0.111550 0.000000 4.117420 
# 
# 
# High freq. dielectric constant tensor:
#      x y z
#    x 1.808160 0.000000 0.001450 
#    y 0.000000 1.801960 0.000000 
#    z 0.001450 0.000000 1.819680 
# 
# From -- ./inp_files/92876.got.cif
#   From: 2010.06.25/outbox.cif.g09.slc.cpg/sg12_47_cif.got.tgz:92876.got - 2010.06.28 00:19:55.
