data_PCOD8111540
_publ_section_title
;
Structure prediction by ZEFSAII (Michael W. Deem and Ramdas Pophale) SiO2 
 PCOD8111540
Probable space group: C 2/M
;
_chemical_formula_sum "Si O2"
_cell_formula_units_Z 40
_cell_length_a 8.785245
_cell_length_b 17.218241
_cell_length_c 11.216004
_cell_angle_alpha 90.000000
_cell_angle_beta 97.888905
_cell_angle_gamma 90.000000
_cell_volume 1680.548713
_symmetry_space_group_name_H-M "C 2/M"
_symmetry_group_IT_number 12
_symmetry_cell_setting 'monoclinic'
loop_
_space_group_symop_operation_xyz
x,y,z
-x,y,-z
-x,-y,-z
x,-y,z
1/2+x,1/2+y,z
1/2-x,1/2+y,-z
1/2-x,1/2-y,-z
1/2+x,1/2-y,z
loop_
_atom_site_type_symbol
_atom_site_label
_atom_site_fract_x
_atom_site_fract_y
_atom_site_fract_z
Si Si1 0.481536 0.701226 0.282023
Si Si2 0.267706 0.087250 0.717159
Si Si3 0.306468 0.413806 0.559353
Si Si4 0.101922 0.630780 0.740940
Si Si5 0.842271 0.189941 0.926965
O O1 0.340804 0.646409 0.220266
O O2 0.567414 0.650882 0.392446
O O3 0.413938 0.782781 0.318819
O O4 0.595702 0.728615 0.188799
O O5 0.258787 0.108939 0.576301
O O6 0.444503 0.095724 0.773909
O O7 0.212712 0.000000 0.738972
O O8 0.382875 0.500000 0.564244
O O9 0.168417 0.419184 0.639499
O O10 0.218496 0.626670 0.867786
O O11 0.750000 0.250000 0.000000
O O12 0.000000 0.154688 0.000000
#
# Coordination Sequence:
#
# PCOD8111540 Si02
#       5
#     8   8   8   8   8
#     4  11  23  38  64 104 125 168 223 277 315 376
#     4  11  23  41  65  95 142 185 210 251 324 396
#     4  10  22  40  62  92 140 189 211 245 321 396
#     4  11  23  38  64 104 124 169 226 276 310 375
#     4  11  23  41  68  95 122 164 212 276 341 400
#
# _framework density 23.801748
#
# number of rings (size 3 to 8) (size 9 to 14) (size 15 to 20)
#    0.000    1.200    2.000    4.800    0.000    8.000 
#    0.000    0.000    0.000   22.800    0.000    0.000 
#    0.000    0.000    0.000    0.000    0.000    0.000 
#
# Total GULP energy -247812.634033 kJ/mol
# GULP energy per Si atom -12390.631702 kJ/mol
# Density = 2.374757 g / cm^3
# Si number density = 23.801748 Si / 1000 Ang^3
#
#
#
# Elastic Constant Matrix: (Units=GPa)
#
#
# Indices 1 2 3 4 5 6 
#
# 1 149.3405 24.3245 38.2183 0.0000 7.4825 0.0000
# 2 24.3245 106.6476 16.8411 0.0000 2.9531 0.0000
# 3 38.2183 16.8411 89.5934 0.0000 7.1373 0.0000
# 4 0.0000 0.0000 0.0000 65.2390 0.0000 118.7058
# 5 7.4825 2.9531 7.1373 0.0000 49.6375 0.0000
# 6 0.0000 0.0000 0.0000 118.7058 0.0000 314.9420
#
#
#
# Elastic Compliance Matrix: (Units=1/GPa)
#
#
# Indices 1 2 3 4 5 6 
#
# 1 0.007702 -0.001265 -0.002995 0.000000 -0.000655 0.000000
# 2 -0.001265 0.009876 -0.001300 0.000000 -0.000210 0.000000
# 3 -0.002995 -0.001300 0.012788 0.000000 -0.001310 0.000000
# 4 0.000000 0.000000 0.000000 0.048787 0.000000 -0.018388
# 5 -0.000655 -0.000210 -0.001310 0.000000 0.020446 0.000000
# 6 0.000000 0.000000 0.000000 -0.018388 0.000000 0.010106
#
#
# Mechanical properties :
#
#
# Convention : Reuss Voigt Hill
#
# Bulk Modulus (GPa) = 51.96270 56.03882 54.00076
# Shear Modulus (GPa) = 39.29558 103.71021 71.50289
#
# Velocity S-wave (km/s) = 4.06760 6.60811 5.48692
# Velocity P-wave (km/s) = 6.62868 9.04533 7.92961
#
# Compressibility (1/GPa) = 0.01924457
#
# Stress axis : x y z
#
# Youngs Moduli (GPa) = 129.84370 101.25146 78.19869
#
# Poissons Ratio (x) = 0.12813 0.23422
# Poissons Ratio (y) = 0.16431 0.10165
# Poissons Ratio (z) = 0.38891 0.13162
#
# Static dielectric constant tensor:
#      x y z
#    x 4.786930 0.000000 0.168710 
#    y 0.000000 4.086990 0.000000 
#    z 0.168710 0.000000 4.267440 
# 
# 
# High freq. dielectric constant tensor:
#      x y z
#    x 1.975780 0.000000 0.004500 
#    y 0.000000 1.918870 0.000000 
#    z 0.004500 0.000000 1.920730 
# 
# From -- ./inp_files/118866.got.cif
#   From: 2010.06.25/outbox.cif.g09.slc.cpg/sg12_60_cif.got.tgz:118866.got - 2010.06.28 00:19:55.
