data_PCOD8111376
_publ_section_title
;
Structure prediction by ZEFSAII (Michael W. Deem and Ramdas Pophale) SiO2 
 PCOD8111376
Probable space group: C 2/M
;
_chemical_formula_sum "Si O2"
_cell_formula_units_Z 48
_cell_length_a 17.622451
_cell_length_b 8.858743
_cell_length_c 17.193145
_cell_angle_alpha 90.000000
_cell_angle_beta 61.708849
_cell_angle_gamma 90.000000
_cell_volume 2363.458818
_symmetry_space_group_name_H-M "C 2/M"
_symmetry_group_IT_number 12
_symmetry_cell_setting 'monoclinic'
loop_
_space_group_symop_operation_xyz
x,y,z
-x,y,-z
-x,-y,-z
x,-y,z
1/2+x,1/2+y,z
1/2-x,1/2+y,-z
1/2-x,1/2-y,-z
1/2+x,1/2-y,z
loop_
_atom_site_type_symbol
_atom_site_label
_atom_site_fract_x
_atom_site_fract_y
_atom_site_fract_z
Si Si1 0.184812 0.176955 0.337069
Si Si2 0.491068 0.173690 0.857843
Si Si3 0.584741 0.166300 0.510839
Si Si4 0.314245 0.824889 0.028766
Si Si5 0.665028 0.677846 0.818735
Si Si6 0.541207 0.177265 0.302373
O O1 0.152899 0.218863 0.439790
O O2 0.276248 0.257182 0.279120
O O3 0.117699 0.229093 0.304086
O O4 0.197836 0.000000 0.325678
O O5 0.566623 0.279272 0.851460
O O6 0.463319 0.223610 0.785095
O O7 0.522179 0.000000 0.843306
O O8 0.411938 0.198593 0.953996
O O9 0.500000 0.159669 0.500000
O O10 0.551368 0.217587 0.612555
O O11 0.627542 0.000000 0.493896
O O12 0.300671 0.746589 0.117751
O O13 0.291142 0.000000 0.047647
O O14 0.250000 0.750000 0.000000
O O15 0.674681 0.500000 0.818101
O O16 0.561815 0.000000 0.303592
#
# Coordination Sequence:
#
# PCOD8111376 Si02
#       6
#     8   8   8   8   8   8
#     4  11  21  34  56  84 114 148 192 241 284 333
#     4  10  22  40  60  84 115 149 185 229 282 336
#     4   8  15  30  53  81 113 148 186 230 282 336
#     4  11  23  40  64  91 118 148 186 231 277 331
#     4  12  25  40  58  81 114 153 192 234 283 338
#     4   9  18  35  59  85 115 150 187 231 284 340
#
# _framework density 20.309218999999999
#
# number of rings (size 3 to 8) (size 9 to 14) (size 15 to 20)
#    0.000    1.833    0.000    6.000    0.000    8.333 
#    0.000    0.833    0.000    0.000    0.000    0.000 
#    0.000    0.000    0.000    0.000    0.000    0.000 
#
# Total GULP energy -297651.540152 kJ/mol
# GULP energy per Si atom -12402.147506 kJ/mol
# Density = 2.026299 g / cm^3
# Si number density = 20.309219 Si / 1000 Ang^3
#
#
#
# Elastic Constant Matrix: (Units=GPa)
#
#
# Indices 1 2 3 4 5 6 
#
# 1 48.4822 36.3262 -1.4000 0.0000 -17.5004 0.0000
# 2 36.3262 139.9108 35.9055 0.0000 -18.4573 0.0000
# 3 -1.4000 35.9055 77.0674 0.0000 -16.1103 0.0000
# 4 0.0000 0.0000 0.0000 33.2345 0.0000 -2.9618
# 5 -17.5004 -18.4573 -16.1103 0.0000 24.8894 0.0000
# 6 0.0000 0.0000 0.0000 -2.9618 0.0000 34.1086
#
#
#
# Elastic Compliance Matrix: (Units=1/GPa)
#
#
# Indices 1 2 3 4 5 6 
#
# 1 0.036878 -0.008756 0.010191 0.000000 0.026033 0.000000
# 2 -0.008756 0.010582 -0.005477 0.000000 -0.001854 0.000000
# 3 0.010191 -0.005477 0.018922 0.000000 0.015352 0.000000
# 4 0.000000 0.000000 0.000000 0.030324 0.000000 0.002633
# 5 0.026033 -0.001854 0.015352 0.000000 0.067044 0.000000
# 6 0.000000 0.000000 0.000000 0.002633 0.000000 0.029547
#
#
# Mechanical properties :
#
#
# Convention : Reuss Voigt Hill
#
# Bulk Modulus (GPa) = 17.15302 45.23598 31.19450
# Shear Modulus (GPa) = 22.64372 31.42176 27.03274
#
# Velocity S-wave (km/s) = 3.34271 3.93767 3.65232
# Velocity P-wave (km/s) = 4.83348 6.55711 5.76013
#
# Compressibility (1/GPa) = 0.05829876
#
# Stress axis : x y z
#
# Youngs Moduli (GPa) = 27.11627 94.50303 52.84983
#
# Poissons Ratio (x) = 0.82748 -0.53861
# Poissons Ratio (y) = 0.23743 0.28944
# Poissons Ratio (z) = -0.27635 0.51756
#
# Static dielectric constant tensor:
#      x y z
#    x 3.376260 0.000000 -0.051550 
#    y 0.000000 3.625470 0.000000 
#    z -0.051550 0.000000 4.199070 
# 
# 
# High freq. dielectric constant tensor:
#      x y z
#    x 1.768470 0.000000 -0.007090 
#    y 0.000000 1.789480 0.000000 
#    z -0.007090 0.000000 1.816000 
# 
# From -- ./inp_files/274112.got.cif
#   From: 2010.06.25/outbox.cif.g09.slc.cpg/sg12_138_cif.got.tgz:274112.got - 2010.06.28 00:19:55.
