data_PCOD8111011
_publ_section_title
;
Structure prediction by ZEFSAII (Michael W. Deem and Ramdas Pophale) SiO2 
 PCOD8111011
Probable space group: C 2/M
;
_chemical_formula_sum "Si O2"
_cell_formula_units_Z 44
_cell_length_a 8.655407
_cell_length_b 25.991908
_cell_length_c 9.586205
_cell_angle_alpha 90.000000
_cell_angle_beta 80.689510
_cell_angle_gamma 90.000000
_cell_volume 2128.202752
_symmetry_space_group_name_H-M "C 2/M"
_symmetry_group_IT_number 12
_symmetry_cell_setting 'monoclinic'
loop_
_space_group_symop_operation_xyz
x,y,z
-x,y,-z
-x,-y,-z
x,-y,z
1/2+x,1/2+y,z
1/2-x,1/2+y,-z
1/2-x,1/2-y,-z
1/2+x,1/2-y,z
loop_
_atom_site_type_symbol
_atom_site_label
_atom_site_fract_x
_atom_site_fract_y
_atom_site_fract_z
Si Si1 0.409509 0.059960 0.371694
Si Si2 0.427145 0.442421 0.149609
Si Si3 0.605797 0.614547 0.360798
Si Si4 0.605404 0.911505 0.100820
Si Si5 0.258488 0.179157 0.109708
Si Si6 0.500000 0.257971 0.000000
O O1 0.500000 0.072289 0.500000
O O2 0.224150 0.072396 0.410142
O O3 0.483498 0.098285 0.244328
O O4 0.428955 0.000000 0.327594
O O5 0.491543 0.500000 0.160711
O O6 0.480749 0.409999 0.273256
O O7 0.241118 0.444892 0.152591
O O8 0.500000 0.416970 0.000000
O O9 0.500000 0.638934 0.500000
O O10 0.714028 0.655511 0.265665
O O11 0.500000 0.941522 0.000000
O O12 0.675696 0.860541 0.017114
O O13 0.100472 0.205447 0.082345
O O14 0.390553 0.222378 0.114169
#
# Coordination Sequence:
#
# PCOD8111011 Si02
#       6
#     8   8   8   8   8   4
#     4  11  24  40  59  89 128 173 214 251 300 352
#     4  11  22  36  58  91 127 169 213 254 294 346
#     4  12  24  42  63  88 130 168 209 258 308 368
#     4  12  21  39  64  88 127 157 213 257 298 366
#     4  11  21  42  62  99 114 158 201 252 321 385
#     4  10  22  38  72  88 124 144 196 262 322 386
#
# _framework density 20.674721000000002
#
# number of rings (size 3 to 8) (size 9 to 14) (size 15 to 20)
#    0.000    0.727    4.545    3.273    0.000    5.818 
#    0.000    0.909    0.000    4.364    0.000    0.000 
#    0.000    0.000    0.000    0.000    0.000    0.000 
#
# Total GULP energy -272629.701413 kJ/mol
# GULP energy per Si atom -12392.259155 kJ/mol
# Density = 2.062766 g / cm^3
# Si number density = 20.674721 Si / 1000 Ang^3
#
#
#
# Elastic Constant Matrix: (Units=GPa)
#
#
# Indices 1 2 3 4 5 6 
#
# 1 143.5465 27.7449 56.7046 0.0000 10.8222 0.0000
# 2 27.7449 68.6793 43.0741 0.0000 -7.4181 0.0000
# 3 56.7046 43.0741 141.7309 0.0000 -10.6555 0.0000
# 4 0.0000 0.0000 0.0000 17.8291 0.0000 -8.2308
# 5 10.8222 -7.4181 -10.6555 0.0000 46.5876 0.0000
# 6 0.0000 0.0000 0.0000 -8.2308 0.0000 24.0499
#
#
#
# Elastic Compliance Matrix: (Units=1/GPa)
#
#
# Indices 1 2 3 4 5 6 
#
# 1 0.008824 -0.001900 -0.003184 0.000000 -0.003081 0.000000
# 2 -0.001900 0.018523 -0.004695 0.000000 0.002317 0.000000
# 3 -0.003184 -0.004695 0.009927 0.000000 0.002263 0.000000
# 4 0.000000 0.000000 0.000000 0.066613 0.000000 0.022797
# 5 -0.003081 0.002317 0.002263 0.000000 0.023067 0.000000
# 6 0.000000 0.000000 0.000000 0.022797 0.000000 0.049382
#
#
# Mechanical properties :
#
#
# Convention : Reuss Voigt Hill
#
# Bulk Modulus (GPa) = 56.45168 67.66709 62.05939
# Shear Modulus (GPa) = 24.77712 32.78886 28.78299
#
# Velocity S-wave (km/s) = 3.46558 3.98671 3.73524
# Velocity P-wave (km/s) = 6.58617 7.34794 6.97746
#
# Compressibility (1/GPa) = 0.01771426
#
# Stress axis : x y z
#
# Youngs Moduli (GPa) = 113.32941 53.98728 100.73921
#
# Poissons Ratio (x) = 0.10259 0.32079
# Poissons Ratio (y) = 0.21535 0.47297
# Poissons Ratio (z) = 0.36089 0.25347
#
# Static dielectric constant tensor:
#      x y z
#    x 4.254630 0.000000 0.018160 
#    y 0.000000 3.563130 0.000000 
#    z 0.018160 0.000000 3.678560 
# 
# 
# High freq. dielectric constant tensor:
#      x y z
#    x 1.844190 0.000000 0.000890 
#    y 0.000000 1.781120 0.000000 
#    z 0.000890 0.000000 1.797770 
# 
# From -- ./inp_files/41668.got.cif
#   From: 2010.06.25/outbox.cif.g09.slc.cpg/sg12_21_cif.got.tgz:41668.got - 2010.06.28 00:19:55.
