data_PCOD8111512
_publ_section_title
;
Structure prediction by ZEFSAII (Michael W. Deem and Ramdas Pophale) SiO2 
 PCOD8111512
Probable space group: C 2/M
;
_chemical_formula_sum "Si O2"
_cell_formula_units_Z 40
_cell_length_a 9.468749
_cell_length_b 17.841542
_cell_length_c 11.996838
_cell_angle_alpha 90.000000
_cell_angle_beta 79.868813
_cell_angle_gamma 90.000000
_cell_volume 1995.109489
_symmetry_space_group_name_H-M "C 2/M"
_symmetry_group_IT_number 12
_symmetry_cell_setting 'monoclinic'
loop_
_space_group_symop_operation_xyz
x,y,z
-x,y,-z
-x,-y,-z
x,-y,z
1/2+x,1/2+y,z
1/2-x,1/2+y,-z
1/2-x,1/2-y,-z
1/2+x,1/2-y,z
loop_
_atom_site_type_symbol
_atom_site_label
_atom_site_fract_x
_atom_site_fract_y
_atom_site_fract_z
Si Si1 0.578706 0.200473 0.319051
Si Si2 0.895637 0.085779 0.778690
Si Si3 0.704991 0.587228 0.629521
Si Si4 0.250565 0.165325 0.392899
Si Si5 0.111473 0.777174 0.078937
O O1 0.670328 0.123970 0.312439
O O2 0.417669 0.185801 0.382456
O O3 0.657517 0.259390 0.389836
O O4 0.574724 0.229488 0.193625
O O5 0.773535 0.109634 0.707608
O O6 0.878220 0.134923 0.892387
O O7 0.052126 0.101726 0.706846
O O8 0.873396 0.000000 0.815734
O O9 0.740734 0.500000 0.613459
O O10 0.696285 0.623343 0.509394
O O11 0.250000 0.750000 0.000000
O O12 0.000000 0.761328 0.000000
#
# Coordination Sequence:
#
# PCOD8111512 Si02
#       5
#     8   8   8   8   8
#     4  11  23  39  60  88 120 155 202 248 289 350
#     4  10  22  40  62  89 119 153 197 243 291 352
#     4  11  23  39  60  89 125 159 191 235 293 356
#     4  11  22  38  61  89 124 159 194 235 290 357
#     4  11  22  40  62  84 112 151 201 252 299 339
#
# _framework density 20.049025
#
# number of rings (size 3 to 8) (size 9 to 14) (size 15 to 20)
#    0.000    1.200    0.000    8.400    0.000    7.600 
#    0.000    1.000    0.000    2.400    0.000    0.000 
#    0.000    0.000    0.000    0.000    0.000    0.000 
#
# Total GULP energy -248059.844983 kJ/mol
# GULP energy per Si atom -12402.992249 kJ/mol
# Density = 2.000339 g / cm^3
# Si number density = 20.049025 Si / 1000 Ang^3
#
#
#
# Elastic Constant Matrix: (Units=GPa)
#
#
# Indices 1 2 3 4 5 6 
#
# 1 138.8908 77.9494 24.9859 0.0000 6.6240 0.0000
# 2 77.9494 154.8850 69.1759 0.0000 -6.8790 0.0000
# 3 24.9859 69.1759 70.1821 0.0000 0.9147 0.0000
# 4 0.0000 0.0000 0.0000 25.2296 0.0000 -5.8100
# 5 6.6240 -6.8790 0.9147 0.0000 35.6155 0.0000
# 6 0.0000 0.0000 0.0000 -5.8100 0.0000 32.3192
#
#
#
# Elastic Compliance Matrix: (Units=1/GPa)
#
#
# Indices 1 2 3 4 5 6 
#
# 1 0.010674 -0.006869 0.003014 0.000000 -0.003389 0.000000
# 2 -0.006869 0.016185 -0.013569 0.000000 0.004752 0.000000
# 3 0.003014 -0.013569 0.026601 0.000000 -0.003865 0.000000
# 4 0.000000 0.000000 0.000000 0.041348 0.000000 0.007433
# 5 -0.003389 0.004752 -0.003865 0.000000 0.029725 0.000000
# 6 0.000000 0.000000 0.000000 0.007433 0.000000 0.032278
#
#
# Mechanical properties :
#
#
# Convention : Reuss Voigt Hill
#
# Bulk Modulus (GPa) = 53.72840 78.68669 66.20754
# Shear Modulus (GPa) = 25.27016 31.42264 28.34640
#
# Velocity S-wave (km/s) = 3.55409 3.96320 3.76420
# Velocity P-wave (km/s) = 6.61050 7.76369 7.21019
#
# Compressibility (1/GPa) = 0.01861213
#
# Stress axis : x y z
#
# Youngs Moduli (GPa) = 93.68277 61.78617 37.59314
#
# Poissons Ratio (x) = 0.42441 -0.11332
# Poissons Ratio (y) = 0.64350 0.51011
# Poissons Ratio (z) = -0.28240 0.83839
#
# Static dielectric constant tensor:
#      x y z
#    x 3.829360 0.000000 0.035040 
#    y 0.000000 3.862200 0.000000 
#    z 0.035040 0.000000 3.814650 
# 
# 
# High freq. dielectric constant tensor:
#      x y z
#    x 1.796480 0.000000 0.006830 
#    y 0.000000 1.790010 0.000000 
#    z 0.006830 0.000000 1.782090 
# 
# From -- ./inp_files/118867.got.cif
#   From: 2010.06.25/outbox.cif.g09.slc.cpg/sg12_60_cif.got.tgz:118867.got - 2010.06.28 00:19:55.
