data_PCOD8111267
_publ_section_title
;
Structure prediction by ZEFSAII (Michael W. Deem and Ramdas Pophale) SiO2 
 PCOD8111267
Probable space group: C 2/M
;
_chemical_formula_sum "Si O2"
_cell_formula_units_Z 36
_cell_length_a 9.156807
_cell_length_b 14.765796
_cell_length_c 13.241773
_cell_angle_alpha 90.000000
_cell_angle_beta 64.396283
_cell_angle_gamma 90.000000
_cell_volume 1614.579590
_symmetry_space_group_name_H-M "C 2/M"
_symmetry_group_IT_number 12
_symmetry_cell_setting 'monoclinic'
loop_
_space_group_symop_operation_xyz
x,y,z
-x,y,-z
-x,-y,-z
x,-y,z
1/2+x,1/2+y,z
1/2-x,1/2+y,-z
1/2-x,1/2-y,-z
1/2+x,1/2-y,z
loop_
_atom_site_type_symbol
_atom_site_label
_atom_site_fract_x
_atom_site_fract_y
_atom_site_fract_z
Si Si1 0.381656 0.848322 0.620051
Si Si2 0.738520 0.500000 0.016583
Si Si3 0.449947 0.000000 0.757536
Si Si4 0.901712 0.191228 0.938501
Si Si5 0.011641 0.825007 0.688153
Si Si6 0.289174 0.500000 0.748656
O O1 0.500000 0.890492 0.500000
O O2 0.450493 0.749279 0.626990
O O3 0.203292 0.844499 0.623088
O O4 0.384582 0.911896 0.718026
O O5 0.881081 0.500000 0.891943
O O6 0.623595 0.585389 0.036855
O O7 0.799469 0.500000 0.115055
O O8 0.645814 0.000000 0.708143
O O9 0.986412 0.213349 0.807857
O O10 0.750000 0.250000 0.000000
O O11 0.000000 0.232424 0.000000
O O12 0.904459 0.913622 0.699193
#
# Coordination Sequence:
#
# PCOD8111267 Si02
#       6
#     8   4   4   8   8   4
#     4  12  26  45  66  91 123 168 220 269 313 361
#     4  10  22  39  63  93 130 166 200 244 310 387
#     4  12  23  42  66  95 129 167 209 260 314 375
#     4  11  22  37  61  94 128 164 202 247 310 383
#     4  11  23  43  65  92 128 167 209 262 315 373
#     4  10  24  41  66  98 130 163 203 252 319 390
#
# _framework density 22.296825999999999
#
# number of rings (size 3 to 8) (size 9 to 14) (size 15 to 20)
#    0.000    0.889    0.000    7.667    0.000    7.111 
#    0.000    1.667    0.000    0.000    0.000    0.000 
#    0.000    0.000    0.000    0.000    0.000    0.000 
#
# Total GULP energy -223157.003127 kJ/mol
# GULP energy per Si atom -12397.611285 kJ/mol
# Density = 2.224608 g / cm^3
# Si number density = 22.296826 Si / 1000 Ang^3
#
#
#
# Elastic Constant Matrix: (Units=GPa)
#
#
# Indices 1 2 3 4 5 6 
#
# 1 139.2389 31.7938 13.2823 0.0000 -3.1588 0.0000
# 2 31.7938 95.9216 19.8550 0.0000 3.8743 0.0000
# 3 13.2823 19.8550 81.1446 0.0000 -18.4461 0.0000
# 4 0.0000 0.0000 0.0000 24.9205 0.0000 2.2926
# 5 -3.1588 3.8743 -18.4461 0.0000 37.5990 0.0000
# 6 0.0000 0.0000 0.0000 2.2926 0.0000 11.0265
#
#
#
# Elastic Compliance Matrix: (Units=1/GPa)
#
#
# Indices 1 2 3 4 5 6 
#
# 1 0.007820 -0.002512 -0.000514 0.000000 0.000663 0.000000
# 2 -0.002512 0.012048 -0.003227 0.000000 -0.003036 0.000000
# 3 -0.000514 -0.003227 0.014928 0.000000 0.007613 0.000000
# 4 0.000000 0.000000 0.000000 0.040910 0.000000 -0.008506
# 5 0.000663 -0.003036 0.007613 0.000000 0.030700 0.000000
# 6 0.000000 0.000000 0.000000 -0.008506 0.000000 0.092459
#
#
# Mechanical properties :
#
#
# Convention : Reuss Voigt Hill
#
# Bulk Modulus (GPa) = 44.86526 49.57417 47.21971
# Shear Modulus (GPa) = 22.85168 31.46746 27.15957
#
# Velocity S-wave (km/s) = 3.20486 3.76080 3.49390
# Velocity P-wave (km/s) = 5.81896 6.41406 6.12374
#
# Compressibility (1/GPa) = 0.02228896
#
# Stress axis : x y z
#
# Youngs Moduli (GPa) = 127.88281 82.99837 66.98768
#
# Poissons Ratio (x) = 0.20851 0.03446
# Poissons Ratio (y) = 0.32126 0.21617
# Poissons Ratio (z) = 0.06579 0.26783
#
# Static dielectric constant tensor:
#      x y z
#    x 3.898110 0.000000 0.015480 
#    y 0.000000 3.809500 0.000000 
#    z 0.015480 0.000000 4.062200 
# 
# 
# High freq. dielectric constant tensor:
#      x y z
#    x 1.890770 0.000000 0.002720 
#    y 0.000000 1.886420 0.000000 
#    z 0.002720 0.000000 1.881130 
# 
# From -- ./inp_files/118803.got.cif
#   From: 2010.06.25/outbox.cif.g09.slc.cpg/sg12_60_cif.got.tgz:118803.got - 2010.06.28 00:19:55.
