data_PCOD8111311
_publ_section_title
;
Structure prediction by ZEFSAII (Michael W. Deem and Ramdas Pophale) SiO2 
 PCOD8111311
Probable space group: C 2/M
;
_chemical_formula_sum "Si O2"
_cell_formula_units_Z 40
_cell_length_a 13.422057
_cell_length_b 14.944238
_cell_length_c 9.470526
_cell_angle_alpha 90.000000
_cell_angle_beta 72.935302
_cell_angle_gamma 90.000000
_cell_volume 1815.988261
_symmetry_space_group_name_H-M "C 2/M"
_symmetry_group_IT_number 12
_symmetry_cell_setting 'monoclinic'
loop_
_space_group_symop_operation_xyz
x,y,z
-x,y,-z
-x,-y,-z
x,-y,z
1/2+x,1/2+y,z
1/2-x,1/2+y,-z
1/2-x,1/2-y,-z
1/2+x,1/2-y,z
loop_
_atom_site_type_symbol
_atom_site_label
_atom_site_fract_x
_atom_site_fract_y
_atom_site_fract_z
Si Si1 0.894462 0.400404 0.091828
Si Si2 0.147862 0.894087 0.700064
Si Si3 0.293955 0.827655 0.884847
Si Si4 0.544221 0.288400 0.333741
Si Si5 0.769334 0.104260 0.631408
O O1 0.925308 0.500000 0.128111
O O2 0.833234 0.351882 0.248951
O O3 0.822163 0.406245 0.982457
O O4 0.000000 0.347776 0.000000
O O5 0.206886 0.864120 0.815494
O O6 0.225894 0.872615 0.536364
O O7 0.043149 0.835652 0.727600
O O8 0.120841 0.000000 0.714754
O O9 0.399813 0.795328 0.763716
O O10 0.250000 0.750000 0.000000
O O11 0.500000 0.251379 0.500000
O O12 0.627764 0.364872 0.331909
O O13 0.761831 0.000000 0.662855
#
# Coordination Sequence:
#
# PCOD8111311 Si02
#       5
#     8   8   8   8   8
#     4  10  22  40  62  85 122 169 210 252 311 376
#     4  10  23  43  68  93 125 166 214 258 308 379
#     4  12  25  39  59  93 131 163 202 260 314 367
#     4  10  22  39  65  96 127 166 206 259 318 372
#     4   9  18  39  65  91 123 165 212 257 307 372
#
# _framework density 22.026574
#
# number of rings (size 3 to 8) (size 9 to 14) (size 15 to 20)
#    0.000    1.800    2.000    1.200    2.800    7.200 
#    0.000    1.000    0.000    6.000    0.000    0.000 
#    0.000    0.000    0.000    0.000    0.000    0.000 
#
# Total GULP energy -247828.479262 kJ/mol
# GULP energy per Si atom -12391.423963 kJ/mol
# Density = 2.197644 g / cm^3
# Si number density = 22.026574 Si / 1000 Ang^3
#
#
#
# Elastic Constant Matrix: (Units=GPa)
#
#
# Indices 1 2 3 4 5 6 
#
# 1 81.8523 -3.1233 34.0262 0.0000 -9.2151 0.0000
# 2 -3.1233 30.3526 1.4954 0.0000 -3.1786 0.0000
# 3 34.0262 1.4954 95.0085 0.0000 -13.8990 0.0000
# 4 0.0000 0.0000 0.0000 30.9101 0.0000 4.1640
# 5 -9.2151 -3.1786 -13.8990 0.0000 50.6180 0.0000
# 6 0.0000 0.0000 0.0000 4.1640 0.0000 26.4862
#
#
#
# Elastic Compliance Matrix: (Units=1/GPa)
#
#
# Indices 1 2 3 4 5 6 
#
# 1 0.014537 0.001889 -0.005034 0.000000 0.001383 0.000000
# 2 0.001889 0.033414 -0.000880 0.000000 0.002200 0.000000
# 3 -0.005034 -0.000880 0.012710 0.000000 0.002518 0.000000
# 4 0.000000 0.000000 0.000000 0.033052 0.000000 -0.005196
# 5 0.001383 0.002200 0.002518 0.000000 0.020837 0.000000
# 6 0.000000 0.000000 0.000000 -0.005196 0.000000 0.038572
#
#
# Mechanical properties :
#
#
# Convention : Reuss Voigt Hill
#
# Bulk Modulus (GPa) = 19.00740 30.22332 24.61536
# Shear Modulus (GPa) = 27.97798 33.25720 30.61759
#
# Velocity S-wave (km/s) = 3.56784 3.88992 3.73235
# Velocity P-wave (km/s) = 5.06169 5.82463 5.45651
#
# Compressibility (1/GPa) = 0.05261110
#
# Stress axis : x y z
#
# Youngs Moduli (GPa) = 68.78774 29.92733 78.67535
#
# Poissons Ratio (x) = -0.05653 0.39604
# Poissons Ratio (y) = -0.12992 0.06927
# Poissons Ratio (z) = 0.34627 0.02635
#
# Static dielectric constant tensor:
#      x y z
#    x 4.140350 0.000000 -0.280760 
#    y 0.000000 3.736940 0.000000 
#    z -0.280760 0.000000 4.589780 
# 
# 
# High freq. dielectric constant tensor:
#      x y z
#    x 1.867790 0.000000 -0.011720 
#    y 0.000000 1.849120 0.000000 
#    z -0.011720 0.000000 1.882480 
# 
# From -- ./inp_files/46898.got.cif
#   From: 2010.06.25/outbox.cif.g09.slc.cpg/sg12_24_cif.got.tgz:46898.got - 2010.06.28 00:19:55.
