data_PCOD8111634
_publ_section_title
;
Structure prediction by ZEFSAII (Michael W. Deem and Ramdas Pophale) SiO2 
 PCOD8111634
Probable space group: C 2/M
;
_chemical_formula_sum "Si O2"
_cell_formula_units_Z 56
_cell_length_a 13.167965
_cell_length_b 22.535331
_cell_length_c 9.787271
_cell_angle_alpha 90.000000
_cell_angle_beta 75.260487
_cell_angle_gamma 90.000000
_cell_volume 2808.744560
_symmetry_space_group_name_H-M "C 2/M"
_symmetry_group_IT_number 12
_symmetry_cell_setting 'monoclinic'
loop_
_space_group_symop_operation_xyz
x,y,z
-x,y,-z
-x,-y,-z
x,-y,z
1/2+x,1/2+y,z
1/2-x,1/2+y,-z
1/2-x,1/2-y,-z
1/2+x,1/2-y,z
loop_
_atom_site_type_symbol
_atom_site_label
_atom_site_fract_x
_atom_site_fract_y
_atom_site_fract_z
Si Si1 0.477090 0.612929 0.661993
Si Si2 0.096988 0.763739 0.877811
Si Si3 0.876954 0.362357 0.042926
Si Si4 0.736490 0.432751 0.290822
Si Si5 0.031497 0.749559 0.335593
Si Si6 0.199230 0.929575 0.616467
Si Si7 0.708362 0.845417 0.208465
O O1 0.500000 0.594433 0.500000
O O2 0.376072 0.575524 0.746558
O O3 0.440981 0.681092 0.688727
O O4 0.583977 0.594838 0.703871
O O5 0.146610 0.707685 0.937990
O O6 0.177270 0.817127 0.842487
O O7 0.062626 0.739088 0.739788
O O8 0.000000 0.788631 0.000000
O O9 0.826689 0.395533 0.187662
O O10 0.824767 0.380730 0.917016
O O11 0.000000 0.376744 0.000000
O O12 0.772949 0.500000 0.268702
O O13 0.725266 0.411998 0.451654
O O14 0.128676 0.707636 0.268548
O O15 0.000000 0.733816 0.500000
O O16 0.286905 0.895825 0.676328
O O17 0.205183 0.000000 0.638359
#
# Coordination Sequence:
#
# PCOD8111634 Si02
#       7
#     8   8   8   8   8   8   8
#     4   9  18  38  61  94 125 153 195 249 310 365
#     4  11  23  41  60  91 126 162 199 244 310 369
#     4  11  24  41  60  85 121 164 206 250 302 364
#     4  10  22  40  65  88 116 162 209 253 300 356
#     4  11  23  38  63  97 125 156 200 251 310 366
#     4  10  22  40  64  93 124 160 204 255 307 359
#     4  12  24  39  63  90 128 162 198 256 306 368
#
# _framework density 19.937733999999999
#
# number of rings (size 3 to 8) (size 9 to 14) (size 15 to 20)
#    0.000    1.429    4.286    1.714    4.000    3.143 
#    0.000    0.000    0.000    4.286    0.000    0.000 
#    0.000    0.000    0.000    0.000    0.000    0.000 
#
# Total GULP energy -347140.959954 kJ/mol
# GULP energy per Si atom -12397.891427 kJ/mol
# Density = 1.989235 g / cm^3
# Si number density = 19.937734 Si / 1000 Ang^3
#
#
#
# Elastic Constant Matrix: (Units=GPa)
#
#
# Indices 1 2 3 4 5 6 
#
# 1 107.3419 55.7232 60.8093 0.0000 5.2138 0.0000
# 2 55.7232 82.0713 42.7791 0.0000 -12.5182 0.0000
# 3 60.8093 42.7791 107.9024 0.0000 5.0512 0.0000
# 4 0.0000 0.0000 0.0000 26.2892 0.0000 1.7263
# 5 5.2138 -12.5182 5.0512 0.0000 33.0610 0.0000
# 6 0.0000 0.0000 0.0000 1.7263 0.0000 24.1506
#
#
#
# Elastic Compliance Matrix: (Units=1/GPa)
#
#
# Indices 1 2 3 4 5 6 
#
# 1 0.018274 -0.010170 -0.005994 0.000000 -0.005817 0.000000
# 2 -0.010170 0.022699 -0.003772 0.000000 0.010775 0.000000
# 3 -0.005994 -0.003772 0.014266 0.000000 -0.002663 0.000000
# 4 0.000000 0.000000 0.000000 0.038218 0.000000 -0.002732
# 5 -0.005817 0.010775 -0.002663 0.000000 0.035651 0.000000
# 6 0.000000 0.000000 0.000000 -0.002732 0.000000 0.041602
#
#
# Mechanical properties :
#
#
# Convention : Reuss Voigt Hill
#
# Bulk Modulus (GPa) = 65.07833 68.43765 66.75799
# Shear Modulus (GPa) = 23.17983 25.90041 24.54012
#
# Velocity S-wave (km/s) = 3.41341 3.60816 3.51214
# Velocity P-wave (km/s) = 6.94599 7.19435 7.07126
#
# Compressibility (1/GPa) = 0.01536610
#
# Stress axis : x y z
#
# Youngs Moduli (GPa) = 54.72386 44.05398 70.09740
#
# Poissons Ratio (x) = 0.44803 0.42016
# Poissons Ratio (y) = 0.55654 0.26444
# Poissons Ratio (z) = 0.32801 0.16619
#
# Static dielectric constant tensor:
#      x y z
#    x 3.674350 0.000000 0.099960 
#    y 0.000000 3.453040 0.000000 
#    z 0.099960 0.000000 3.727910 
# 
# 
# High freq. dielectric constant tensor:
#      x y z
#    x 1.778160 0.000000 0.004060 
#    y 0.000000 1.768590 0.000000 
#    z 0.004060 0.000000 1.775070 
# 
# From -- ./inp_files/65273.got.cif
#   From: 2010.06.25/outbox.cif.g09.slc.cpg/sg12_33_cif.got.tgz:65273.got - 2010.06.28 00:19:55.
