data_PCOD8111002
_publ_section_title
;
Structure prediction by ZEFSAII (Michael W. Deem and Ramdas Pophale) SiO2 
 PCOD8111002
Probable space group: C 2/M
;
_chemical_formula_sum "Si O2"
_cell_formula_units_Z 52
_cell_length_a 19.472651
_cell_length_b 19.983902
_cell_length_c 10.831869
_cell_angle_alpha 90.000000
_cell_angle_beta 145.625315
_cell_angle_gamma 90.000000
_cell_volume 2379.860394
_symmetry_space_group_name_H-M "C 2/M"
_symmetry_group_IT_number 12
_symmetry_cell_setting 'monoclinic'
loop_
_space_group_symop_operation_xyz
x,y,z
-x,y,-z
-x,-y,-z
x,-y,z
1/2+x,1/2+y,z
1/2-x,1/2+y,-z
1/2-x,1/2-y,-z
1/2+x,1/2-y,z
loop_
_atom_site_type_symbol
_atom_site_label
_atom_site_fract_x
_atom_site_fract_y
_atom_site_fract_z
Si Si1 0.809234 0.862457 0.327483
Si Si2 0.836191 0.144403 0.854731
Si Si3 0.922363 0.801867 0.723689
Si Si4 0.588870 0.500000 0.014542
Si Si5 0.000000 0.770054 0.500000
Si Si6 0.946893 0.421841 0.058863
Si Si7 0.577355 0.178079 0.407208
Si Si8 0.938420 0.000000 0.540295
O O1 0.825476 0.822901 0.477793
O O2 0.882146 0.820093 0.331022
O O3 0.667588 0.872586 0.087966
O O4 0.855997 0.935831 0.424543
O O5 0.880907 0.165907 0.787320
O O6 0.701214 0.173199 0.672122
O O7 0.825975 0.064640 0.850462
O O8 0.938390 0.173322 0.100593
O O9 0.914133 0.721003 0.708140
O O10 0.500000 0.500000 0.000000
O O11 0.525733 0.500000 0.787815
O O12 0.012419 0.721294 0.637564
O O13 0.918695 0.500000 0.043255
O O14 0.000000 0.413631 0.000000
O O15 0.037472 0.395518 0.301621
O O16 0.000000 0.000000 0.500000
#
# Coordination Sequence:
#
# PCOD8111002 Si02
#       8
#     8   8   8   4   4   8   8   4
#     4  11  21  44  66 100 133 179 232 286 335 414
#     4  11  22  40  67  99 136 176 226 288 351 410
#     4  10  22  38  67 100 132 175 230 285 352 400
#     4  12  22  42  69 107 143 183 238 303 353 417
#     4  10  26  47  69  94 128 184 236 290 328 398
#     4  11  26  44  69 103 140 180 221 280 357 430
#     4  11  26  44  65  96 139 183 228 279 349 421
#     4  12  22  40  66 104 144 180 242 286 358 410
#
# _framework density 21.850020000000001
#
# number of rings (size 3 to 8) (size 9 to 14) (size 15 to 20)
#    0.000    1.077    4.615    1.385    7.538    0.615 
#    5.538    0.385    0.000    0.000    0.000    0.000 
#    0.000    0.000    0.000    0.000    0.000    0.000 
#
# Total GULP energy -322118.042218 kJ/mol
# GULP energy per Si atom -12389.155470 kJ/mol
# Density = 2.180029 g / cm^3
# Si number density = 21.850020 Si / 1000 Ang^3
#
#
#
# Elastic Constant Matrix: (Units=GPa)
#
#
# Indices 1 2 3 4 5 6 
#
# 1 79.2675 31.2050 26.5748 0.0000 -0.5905 0.0000
# 2 31.2050 130.1463 40.2161 0.0000 3.5575 0.0000
# 3 26.5748 40.2161 98.0813 0.0000 10.1305 0.0000
# 4 0.0000 0.0000 0.0000 43.7389 0.0000 -9.8544
# 5 -0.5905 3.5575 10.1305 0.0000 30.9845 0.0000
# 6 0.0000 0.0000 0.0000 -9.8544 0.0000 58.1093
#
#
#
# Elastic Compliance Matrix: (Units=1/GPa)
#
#
# Indices 1 2 3 4 5 6 
#
# 1 0.014686 -0.002616 -0.003070 0.000000 0.001584 0.000000
# 2 -0.002616 0.009265 -0.003079 0.000000 -0.000107 0.000000
# 3 -0.003070 -0.003079 0.012688 0.000000 -0.003853 0.000000
# 4 0.000000 0.000000 0.000000 0.023771 0.000000 0.004031
# 5 0.001584 -0.000107 -0.003853 0.000000 0.033577 0.000000
# 6 0.000000 0.000000 0.000000 0.004031 0.000000 0.017893
#
#
# Mechanical properties :
#
#
# Convention : Reuss Voigt Hill
#
# Bulk Modulus (GPa) = 52.33132 55.94300 54.13716
# Shear Modulus (GPa) = 36.82412 40.53316 38.67864
#
# Velocity S-wave (km/s) = 4.10971 4.31172 4.21192
# Velocity P-wave (km/s) = 6.82069 7.10258 6.96306
#
# Compressibility (1/GPa) = 0.01910902
#
# Stress axis : x y z
#
# Youngs Moduli (GPa) = 68.09000 107.92962 78.81419
#
# Poissons Ratio (x) = 0.28234 0.24198
# Poissons Ratio (y) = 0.17812 0.24269
# Poissons Ratio (z) = 0.20905 0.33234
#
# Static dielectric constant tensor:
#      x y z
#    x 3.046180 0.000000 1.394960 
#    y 0.000000 4.190610 0.000000 
#    z 1.394960 0.000000 1.904820 
# 
# 
# High freq. dielectric constant tensor:
#      x y z
#    x 1.835240 0.000000 -0.000190 
#    y 0.000000 1.882510 0.000000 
#    z -0.000190 0.000000 1.853880 
# 
# From -- ./inp_files/169905.got.cif
#   From: 2010.06.25/outbox.cif.g09.slc.cpg/sg12_85_cif.got.tgz:169905.got - 2010.06.28 00:19:55.
