data_PCOD8111983
_publ_section_title
;
Structure prediction by ZEFSAII (Michael W. Deem and Ramdas Pophale) SiO2 
 PCOD8111983
Probable space group: C 2/M
;
_chemical_formula_sum "Si O2"
_cell_formula_units_Z 40
_cell_length_a 27.028569
_cell_length_b 8.311230
_cell_length_c 25.660605
_cell_angle_alpha 90.000000
_cell_angle_beta 18.988576
_cell_angle_gamma 90.000000
_cell_volume 1875.623213
_symmetry_space_group_name_H-M "C 2/M"
_symmetry_group_IT_number 12
_symmetry_cell_setting 'monoclinic'
loop_
_space_group_symop_operation_xyz
x,y,z
-x,y,-z
-x,-y,-z
x,-y,z
1/2+x,1/2+y,z
1/2-x,1/2+y,-z
1/2-x,1/2-y,-z
1/2+x,1/2-y,z
loop_
_atom_site_type_symbol
_atom_site_label
_atom_site_fract_x
_atom_site_fract_y
_atom_site_fract_z
Si Si1 0.155824 0.314269 0.142111
Si Si2 0.823911 0.812288 0.673188
Si Si3 0.651483 0.683232 0.747737
Si Si4 0.175276 0.684604 0.929809
Si Si5 0.675469 0.313533 0.521902
O O1 0.113325 0.500000 0.175773
O O2 0.255671 0.296818 0.094459
O O3 0.004514 0.209672 0.297300
O O4 0.250000 0.250000 0.000000
O O5 0.747187 0.710440 0.704387
O O6 0.746279 0.761219 0.804405
O O7 0.000000 0.766204 0.500000
O O8 0.800343 0.000000 0.684541
O O9 0.595290 0.500000 0.801980
O O10 0.758071 0.715817 0.592476
O O11 0.505783 0.798036 0.891835
O O12 0.216539 0.500000 0.900944
O O13 0.713796 0.500000 0.476349
O O14 0.750000 0.250000 0.500000
#
# Coordination Sequence:
#
# PCOD8111983 Si02
#       5
#     8   8   8   8   8
#     4  12  25  43  66  95 129 165 208 256 311 371
#     4  10  22  41  65  92 124 164 210 260 315 374
#     4  12  25  41  63  93 128 166 210 260 314 371
#     4  11  23  41  65  93 127 168 212 258 312 371
#     4  12  25  44  67  93 126 164 209 259 314 372
#
# _framework density 21.326243999999999
#
# number of rings (size 3 to 8) (size 9 to 14) (size 15 to 20)
#    0.000    0.600    0.000    9.000    0.000    6.000 
#    0.000    0.000    0.000    0.000    0.000    0.000 
#    0.000    0.000    0.000    0.000    0.000    0.000 
#
# Total GULP energy -248204.459503 kJ/mol
# GULP energy per Si atom -12410.222975 kJ/mol
# Density = 2.127770 g / cm^3
# Si number density = 21.326244 Si / 1000 Ang^3
#
#
#
# Elastic Constant Matrix: (Units=GPa)
#
#
# Indices 1 2 3 4 5 6 
#
# 1 153.4822 30.8329 58.1458 -0.0006 8.8961 -0.0030
# 2 30.8329 87.6570 2.4888 -0.0168 3.1005 0.0109
# 3 58.1458 2.4888 143.8142 -0.0151 8.9753 0.0034
# 4 -0.0006 -0.0168 -0.0151 30.7505 -0.0001 -5.4473
# 5 8.8961 3.1005 8.9753 -0.0001 43.6866 0.0034
# 6 -0.0030 0.0109 0.0034 -5.4473 0.0034 35.4262
#
#
#
# Elastic Compliance Matrix: (Units=1/GPa)
#
#
# Indices 1 2 3 4 5 6 
#
# 1 0.008375 -0.002823 -0.003286 -0.000003 -0.000830 0.000002
# 2 -0.002823 0.012392 0.000958 0.000007 -0.000501 -0.000003
# 3 -0.003286 0.000958 0.008335 0.000004 -0.001111 -0.000001
# 4 -0.000003 0.000007 0.000004 0.033430 -0.000001 0.005140
# 5 -0.000830 -0.000501 -0.001111 -0.000001 0.023323 -0.000002
# 6 0.000002 -0.000003 -0.000001 0.005140 -0.000002 0.029018
#
#
# Mechanical properties :
#
#
# Convention : Reuss Voigt Hill
#
# Bulk Modulus (GPa) = 53.18999 63.09873 58.14436
# Shear Modulus (GPa) = 38.03968 41.53837 39.78903
#
# Velocity S-wave (km/s) = 4.22797 4.41813 4.32410
# Velocity P-wave (km/s) = 6.98782 7.46177 7.22868
#
# Compressibility (1/GPa) = 0.01880053
#
# Stress axis : x y z
#
# Youngs Moduli (GPa) = 119.39647 80.69890 119.98166
#
# Poissons Ratio (x) = 0.22784 0.39422
# Poissons Ratio (y) = 0.33710 -0.11499
# Poissons Ratio (z) = 0.39229 -0.07734
#
# Static dielectric constant tensor:
#      x y z
#    x 3.970200 -0.000010 0.085990 
#    y -0.000010 3.759690 0.000020 
#    z 0.085990 0.000020 3.929410 
# 
# 
# High freq. dielectric constant tensor:
#      x y z
#    x 1.853740 0.000000 0.003050 
#    y 0.000000 1.842330 0.000000 
#    z 0.003050 0.000000 1.853340 
# 
# From -- ./inp_files/368799.got.cif
#   From: 2010.06.25/outbox.cif.g09.slc.cpg/sg12_185_cif.got.tgz:368799.got - 2010.06.28 00:19:55.
