data_PCOD8111005
_publ_section_title
;
Structure prediction by ZEFSAII (Michael W. Deem and Ramdas Pophale) SiO2 
 PCOD8111005
Probable space group: C 2/M
;
_chemical_formula_sum "Si O2"
_cell_formula_units_Z 44
_cell_length_a 22.790293
_cell_length_b 13.256978
_cell_length_c 11.046737
_cell_angle_alpha 90.000000
_cell_angle_beta 40.439675
_cell_angle_gamma 90.000000
_cell_volume 2164.895442
_symmetry_space_group_name_H-M "C 2/M"
_symmetry_group_IT_number 12
_symmetry_cell_setting 'monoclinic'
loop_
_space_group_symop_operation_xyz
x,y,z
-x,y,-z
-x,-y,-z
x,-y,z
1/2+x,1/2+y,z
1/2-x,1/2+y,-z
1/2-x,1/2-y,-z
1/2+x,1/2-y,z
loop_
_atom_site_type_symbol
_atom_site_label
_atom_site_fract_x
_atom_site_fract_y
_atom_site_fract_z
Si Si1 0.650529 0.289000 0.635522
Si Si2 0.323291 0.294641 0.667976
Si Si3 0.077338 0.000000 0.478766
Si Si4 0.000000 0.334699 0.000000
Si Si5 0.360707 0.890260 0.031601
Si Si6 0.898593 0.615483 0.697510
Si Si7 0.425094 0.500000 0.229114
O O1 0.750000 0.250000 0.500000
O O2 0.625818 0.266861 0.535399
O O3 0.578744 0.233459 0.827439
O O4 0.642059 0.406416 0.682467
O O5 0.364787 0.400486 0.647860
O O6 0.215623 0.309228 0.811101
O O7 0.333457 0.199368 0.740947
O O8 0.042092 0.000000 0.677652
O O9 0.000000 0.000000 0.500000
O O10 0.950531 0.397781 0.973696
O O11 0.314161 0.000000 0.110909
O O12 0.394944 0.865401 0.844913
O O13 0.869885 0.500000 0.707771
O O14 0.000000 0.638318 0.500000
O O15 0.500000 0.500000 0.000000
#
# Coordination Sequence:
#
# PCOD8111005 Si02
#       7
#     8   8   4   4   8   8   4
#     4  11  23  42  65  96 132 172 222 274 336 400
#     4  11  21  41  65  94 130 167 216 277 330 394
#     4  10  22  38  68  98 129 171 223 273 342 400
#     4  12  23  39  66  94 130 176 221 267 338 402
#     4  11  23  41  63  92 128 170 218 271 329 402
#     4  10  22  41  64  91 129 169 213 268 329 397
#     4  10  22  44  68  92 140 181 221 282 342 402
#
# _framework density 20.324307999999998
#
# number of rings (size 3 to 8) (size 9 to 14) (size 15 to 20)
#    0.000    1.273    3.636    2.455    0.000    1.455 
#    3.273    0.000    2.000    0.000    0.000    0.000 
#    0.000    0.000    0.000    0.000    0.000    0.000 
#
# Total GULP energy -272558.281680 kJ/mol
# GULP energy per Si atom -12389.012804 kJ/mol
# Density = 2.027805 g / cm^3
# Si number density = 20.324308 Si / 1000 Ang^3
#
#
#
# Elastic Constant Matrix: (Units=GPa)
#
#
# Indices 1 2 3 4 5 6 
#
# 1 120.0024 62.9496 45.7895 0.0000 -6.8574 0.0000
# 2 62.9496 124.0219 49.2917 0.0000 2.0199 0.0000
# 3 45.7895 49.2917 115.2200 0.0000 -2.1528 0.0000
# 4 0.0000 0.0000 0.0000 -14.5530 0.0000 -34.7717
# 5 -6.8574 2.0199 -2.1528 0.0000 35.1714 0.0000
# 6 0.0000 0.0000 0.0000 -34.7717 0.0000 18.3321
#
#
#
# Elastic Compliance Matrix: (Units=1/GPa)
#
#
# Indices 1 2 3 4 5 6 
#
# 1 0.012189 -0.005206 -0.002570 0.000000 0.002518 0.000000
# 2 -0.005206 0.011962 -0.003084 0.000000 -0.001891 0.000000
# 3 -0.002570 -0.003084 0.011026 0.000000 0.000351 0.000000
# 4 0.000000 0.000000 0.000000 -0.012421 0.000000 -0.023560
# 5 0.002518 -0.001891 0.000351 0.000000 0.029053 0.000000
# 6 0.000000 0.000000 0.000000 -0.023560 0.000000 0.009861
#
#
# Mechanical properties :
#
#
# Convention : Reuss Voigt Hill
#
# Bulk Modulus (GPa) = 74.30787 75.03399 74.67093
# Shear Modulus (GPa) = 56.89950 21.20433 39.05192
#
# Velocity S-wave (km/s) = 5.29684 3.23352 4.38818
# Velocity P-wave (km/s) = 8.60518 7.13718 7.90533
#
# Compressibility (1/GPa) = 0.01345752
#
# Stress axis : x y z
#
# Youngs Moduli (GPa) = 82.04393 83.59759 90.69481
#
# Poissons Ratio (x) = 0.43524 0.23304
# Poissons Ratio (y) = 0.42715 0.27968
# Poissons Ratio (z) = 0.21081 0.25779
#
# Static dielectric constant tensor:
#      x y z
#    x 3.685650 0.000000 0.235740 
#    y 0.000000 3.852850 0.000000 
#    z 0.235740 0.000000 3.874160 
# 
# 
# High freq. dielectric constant tensor:
#      x y z
#    x 1.787010 0.000000 0.011050 
#    y 0.000000 1.802830 0.000000 
#    z 0.011050 0.000000 1.805910 
# 
# From -- ./inp_files/175137.got.cif
#   From: 2010.06.25/outbox.cif.g09.slc.cpg/sg12_88_cif.got.tgz:175137.got - 2010.06.28 00:19:55.
