data_PCOD8111453
_publ_section_title
;
Structure prediction by ZEFSAII (Michael W. Deem and Ramdas Pophale) SiO2 
 PCOD8111453
Probable space group: C 2/M
;
_chemical_formula_sum "Si O2"
_cell_formula_units_Z 56
_cell_length_a 27.587261
_cell_length_b 8.898966
_cell_length_c 19.011655
_cell_angle_alpha 90.000000
_cell_angle_beta 35.476768
_cell_angle_gamma 90.000000
_cell_volume 2708.788579
_symmetry_space_group_name_H-M "C 2/M"
_symmetry_group_IT_number 12
_symmetry_cell_setting 'monoclinic'
loop_
_space_group_symop_operation_xyz
x,y,z
-x,y,-z
-x,-y,-z
x,-y,z
1/2+x,1/2+y,z
1/2-x,1/2+y,-z
1/2-x,1/2-y,-z
1/2+x,1/2-y,z
loop_
_atom_site_type_symbol
_atom_site_label
_atom_site_fract_x
_atom_site_fract_y
_atom_site_fract_z
Si Si1 0.223100 0.824573 0.105022
Si Si2 0.595988 0.322067 0.372538
Si Si3 0.874771 0.830784 0.168409
Si Si4 0.328639 0.674839 0.444451
Si Si5 0.869653 0.667380 0.034134
Si Si6 0.680926 0.828436 0.403472
Si Si7 0.447207 0.167401 0.207314
O O1 0.134932 0.776938 0.248911
O O2 0.220748 0.000000 0.092407
O O3 0.250000 0.750000 0.000000
O O4 0.295720 0.777364 0.072222
O O5 0.500000 0.267466 0.500000
O O6 0.601424 0.500000 0.374920
O O7 0.655217 0.250036 0.361439
O O8 0.778776 0.817066 0.303582
O O9 0.931110 0.714640 0.145538
O O10 0.907644 0.000000 0.140948
O O11 0.881938 0.790301 0.078953
O O12 0.310708 0.500000 0.474557
O O13 0.250000 0.750000 0.500000
O O14 0.358019 0.743569 0.484005
O O15 0.407188 0.703920 0.302036
O O16 0.849768 0.500000 0.087902
O O17 0.955287 0.662885 0.889188
O O18 0.649856 0.000000 0.437817
O O19 0.408947 0.000000 0.264972
#
# Coordination Sequence:
#
# PCOD8111453 Si02
#       7
#     8   8   8   8   8   8   8
#     4  10  22  41  65  91 124 160 203 257 315 376
#     4  10  22  42  68  96 124 159 209 265 321 380
#     4  11  22  36  59  89 121 159 205 250 300 359
#     4  12  24  39  60  86 121 164 206 253 305 362
#     4  10  22  40  61  87 120 162 205 249 306 367
#     4  11  23  39  62  91 122 160 203 249 305 369
#     4  11  23  38  59  88 124 164 207 251 302 366
#
# _framework density 20.673448
#
# number of rings (size 3 to 8) (size 9 to 14) (size 15 to 20)
#    0.000    1.286    2.857    3.000    0.000    6.571 
#    0.000    2.857    0.000    0.000    0.000    0.000 
#    0.000    0.000    0.000    0.000    0.000    0.000 
#
# Total GULP energy -347072.387379 kJ/mol
# GULP energy per Si atom -12395.442406 kJ/mol
# Density = 2.062639 g / cm^3
# Si number density = 20.673448 Si / 1000 Ang^3
#
#
#
# Elastic Constant Matrix: (Units=GPa)
#
#
# Indices 1 2 3 4 5 6 
#
# 1 67.1447 26.6285 51.1949 0.0008 7.6337 -0.0026
# 2 26.6285 75.5507 34.9929 -0.0007 3.5470 -0.0006
# 3 51.1949 34.9929 128.5119 -0.0117 9.5721 0.0045
# 4 0.0008 -0.0007 -0.0117 32.9490 0.0018 7.3716
# 5 7.6337 3.5470 9.5721 0.0018 38.0683 0.0001
# 6 -0.0026 -0.0006 0.0045 7.3716 0.0001 28.8781
#
#
#
# Elastic Compliance Matrix: (Units=1/GPa)
#
#
# Indices 1 2 3 4 5 6 
#
# 1 0.022749 -0.004340 -0.007716 -0.000004 -0.002217 0.000004
# 2 -0.004340 0.015980 -0.002625 -0.000001 0.000042 0.000001
# 3 -0.007716 -0.002625 0.011655 0.000005 -0.001139 -0.000004
# 4 -0.000004 -0.000001 0.000005 0.032188 -0.000002 -0.008216
# 5 -0.002217 0.000042 -0.001139 -0.000002 0.026996 0.000000
# 6 0.000004 0.000001 -0.000004 -0.008216 0.000000 0.036726
#
#
# Mechanical properties :
#
#
# Convention : Reuss Voigt Hill
#
# Bulk Modulus (GPa) = 47.57036 55.20443 51.38740
# Shear Modulus (GPa) = 27.37275 30.53849 28.95562
#
# Velocity S-wave (km/s) = 3.64270 3.84758 3.74654
# Velocity P-wave (km/s) = 6.38378 6.81906 6.60501
#
# Compressibility (1/GPa) = 0.02102149
#
# Stress axis : x y z
#
# Youngs Moduli (GPa) = 43.95702 62.57839 85.80255
#
# Poissons Ratio (x) = 0.27162 0.66202
# Poissons Ratio (y) = 0.19080 0.22525
# Poissons Ratio (z) = 0.33915 0.16428
#
# Static dielectric constant tensor:
#      x y z
#    x 3.663660 -0.000010 -0.099830 
#    y -0.000010 3.936140 0.000020 
#    z -0.099830 0.000020 4.074150 
# 
# 
# High freq. dielectric constant tensor:
#      x y z
#    x 1.795020 0.000000 0.000100 
#    y 0.000000 1.809360 0.000000 
#    z 0.000100 0.000000 1.820070 
# 
# From -- ./inp_files/292384.got.cif
#   From: 2010.06.25/outbox.cif.g09.slc.cpg/sg12_147_cif.got.tgz:292384.got - 2010.06.28 00:19:55.
