data_PCOD8111298
_publ_section_title
;
Structure prediction by ZEFSAII (Michael W. Deem and Ramdas Pophale) SiO2 
 PCOD8111298
Probable space group: C 2/M
;
_chemical_formula_sum "Si O2"
_cell_formula_units_Z 40
_cell_length_a 13.510858
_cell_length_b 13.283737
_cell_length_c 9.772959
_cell_angle_alpha 90.000000
_cell_angle_beta 80.911063
_cell_angle_gamma 90.000000
_cell_volume 1731.976096
_symmetry_space_group_name_H-M "C 2/M"
_symmetry_group_IT_number 12
_symmetry_cell_setting 'monoclinic'
loop_
_space_group_symop_operation_xyz
x,y,z
-x,y,-z
-x,-y,-z
x,-y,z
1/2+x,1/2+y,z
1/2-x,1/2+y,-z
1/2-x,1/2-y,-z
1/2+x,1/2-y,z
loop_
_atom_site_type_symbol
_atom_site_label
_atom_site_fract_x
_atom_site_fract_y
_atom_site_fract_z
Si Si1 0.922281 0.305593 0.252696
Si Si2 0.851228 0.302018 0.808530
Si Si3 0.807263 0.613211 0.532640
Si Si4 0.258501 0.116120 0.085470
Si Si5 0.416847 0.614024 0.409380
O O1 0.885981 0.357534 0.399998
O O2 0.855881 0.340262 0.140896
O O3 0.921151 0.184741 0.274543
O O4 0.035288 0.338545 0.195890
O O5 0.817505 0.313629 0.659487
O O6 0.837090 0.183742 0.850686
O O7 0.780586 0.371472 0.919467
O O8 0.829836 0.500000 0.575820
O O9 0.693927 0.623349 0.498787
O O10 0.237307 0.000000 0.127919
O O11 0.500000 0.650803 0.500000
O O12 0.438962 0.500000 0.357197
#
# Coordination Sequence:
#
# PCOD8111298 Si02
#       5
#     8   8   8   8   8
#     4  12  24  42  68 102 135 175 225 281 339 402
#     4  11  25  45  69  99 136 179 229 278 334 403
#     4  11  23  41  68 101 136 176 226 282 338 402
#     4  11  26  47  71  98 138 184 226 276 338 406
#     4  10  22  39  64  98 139 180 220 276 344 401
#
# _framework density 23.095006999999999
#
# number of rings (size 3 to 8) (size 9 to 14) (size 15 to 20)
#    0.000    1.000    2.000    4.200    2.800    5.600 
#    0.000    0.000    0.000    3.600    0.000    0.000 
#    0.000    0.000    0.000    0.000    0.000    0.000 
#
# Total GULP energy -248067.052405 kJ/mol
# GULP energy per Si atom -12403.352620 kJ/mol
# Density = 2.304244 g / cm^3
# Si number density = 23.095007 Si / 1000 Ang^3
#
#
#
# Elastic Constant Matrix: (Units=GPa)
#
#
# Indices 1 2 3 4 5 6 
#
# 1 108.6866 17.2531 32.4454 0.0000 -10.7657 0.0000
# 2 17.2531 124.0023 22.8714 0.0000 -4.2298 0.0000
# 3 32.4454 22.8714 95.1825 0.0000 -9.5386 0.0000
# 4 0.0000 0.0000 0.0000 25.4656 0.0000 6.1008
# 5 -10.7657 -4.2298 -9.5386 0.0000 33.2424 0.0000
# 6 0.0000 0.0000 0.0000 6.1008 0.0000 28.6749
#
#
#
# Elastic Compliance Matrix: (Units=1/GPa)
#
#
# Indices 1 2 3 4 5 6 
#
# 1 0.010505 -0.000799 -0.003149 0.000000 0.002397 0.000000
# 2 -0.000799 0.008507 -0.001739 0.000000 0.000325 0.000000
# 3 -0.003149 -0.001739 0.012225 0.000000 0.002267 0.000000
# 4 0.000000 0.000000 0.000000 0.041378 0.000000 -0.008803
# 5 0.002397 0.000325 0.002267 0.000000 0.031550 0.000000
# 6 0.000000 0.000000 0.000000 -0.008803 0.000000 0.036747
#
#
# Mechanical properties :
#
#
# Convention : Reuss Voigt Hill
#
# Bulk Modulus (GPa) = 50.34549 52.55681 51.45115
# Shear Modulus (GPa) = 31.46505 34.49667 32.98086
#
# Velocity S-wave (km/s) = 3.69510 3.86902 3.78306
# Velocity P-wave (km/s) = 6.32864 6.53951 6.43494
#
# Compressibility (1/GPa) = 0.01986275
#
# Stress axis : x y z
#
# Youngs Moduli (GPa) = 95.19287 117.54428 81.80264
#
# Poissons Ratio (x) = 0.09393 0.25757
# Poissons Ratio (y) = 0.07607 0.14228
# Poissons Ratio (z) = 0.29973 0.20445
#
# Static dielectric constant tensor:
#      x y z
#    x 4.276320 0.000000 -0.056350 
#    y 0.000000 4.382570 0.000000 
#    z -0.056350 0.000000 3.972010 
# 
# 
# High freq. dielectric constant tensor:
#      x y z
#    x 1.916700 0.000000 -0.004850 
#    y 0.000000 1.919660 0.000000 
#    z -0.004850 0.000000 1.901500 
# 
# From -- ./inp_files/58968.got.cif
#   From: 2010.06.25/outbox.cif.g09.slc.cpg/sg12_30_cif.got.tgz:58968.got - 2010.06.28 00:19:55.
