data_PCOD8111418
_publ_section_title
;
Structure prediction by ZEFSAII (Michael W. Deem and Ramdas Pophale) SiO2 
 PCOD8111418
Probable space group: C 2/M
;
_chemical_formula_sum "Si O2"
_cell_formula_units_Z 56
_cell_length_a 18.695635
_cell_length_b 14.886563
_cell_length_c 13.260133
_cell_angle_alpha 90.000000
_cell_angle_beta 43.795856
_cell_angle_gamma 90.000000
_cell_volume 2554.146025
_symmetry_space_group_name_H-M "C 2/M"
_symmetry_group_IT_number 12
_symmetry_cell_setting 'monoclinic'
loop_
_space_group_symop_operation_xyz
x,y,z
-x,y,-z
-x,-y,-z
x,-y,z
1/2+x,1/2+y,z
1/2-x,1/2+y,-z
1/2-x,1/2-y,-z
1/2+x,1/2-y,z
loop_
_atom_site_type_symbol
_atom_site_label
_atom_site_fract_x
_atom_site_fract_y
_atom_site_fract_z
Si Si1 0.044813 0.892915 0.740665
Si Si2 0.745431 0.659283 0.063683
Si Si3 0.243290 0.105897 0.665784
Si Si4 0.463417 0.716582 0.648851
Si Si5 0.545324 0.102784 0.056390
Si Si6 0.039506 0.604397 0.644228
Si Si7 0.164313 0.098435 0.952886
O O1 0.148732 0.864931 0.691658
O O2 0.043979 0.836358 0.638517
O O3 0.037334 0.000000 0.727480
O O4 0.946477 0.857068 0.906758
O O5 0.645852 0.664879 0.236317
O O6 0.750000 0.750000 0.000000
O O7 0.846164 0.648314 0.028126
O O8 0.732954 0.587558 0.985167
O O9 0.350604 0.140543 0.509123
O O10 0.223634 0.147197 0.798869
O O11 0.254037 0.000000 0.658960
O O12 0.500000 0.704709 0.500000
O O13 0.456440 0.823847 0.684456
O O14 0.463370 0.112060 0.231193
O O15 0.572185 0.000000 0.007063
O O16 0.500000 0.146864 0.000000
O O17 0.014451 0.500000 0.637558
O O18 0.138608 0.000000 0.936835
#
# Coordination Sequence:
#
# PCOD8111418 Si02
#       7
#     8   8   8   8   8   8   8
#     4   9  19  38  60  88 128 168 213 262 306 373
#     4  11  22  40  59  88 125 161 206 259 303 374
#     4   9  18  34  61  93 126 163 205 256 322 381
#     4  11  25  41  60  91 126 163 215 263 316 380
#     4  10  22  43  69  93 123 167 214 260 315 383
#     4  10  22  40  60  90 127 161 208 266 320 374
#     4   9  18  34  59  89 120 161 207 256 312 371
#
# _framework density 21.925138
#
# number of rings (size 3 to 8) (size 9 to 14) (size 15 to 20)
#    0.000    2.143    1.429    0.857    2.000    4.571 
#    2.571    1.429    0.000    0.000    0.000    0.000 
#    0.000    0.571    0.000    0.000    0.000    0.000 
#
# Total GULP energy -346958.716247 kJ/mol
# GULP energy per Si atom -12391.382723 kJ/mol
# Density = 2.187524 g / cm^3
# Si number density = 21.925138 Si / 1000 Ang^3
#
#
#
# Elastic Constant Matrix: (Units=GPa)
#
#
# Indices 1 2 3 4 5 6 
#
# 1 152.9022 34.4247 77.6649 0.0000 4.2132 0.0000
# 2 34.4247 60.4313 39.6341 0.0000 5.5486 0.0000
# 3 77.6649 39.6341 157.1633 0.0000 23.9741 0.0000
# 4 0.0000 0.0000 0.0000 25.0616 0.0000 0.0687
# 5 4.2132 5.5486 23.9741 0.0000 32.7279 0.0000
# 6 0.0000 0.0000 0.0000 0.0687 0.0000 24.5259
#
#
#
# Elastic Compliance Matrix: (Units=1/GPa)
#
#
# Indices 1 2 3 4 5 6 
#
# 1 0.009240 -0.002695 -0.004249 0.000000 0.002380 0.000000
# 2 -0.002695 0.020616 -0.003813 0.000000 -0.000355 0.000000
# 3 -0.004249 -0.003813 0.010405 0.000000 -0.006428 0.000000
# 4 0.000000 0.000000 0.000000 0.039902 0.000000 -0.000112
# 5 0.002380 -0.000355 -0.006428 0.000000 0.035018 0.000000
# 6 0.000000 0.000000 0.000000 -0.000112 0.000000 0.040774
#
#
# Mechanical properties :
#
#
# Convention : Reuss Voigt Hill
#
# Bulk Modulus (GPa) = 53.34499 74.88267 64.11383
# Shear Modulus (GPa) = 27.21559 31.04796 29.13178
#
# Velocity S-wave (km/s) = 3.52703 3.76718 3.64908
# Velocity P-wave (km/s) = 6.40077 7.29041 6.86003
#
# Compressibility (1/GPa) = 0.01874590
#
# Stress axis : x y z
#
# Youngs Moduli (GPa) = 108.22816 48.50507 96.10787
#
# Poissons Ratio (x) = 0.13072 0.40840
# Poissons Ratio (y) = 0.29167 0.36648
# Poissons Ratio (z) = 0.45991 0.18496
#
# Static dielectric constant tensor:
#      x y z
#    x 4.005320 0.000000 -0.601800 
#    y 0.000000 10.579690 0.000000 
#    z -0.601800 0.000000 4.810540 
# 
# 
# High freq. dielectric constant tensor:
#      x y z
#    x 1.851460 0.000000 0.000320 
#    y 0.000000 1.848900 0.000000 
#    z 0.000320 0.000000 1.871270 
# 
# From -- ./inp_files/158191.got.cif
#   From: 2010.06.25/outbox.cif.g09.slc.cpg/sg12_80_cif.got.tgz:158191.got - 2010.06.28 00:19:55.
