data_PCOD8111619
_publ_section_title
;
Structure prediction by ZEFSAII (Michael W. Deem and Ramdas Pophale) SiO2 
 PCOD8111619
Probable space group: C 2/M
;
_chemical_formula_sum "Si O2"
_cell_formula_units_Z 48
_cell_length_a 10.288224
_cell_length_b 29.070711
_cell_length_c 8.967131
_cell_angle_alpha 90.000000
_cell_angle_beta 52.874512
_cell_angle_gamma 90.000000
_cell_volume 2138.354936
_symmetry_space_group_name_H-M "C 2/M"
_symmetry_group_IT_number 12
_symmetry_cell_setting 'monoclinic'
loop_
_space_group_symop_operation_xyz
x,y,z
-x,y,-z
-x,-y,-z
x,-y,z
1/2+x,1/2+y,z
1/2-x,1/2+y,-z
1/2-x,1/2-y,-z
1/2+x,1/2-y,z
loop_
_atom_site_type_symbol
_atom_site_label
_atom_site_fract_x
_atom_site_fract_y
_atom_site_fract_z
Si Si1 0.008120 0.758761 0.663305
Si Si2 0.331404 0.299128 0.026759
Si Si3 0.855180 0.378273 0.998096
Si Si4 0.080751 0.412725 0.587540
Si Si5 0.776204 0.684316 0.588318
Si Si6 0.316849 0.552544 0.659411
O O1 0.113523 0.712420 0.606125
O O2 0.091705 0.805218 0.673454
O O3 0.000000 0.774148 0.500000
O O4 0.856143 0.756265 0.887326
O O5 0.500000 0.309197 0.000000
O O6 0.277549 0.341145 0.959519
O O7 0.195585 0.294778 0.259066
O O8 0.933266 0.401049 0.799082
O O9 0.762088 0.417014 0.156954
O O10 0.000000 0.356407 0.000000
O O11 0.174566 0.368270 0.455183
O O12 0.213285 0.444108 0.577919
O O13 0.000000 0.438138 0.500000
O O14 0.500000 0.569422 0.500000
O O15 0.315740 0.500000 0.715411
#
# Coordination Sequence:
#
# PCOD8111619 Si02
#       6
#     8   8   8   8   8   8
#     4  10  23  37  60  89 123 181 221 282 311 376
#     4  10  22  40  64  90 126 178 220 276 319 377
#     4  10  23  39  66  98 127 169 211 269 320 390
#     4  11  22  40  69  96 130 175 209 270 320 388
#     4  10  22  42  57  90 134 167 226 270 326 370
#     4  10  25  46  69  99 133 166 207 264 324 397
#
# _framework density 22.447161999999999
#
# number of rings (size 3 to 8) (size 9 to 14) (size 15 to 20)
#    0.000    1.833    1.667    0.500    9.333    4.000 
#    0.000    4.167    0.000    2.500    0.000    0.000 
#    0.000    0.000    0.000    0.000    0.000    0.000 
#
# Total GULP energy -297364.427388 kJ/mol
# GULP energy per Si atom -12390.184474 kJ/mol
# Density = 2.239607 g / cm^3
# Si number density = 22.447162 Si / 1000 Ang^3
#
#
#
# Elastic Constant Matrix: (Units=GPa)
#
#
# Indices 1 2 3 4 5 6 
#
# 1 81.5997 7.6524 61.4769 0.0000 10.9934 0.0000
# 2 7.6524 64.2435 48.4689 0.0000 1.4251 0.0000
# 3 61.4769 48.4689 163.4435 0.0000 5.3141 0.0000
# 4 0.0000 0.0000 0.0000 20.8849 0.0000 12.6754
# 5 10.9934 1.4251 5.3141 0.0000 39.2246 0.0000
# 6 0.0000 0.0000 0.0000 12.6754 0.0000 18.6570
#
#
#
# Elastic Compliance Matrix: (Units=1/GPa)
#
#
# Indices 1 2 3 4 5 6 
#
# 1 0.018459 0.003903 -0.007963 0.000000 -0.004236 0.000000
# 2 0.003903 0.020877 -0.007632 0.000000 -0.000818 0.000000
# 3 -0.007963 -0.007632 0.011345 0.000000 0.000972 0.000000
# 4 0.000000 0.000000 0.000000 0.081477 0.000000 -0.055355
# 5 -0.004236 -0.000818 0.000972 0.000000 0.026580 0.000000
# 6 0.000000 0.000000 0.000000 -0.055355 0.000000 0.091207
#
#
# Mechanical properties :
#
#
# Convention : Reuss Voigt Hill
#
# Bulk Modulus (GPa) = 36.63480 60.49812 48.56646
# Shear Modulus (GPa) = 17.70356 28.53253 23.11805
#
# Velocity S-wave (km/s) = 2.81139 3.56911 3.21267
# Velocity P-wave (km/s) = 5.18598 6.63284 5.95353
#
# Compressibility (1/GPa) = 0.02729645
#
# Stress axis : x y z
#
# Youngs Moduli (GPa) = 54.17516 47.89854 88.14366
#
# Poissons Ratio (x) = -0.18693 0.70185
# Poissons Ratio (y) = -0.21143 0.67276
# Poissons Ratio (z) = 0.43137 0.36559
#
# Static dielectric constant tensor:
#      x y z
#    x 4.607720 0.000000 -0.023190 
#    y 0.000000 3.606190 0.000000 
#    z -0.023190 0.000000 4.645640 
# 
# 
# High freq. dielectric constant tensor:
#      x y z
#    x 1.914410 0.000000 -0.007210 
#    y 0.000000 1.845220 0.000000 
#    z -0.007210 0.000000 1.926580 
# 
# From -- ./inp_files/52412.got.cif
#   From: 2010.06.25/outbox.cif.g09.slc.cpg/sg12_27_cif.got.tgz:52412.got - 2010.06.28 00:19:55.
