data_PCOD8111152
_publ_section_title
;
Structure prediction by ZEFSAII (Michael W. Deem and Ramdas Pophale) SiO2 
 PCOD8111152
Probable space group: C 2/M
;
_chemical_formula_sum "Si O2"
_cell_formula_units_Z 48
_cell_length_a 10.101619
_cell_length_b 22.652949
_cell_length_c 11.525580
_cell_angle_alpha 90.000000
_cell_angle_beta 112.708977
_cell_angle_gamma 90.000000
_cell_volume 2432.956575
_symmetry_space_group_name_H-M "C 2/M"
_symmetry_group_IT_number 12
_symmetry_cell_setting 'monoclinic'
loop_
_space_group_symop_operation_xyz
x,y,z
-x,y,-z
-x,-y,-z
x,-y,z
1/2+x,1/2+y,z
1/2-x,1/2+y,-z
1/2-x,1/2-y,-z
1/2+x,1/2-y,z
loop_
_atom_site_type_symbol
_atom_site_label
_atom_site_fract_x
_atom_site_fract_y
_atom_site_fract_z
Si Si1 0.469735 0.146932 0.663585
Si Si2 0.194246 0.000000 0.693223
Si Si3 0.745107 0.281798 0.876784
Si Si4 0.613110 0.098858 0.128443
Si Si5 0.267078 0.879131 0.400160
Si Si6 0.416758 0.272176 0.722225
Si Si7 0.644151 0.500000 0.407121
O O1 0.479509 0.123000 0.796130
O O2 0.627867 0.137786 0.668231
O O3 0.351938 0.112451 0.549109
O O4 0.420023 0.214997 0.640930
O O5 0.266113 0.944175 0.780404
O O6 0.211835 0.000000 0.559779
O O7 0.026121 0.000000 0.657594
O O8 0.814273 0.346244 0.912179
O O9 0.579500 0.291601 0.794202
O O10 0.830141 0.242282 0.811106
O O11 0.750000 0.250000 0.000000
O O12 0.500000 0.068754 0.000000
O O13 0.152072 0.826671 0.370688
O O14 0.194180 0.942313 0.353044
#
# Coordination Sequence:
#
# PCOD8111152 Si02
#       7
#     8   4   8   8   8   8   4
#     4  10  22  39  61 100 125 171 216 271 340 383
#     4  11  23  45  63  98 124 175 228 263 343 382
#     4  11  22  39  63  93 129 172 215 269 337 391
#     4  11  23  41  67  93 131 166 225 269 327 400
#     4  11  22  40  64  92 136 165 222 272 328 402
#     4  11  21  39  61  94 129 170 217 272 329 390
#     4  11  24  42  68  93 135 178 216 279 331 402
#
# _framework density 19.729081999999998
#
# number of rings (size 3 to 8) (size 9 to 14) (size 15 to 20)
#    0.000    1.167    3.333    4.250    0.000    2.000 
#    0.000    0.000    0.000    1.000    0.000    0.000 
#    0.000    0.000    0.000    0.000    0.000    0.000 
#
# Total GULP energy -297532.247920 kJ/mol
# GULP energy per Si atom -12397.176997 kJ/mol
# Density = 1.968418 g / cm^3
# Si number density = 19.729082 Si / 1000 Ang^3
#
#
#
# Elastic Constant Matrix: (Units=GPa)
#
#
# Indices 1 2 3 4 5 6 
#
# 1 125.8376 43.2718 42.6484 0.0000 -4.2346 0.0000
# 2 43.2718 121.3408 21.4583 0.0000 -15.1262 0.0000
# 3 42.6484 21.4583 78.1222 0.0000 -2.5021 0.0000
# 4 0.0000 0.0000 0.0000 -274.9795 0.0000 313.9552
# 5 -4.2346 -15.1262 -2.5021 0.0000 27.9845 0.0000
# 6 0.0000 0.0000 0.0000 313.9552 0.0000 -278.4806
#
#
#
# Elastic Compliance Matrix: (Units=1/GPa)
#
#
# Indices 1 2 3 4 5 6 
#
# 1 0.010651 -0.002967 -0.005014 0.000000 -0.000440 0.000000
# 2 -0.002967 0.010088 -0.000994 0.000000 0.004915 0.000000
# 3 -0.005014 -0.000994 0.015815 0.000000 0.000118 0.000000
# 4 0.000000 0.000000 0.000000 0.012663 0.000000 0.014276
# 5 -0.000440 0.004915 0.000118 0.000000 0.038335 0.000000
# 6 0.000000 0.000000 0.000000 0.014276 0.000000 0.012504
#
#
# Mechanical properties :
#
#
# Convention : Reuss Voigt Hill
#
# Bulk Modulus (GPa) = 53.75059 60.00641 56.87850
# Shear Modulus (GPa) = 40.25575 -90.56699 -25.15562
#
# Velocity S-wave (km/s) = 4.52201 -6.78270 -3.57466
# Velocity P-wave (km/s) = 7.38703 5.55506 3.44307
#
# Compressibility (1/GPa) = 0.01860445
#
# Stress axis : x y z
#
# Youngs Moduli (GPa) = 93.88428 99.13139 63.23309
#
# Poissons Ratio (x) = 0.29408 0.31705
# Poissons Ratio (y) = 0.27852 0.06285
# Poissons Ratio (z) = 0.47074 0.09853
#
# Static dielectric constant tensor:
#      x y z
#    x 3.689890 0.000000 0.066110 
#    y 0.000000 3.675170 0.000000 
#    z 0.066110 0.000000 3.477580 
# 
# 
# High freq. dielectric constant tensor:
#      x y z
#    x 1.779900 0.000000 0.008510 
#    y 0.000000 1.772570 0.000000 
#    z 0.008510 0.000000 1.765380 
# 
# From -- ./inp_files/122602.got.cif
#   From: 2010.06.25/outbox.cif.g09.slc.cpg/sg12_62_cif.got.tgz:122602.got - 2010.06.28 00:19:55.
