data_PCOD8111860
_publ_section_title
;
Structure prediction by ZEFSAII (Michael W. Deem and Ramdas Pophale) SiO2 
 PCOD8111860
Probable space group: C 2/M
;
_chemical_formula_sum "Si O2"
_cell_formula_units_Z 56
_cell_length_a 9.654017
_cell_length_b 14.025944
_cell_length_c 24.513631
_cell_angle_alpha 90.000000
_cell_angle_beta 60.461283
_cell_angle_gamma 90.000000
_cell_volume 2887.875139
_symmetry_space_group_name_H-M "C 2/M"
_symmetry_group_IT_number 12
_symmetry_cell_setting 'monoclinic'
loop_
_space_group_symop_operation_xyz
x,y,z
-x,y,-z
-x,-y,-z
x,-y,z
1/2+x,1/2+y,z
1/2-x,1/2+y,-z
1/2-x,1/2-y,-z
1/2+x,1/2-y,z
loop_
_atom_site_type_symbol
_atom_site_label
_atom_site_fract_x
_atom_site_fract_y
_atom_site_fract_z
Si Si1 0.319843 0.754414 0.045492
Si Si2 0.905330 0.110480 0.849115
Si Si3 0.081232 0.758137 0.252000
Si Si4 0.276790 0.254421 0.661874
Si Si5 0.512454 0.887684 0.560883
Si Si6 0.771994 0.887822 0.148377
Si Si7 0.164203 0.111997 0.442882
O O1 0.243705 0.841246 0.092961
O O2 0.293268 0.655448 0.083631
O O3 0.500000 0.779463 0.000000
O O4 0.250000 0.750000 0.000000
O O5 0.915588 0.148087 0.785666
O O6 0.067408 0.133333 0.849600
O O7 0.869137 0.000000 0.853766
O O8 0.205170 0.769777 0.277133
O O9 0.126120 0.664097 0.207844
O O10 0.910131 0.752975 0.313453
O O11 0.371036 0.161434 0.622430
O O12 0.333297 0.347018 0.618386
O O13 0.500000 0.858183 0.500000
O O14 0.685376 0.854885 0.549678
O O15 0.487838 0.000000 0.573484
O O16 0.734418 0.000000 0.151089
O O17 0.000000 0.150825 0.500000
O O18 0.161658 0.000000 0.437572
#
# Coordination Sequence:
#
# PCOD8111860 Si02
#       7
#     8   8   8   8   8   8   8
#     4  11  22  39  63  96 128 155 198 251 292 347
#     4  10  22  41  63  89 124 163 200 245 299 350
#     4  11  24  40  60  91 120 155 203 255 293 346
#     4  12  23  39  63  88 118 158 202 246 302 360
#     4  10  23  41  61  87 119 156 198 246 304 368
#     4  10  22  41  65  88 121 167 202 239 298 359
#     4  10  23  41  60  87 122 155 194 250 308 360
#
# _framework density 19.39142
#
# number of rings (size 3 to 8) (size 9 to 14) (size 15 to 20)
#    0.000    1.429    4.286    0.429    2.000    4.571 
#    0.000    1.429    0.000    0.000    0.000    0.000 
#    0.000    0.000    0.000    0.000    0.000    0.000 
#
# Total GULP energy -347255.758599 kJ/mol
# GULP energy per Si atom -12401.991379 kJ/mol
# Density = 1.934728 g / cm^3
# Si number density = 19.391420 Si / 1000 Ang^3
#
#
#
# Elastic Constant Matrix: (Units=GPa)
#
#
# Indices 1 2 3 4 5 6 
#
# 1 89.8933 46.3086 44.1766 0.0000 -2.3620 0.0000
# 2 46.3086 94.2107 51.1745 0.0000 -0.4907 0.0000
# 3 44.1766 51.1745 123.8198 0.0000 -1.3755 0.0000
# 4 0.0000 0.0000 0.0000 21.6818 0.0000 0.4225
# 5 -2.3620 -0.4907 -1.3755 0.0000 53.1317 0.0000
# 6 0.0000 0.0000 0.0000 0.4225 0.0000 27.4017
#
#
#
# Elastic Compliance Matrix: (Units=1/GPa)
#
#
# Indices 1 2 3 4 5 6 
#
# 1 0.015799 -0.006066 -0.003123 0.000000 0.000565 0.000000
# 2 -0.006066 0.016017 -0.004458 0.000000 -0.000237 0.000000
# 3 -0.003123 -0.004458 0.011034 0.000000 0.000106 0.000000
# 4 0.000000 0.000000 0.000000 0.046135 0.000000 -0.000711
# 5 0.000565 -0.000237 0.000106 0.000000 0.018847 0.000000
# 6 0.000000 0.000000 0.000000 -0.000711 0.000000 0.036505
#
#
# Mechanical properties :
#
#
# Convention : Reuss Voigt Hill
#
# Bulk Modulus (GPa) = 64.28918 65.69372 64.99145
# Shear Modulus (GPa) = 28.27770 31.52732 29.90251
#
# Velocity S-wave (km/s) = 3.82286 4.03654 3.93115
# Velocity P-wave (km/s) = 7.26024 7.46165 7.36163
#
# Compressibility (1/GPa) = 0.01555472
#
# Stress axis : x y z
#
# Youngs Moduli (GPa) = 63.29425 62.43482 90.62722
#
# Poissons Ratio (x) = 0.37876 0.28306
# Poissons Ratio (y) = 0.38397 0.40401
# Poissons Ratio (z) = 0.19769 0.27833
#
# Static dielectric constant tensor:
#      x y z
#    x 3.699830 0.000000 0.009760 
#    y 0.000000 3.437410 0.000000 
#    z 0.009760 0.000000 3.397660 
# 
# 
# High freq. dielectric constant tensor:
#      x y z
#    x 1.765060 0.000000 -0.000170 
#    y 0.000000 1.751280 0.000000 
#    z -0.000170 0.000000 1.768650 
# 
# From -- ./inp_files/300160.got.cif
#   From: 2010.06.25/outbox.cif.g09.slc.cpg/sg12_151_cif.got.tgz:300160.got - 2010.06.28 00:19:55.
