data_PCOD8111435
_publ_section_title
;
Structure prediction by ZEFSAII (Michael W. Deem and Ramdas Pophale) SiO2 
 PCOD8111435
Probable space group: C 2/M
;
_chemical_formula_sum "Si O2"
_cell_formula_units_Z 64
_cell_length_a 9.626134
_cell_length_b 13.863185
_cell_length_c 32.333999
_cell_angle_alpha 90.000000
_cell_angle_beta 46.719129
_cell_angle_gamma 90.000000
_cell_volume 3141.280571
_symmetry_space_group_name_H-M "C 2/M"
_symmetry_group_IT_number 12
_symmetry_cell_setting 'monoclinic'
loop_
_space_group_symop_operation_xyz
x,y,z
-x,y,-z
-x,-y,-z
x,-y,z
1/2+x,1/2+y,z
1/2-x,1/2+y,-z
1/2-x,1/2-y,-z
1/2+x,1/2-y,z
loop_
_atom_site_type_symbol
_atom_site_label
_atom_site_fract_x
_atom_site_fract_y
_atom_site_fract_z
Si Si1 0.649053 0.777815 0.224151
Si Si2 0.609568 0.110909 0.856200
Si Si3 0.354065 0.614722 0.495086
Si Si4 0.468880 0.772433 0.960522
Si Si5 0.430670 0.112729 0.597560
Si Si6 0.087642 0.887599 0.609662
Si Si7 0.756372 0.889328 0.124564
Si Si8 0.279677 0.756285 0.699116
O O1 0.707335 0.672041 0.195452
O O2 0.735778 0.859324 0.176602
O O3 0.735812 0.797964 0.251525
O O4 0.422202 0.785711 0.273711
O O5 0.537754 0.144491 0.915600
O O6 0.444728 0.128517 0.856461
O O7 0.672001 0.000000 0.845979
O O8 0.500000 0.655002 0.500000
O O9 0.346306 0.500000 0.498208
O O10 0.423067 0.647930 0.435680
O O11 0.141564 0.656236 0.546191
O O12 0.583314 0.673168 0.930740
O O13 0.500000 0.813089 0.000000
O O14 0.250000 0.750000 0.000000
O O15 0.297873 0.134253 0.584958
O O16 0.343973 0.158336 0.656245
O O17 0.444589 0.000000 0.603461
O O18 0.929583 0.831438 0.668066
O O19 0.039184 0.000000 0.623448
O O20 0.821151 0.000000 0.108692
#
# Coordination Sequence:
#
# PCOD8111435 Si02
#       8
#     8   8   8   8   8   8   8   8
#     4  11  24  42  61  88 123 158 199 261 305 347
#     4  10  22  41  66  91 122 168 210 244 298 362
#     4   9  19  36  59  88 121 152 190 246 304 364
#     4  11  22  39  63  98 136 163 197 255 302 345
#     4  10  22  40  61  86 118 156 197 243 303 371
#     4  10  22  40  62  86 116 158 199 240 302 374
#     4  10  22  41  66  92 121 168 212 242 297 364
#     4  12  24  40  61  90 121 152 202 257 308 356
#
# _framework density 20.373856
#
# number of rings (size 3 to 8) (size 9 to 14) (size 15 to 20)
#    0.000    1.625    3.750    0.375    1.750    5.000 
#    0.000    1.250    0.000    0.000    0.000    0.000 
#    0.000    0.000    0.000    0.000    0.000    0.000 
#
# Total GULP energy -396961.767693 kJ/mol
# GULP energy per Si atom -12405.055240 kJ/mol
# Density = 2.032748 g / cm^3
# Si number density = 20.373856 Si / 1000 Ang^3
#
#
#
# Elastic Constant Matrix: (Units=GPa)
#
#
# Indices 1 2 3 4 5 6 
#
# 1 104.6301 27.2880 31.1956 0.0000 10.5748 -0.0001
# 2 27.2880 75.7473 20.5093 0.0000 1.6210 -0.0001
# 3 31.1956 20.5093 90.5862 -0.0006 14.3164 0.0001
# 4 0.0000 0.0000 -0.0006 22.4450 0.0001 -1.2444
# 5 10.5748 1.6210 14.3164 0.0001 52.4702 0.0000
# 6 -0.0001 -0.0001 0.0001 -1.2444 0.0000 27.1298
#
#
#
# Elastic Compliance Matrix: (Units=1/GPa)
#
#
# Indices 1 2 3 4 5 6 
#
# 1 0.011443 -0.003287 -0.002976 0.000000 -0.001393 0.000000
# 2 -0.003287 0.015018 -0.002403 0.000000 0.000854 0.000000
# 3 -0.002976 -0.002403 0.013065 0.000000 -0.002891 0.000000
# 4 0.000000 0.000000 0.000000 0.044667 0.000000 0.002049
# 5 -0.001393 0.000854 -0.002891 0.000000 0.020101 0.000000
# 6 0.000000 0.000000 0.000000 0.002049 0.000000 0.036954
#
#
# Mechanical properties :
#
#
# Convention : Reuss Voigt Hill
#
# Bulk Modulus (GPa) = 45.05836 47.66102 46.35969
# Shear Modulus (GPa) = 30.12429 33.20706 31.66567
#
# Velocity S-wave (km/s) = 3.84940 4.04156 3.94665
# Velocity P-wave (km/s) = 6.47464 6.72480 6.60091
#
# Compressibility (1/GPa) = 0.02219344
#
# Stress axis : x y z
#
# Youngs Moduli (GPa) = 87.39117 66.58566 76.53913
#
# Poissons Ratio (x) = 0.21884 0.22781
# Poissons Ratio (y) = 0.28722 0.18395
# Poissons Ratio (z) = 0.26011 0.16003
#
# Static dielectric constant tensor:
#      x y z
#    x 3.820040 0.000000 0.005160 
#    y 0.000000 3.526040 0.000000 
#    z 0.005160 0.000000 3.670810 
# 
# 
# High freq. dielectric constant tensor:
#      x y z
#    x 1.806010 0.000000 0.003870 
#    y 0.000000 1.789290 0.000000 
#    z 0.003870 0.000000 1.804340 
# 
# From -- ./inp_files/372560.got.cif
#   From: 2010.06.25/outbox.cif.g09.slc.cpg/sg12_187_cif.got.tgz:372560.got - 2010.06.28 00:19:55.
