data_PCOD8111788
_publ_section_title
;
Structure prediction by ZEFSAII (Michael W. Deem and Ramdas Pophale) SiO2 
 PCOD8111788
Probable space group: C 2/M
;
_chemical_formula_sum "Si O2"
_cell_formula_units_Z 56
_cell_length_a 8.947084
_cell_length_b 17.678354
_cell_length_c 27.429847
_cell_angle_alpha 90.000000
_cell_angle_beta 38.785408
_cell_angle_gamma 90.000000
_cell_volume 2717.704021
_symmetry_space_group_name_H-M "C 2/M"
_symmetry_group_IT_number 12
_symmetry_cell_setting 'monoclinic'
loop_
_space_group_symop_operation_xyz
x,y,z
-x,y,-z
-x,-y,-z
x,-y,z
1/2+x,1/2+y,z
1/2-x,1/2+y,-z
1/2-x,1/2-y,-z
1/2+x,1/2-y,z
loop_
_atom_site_type_symbol
_atom_site_label
_atom_site_fract_x
_atom_site_fract_y
_atom_site_fract_z
Si Si1 0.472675 0.695557 0.450693
Si Si2 0.634248 0.294586 0.788278
Si Si3 0.778618 0.087601 0.423128
Si Si4 0.364458 0.084374 0.986994
Si Si5 0.688838 0.584275 0.851116
Si Si6 0.722362 0.181343 0.080914
Si Si7 0.088703 0.202253 0.689223
O O1 0.500000 0.672303 0.500000
O O2 0.250000 0.750000 0.500000
O O3 0.426205 0.620342 0.431244
O O4 0.710003 0.735353 0.371221
O O5 0.732434 0.368759 0.790727
O O6 0.408449 0.260806 0.875490
O O7 0.557869 0.318171 0.753676
O O8 0.840198 0.232705 0.731984
O O9 0.500000 0.104466 0.500000
O O10 0.856587 0.125139 0.352730
O O11 0.838377 0.000000 0.404585
O O12 0.408437 0.142349 0.931702
O O13 0.461189 0.000000 0.949002
O O14 0.500000 0.115923 0.000000
O O15 0.087512 0.077976 0.067631
O O16 0.798077 0.500000 0.817292
O O17 0.817885 0.626300 0.862941
O O18 0.000000 0.197846 0.000000
#
# Coordination Sequence:
#
# PCOD8111788 Si02
#       7
#     8   8   8   8   8   8   8
#     4  12  20  40  73  99 126 176 214 255 311 386
#     4  12  25  40  63  96 124 171 217 268 323 386
#     4  11  24  43  69 104 137 170 216 266 315 377
#     4   9  19  35  60  89 119 158 211 272 328 382
#     4  10  22  41  61  86 120 163 212 264 325 385
#     4  10  22  41  63  88 122 170 218 272 321 386
#     4  12  23  42  65  95 132 170 211 258 322 387
#
# _framework density 20.605629
#
# number of rings (size 3 to 8) (size 9 to 14) (size 15 to 20)
#    0.000    1.143    5.714    0.429    2.000    5.429 
#    0.000    3.571    0.000    0.000    0.000    0.000 
#    0.000    0.000    0.000    0.000    0.000    0.000 
#
# Total GULP energy -347313.590472 kJ/mol
# GULP energy per Si atom -12404.056803 kJ/mol
# Density = 2.055873 g / cm^3
# Si number density = 20.605629 Si / 1000 Ang^3
#
#
#
# Elastic Constant Matrix: (Units=GPa)
#
#
# Indices 1 2 3 4 5 6 
#
# 1 132.8861 48.9052 32.4707 0.0063 32.3647 -0.0037
# 2 48.9052 118.6475 46.8925 0.0169 17.0344 -0.0084
# 3 32.4707 46.8925 78.7383 0.0201 15.8163 0.0007
# 4 0.0063 0.0169 0.0201 18.3975 -0.0079 8.5486
# 5 32.3647 17.0344 15.8163 -0.0079 44.0990 0.0000
# 6 -0.0037 -0.0084 0.0007 8.5486 0.0000 34.4387
#
#
#
# Elastic Compliance Matrix: (Units=1/GPa)
#
#
# Indices 1 2 3 4 5 6 
#
# 1 0.010383 -0.002879 -0.001358 -0.000003 -0.006021 0.000001
# 2 -0.002879 0.011996 -0.005874 -0.000006 -0.000414 0.000004
# 3 -0.001358 -0.005874 0.017353 -0.000015 -0.002958 0.000002
# 4 -0.000003 -0.000006 -0.000015 0.061442 0.000020 -0.015252
# 5 -0.006021 -0.000414 -0.002958 0.000020 0.028316 -0.000006
# 6 0.000001 0.000004 0.000002 -0.015252 -0.000006 0.032823
#
#
# Mechanical properties :
#
#
# Convention : Reuss Voigt Hill
#
# Bulk Modulus (GPa) = 51.25375 65.20095 58.22735
# Shear Modulus (GPa) = 26.44986 32.85393 29.65190
#
# Velocity S-wave (km/s) = 3.58666 3.99735 3.79756
# Velocity P-wave (km/s) = 6.48689 7.28121 6.89550
#
# Compressibility (1/GPa) = 0.01951077
#
# Stress axis : x y z
#
# Youngs Moduli (GPa) = 96.31217 83.36256 57.62816
#
# Poissons Ratio (x) = 0.23996 0.07826
# Poissons Ratio (y) = 0.27724 0.33849
# Poissons Ratio (z) = 0.13079 0.48965
#
# Static dielectric constant tensor:
#      x y z
#    x 4.392000 -0.000080 0.162560 
#    y -0.000080 3.816810 0.000000 
#    z 0.162560 0.000000 3.621680 
# 
# 
# High freq. dielectric constant tensor:
#      x y z
#    x 1.822590 0.000000 0.007040 
#    y 0.000000 1.800550 0.000000 
#    z 0.007040 0.000000 1.795090 
# 
# From -- ./inp_files/356687.got.cif
#   From: 2010.06.25/outbox.cif.g09.slc.cpg/sg12_179_cif.got.tgz:356687.got - 2010.06.28 00:19:55.
