data_PCOD8111729
_publ_section_title
;
Structure prediction by ZEFSAII (Michael W. Deem and Ramdas Pophale) SiO2 
 PCOD8111729
Probable space group: C 2/M
;
_chemical_formula_sum "Si O2"
_cell_formula_units_Z 56
_cell_length_a 11.309566
_cell_length_b 26.925357
_cell_length_c 8.679049
_cell_angle_alpha 90.000000
_cell_angle_beta 77.699536
_cell_angle_gamma 90.000000
_cell_volume 2582.222167
_symmetry_space_group_name_H-M "C 2/M"
_symmetry_group_IT_number 12
_symmetry_cell_setting 'monoclinic'
loop_
_space_group_symop_operation_xyz
x,y,z
-x,y,-z
-x,-y,-z
x,-y,z
1/2+x,1/2+y,z
1/2-x,1/2+y,-z
1/2-x,1/2-y,-z
1/2+x,1/2-y,z
loop_
_atom_site_type_symbol
_atom_site_label
_atom_site_fract_x
_atom_site_fract_y
_atom_site_fract_z
Si Si1 0.684936 0.444500 0.293855
Si Si2 0.942915 0.056323 0.172449
Si Si3 0.825050 0.872764 0.418899
Si Si4 0.687949 0.301314 0.007900
Si Si5 0.898426 0.682610 0.409591
Si Si6 0.130532 0.623821 0.896688
Si Si7 0.955647 0.791505 0.264118
O O1 0.719844 0.500000 0.334898
O O2 0.550966 0.443770 0.264220
O O3 0.683023 0.409565 0.439392
O O4 0.789546 0.425717 0.149084
O O5 0.834097 0.091676 0.263098
O O6 0.894282 0.000000 0.158213
O O7 0.000000 0.078726 0.000000
O O8 0.718630 0.831494 0.455892
O O9 0.941792 0.836671 0.389074
O O10 0.789854 0.342757 0.009604
O O11 0.593380 0.296295 0.174265
O O12 0.750000 0.250000 0.000000
O O13 0.628813 0.306643 0.857272
O O14 0.898541 0.651537 0.253711
O O15 0.916122 0.740122 0.355898
O O16 0.000000 0.665654 0.500000
O O17 0.000000 0.609140 0.000000
#
# Coordination Sequence:
#
# PCOD8111729 Si02
#       7
#     8   8   8   8   8   8   8
#     4  10  23  44  67  95 132 170 215 271 334 393
#     4  10  22  40  66  98 128 162 213 277 337 390
#     4  11  24  40  64  93 127 170 217 265 328 388
#     4  11  23  41  67  95 133 167 222 269 331 378
#     4  11  26  42  60  94 137 176 218 268 328 384
#     4  11  24  43  70  98 131 178 220 270 324 397
#     4  11  25  41  65  96 128 178 217 275 317 391
#
# _framework density 21.686748999999999
#
# number of rings (size 3 to 8) (size 9 to 14) (size 15 to 20)
#    0.000    1.286    1.429    3.000    8.000    6.000 
#    0.000    0.000    0.000   10.714    0.000    0.000 
#    0.000    0.000    0.000    0.000    0.000    0.000 
#
# Total GULP energy -346902.512396 kJ/mol
# GULP energy per Si atom -12389.375443 kJ/mol
# Density = 2.163739 g / cm^3
# Si number density = 21.686749 Si / 1000 Ang^3
#
#
#
# Elastic Constant Matrix: (Units=GPa)
#
#
# Indices 1 2 3 4 5 6 
#
# 1 82.6862 22.8974 26.9434 0.0000 -16.2749 0.0000
# 2 22.8974 107.8795 24.4757 0.0000 -26.1715 0.0000
# 3 26.9434 24.4757 81.6103 0.0000 -30.7896 0.0000
# 4 0.0000 0.0000 0.0000 30.6191 0.0000 -45.7082
# 5 -16.2749 -26.1715 -30.7896 0.0000 45.6063 0.0000
# 6 0.0000 0.0000 0.0000 -45.7082 0.0000 -89.7045
#
#
#
# Elastic Compliance Matrix: (Units=1/GPa)
#
#
# Indices 1 2 3 4 5 6 
#
# 1 0.014047 -0.001796 -0.003484 0.000000 0.001630 0.000000
# 2 -0.001796 0.011087 -0.000770 0.000000 0.005202 0.000000
# 3 -0.003484 -0.000770 0.017441 0.000000 0.010090 0.000000
# 4 0.000000 0.000000 0.000000 0.018550 0.000000 -0.009452
# 5 0.001630 0.005202 0.010090 0.000000 0.032306 0.000000
# 6 0.000000 0.000000 0.000000 -0.009452 0.000000 -0.006332
#
#
# Mechanical properties :
#
#
# Convention : Reuss Voigt Hill
#
# Bulk Modulus (GPa) = 32.81170 46.75656 39.78413
# Shear Modulus (GPa) = 45.72167 10.49481 28.10824
#
# Velocity S-wave (km/s) = 4.59658 2.20222 3.60405
# Velocity P-wave (km/s) = 6.58286 5.29841 5.97525
#
# Compressibility (1/GPa) = 0.03047693
#
# Stress axis : x y z
#
# Youngs Moduli (GPa) = 71.18797 90.19257 57.33588
#
# Poissons Ratio (x) = 0.16195 0.19976
# Poissons Ratio (y) = 0.12782 0.04414
# Poissons Ratio (z) = 0.24803 0.06943
#
# Static dielectric constant tensor:
#      x y z
#    x 4.052240 0.000000 -0.169220 
#    y 0.000000 4.217470 0.000000 
#    z -0.169220 0.000000 4.160880 
# 
# 
# High freq. dielectric constant tensor:
#      x y z
#    x 1.837490 0.000000 -0.009260 
#    y 0.000000 1.862760 0.000000 
#    z -0.009260 0.000000 1.870520 
# 
# From -- ./inp_files/53173.got.cif
#   From: 2010.06.25/outbox.cif.g09.slc.cpg/sg12_27_cif.got.tgz:53173.got - 2010.06.28 00:19:55.
