data_PCOD8111967
_publ_section_title
;
Structure prediction by ZEFSAII (Michael W. Deem and Ramdas Pophale) SiO2 
 PCOD8111967
Probable space group: C 2/M
;
_chemical_formula_sum "Si O2"
_cell_formula_units_Z 40
_cell_length_a 9.147975
_cell_length_b 29.254390
_cell_length_c 11.697535
_cell_angle_alpha 90.000000
_cell_angle_beta 38.552012
_cell_angle_gamma 90.000000
_cell_volume 1950.990289
_symmetry_space_group_name_H-M "C 2/M"
_symmetry_group_IT_number 12
_symmetry_cell_setting 'monoclinic'
loop_
_space_group_symop_operation_xyz
x,y,z
-x,y,-z
-x,-y,-z
x,-y,z
1/2+x,1/2+y,z
1/2-x,1/2+y,-z
1/2-x,1/2-y,-z
1/2+x,1/2-y,z
loop_
_atom_site_type_symbol
_atom_site_label
_atom_site_fract_x
_atom_site_fract_y
_atom_site_fract_z
Si Si1 0.384074 0.796587 0.786674
Si Si2 0.234605 0.447198 0.500000
Si Si3 0.662620 0.352915 0.500000
Si Si4 0.199965 0.947326 0.800036
Si Si5 0.542577 0.296587 0.786674
O O1 0.568651 0.837604 0.678855
O O2 0.523541 0.750000 0.726459
O O3 0.265043 0.793637 0.734957
O O4 0.193927 0.806421 1.000000
O O5 0.292803 0.500000 0.500000
O O6 0.358273 0.408289 0.499999
O O7 0.324572 0.436038 0.317876
O O8 0.960325 0.436038 0.682125
O O9 0.500000 0.331704 0.500000
O O10 0.573637 0.337604 0.678857
O O11 0.156530 0.000000 0.843471
O O12 0.000000 0.921425 0.000000
#
# Coordination Sequence:
#
# PCOD8111967 Si02
#       5
#     8   8   8   8   8
#     4  10  22  41  65  90 118 152 193 243 296 353
#     4   9  20  36  54  82 116 152 199 244 288 347
#     4  12  25  38  57  86 122 162 199 241 291 350
#     4   8  15  31  56  81 107 142 185 241 298 341
#     4  10  22  41  65  90 118 152 193 243 296 353
#
# _framework density 20.502407999999999
#
# number of rings (size 3 to 8) (size 9 to 14) (size 15 to 20)
#    0.000    2.200    0.000    3.600    5.600    4.400 
#    0.000    0.000    0.000    0.000    0.000    8.400 
#    0.000    0.000    0.000    0.000    0.000    0.000 
#
# Total GULP energy -247843.437813 kJ/mol
# GULP energy per Si atom -12392.171891 kJ/mol
# Density = 2.045574 g / cm^3
# Si number density = 20.502408 Si / 1000 Ang^3
#
#
#
# Elastic Constant Matrix: (Units=GPa)
#
#
# Indices 1 2 3 4 5 6 
#
# 1 133.8223 48.6939 44.3056 0.0000 -0.6179 0.0000
# 2 48.6939 130.1770 32.8326 0.0000 -0.2052 0.0000
# 3 44.3056 32.8326 132.1914 0.0000 0.5967 0.0000
# 4 0.0000 0.0000 0.0000 3.2145 0.0000 -0.3469
# 5 -0.6179 -0.2052 0.5967 0.0000 20.8968 0.0000
# 6 0.0000 0.0000 0.0000 -0.3469 0.0000 30.0177
#
#
#
# Elastic Compliance Matrix: (Units=1/GPa)
#
#
# Indices 1 2 3 4 5 6 
#
# 1 0.009319 -0.002877 -0.002410 0.000000 0.000316 0.000000
# 2 -0.002877 0.009084 -0.001292 0.000000 0.000041 0.000000
# 3 -0.002410 -0.001292 0.008695 0.000000 -0.000332 0.000000
# 4 0.000000 0.000000 0.000000 0.311479 0.000000 0.003599
# 5 0.000316 0.000041 -0.000332 0.000000 0.047873 0.000000
# 6 0.000000 0.000000 0.000000 0.003599 0.000000 0.033355
#
#
# Mechanical properties :
#
#
# Convention : Reuss Voigt Hill
#
# Bulk Modulus (GPa) = 71.74174 71.98386 71.86280
# Shear Modulus (GPa) = 11.42567 28.84970 20.13768
#
# Velocity S-wave (km/s) = 2.36325 3.75525 3.13742
# Velocity P-wave (km/s) = 6.52031 7.34770 6.94634
#
# Compressibility (1/GPa) = 0.01393889
#
# Stress axis : x y z
#
# Youngs Moduli (GPa) = 107.30733 110.08211 115.00904
#
# Poissons Ratio (x) = 0.31676 0.27719
# Poissons Ratio (y) = 0.30878 0.14859
# Poissons Ratio (z) = 0.25862 0.14223
#
# Static dielectric constant tensor:
#      x y z
#    x 3.531810 0.000000 0.010860 
#    y 0.000000 3.610830 0.000000 
#    z 0.010860 0.000000 4.371270 
# 
# 
# High freq. dielectric constant tensor:
#      x y z
#    x 1.783080 0.000000 0.000400 
#    y 0.000000 1.801380 0.000000 
#    z 0.000400 0.000000 1.813840 
# 
# From -- ./inp_files/124995.got.cif
#   From: 2010.06.25/outbox.cif.g09.slc.cpg/sg12_63_cif.got.tgz:124995.got - 2010.06.28 00:19:55.
