data_PCOD8111408
_publ_section_title
;
Structure prediction by ZEFSAII (Michael W. Deem and Ramdas Pophale) SiO2 
 PCOD8111408
Probable space group: C 2/M
;
_chemical_formula_sum "Si O2"
_cell_formula_units_Z 64
_cell_length_a 9.772892
_cell_length_b 15.054335
_cell_length_c 30.910483
_cell_angle_alpha 90.000000
_cell_angle_beta 138.287196
_cell_angle_gamma 90.000000
_cell_volume 3026.017461
_symmetry_space_group_name_H-M "C 2/M"
_symmetry_group_IT_number 12
_symmetry_cell_setting 'monoclinic'
loop_
_space_group_symop_operation_xyz
x,y,z
-x,y,-z
-x,-y,-z
x,-y,z
1/2+x,1/2+y,z
1/2-x,1/2+y,-z
1/2-x,1/2-y,-z
1/2+x,1/2-y,z
loop_
_atom_site_type_symbol
_atom_site_label
_atom_site_fract_x
_atom_site_fract_y
_atom_site_fract_z
Si Si1 0.417542 0.747901 0.684859
Si Si2 0.543655 0.230433 0.400474
Si Si3 0.278045 0.399876 0.235955
Si Si4 0.532226 0.269056 0.056321
Si Si5 0.124143 0.653889 0.810585
Si Si6 0.447858 0.594411 0.100535
Si Si7 0.684070 0.106052 0.509198
Si Si8 0.672253 0.900333 0.114797
O O1 0.386458 0.797170 0.631490
O O2 0.533881 0.656154 0.700270
O O3 0.564865 0.799222 0.752091
O O4 0.201427 0.732826 0.656582
O O5 0.617027 0.148922 0.447769
O O6 0.629324 0.329591 0.431864
O O7 0.357587 0.500000 0.254988
O O8 0.234518 0.367751 0.176968
O O9 0.072680 0.393724 0.215841
O O10 0.771856 0.281971 0.128229
O O11 0.380259 0.325528 0.051990
O O12 0.491921 0.163572 0.053266
O O13 0.500000 0.301524 0.000000
O O14 0.303853 0.585498 0.839537
O O15 0.361458 0.500000 0.062515
O O16 0.369656 0.609975 0.130437
O O17 0.500000 0.115560 0.500000
O O18 0.744868 0.000000 0.518730
O O19 0.583593 0.000000 0.094742
#
# Coordination Sequence:
#
# PCOD8111408 Si02
#       8
#     8   8   8   8   8   8   8   8
#     4  12  23  40  65  97 135 174 213 266 327 377
#     4  11  24  42  68 104 135 175 216 268 317 377
#     4  11  23  40  63  91 125 168 216 263 322 391
#     4  10  23  38  66  90 120 165 223 266 332 397
#     4  10  23  39  63  89 127 167 210 271 325 381
#     4   9  21  40  60  85 119 158 205 264 328 385
#     4  10  22  45  73 100 136 179 221 263 313 376
#     4  10  22  40  60  86 120 160 205 265 327 386
#
# _framework density 21.149910999999999
#
# number of rings (size 3 to 8) (size 9 to 14) (size 15 to 20)
#    0.750    0.875    3.750    0.375    5.250    2.000 
#    0.000    2.500    0.000    0.000    0.000    0.000 
#    0.000    0.000    0.000    0.000    0.000    0.000 
#
# Total GULP energy -396458.592508 kJ/mol
# GULP energy per Si atom -12389.331016 kJ/mol
# Density = 2.110177 g / cm^3
# Si number density = 21.149911 Si / 1000 Ang^3
#
#
#
# Elastic Constant Matrix: (Units=GPa)
#
#
# Indices 1 2 3 4 5 6 
#
# 1 95.3023 35.9953 23.9110 0.0000 -9.9590 0.0000
# 2 35.9953 117.7532 32.4982 0.0000 -11.8761 0.0000
# 3 23.9110 32.4982 91.7725 0.0000 -23.7668 0.0000
# 4 0.0000 0.0000 0.0000 2.8588 0.0000 -18.2492
# 5 -9.9590 -11.8761 -23.7668 0.0000 41.1603 0.0000
# 6 0.0000 0.0000 0.0000 -18.2492 0.0000 16.9962
#
#
#
# Elastic Compliance Matrix: (Units=1/GPa)
#
#
# Indices 1 2 3 4 5 6 
#
# 1 0.012239 -0.003138 -0.001817 0.000000 0.001007 0.000000
# 2 -0.003138 0.010247 -0.002636 0.000000 0.000675 0.000000
# 3 -0.001817 -0.002636 0.014101 0.000000 0.006942 0.000000
# 4 0.000000 0.000000 0.000000 -0.059752 0.000000 -0.064157
# 5 0.001007 0.000675 0.006942 0.000000 0.028742 0.000000
# 6 0.000000 0.000000 0.000000 -0.064157 0.000000 -0.010050
#
#
# Mechanical properties :
#
#
# Convention : Reuss Voigt Hill
#
# Bulk Modulus (GPa) = 46.71799 54.40411 50.56105
# Shear Modulus (GPa) = 280.18692 26.36463 153.27577
#
# Velocity S-wave (km/s) = 11.52234 3.53450 8.52223
# Velocity P-wave (km/s) = 14.11226 6.51428 10.99072
#
# Compressibility (1/GPa) = 0.02140503
#
# Stress axis : x y z
#
# Youngs Moduli (GPa) = 81.70379 97.58620 70.91573
#
# Poissons Ratio (x) = 0.30627 0.12884
# Poissons Ratio (y) = 0.25642 0.18695
# Poissons Ratio (z) = 0.14844 0.25726
#
# Static dielectric constant tensor:
#      x y z
#    x 3.775970 0.000000 -0.120990 
#    y 0.000000 3.961950 0.000000 
#    z -0.120990 0.000000 3.734350 
# 
# 
# High freq. dielectric constant tensor:
#      x y z
#    x 1.834970 0.000000 -0.008500 
#    y 0.000000 1.829680 0.000000 
#    z -0.008500 0.000000 1.822170 
# 
# From -- ./inp_files/372587.got.cif
#   From: 2010.06.25/outbox.cif.g09.slc.cpg/sg12_187_cif.got.tgz:372587.got - 2010.06.28 00:19:55.
