data_PCOD8111832
_publ_section_title
;
Structure prediction by ZEFSAII (Michael W. Deem and Ramdas Pophale) SiO2 
 PCOD8111832
Probable space group: C 2/M
;
_chemical_formula_sum "Si O2"
_cell_formula_units_Z 56
_cell_length_a 23.090070
_cell_length_b 8.929773
_cell_length_c 14.943156
_cell_angle_alpha 90.000000
_cell_angle_beta 115.580028
_cell_angle_gamma 90.000000
_cell_volume 2779.114198
_symmetry_space_group_name_H-M "C 2/M"
_symmetry_group_IT_number 12
_symmetry_cell_setting 'monoclinic'
loop_
_space_group_symop_operation_xyz
x,y,z
-x,y,-z
-x,-y,-z
x,-y,z
1/2+x,1/2+y,z
1/2-x,1/2+y,-z
1/2-x,1/2-y,-z
1/2+x,1/2-y,z
loop_
_atom_site_type_symbol
_atom_site_label
_atom_site_fract_x
_atom_site_fract_y
_atom_site_fract_z
Si Si1 0.515504 0.173108 0.652145
Si Si2 0.732718 0.672880 0.580601
Si Si3 0.592118 0.323888 0.843237
Si Si4 0.930863 0.672601 0.987258
Si Si5 0.720687 0.176728 0.892818
Si Si6 0.804022 0.329387 0.803712
Si Si7 0.103120 0.326889 0.543986
O O1 0.527703 0.274507 0.747905
O O2 0.442851 0.202393 0.571835
O O3 0.565147 0.219909 0.607643
O O4 0.524809 0.000000 0.683793
O O5 0.725157 0.500000 0.554305
O O6 0.750000 0.750000 0.500000
O O7 0.789782 0.703175 0.690004
O O8 0.666393 0.729062 0.578115
O O9 0.602189 0.500000 0.845948
O O10 0.649804 0.241098 0.830241
O O11 0.590492 0.274460 0.944757
O O12 0.933697 0.500000 0.020584
O O13 0.879669 0.695011 0.873000
O O14 0.000000 0.727952 0.000000
O O15 0.763052 0.215171 0.835319
O O16 0.717703 0.000000 0.904078
O O17 0.750000 0.250000 0.000000
O O18 0.784220 0.500000 0.815134
O O19 0.123269 0.500000 0.561515
#
# Coordination Sequence:
#
# PCOD8111832 Si02
#       7
#     8   8   8   8   8   8   8
#     4   9  19  37  62  89 119 156 195 242 301 362
#     4  11  24  40  60  87 120 161 206 254 305 360
#     4  12  24  37  57  90 125 159 198 243 297 357
#     4  10  22  41  63  84 113 158 204 247 297 354
#     4  12  23  37  61  91 123 159 198 246 303 360
#     4  10  22  41  63  89 121 157 202 253 305 363
#     4   9  19  38  62  88 117 153 200 250 301 358
#
# _framework density 20.150304999999999
#
# number of rings (size 3 to 8) (size 9 to 14) (size 15 to 20)
#    0.000    1.571    1.429    4.714    0.000    6.000 
#    0.000    4.286    0.000    0.000    0.000    0.000 
#    0.000    0.000    0.000    0.000    0.000    0.000 
#
# Total GULP energy -347303.035113 kJ/mol
# GULP energy per Si atom -12403.679825 kJ/mol
# Density = 2.010444 g / cm^3
# Si number density = 20.150305 Si / 1000 Ang^3
#
#
#
# Elastic Constant Matrix: (Units=GPa)
#
#
# Indices 1 2 3 4 5 6 
#
# 1 91.9237 38.5948 36.0184 0.0000 12.4375 0.0000
# 2 38.5948 121.5471 55.2717 0.0000 4.5683 0.0000
# 3 36.0184 55.2717 133.0718 0.0000 10.4165 0.0000
# 4 0.0000 0.0000 0.0000 28.3893 0.0000 0.7029
# 5 12.4375 4.5683 10.4165 0.0000 27.1279 0.0000
# 6 0.0000 0.0000 0.0000 0.7029 0.0000 27.1044
#
#
#
# Elastic Compliance Matrix: (Units=1/GPa)
#
#
# Indices 1 2 3 4 5 6 
#
# 1 0.013692 -0.003270 -0.001958 0.000000 -0.004975 0.000000
# 2 -0.003270 0.010924 -0.003738 0.000000 0.001095 0.000000
# 3 -0.001958 -0.003738 0.009772 0.000000 -0.002225 0.000000
# 4 0.000000 0.000000 0.000000 0.035247 0.000000 -0.000914
# 5 -0.004975 0.001095 -0.002225 0.000000 0.039813 0.000000
# 6 0.000000 0.000000 0.000000 -0.000914 0.000000 0.036918
#
#
# Mechanical properties :
#
#
# Convention : Reuss Voigt Hill
#
# Bulk Modulus (GPa) = 60.77220 67.36804 64.07012
# Shear Modulus (GPa) = 29.44916 30.96816 30.20866
#
# Velocity S-wave (km/s) = 3.82707 3.92453 3.87611
# Velocity P-wave (km/s) = 7.05362 7.35128 7.20399
#
# Compressibility (1/GPa) = 0.01645489
#
# Stress axis : x y z
#
# Youngs Moduli (GPa) = 73.03536 91.53927 102.33802
#
# Poissons Ratio (x) = 0.29934 0.20041
# Poissons Ratio (y) = 0.23883 0.38254
# Poissons Ratio (z) = 0.14303 0.34218
#
# Static dielectric constant tensor:
#      x y z
#    x 3.611040 0.000000 0.207770 
#    y 0.000000 3.587220 0.000000 
#    z 0.207770 0.000000 3.950820 
# 
# 
# High freq. dielectric constant tensor:
#      x y z
#    x 1.773480 0.000000 0.012950 
#    y 0.000000 1.782040 0.000000 
#    z 0.012950 0.000000 1.802850 
# 
# From -- ./inp_files/238966.got.cif
#   From: 2010.06.25/outbox.cif.g09.slc.cpg/sg12_120_cif.got.tgz:238966.got - 2010.06.28 00:19:55.
