data_PCOD8111821
_publ_section_title
;
Structure prediction by ZEFSAII (Michael W. Deem and Ramdas Pophale) SiO2 
 PCOD8111821
Probable space group: C 2/M
;
_chemical_formula_sum "Si O2"
_cell_formula_units_Z 56
_cell_length_a 23.518596
_cell_length_b 8.997458
_cell_length_c 15.529552
_cell_angle_alpha 90.000000
_cell_angle_beta 55.533593
_cell_angle_gamma 90.000000
_cell_volume 2709.310345
_symmetry_space_group_name_H-M "C 2/M"
_symmetry_group_IT_number 12
_symmetry_cell_setting 'monoclinic'
loop_
_space_group_symop_operation_xyz
x,y,z
-x,y,-z
-x,-y,-z
x,-y,z
1/2+x,1/2+y,z
1/2-x,1/2+y,-z
1/2-x,1/2-y,-z
1/2+x,1/2-y,z
loop_
_atom_site_type_symbol
_atom_site_label
_atom_site_fract_x
_atom_site_fract_y
_atom_site_fract_z
Si Si1 0.820843 0.827520 0.164757
Si Si2 0.051689 0.825334 0.378569
Si Si3 0.819593 0.827528 0.468034
Si Si4 0.039914 0.327322 0.214739
Si Si5 0.813749 0.672547 0.990669
Si Si6 0.671419 0.826032 0.365123
Si Si7 0.575900 0.670669 0.775667
O O1 0.750634 0.792791 0.275681
O O2 0.884522 0.782869 0.171319
O O3 0.823421 0.000000 0.136690
O O4 0.826093 0.730552 0.075596
O O5 0.019820 0.765771 0.316911
O O6 0.124051 0.741303 0.330608
O O7 0.000000 0.785906 0.500000
O O8 0.064877 0.000000 0.360247
O O9 0.750000 0.750000 0.500000
O O10 0.849257 0.754689 0.528954
O O11 0.874914 0.802167 0.347041
O O12 0.804789 0.000000 0.497094
O O13 0.026398 0.500000 0.243502
O O14 0.118772 0.295389 0.123321
O O15 0.991641 0.272189 0.177599
O O16 0.796899 0.500000 0.010395
O O17 0.750000 0.750000 0.000000
O O18 0.656926 0.000000 0.386491
O O19 0.552486 0.500000 0.801279
#
# Coordination Sequence:
#
# PCOD8111821 Si02
#       7
#     8   8   8   8   8   8   8
#     4  10  22  41  63  90 123 159 202 252 304 361
#     4  11  24  41  61  89 123 161 205 252 302 366
#     4  11  21  36  58  88 126 166 207 250 300 358
#     4  11  25  43  63  91 125 161 202 255 310 362
#     4  11  25  44  66  93 122 155 202 256 308 365
#     4  11  22  38  60  90 125 160 204 258 307 361
#     4  10  22  41  62  89 126 165 206 249 300 367
#
# _framework density 20.669466
#
# number of rings (size 3 to 8) (size 9 to 14) (size 15 to 20)
#    0.000    1.286    1.429    3.857    0.000   13.714 
#    0.000    2.857    0.000    0.000    0.000    0.000 
#    0.000    0.000    0.000    0.000    0.000    0.000 
#
# Total GULP energy -347388.452051 kJ/mol
# GULP energy per Si atom -12406.730430 kJ/mol
# Density = 2.062242 g / cm^3
# Si number density = 20.669466 Si / 1000 Ang^3
#
#
#
# Elastic Constant Matrix: (Units=GPa)
#
#
# Indices 1 2 3 4 5 6 
#
# 1 142.9708 65.1645 44.3407 0.0000 7.8275 0.0000
# 2 65.1645 122.0866 68.4444 0.0002 -1.1545 0.0000
# 3 44.3407 68.4444 91.3065 0.0000 20.8049 0.0000
# 4 0.0000 0.0002 0.0000 35.5218 0.0000 4.1702
# 5 7.8275 -1.1545 20.8049 0.0000 31.1316 0.0000
# 6 0.0000 0.0000 0.0000 4.1702 0.0000 44.2124
#
#
#
# Elastic Compliance Matrix: (Units=1/GPa)
#
#
# Indices 1 2 3 4 5 6 
#
# 1 0.009452 -0.004790 -0.000492 0.000000 -0.002225 0.000000
# 2 -0.004790 0.019053 -0.014617 0.000000 0.011680 0.000000
# 3 -0.000492 -0.014617 0.026240 0.000000 -0.017954 0.000000
# 4 0.000000 0.000000 0.000000 0.028467 0.000000 -0.002685
# 5 -0.002225 0.011680 -0.017954 0.000000 0.045113 0.000000
# 6 0.000000 0.000000 0.000000 -0.002685 0.000000 0.022871
#
#
# Mechanical properties :
#
#
# Convention : Reuss Voigt Hill
#
# Bulk Modulus (GPa) = 66.91314 79.14035 73.02675
# Shear Modulus (GPa) = 25.51313 34.06745 29.79029
#
# Velocity S-wave (km/s) = 3.51713 4.06421 3.80053
# Velocity P-wave (km/s) = 6.99548 7.77145 7.39365
#
# Compressibility (1/GPa) = 0.01494475
#
# Stress axis : x y z
#
# Youngs Moduli (GPa) = 105.79436 52.48529 38.11037
#
# Poissons Ratio (x) = 0.25141 0.01877
# Poissons Ratio (y) = 0.50677 0.55707
# Poissons Ratio (z) = 0.05210 0.76720
#
# Static dielectric constant tensor:
#      x y z
#    x 3.922240 0.000000 0.076000 
#    y 0.000000 3.794750 0.000000 
#    z 0.076000 0.000000 3.604770 
# 
# 
# High freq. dielectric constant tensor:
#      x y z
#    x 1.827280 0.000000 0.005120 
#    y 0.000000 1.814230 0.000000 
#    z 0.005120 0.000000 1.806550 
# 
# From -- ./inp_files/238263.got.cif
#   From: 2010.06.25/outbox.cif.g09.slc.cpg/sg12_120_cif.got.tgz:238263.got - 2010.06.28 00:19:55.
