data_PCOD8111950
_publ_section_title
;
Structure prediction by ZEFSAII (Michael W. Deem and Ramdas Pophale) SiO2 
 PCOD8111950
Probable space group: C 2/M
;
_chemical_formula_sum "Si O2"
_cell_formula_units_Z 40
_cell_length_a 15.904019
_cell_length_b 18.962010
_cell_length_c 8.717713
_cell_angle_alpha 90.000000
_cell_angle_beta 130.657734
_cell_angle_gamma 90.000000
_cell_volume 1994.414154
_symmetry_space_group_name_H-M "C 2/M"
_symmetry_group_IT_number 12
_symmetry_cell_setting 'monoclinic'
loop_
_space_group_symop_operation_xyz
x,y,z
-x,y,-z
-x,-y,-z
x,-y,z
1/2+x,1/2+y,z
1/2-x,1/2+y,-z
1/2-x,1/2-y,-z
1/2+x,1/2-y,z
loop_
_atom_site_type_symbol
_atom_site_label
_atom_site_fract_x
_atom_site_fract_y
_atom_site_fract_z
Si Si1 0.088139 0.500000 0.384754
Si Si2 0.597011 0.267612 0.906548
Si Si3 0.852465 0.794005 0.685316
Si Si4 0.154747 0.500000 0.815915
Si Si5 0.740252 0.578169 0.578768
Si Si6 0.258459 0.136929 0.936913
O O1 0.124909 0.500000 0.603831
O O2 0.139458 0.569196 0.361436
O O3 0.955978 0.500000 0.210315
O O4 0.464635 0.264835 0.742203
O O5 0.642160 0.325958 0.840972
O O6 0.643514 0.288652 0.127907
O O7 0.640654 0.190597 0.910386
O O8 0.750000 0.750000 0.500000
O O9 0.839407 0.875973 0.624419
O O10 0.226394 0.568527 0.939941
O O11 0.686374 0.500000 0.537821
O O12 0.757729 0.617374 0.758558
#
# Coordination Sequence:
#
# PCOD8111950 Si02
#       6
#     4   8   8   4   8   8
#     4   9  23  37  60  95 124 167 215 267 317 382
#     4  10  25  41  63  94 131 165 222 257 328 384
#     4  11  22  43  67  90 128 176 210 266 322 387
#     4  11  21  39  64  91 134 167 213 272 328 367
#     4  10  22  41  64  94 124 166 219 265 317 379
#     4  11  22  42  61  97 127 168 210 277 317 384
#
# _framework density 20.056014000000001
#
# number of rings (size 3 to 8) (size 9 to 14) (size 15 to 20)
#    0.600    1.000    3.000    1.200    2.800    2.400 
#    1.800    2.000    0.000    0.000    0.000    0.000 
#    0.000    0.000    0.000    0.000    0.000    0.000 
#
# Total GULP energy -248004.437811 kJ/mol
# GULP energy per Si atom -12400.221891 kJ/mol
# Density = 2.001037 g / cm^3
# Si number density = 20.056014 Si / 1000 Ang^3
#
#
#
# Elastic Constant Matrix: (Units=GPa)
#
#
# Indices 1 2 3 4 5 6 
#
# 1 124.4864 42.1133 38.5340 0.0000 4.5387 0.0000
# 2 42.1133 141.9344 38.8876 0.0000 5.6236 0.0000
# 3 38.5340 38.8876 77.9109 0.0000 8.6988 0.0000
# 4 0.0000 0.0000 0.0000 28.7239 0.0000 -8.7888
# 5 4.5387 5.6236 8.6988 0.0000 31.7964 0.0000
# 6 0.0000 0.0000 0.0000 -8.7888 0.0000 34.5131
#
#
#
# Elastic Compliance Matrix: (Units=1/GPa)
#
#
# Indices 1 2 3 4 5 6 
#
# 1 0.009886 -0.001846 -0.003968 0.000000 0.000001 0.000000
# 2 -0.001846 0.008510 -0.003297 0.000000 -0.000340 0.000000
# 3 -0.003968 -0.003297 0.016829 0.000000 -0.003455 0.000000
# 4 0.000000 0.000000 0.000000 0.037756 0.000000 0.009615
# 5 0.000001 -0.000340 -0.003455 0.000000 0.032455 0.000000
# 6 0.000000 0.000000 0.000000 0.009615 0.000000 0.031423
#
#
# Mechanical properties :
#
#
# Convention : Reuss Voigt Hill
#
# Bulk Modulus (GPa) = 58.81276 64.82239 61.81758
# Shear Modulus (GPa) = 31.10461 33.99313 32.54887
#
# Velocity S-wave (km/s) = 3.94240 4.12139 4.03289
# Velocity P-wave (km/s) = 7.07893 7.41881 7.25086
#
# Compressibility (1/GPa) = 0.01700311
#
# Stress axis : x y z
#
# Youngs Moduli (GPa) = 101.15532 117.51000 59.42158
#
# Poissons Ratio (x) = 0.21693 0.23579
# Poissons Ratio (y) = 0.18674 0.19589
# Poissons Ratio (z) = 0.40140 0.38738
#
# Static dielectric constant tensor:
#      x y z
#    x 3.761870 0.000000 -0.079060 
#    y 0.000000 3.821890 0.000000 
#    z -0.079060 0.000000 3.454760 
# 
# 
# High freq. dielectric constant tensor:
#      x y z
#    x 1.789190 0.000000 -0.013960 
#    y 0.000000 1.792370 0.000000 
#    z -0.013960 0.000000 1.769000 
# 
# From -- ./inp_files/77783.got.cif
#   From: 2010.06.25/outbox.cif.g09.slc.cpg/sg12_39_cif.got.tgz:77783.got - 2010.06.28 00:19:55.
