data_PCOD8111462
_publ_section_title
;
Structure prediction by ZEFSAII (Michael W. Deem and Ramdas Pophale) SiO2 
 PCOD8111462
Probable space group: C 2/M
;
_chemical_formula_sum "Si O2"
_cell_formula_units_Z 48
_cell_length_a 16.485623
_cell_length_b 27.680354
_cell_length_c 16.538674
_cell_angle_alpha 90.000000
_cell_angle_beta 162.562101
_cell_angle_gamma 90.000000
_cell_volume 2261.641383
_symmetry_space_group_name_H-M "C 2/M"
_symmetry_group_IT_number 12
_symmetry_cell_setting 'monoclinic'
loop_
_space_group_symop_operation_xyz
x,y,z
-x,y,-z
-x,-y,-z
x,-y,z
1/2+x,1/2+y,z
1/2-x,1/2+y,-z
1/2-x,1/2-y,-z
1/2+x,1/2-y,z
loop_
_atom_site_type_symbol
_atom_site_label
_atom_site_fract_x
_atom_site_fract_y
_atom_site_fract_z
Si Si1 0.715086 0.373169 0.018170
Si Si2 0.287665 0.945365 0.232738
Si Si3 0.669605 0.267754 0.011964
Si Si4 0.789146 0.554802 0.735092
Si Si5 0.222282 0.874406 0.526410
Si Si6 0.119011 0.218331 0.527349
O O1 0.494778 0.394120 0.745381
O O2 0.782905 0.413400 0.148413
O O3 0.590054 0.324267 0.937449
O O4 0.996438 0.357983 0.244978
O O5 0.500000 0.924373 0.500000
O O6 0.370675 0.000000 0.286857
O O7 0.000000 0.944352 0.000000
O O8 0.933071 0.261422 0.317722
O O9 0.750000 0.250000 0.000000
O O10 0.426453 0.237153 0.820707
O O11 0.500000 0.557660 0.500000
O O12 0.874727 0.500000 0.795977
O O13 0.793692 0.583353 0.656242
O O14 0.000000 0.577531 0.000000
O O15 0.088614 0.828327 0.441876
O O16 0.000000 0.202115 0.500000
#
# Coordination Sequence:
#
# PCOD8111462 Si02
#       6
#     8   8   8   8   8   8
#     4  12  25  39  69  94 124 169 211 255 331 382
#     4  10  23  45  68  93 129 165 208 271 329 383
#     4  12  23  44  63  88 133 172 207 268 323 372
#     4  10  22  40  61  87 125 168 206 254 309 364
#     4  12  23  40  63  95 127 166 206 266 311 379
#     4  12  25  41  65  94 125 171 217 257 315 382
#
# _framework density 21.223524000000001
#
# number of rings (size 3 to 8) (size 9 to 14) (size 15 to 20)
#    0.000    0.667    3.333    4.500    0.000    4.667 
#    0.000    0.000    0.000    0.000    0.000    0.000 
#    0.000    0.000    0.000    0.000    0.000    0.000 
#
# Total GULP energy -297718.882425 kJ/mol
# GULP energy per Si atom -12404.953434 kJ/mol
# Density = 2.117522 g / cm^3
# Si number density = 21.223524 Si / 1000 Ang^3
#
#
#
# Elastic Constant Matrix: (Units=GPa)
#
#
# Indices 1 2 3 4 5 6 
#
# 1 105.6144 48.1604 46.9661 -0.0114 -7.3601 0.0051
# 2 48.1604 103.7267 34.3216 -0.0042 -21.2589 0.0033
# 3 46.9661 34.3216 152.0361 -0.0251 -19.9796 0.0222
# 4 -0.0114 -0.0042 -0.0251 35.2672 -0.0011 -5.1508
# 5 -7.3601 -21.2589 -19.9796 -0.0011 47.0123 -0.0001
# 6 0.0051 0.0033 0.0222 -5.1508 -0.0001 25.5609
#
#
#
# Elastic Compliance Matrix: (Units=1/GPa)
#
#
# Indices 1 2 3 4 5 6 
#
# 1 0.013208 -0.005467 -0.003071 0.000002 -0.001709 0.000001
# 2 -0.005467 0.013416 -0.000694 -0.000001 0.004916 0.000000
# 3 -0.003071 -0.000694 0.008026 0.000004 0.002617 -0.000005
# 4 0.000002 -0.000001 0.000004 0.029215 0.000002 0.005887
# 5 -0.001709 0.004916 0.002617 0.000002 0.024338 -0.000002
# 6 0.000001 0.000000 -0.000005 0.005887 -0.000002 0.040309
#
#
# Mechanical properties :
#
#
# Convention : Reuss Voigt Hill
#
# Bulk Modulus (GPa) = 61.77438 68.91926 65.34682
# Shear Modulus (GPa) = 32.81492 37.03002 34.92247
#
# Velocity S-wave (km/s) = 3.93639 4.18157 4.06083
# Velocity P-wave (km/s) = 7.05903 7.47379 7.26937
#
# Compressibility (1/GPa) = 0.01618794
#
# Stress axis : x y z
#
# Youngs Moduli (GPa) = 75.71447 74.53797 124.58846
#
# Poissons Ratio (x) = 0.40747 0.38255
# Poissons Ratio (y) = 0.41390 0.08645
# Poissons Ratio (z) = 0.23248 0.05172
#
# Static dielectric constant tensor:
#      x y z
#    x 3.852960 -0.000070 -0.108490 
#    y -0.000070 3.921920 0.000080 
#    z -0.108490 0.000080 4.106830 
# 
# 
# High freq. dielectric constant tensor:
#      x y z
#    x 1.829830 0.000000 -0.001220 
#    y 0.000000 1.828950 0.000000 
#    z -0.001220 0.000000 1.854690 
# 
# From -- ./inp_files/219532.got.cif
#   From: 2010.06.25/outbox.cif.g09.slc.cpg/sg12_110_cif.got.tgz:219532.got - 2010.06.28 00:19:55.
