data_PCOD8111348
_publ_section_title
;
Structure prediction by ZEFSAII (Michael W. Deem and Ramdas Pophale) SiO2 
 PCOD8111348
Probable space group: C 2/M
;
_chemical_formula_sum "Si O2"
_cell_formula_units_Z 36
_cell_length_a 5.071449
_cell_length_b 22.948780
_cell_length_c 17.403497
_cell_angle_alpha 90.000000
_cell_angle_beta 104.900465
_cell_angle_gamma 90.000000
_cell_volume 1957.372224
_symmetry_space_group_name_H-M "C 2/M"
_symmetry_group_IT_number 12
_symmetry_cell_setting 'monoclinic'
loop_
_space_group_symop_operation_xyz
x,y,z
-x,y,-z
-x,-y,-z
x,-y,z
1/2+x,1/2+y,z
1/2-x,1/2+y,-z
1/2-x,1/2-y,-z
1/2+x,1/2-y,z
loop_
_atom_site_type_symbol
_atom_site_label
_atom_site_fract_x
_atom_site_fract_y
_atom_site_fract_z
Si Si1 0.301051 0.500000 0.555505
Si Si2 0.011359 0.097810 0.679961
Si Si3 0.910354 0.212655 0.409043
Si Si4 0.392102 0.933094 0.225373
Si Si5 0.707132 0.930613 0.953050
O O1 0.500000 0.500000 0.500000
O O2 0.346924 0.557783 0.608354
O O3 0.000000 0.500000 0.500000
O O4 0.814061 0.105231 0.738689
O O5 0.075465 0.160129 0.649065
O O6 0.297058 0.068882 0.723674
O O7 0.601476 0.235461 0.392083
O O8 0.000000 0.190689 0.500000
O O9 0.372140 0.908092 0.137528
O O10 0.291105 0.000000 0.222218
O O11 0.698106 0.000000 0.953104
O O12 0.500000 0.904560 0.000000
O O13 0.000000 0.906683 0.000000
#
# Coordination Sequence:
#
# PCOD8111348 Si02
#       5
#     4   8   8   8   8
#     4  12  24  36  52  76 108 146 180 212 262 332
#     4  12  22  37  55  80 111 144 182 225 274 329
#     4  10  22  40  59  77 101 139 187 239 281 311
#     4  11  20  34  52  79 117 148 176 215 274 323
#     4   9  17  29  47  72 105 148 183 208 245 316
#
# _framework density 18.392002999999999
#
# number of rings (size 3 to 8) (size 9 to 14) (size 15 to 20)
#    0.000    1.333    2.222    4.667    0.000    6.222 
#    0.000    0.000    0.000    0.000    0.000    0.000 
#    0.000   62.222    0.000    0.000    0.000    0.000 
#
# Total GULP energy -223258.409296 kJ/mol
# GULP energy per Si atom -12403.244961 kJ/mol
# Density = 1.835014 g / cm^3
# Si number density = 18.392003 Si / 1000 Ang^3
#
#
#
# Elastic Constant Matrix: (Units=GPa)
#
#
# Indices 1 2 3 4 5 6 
#
# 1 138.9693 11.5955 59.8445 0.0000 -14.8332 0.0000
# 2 11.5955 46.6186 38.1506 0.0000 -6.9095 0.0000
# 3 59.8445 38.1506 131.1605 0.0000 -18.1576 0.0000
# 4 0.0000 0.0000 0.0000 14.0641 0.0000 -8.8269
# 5 -14.8332 -6.9095 -18.1576 0.0000 42.0604 0.0000
# 6 0.0000 0.0000 0.0000 -8.8269 0.0000 19.2369
#
#
#
# Elastic Compliance Matrix: (Units=1/GPa)
#
#
# Indices 1 2 3 4 5 6 
#
# 1 0.009129 0.001566 -0.004403 0.000000 0.001576 0.000000
# 2 0.001566 0.028474 -0.008798 0.000000 0.001431 0.000000
# 3 -0.004403 -0.008798 0.012526 0.000000 0.002409 0.000000
# 4 0.000000 0.000000 0.000000 0.099862 0.000000 0.045822
# 5 0.001576 0.001431 0.002409 0.000000 0.025607 0.000000
# 6 0.000000 0.000000 0.000000 0.045822 0.000000 0.073009
#
#
# Mechanical properties :
#
#
# Convention : Reuss Voigt Hill
#
# Bulk Modulus (GPa) = 37.23252 59.54773 48.39012
# Shear Modulus (GPa) = 17.80444 28.88279 23.34362
#
# Velocity S-wave (km/s) = 3.11473 3.96713 3.56649
# Velocity P-wave (km/s) = 5.76396 7.30968 6.58235
#
# Compressibility (1/GPa) = 0.02685824
#
# Stress axis : x y z
#
# Youngs Moduli (GPa) = 109.53673 35.12032 79.83533
#
# Poissons Ratio (x) = -0.05499 0.35149
# Poissons Ratio (y) = -0.17152 0.70242
# Poissons Ratio (z) = 0.48226 0.30900
#
# Static dielectric constant tensor:
#      x y z
#    x 3.611030 0.000000 -0.132980 
#    y 0.000000 2.905270 0.000000 
#    z -0.132980 0.000000 3.597830 
# 
# 
# High freq. dielectric constant tensor:
#      x y z
#    x 1.738800 0.000000 -0.007630 
#    y 0.000000 1.659300 0.000000 
#    z -0.007630 0.000000 1.721580 
# 
# From -- ./inp_files/191520.got.cif
#   From: 2010.06.25/outbox.cif.g09.slc.cpg/sg12_96_cif.got.tgz:191520.got - 2010.06.28 00:19:55.
