data_PCOD8111468
_publ_section_title
;
Structure prediction by ZEFSAII (Michael W. Deem and Ramdas Pophale) SiO2 
 PCOD8111468
Probable space group: C 2/M
;
_chemical_formula_sum "Si O2"
_cell_formula_units_Z 64
_cell_length_a 30.878164
_cell_length_b 8.615762
_cell_length_c 19.466131
_cell_angle_alpha 90.000000
_cell_angle_beta 37.575035
_cell_angle_gamma 90.000000
_cell_volume 3158.000143
_symmetry_space_group_name_H-M "C 2/M"
_symmetry_group_IT_number 12
_symmetry_cell_setting 'monoclinic'
loop_
_space_group_symop_operation_xyz
x,y,z
-x,y,-z
-x,-y,-z
x,-y,z
1/2+x,1/2+y,z
1/2-x,1/2+y,-z
1/2-x,1/2-y,-z
1/2+x,1/2-y,z
loop_
_atom_site_type_symbol
_atom_site_label
_atom_site_fract_x
_atom_site_fract_y
_atom_site_fract_z
Si Si1 0.673648 0.817118 0.237587
Si Si2 0.575245 0.318291 0.002319
Si Si3 0.081423 0.817914 0.241680
Si Si4 0.934189 0.682771 0.382055
Si Si5 0.316589 0.681486 0.626061
Si Si6 0.433087 0.820948 0.228367
Si Si7 0.326244 0.316966 0.002023
Si Si8 0.661678 0.178893 0.774410
O O1 0.608677 0.728224 0.282846
O O2 0.671763 0.780414 0.320216
O O3 0.664450 0.000000 0.238048
O O4 0.746789 0.752043 0.112372
O O5 0.572298 0.500000 0.015106
O O6 0.608768 0.278066 0.887285
O O7 0.495658 0.257824 0.107069
O O8 0.623120 0.244153 0.002974
O O9 0.143230 0.769711 0.110403
O O10 0.012224 0.719097 0.311654
O O11 0.063417 0.000000 0.260499
O O12 0.918707 0.500000 0.407857
O O13 0.878425 0.779540 0.495764
O O14 0.926010 0.745202 0.314278
O O15 0.317923 0.500000 0.642473
O O16 0.242551 0.732068 0.683937
O O17 0.360038 0.792802 0.277934
O O18 0.452670 0.000000 0.209268
O O19 0.323635 0.500000 0.014806
O O20 0.651733 0.000000 0.807321
#
# Coordination Sequence:
#
# PCOD8111468 Si02
#       8
#     8   8   8   8   8   8   8   8
#     4  11  22  40  63  91 124 158 196 243 295 354
#     4  11  20  35  60  92 124 158 198 242 295 351
#     4  11  22  40  63  91 124 158 196 243 295 354
#     4  11  24  42  63  87 116 157 203 250 300 352
#     4  11  24  42  63  87 116 157 203 250 300 352
#     4  10  22  40  61  88 123 160 198 243 298 357
#     4   9  19  35  59  89 124 157 189 237 295 349
#     4  10  22  40  61  88 123 160 198 243 298 357
#
# _framework density 20.265991
#
# number of rings (size 3 to 8) (size 9 to 14) (size 15 to 20)
#    0.000    1.500    2.500    2.625    0.000    4.000 
#    0.000    4.375    0.000    0.000    0.000    0.000 
#    0.000    0.000    0.000    0.000    0.000    0.000 
#
# Total GULP energy -396917.693831 kJ/mol
# GULP energy per Si atom -12403.677932 kJ/mol
# Density = 2.021986 g / cm^3
# Si number density = 20.265991 Si / 1000 Ang^3
#
#
#
# Elastic Constant Matrix: (Units=GPa)
#
#
# Indices 1 2 3 4 5 6 
#
# 1 146.0708 15.1949 38.2020 0.0045 4.2026 -0.0041
# 2 15.1949 35.3847 10.1822 -0.0141 -0.1317 -0.0167
# 3 38.2020 10.1822 108.4079 -0.0075 1.2869 -0.0136
# 4 0.0045 -0.0141 -0.0075 -8.1311 -0.0036 -9.6657
# 5 4.2026 -0.1317 1.2869 -0.0036 8.3937 -0.0046
# 6 -0.0041 -0.0167 -0.0136 -9.6657 -0.0046 24.6513
#
#
#
# Elastic Compliance Matrix: (Units=1/GPa)
#
#
# Indices 1 2 3 4 5 6 
#
# 1 0.007878 -0.002682 -0.002481 0.000011 -0.003606 0.000002
# 2 -0.002682 0.029966 -0.001894 -0.000051 0.002104 -0.000001
# 3 -0.002481 -0.001894 0.010281 -0.000008 -0.000364 0.000001
# 4 0.000011 -0.000051 -0.000008 -0.083885 -0.000059 -0.032891
# 5 -0.003606 0.002104 -0.000364 -0.000059 0.121031 0.000000
# 6 0.000002 -0.000001 0.000001 -0.032891 0.000000 0.027669
#
#
# Mechanical properties :
#
#
# Convention : Reuss Voigt Hill
#
# Bulk Modulus (GPa) = 29.40430 46.33573 37.87001
# Shear Modulus (GPa) = 36.12956 20.06841 28.09898
#
# Velocity S-wave (km/s) = 4.22686 3.15024 3.72763
# Velocity P-wave (km/s) = 6.19375 6.01211 6.10360
#
# Compressibility (1/GPa) = 0.03400863
#
# Stress axis : x y z
#
# Youngs Moduli (GPa) = 126.94076 33.37169 97.26642
#
# Poissons Ratio (x) = 0.08951 0.24135
# Poissons Ratio (y) = 0.34049 0.18425
# Poissons Ratio (z) = 0.31498 0.06322
#
# Static dielectric constant tensor:
#      x y z
#    x 3.870800 -0.000040 -0.028330 
#    y -0.000040 3.482400 0.000050 
#    z -0.028330 0.000050 3.604440 
# 
# 
# High freq. dielectric constant tensor:
#      x y z
#    x 1.808800 0.000000 0.000400 
#    y 0.000000 1.781730 0.000000 
#    z 0.000400 0.000000 1.784940 
# 
# From -- ./inp_files/260365.got.cif
#   From: 2010.06.25/outbox.cif.g09.slc.cpg/sg12_131_cif.got.tgz:260365.got - 2010.06.28 00:19:55.
