data_PCOD8111571
_publ_section_title
;
Structure prediction by ZEFSAII (Michael W. Deem and Ramdas Pophale) SiO2 
 PCOD8111571
Probable space group: C 2/M
;
_chemical_formula_sum "Si O2"
_cell_formula_units_Z 40
_cell_length_a 25.621431
_cell_length_b 8.488783
_cell_length_c 10.834473
_cell_angle_alpha 90.000000
_cell_angle_beta 53.216782
_cell_angle_gamma 90.000000
_cell_volume 1887.289753
_symmetry_space_group_name_H-M "C 2/M"
_symmetry_group_IT_number 12
_symmetry_cell_setting 'monoclinic'
loop_
_space_group_symop_operation_xyz
x,y,z
-x,y,-z
-x,-y,-z
x,-y,z
1/2+x,1/2+y,z
1/2-x,1/2+y,-z
1/2-x,1/2-y,-z
1/2+x,1/2-y,z
loop_
_atom_site_type_symbol
_atom_site_label
_atom_site_fract_x
_atom_site_fract_y
_atom_site_fract_z
Si Si1 0.440614 0.678287 0.177856
Si Si2 0.267251 0.817644 0.842355
Si Si3 0.989569 0.319136 0.346258
Si Si4 0.596706 0.681825 0.328387
Si Si5 0.793551 0.814370 0.324951
O O1 0.435469 0.500000 0.236637
O O2 0.459777 0.802579 0.254361
O O3 0.370063 0.731146 0.226361
O O4 0.500000 0.689432 0.000000
O O5 0.342323 0.783033 0.714564
O O6 0.229450 0.745584 0.776182
O O7 0.251373 0.000000 0.870144
O O8 0.250000 0.750000 0.000000
O O9 0.984050 0.500000 0.396722
O O10 0.952432 0.200367 0.489068
O O11 0.064868 0.258706 0.249236
O O12 0.614934 0.500000 0.278562
O O13 0.750000 0.750000 0.500000
O O14 0.783396 0.000000 0.341113
#
# Coordination Sequence:
#
# PCOD8111571 Si02
#       5
#     8   8   8   8   8
#     4  10  22  40  63  90 124 165 210 259 312 379
#     4  11  24  41  62  94 130 167 210 264 319 380
#     4  11  22  38  61  92 125 158 202 259 314 376
#     4  11  22  39  63  89 120 164 209 254 311 377
#     4  10  23  42  65  93 126 169 216 261 316 379
#
# _framework density 21.194414999999999
#
# number of rings (size 3 to 8) (size 9 to 14) (size 15 to 20)
#    0.000    1.400    0.000    6.600    2.800    6.000 
#    0.000    0.000    0.000    0.000    0.000    0.000 
#    0.000    0.000    0.000    0.000    0.000    0.000 
#
# Total GULP energy -247861.485231 kJ/mol
# GULP energy per Si atom -12393.074262 kJ/mol
# Density = 2.114618 g / cm^3
# Si number density = 21.194415 Si / 1000 Ang^3
#
#
#
# Elastic Constant Matrix: (Units=GPa)
#
#
# Indices 1 2 3 4 5 6 
#
# 1 205.9090 35.2446 72.2506 0.0000 6.7431 0.0000
# 2 35.2446 62.3504 28.8443 0.0000 9.1239 0.0000
# 3 72.2506 28.8443 95.3568 0.0000 4.4785 0.0000
# 4 0.0000 0.0000 0.0000 27.1616 0.0000 0.5090
# 5 6.7431 9.1239 4.4785 0.0000 43.0714 0.0000
# 6 0.0000 0.0000 0.0000 0.5090 0.0000 30.9205
#
#
#
# Elastic Compliance Matrix: (Units=1/GPa)
#
#
# Indices 1 2 3 4 5 6 
#
# 1 0.006767 -0.001657 -0.004615 0.000000 -0.000229 0.000000
# 2 -0.001657 0.019556 -0.004500 0.000000 -0.003415 0.000000
# 3 -0.004615 -0.004500 0.015341 0.000000 0.000081 0.000000
# 4 0.000000 0.000000 0.000000 0.036828 0.000000 -0.000606
# 5 -0.000229 -0.003415 0.000081 0.000000 0.023968 0.000000
# 6 0.000000 0.000000 0.000000 -0.000606 0.000000 0.032351
#
#
# Mechanical properties :
#
#
# Convention : Reuss Voigt Hill
#
# Bulk Modulus (GPa) = 49.69992 70.69946 60.19969
# Shear Modulus (GPa) = 30.66299 35.38248 33.02273
#
# Velocity S-wave (km/s) = 3.80774 4.09029 3.95154
# Velocity P-wave (km/s) = 6.54464 7.46574 7.02031
#
# Compressibility (1/GPa) = 0.02012076
#
# Stress axis : x y z
#
# Youngs Moduli (GPa) = 147.77481 51.13427 65.18289
#
# Poissons Ratio (x) = 0.08471 0.30085
# Poissons Ratio (y) = 0.24479 0.29332
# Poissons Ratio (z) = 0.68205 0.23011
#
# Static dielectric constant tensor:
#      x y z
#    x 5.231880 0.000000 0.055520 
#    y 0.000000 3.752720 0.000000 
#    z 0.055520 0.000000 3.925210 
# 
# 
# High freq. dielectric constant tensor:
#      x y z
#    x 1.857430 0.000000 -0.003380 
#    y 0.000000 1.823930 0.000000 
#    z -0.003380 0.000000 1.820260 
# 
# From -- ./inp_files/179663.got.cif
#   From: 2010.06.25/outbox.cif.g09.slc.cpg/sg12_90_cif.got.tgz:179663.got - 2010.06.28 00:19:55.
