data_PCOD8111380
_publ_section_title
;
Structure prediction by ZEFSAII (Michael W. Deem and Ramdas Pophale) SiO2 
 PCOD8111380
Probable space group: C 2/M
;
_chemical_formula_sum "Si O2"
_cell_formula_units_Z 32
_cell_length_a 9.194961
_cell_length_b 13.957245
_cell_length_c 13.099634
_cell_angle_alpha 90.000000
_cell_angle_beta 129.516545
_cell_angle_gamma 90.000000
_cell_volume 1296.914665
_symmetry_space_group_name_H-M "C 2/M"
_symmetry_group_IT_number 12
_symmetry_cell_setting 'monoclinic'
loop_
_space_group_symop_operation_xyz
x,y,z
-x,y,-z
-x,-y,-z
x,-y,z
1/2+x,1/2+y,z
1/2-x,1/2+y,-z
1/2-x,1/2-y,-z
1/2+x,1/2-y,z
loop_
_atom_site_type_symbol
_atom_site_label
_atom_site_fract_x
_atom_site_fract_y
_atom_site_fract_z
Si Si1 0.545094 0.896489 0.705739
Si Si2 0.528826 0.698576 0.627549
Si Si3 0.969372 0.698635 0.871804
Si Si4 0.952518 0.103487 0.793143
O O1 0.438061 0.806027 0.604242
O O2 0.563880 0.875461 0.835529
O O3 0.748700 0.907014 0.749271
O O4 0.440508 0.000000 0.643796
O O5 0.500000 0.661716 0.500000
O O6 0.748937 0.705888 0.750067
O O7 0.433793 0.624426 0.663336
O O8 0.059646 0.806131 0.894693
O O9 0.000000 0.661758 0.000000
O O10 0.057081 0.000000 0.855205
#
# Coordination Sequence:
#
# PCOD8111380 Si02
#       4
#     8   8   8   8
#     4   9  20  38  60  86 116 151 191 235 284 338
#     4  10  22  40  60  84 116 152 190 234 284 338
#     4  10  22  40  60  84 116 152 190 234 284 338
#     4   9  20  38  60  86 116 151 191 235 284 338
#
# _framework density 24.673945
#
# number of rings (size 3 to 8) (size 9 to 14) (size 15 to 20)
#    0.000    2.500    0.000    0.000    0.000   21.000 
#    0.000   10.000    0.000    0.000    0.000    0.000 
#    0.000    0.000    0.000    0.000    0.000    0.000 
#
# Total GULP energy -198222.771875 kJ/mol
# GULP energy per Si atom -12388.923242 kJ/mol
# Density = 2.461779 g / cm^3
# Si number density = 24.673945 Si / 1000 Ang^3
#
#
#
# Elastic Constant Matrix: (Units=GPa)
#
#
# Indices 1 2 3 4 5 6 
#
# 1 81.9519 49.2932 48.6558 0.0000 -55.3181 0.0000
# 2 49.2932 155.6576 5.8604 0.0000 -15.8448 0.0000
# 3 48.6558 5.8604 127.1318 0.0000 -43.6477 0.0000
# 4 0.0000 0.0000 0.0000 19.5683 0.0000 -19.0857
# 5 -55.3181 -15.8448 -43.6477 0.0000 46.2461 0.0000
# 6 0.0000 0.0000 0.0000 -19.0857 0.0000 55.4363
#
#
#
# Elastic Compliance Matrix: (Units=1/GPa)
#
#
# Indices 1 2 3 4 5 6 
#
# 1 0.103948 -0.020867 0.002091 0.000000 0.119163 0.000000
# 2 -0.020867 0.010888 0.000289 0.000000 -0.020956 0.000000
# 3 0.002091 0.000289 0.011754 0.000000 0.013693 0.000000
# 4 0.000000 0.000000 0.000000 0.076938 0.000000 0.026488
# 5 0.119163 -0.020956 0.013693 0.000000 0.169906 0.000000
# 6 0.000000 0.000000 0.000000 0.026488 0.000000 0.027158
#
#
# Mechanical properties :
#
#
# Convention : Reuss Voigt Hill
#
# Bulk Modulus (GPa) = 11.15868 63.59559 37.37713
# Shear Modulus (GPa) = 10.69663 41.64561 26.17112
#
# Velocity S-wave (km/s) = 2.08437 4.11279 3.26034
# Velocity P-wave (km/s) = 3.21327 6.95584 5.41797
#
# Compressibility (1/GPa) = 0.08961636
#
# Stress axis : x y z
#
# Youngs Moduli (GPa) = 9.62023 91.84226 85.08044
#
# Poissons Ratio (x) = 1.91644 -0.17789
# Poissons Ratio (y) = 0.20074 -0.02461
# Poissons Ratio (z) = -0.02011 -0.02656
#
# Static dielectric constant tensor:
#      x y z
#    x 4.561640 0.000000 -0.618860 
#    y 0.000000 5.527440 0.000000 
#    z -0.618860 0.000000 4.142390 
# 
# 
# High freq. dielectric constant tensor:
#      x y z
#    x 1.988560 0.000000 -0.042850 
#    y 0.000000 1.987450 0.000000 
#    z -0.042850 0.000000 1.943710 
# 
# From -- ./inp_files/117831.got.cif
#   From: 2010.06.25/outbox.cif.g09.slc.cpg/sg12_59_cif.got.tgz:117831.got - 2010.06.28 00:19:55.
