data_PCOD8111514
_publ_section_title
;
Structure prediction by ZEFSAII (Michael W. Deem and Ramdas Pophale) SiO2 
 PCOD8111514
Probable space group: C 2/M
;
_chemical_formula_sum "Si O2"
_cell_formula_units_Z 64
_cell_length_a 30.119209
_cell_length_b 8.827519
_cell_length_c 18.663727
_cell_angle_alpha 90.000000
_cell_angle_beta 141.113112
_cell_angle_gamma 90.000000
_cell_volume 3115.239860
_symmetry_space_group_name_H-M "C 2/M"
_symmetry_group_IT_number 12
_symmetry_cell_setting 'monoclinic'
loop_
_space_group_symop_operation_xyz
x,y,z
-x,y,-z
-x,-y,-z
x,-y,z
1/2+x,1/2+y,z
1/2-x,1/2+y,-z
1/2-x,1/2-y,-z
1/2+x,1/2-y,z
loop_
_atom_site_type_symbol
_atom_site_label
_atom_site_fract_x
_atom_site_fract_y
_atom_site_fract_z
Si Si1 0.105293 0.678025 0.900676
Si Si2 0.033546 0.178645 0.681180
Si Si3 0.751421 0.319711 0.422858
Si Si4 0.754491 0.821237 0.928050
Si Si5 0.467760 0.678466 0.066886
Si Si6 0.887122 0.322237 0.500964
Si Si7 0.610792 0.677502 0.170629
Si Si8 0.383153 0.823399 0.331249
O O1 0.113173 0.500000 0.903386
O O2 0.092208 0.745031 0.805420
O O3 0.042191 0.725069 0.873935
O O4 0.176147 0.752051 0.022534
O O5 0.050974 0.234021 0.622096
O O6 0.956830 0.232121 0.612034
O O7 0.038772 0.000000 0.693205
O O8 0.747041 0.500000 0.424338
O O9 0.750000 0.250000 0.500000
O O10 0.821955 0.269568 0.468913
O O11 0.684344 0.254717 0.293246
O O12 0.688596 0.772762 0.797285
O O13 0.761290 0.000000 0.942658
O O14 0.750000 0.750000 0.000000
O O15 0.458116 0.500000 0.069303
O O16 0.547756 0.716394 0.145673
O O17 0.411898 0.737498 0.936516
O O18 0.901250 0.500000 0.527853
O O19 0.872187 0.279021 0.399929
O O20 0.619773 0.500000 0.174244
O O21 0.399682 0.000000 0.342869
#
# Coordination Sequence:
#
# PCOD8111514 Si02
#       8
#     8   8   8   8   8   8   8   8
#     4  12  25  39  58  88 126 164 202 250 304 363
#     4  12  25  41  63  89 121 162 210 261 307 362
#     4  10  22  40  62  89 122 162 203 248 300 360
#     4  11  22  38  62  91 122 160 200 241 295 358
#     4   9  18  36  63  92 118 153 200 251 302 363
#     4  10  23  42  64  90 122 163 206 252 309 369
#     4   8  17  36  63  90 119 153 197 249 305 364
#     4  10  22  41  66  92 123 161 201 250 307 371
#
# _framework density 20.544163999999999
#
# number of rings (size 3 to 8) (size 9 to 14) (size 15 to 20)
#    0.000    1.750    1.250    3.750    3.500    3.000 
#    0.000    1.875    0.000    0.000    0.000    0.000 
#    0.000    0.000    0.000    0.000    0.000    0.000 
#
# Total GULP energy -396819.235130 kJ/mol
# GULP energy per Si atom -12400.601098 kJ/mol
# Density = 2.049740 g / cm^3
# Si number density = 20.544164 Si / 1000 Ang^3
#
#
#
# Elastic Constant Matrix: (Units=GPa)
#
#
# Indices 1 2 3 4 5 6 
#
# 1 130.1583 39.3928 40.8814 0.0000 5.0229 0.0000
# 2 39.3928 70.8443 28.7822 0.0000 4.8116 0.0000
# 3 40.8814 28.7822 91.7911 0.0000 14.2784 0.0000
# 4 0.0000 0.0000 0.0000 26.8470 0.0000 -1.9107
# 5 5.0229 4.8116 14.2784 0.0000 34.6200 0.0000
# 6 0.0000 0.0000 0.0000 -1.9107 0.0000 34.1132
#
#
#
# Elastic Compliance Matrix: (Units=1/GPa)
#
#
# Indices 1 2 3 4 5 6 
#
# 1 0.009954 -0.004281 -0.003162 0.000000 0.000455 0.000000
# 2 -0.004281 0.018019 -0.003687 0.000000 -0.000363 0.000000
# 3 -0.003162 -0.003687 0.014220 0.000000 -0.004894 0.000000
# 4 0.000000 0.000000 0.000000 0.037397 0.000000 0.002095
# 5 0.000455 -0.000363 -0.004894 0.000000 0.030888 0.000000
# 6 0.000000 0.000000 0.000000 0.002095 0.000000 0.029432
#
#
# Mechanical properties :
#
#
# Convention : Reuss Voigt Hill
#
# Bulk Modulus (GPa) = 50.16818 56.76737 53.46778
# Shear Modulus (GPa) = 29.61864 31.36519 30.49192
#
# Velocity S-wave (km/s) = 3.80110 3.91157 3.85673
# Velocity P-wave (km/s) = 6.61341 6.93486 6.77604
#
# Compressibility (1/GPa) = 0.01993295
#
# Stress axis : x y z
#
# Youngs Moduli (GPa) = 100.45998 55.49828 70.32538
#
# Poissons Ratio (x) = 0.23761 0.22234
# Poissons Ratio (y) = 0.43011 0.25927
# Poissons Ratio (z) = 0.31761 0.20461
#
# Static dielectric constant tensor:
#      x y z
#    x 3.836960 0.000000 0.156550 
#    y 0.000000 3.410410 0.000000 
#    z 0.156550 0.000000 4.111560 
# 
# 
# High freq. dielectric constant tensor:
#      x y z
#    x 1.813810 0.000000 0.005100 
#    y 0.000000 1.777950 0.000000 
#    z 0.005100 0.000000 1.812960 
# 
# From -- ./inp_files/295683.got.cif
#   From: 2010.06.25/outbox.cif.g09.slc.cpg/sg12_148_cif.got.tgz:295683.got - 2010.06.28 00:19:55.
