data_PCOD8111252
_publ_section_title
;
Structure prediction by ZEFSAII (Michael W. Deem and Ramdas Pophale) SiO2 
 PCOD8111252
Probable space group: C 2/M
;
_chemical_formula_sum "Si O2"
_cell_formula_units_Z 40
_cell_length_a 13.761172
_cell_length_b 13.391361
_cell_length_c 16.499079
_cell_angle_alpha 90.000000
_cell_angle_beta 43.271114
_cell_angle_gamma 90.000000
_cell_volume 2084.090059
_symmetry_space_group_name_H-M "C 2/M"
_symmetry_group_IT_number 12
_symmetry_cell_setting 'monoclinic'
loop_
_space_group_symop_operation_xyz
x,y,z
-x,y,-z
-x,-y,-z
x,-y,z
1/2+x,1/2+y,z
1/2-x,1/2+y,-z
1/2-x,1/2-y,-z
1/2+x,1/2-y,z
loop_
_atom_site_type_symbol
_atom_site_label
_atom_site_fract_x
_atom_site_fract_y
_atom_site_fract_z
Si Si1 0.672878 0.617481 0.027053
Si Si2 0.313409 0.737791 0.829582
Si Si3 0.378570 0.209359 0.369637
Si Si4 0.369018 0.297391 0.202575
Si Si5 0.588299 0.000000 0.576383
Si Si6 0.290517 0.000000 0.667946
O O1 0.656547 0.500000 0.023376
O O2 0.707078 0.640733 0.100492
O O3 0.532469 0.678241 0.086091
O O4 0.795785 0.660985 0.894468
O O5 0.472373 0.738362 0.695854
O O6 0.197444 0.732288 0.829396
O O7 0.250000 0.250000 0.500000
O O8 0.346784 0.230518 0.295308
O O9 0.389889 0.092338 0.377710
O O10 0.291171 0.402421 0.255269
O O11 0.437786 0.000000 0.624575
O O12 0.701508 0.000000 0.434476
#
# Coordination Sequence:
#
# PCOD8111252 Si02
#       6
#     8   8   8   8   4   4
#     4  10  22  39  63  87 118 156 192 243 296 347
#     4  10  23  39  58  88 122 150 197 243 292 348
#     4  11  23  38  59  86 123 155 192 245 295 341
#     4  11  21  38  62  90 120 153 193 244 291 352
#     4  11  22  38  57  88 122 157 199 242 293 346
#     4  11  20  34  64  90 113 156 201 244 293 339
#
# _framework density 19.193028999999999
#
# number of rings (size 3 to 8) (size 9 to 14) (size 15 to 20)
#    0.000    1.400    5.000    0.600    2.800    1.600 
#    1.800    0.000    0.000    4.800    0.000    0.000 
#    0.000    0.000    0.000    0.000    0.000    0.000 
#
# Total GULP energy -248008.165039 kJ/mol
# GULP energy per Si atom -12400.408252 kJ/mol
# Density = 1.914935 g / cm^3
# Si number density = 19.193029 Si / 1000 Ang^3
#
#
#
# Elastic Constant Matrix: (Units=GPa)
#
#
# Indices 1 2 3 4 5 6 
#
# 1 114.1995 30.5084 28.5950 0.0000 9.3573 0.0000
# 2 30.5084 68.9719 21.3142 0.0000 7.4493 0.0000
# 3 28.5950 21.3142 87.4943 0.0000 -10.3615 0.0000
# 4 0.0000 0.0000 0.0000 25.7761 0.0000 -0.2883
# 5 9.3573 7.4493 -10.3615 0.0000 25.8077 0.0000
# 6 0.0000 0.0000 0.0000 -0.2883 0.0000 25.6927
#
#
#
# Elastic Compliance Matrix: (Units=1/GPa)
#
#
# Indices 1 2 3 4 5 6 
#
# 1 0.010800 -0.003322 -0.003224 0.000000 -0.004251 0.000000
# 2 -0.003322 0.017763 -0.003891 0.000000 -0.005485 0.000000
# 3 -0.003224 -0.003891 0.014386 0.000000 0.008068 0.000000
# 4 0.000000 0.000000 0.000000 0.038801 0.000000 0.000435
# 5 -0.004251 -0.005485 0.008068 0.000000 0.045112 0.000000
# 6 0.000000 0.000000 0.000000 0.000435 0.000000 0.038926
#
#
# Mechanical properties :
#
#
# Convention : Reuss Voigt Hill
#
# Bulk Modulus (GPa) = 45.29898 47.94454 46.62176
# Shear Modulus (GPa) = 25.77066 28.13850 26.95458
#
# Velocity S-wave (km/s) = 3.66827 3.83310 3.75159
# Velocity P-wave (km/s) = 6.44939 6.68016 6.56579
#
# Compressibility (1/GPa) = 0.02207555
#
# Stress axis : x y z
#
# Youngs Moduli (GPa) = 92.59658 56.29754 69.51060
#
# Poissons Ratio (x) = 0.18700 0.22409
# Poissons Ratio (y) = 0.30756 0.27048
# Poissons Ratio (z) = 0.29852 0.21906
#
# Static dielectric constant tensor:
#      x y z
#    x 3.650010 0.000000 -0.079250 
#    y 0.000000 3.355110 0.000000 
#    z -0.079250 0.000000 3.878410 
# 
# 
# High freq. dielectric constant tensor:
#      x y z
#    x 1.746990 0.000000 -0.004540 
#    y 0.000000 1.729490 0.000000 
#    z -0.004540 0.000000 1.763800 
# 
# From -- ./inp_files/176571.got.cif
#   From: 2010.06.25/outbox.cif.g09.slc.cpg/sg12_89_cif.got.tgz:176571.got - 2010.06.28 00:19:55.
