data_PCOD8111793
_publ_section_title
;
Structure prediction by ZEFSAII (Michael W. Deem and Ramdas Pophale) SiO2 
 PCOD8111793
Probable space group: C 2/M
;
_chemical_formula_sum "Si O2"
_cell_formula_units_Z 48
_cell_length_a 21.417969
_cell_length_b 12.344052
_cell_length_c 11.501937
_cell_angle_alpha 90.000000
_cell_angle_beta 49.366657
_cell_angle_gamma 90.000000
_cell_volume 2307.741993
_symmetry_space_group_name_H-M "C 2/M"
_symmetry_group_IT_number 12
_symmetry_cell_setting 'monoclinic'
loop_
_space_group_symop_operation_xyz
x,y,z
-x,y,-z
-x,-y,-z
x,-y,z
1/2+x,1/2+y,z
1/2-x,1/2+y,-z
1/2-x,1/2-y,-z
1/2+x,1/2-y,z
loop_
_atom_site_type_symbol
_atom_site_label
_atom_site_fract_x
_atom_site_fract_y
_atom_site_fract_z
Si Si1 0.845903 0.821423 0.776644
Si Si2 0.215574 0.876244 0.641065
Si Si3 0.653367 0.288876 0.489098
Si Si4 0.583000 0.257234 0.960448
Si Si5 0.489357 0.618797 0.748697
Si Si6 0.666754 0.877301 0.054966
O O1 0.838195 0.835852 0.649227
O O2 0.925065 0.888321 0.721216
O O3 0.859821 0.697438 0.803773
O O4 0.765189 0.873083 0.930829
O O5 0.307146 0.831331 0.557268
O O6 0.202490 0.866555 0.518484
O O7 0.146957 0.803673 0.788815
O O8 0.210915 0.000000 0.688205
O O9 0.557520 0.288727 0.641775
O O10 0.500000 0.211645 0.000000
O O11 0.558334 0.355572 0.074717
O O12 0.626288 0.163177 0.983145
O O13 0.531175 0.500000 0.710996
O O14 0.637793 0.000000 0.113849
#
# Coordination Sequence:
#
# PCOD8111793 Si02
#       6
#     8   8   8   8   8   8
#     4  10  22  41  61  92 128 163 213 264 307 382
#     4  11  24  42  66  93 130 175 208 256 321 376
#     4  11  23  41  59  96 131 162 208 263 310 385
#     4  11  22  42  66  97 128 162 217 267 304 383
#     4  11  23  38  66  97 127 165 211 270 320 362
#     4  10  22  41  65  93 126 169 211 261 321 373
#
# _framework density 20.799551999999998
#
# number of rings (size 3 to 8) (size 9 to 14) (size 15 to 20)
#    0.000    1.333    3.333    2.000    0.000    5.000 
#    0.000    3.333    0.000    5.000    0.000    0.000 
#    0.000    0.000    0.000    0.000    0.000    0.000 
#
# Total GULP energy -297560.929299 kJ/mol
# GULP energy per Si atom -12398.372054 kJ/mol
# Density = 2.075221 g / cm^3
# Si number density = 20.799552 Si / 1000 Ang^3
#
#
#
# Elastic Constant Matrix: (Units=GPa)
#
#
# Indices 1 2 3 4 5 6 
#
# 1 118.4116 19.1602 31.1452 0.0000 -12.1290 0.0000
# 2 19.1602 108.7391 29.8584 0.0000 -10.7601 0.0000
# 3 31.1452 29.8584 91.0848 0.0000 2.5032 0.0000
# 4 0.0000 0.0000 0.0000 18.0490 0.0000 -2.5834
# 5 -12.1290 -10.7601 2.5032 0.0000 44.2770 0.0000
# 6 0.0000 0.0000 0.0000 -2.5834 0.0000 19.0972
#
#
#
# Elastic Compliance Matrix: (Units=1/GPa)
#
#
# Indices 1 2 3 4 5 6 
#
# 1 0.009650 -0.000558 -0.003191 0.000000 0.002688 0.000000
# 2 -0.000558 0.010458 -0.003308 0.000000 0.002576 0.000000
# 3 -0.003191 -0.003308 0.013221 0.000000 -0.002425 0.000000
# 4 0.000000 0.000000 0.000000 0.056499 0.000000 0.007643
# 5 0.002688 0.002576 -0.002425 0.000000 0.024084 0.000000
# 6 0.000000 0.000000 0.000000 0.007643 0.000000 0.053398
#
#
# Mechanical properties :
#
#
# Convention : Reuss Voigt Hill
#
# Bulk Modulus (GPa) = 52.04291 53.17367 52.60829
# Shear Modulus (GPa) = 26.62002 32.15608 29.38805
#
# Velocity S-wave (km/s) = 3.58136 3.93618 3.76296
# Velocity P-wave (km/s) = 6.49438 6.80282 6.65039
#
# Compressibility (1/GPa) = 0.01921491
#
# Stress axis : x y z
#
# Youngs Moduli (GPa) = 103.62695 95.62143 75.63826
#
# Poissons Ratio (x) = 0.05338 0.24133
# Poissons Ratio (y) = 0.05785 0.25022
# Poissons Ratio (z) = 0.33063 0.31632
#
# Static dielectric constant tensor:
#      x y z
#    x 4.098090 0.000000 -0.037440 
#    y 0.000000 3.617140 0.000000 
#    z -0.037440 0.000000 3.710920 
# 
# 
# High freq. dielectric constant tensor:
#      x y z
#    x 1.835060 0.000000 0.002840 
#    y 0.000000 1.787340 0.000000 
#    z 0.002840 0.000000 1.810770 
# 
# From -- ./inp_files/164681.got.cif
#   From: 2010.06.25/outbox.cif.g09.slc.cpg/sg12_83_cif.got.tgz:164681.got - 2010.06.28 00:19:55.
