data_PCOD8111474
_publ_section_title
;
Structure prediction by ZEFSAII (Michael W. Deem and Ramdas Pophale) SiO2 
 PCOD8111474
Probable space group: C 2/M
;
_chemical_formula_sum "Si O2"
_cell_formula_units_Z 64
_cell_length_a 8.708058
_cell_length_b 29.052382
_cell_length_c 21.959406
_cell_angle_alpha 90.000000
_cell_angle_beta 147.653109
_cell_angle_gamma 90.000000
_cell_volume 2972.439969
_symmetry_space_group_name_H-M "C 2/M"
_symmetry_group_IT_number 12
_symmetry_cell_setting 'monoclinic'
loop_
_space_group_symop_operation_xyz
x,y,z
-x,y,-z
-x,-y,-z
x,-y,z
1/2+x,1/2+y,z
1/2-x,1/2+y,-z
1/2-x,1/2-y,-z
1/2+x,1/2-y,z
loop_
_atom_site_type_symbol
_atom_site_label
_atom_site_fract_x
_atom_site_fract_y
_atom_site_fract_z
Si Si1 0.580561 0.105595 0.791240
Si Si2 0.853496 0.948304 0.719998
Si Si3 0.148684 0.395586 0.154636
Si Si4 0.689536 0.053263 0.395415
Si Si5 0.297681 0.202762 0.877899
Si Si6 0.392543 0.551954 0.062644
Si Si7 0.246252 0.249410 0.735520
Si Si8 0.721059 0.811173 0.368339
O O1 0.454137 0.119560 0.813391
O O2 0.436126 0.059727 0.714513
O O3 0.500713 0.146649 0.717465
O O4 0.916666 0.091484 0.907843
O O5 0.535360 0.927769 0.628708
O O6 0.028689 0.916691 0.731325
O O7 0.039721 0.947876 0.843722
O O8 0.827768 0.000000 0.685167
O O9 0.157533 0.351630 0.113920
O O10 0.937405 0.434110 0.056883
O O11 0.000000 0.078164 0.500000
O O12 0.724346 0.000000 0.420736
O O13 0.376177 0.228198 0.841247
O O14 0.969733 0.213091 0.785392
O O15 0.500000 0.221273 0.000000
O O16 0.439183 0.500000 0.051947
O O17 0.188098 0.209730 0.666450
O O18 0.943034 0.273530 0.646232
O O19 0.000000 0.827210 0.500000
#
# Coordination Sequence:
#
# PCOD8111474 Si02
#       8
#     8   8   8   8   8   8   8   8
#     4  11  23  38  58  91 124 160 211 262 309 380
#     4   9  19  35  58  86 117 158 206 255 309 369
#     4  12  23  36  58  90 132 159 212 255 311 376
#     4   9  19  38  62  84 114 160 210 254 314 380
#     4  11  23  41  63  94 128 170 203 252 316 384
#     4  10  22  40  61  88 126 176 214 251 314 381
#     4  10  24  44  66  94 125 163 215 259 322 385
#     4  11  23  44  70  93 123 163 214 273 323 373
#
# _framework density 21.531131999999999
#
# number of rings (size 3 to 8) (size 9 to 14) (size 15 to 20)
#    0.000    1.625    1.250    4.125    5.250    3.500 
#    0.000    0.625    0.000    2.250    0.000    0.000 
#    0.000    0.000    0.000    0.000    0.000    0.000 
#
# Total GULP energy -396643.526333 kJ/mol
# GULP energy per Si atom -12395.110198 kJ/mol
# Density = 2.148213 g / cm^3
# Si number density = 21.531132 Si / 1000 Ang^3
#
#
#
# Elastic Constant Matrix: (Units=GPa)
#
#
# Indices 1 2 3 4 5 6 
#
# 1 97.5969 38.1804 31.0569 0.0003 10.0769 -0.0002
# 2 38.1804 98.6697 33.2540 0.0009 10.5320 0.0002
# 3 31.0569 33.2540 85.4268 0.0058 18.6266 0.0001
# 4 0.0003 0.0009 0.0058 20.3810 0.0005 2.9106
# 5 10.0769 10.5320 18.6266 0.0005 35.8781 -0.0003
# 6 -0.0002 0.0002 0.0001 2.9106 -0.0003 30.9133
#
#
#
# Elastic Compliance Matrix: (Units=1/GPa)
#
#
# Indices 1 2 3 4 5 6 
#
# 1 0.012788 -0.003857 -0.002945 0.000001 -0.000931 0.000000
# 2 -0.003857 0.012874 -0.003407 0.000000 -0.000927 0.000000
# 3 -0.002945 -0.003407 0.015454 -0.000004 -0.006196 0.000000
# 4 0.000001 0.000000 -0.000004 0.049734 0.000001 -0.004683
# 5 -0.000931 -0.000927 -0.006196 0.000001 0.031622 0.000000
# 6 0.000000 0.000000 0.000000 -0.004683 0.000000 0.032789
#
#
# Mechanical properties :
#
#
# Convention : Reuss Voigt Hill
#
# Bulk Modulus (GPa) = 48.31232 54.07510 51.19371
# Shear Modulus (GPa) = 27.38530 29.38128 28.38329
#
# Velocity S-wave (km/s) = 3.57023 3.69805 3.63470
# Velocity P-wave (km/s) = 6.28351 6.58813 6.43762
#
# Compressibility (1/GPa) = 0.02069865
#
# Stress axis : x y z
#
# Youngs Moduli (GPa) = 78.19734 77.67315 64.70858
#
# Poissons Ratio (x) = 0.29955 0.19056
# Poissons Ratio (y) = 0.30157 0.22049
# Poissons Ratio (z) = 0.23029 0.26467
#
# Static dielectric constant tensor:
#      x y z
#    x 3.925810 0.000000 0.259260 
#    y 0.000000 3.793150 0.000000 
#    z 0.259260 0.000000 3.897120 
# 
# 
# High freq. dielectric constant tensor:
#      x y z
#    x 1.844650 0.000000 0.015260 
#    y 0.000000 1.840920 0.000000 
#    z 0.015260 0.000000 1.832940 
# 
# From -- ./inp_files/334373.got.cif
#   From: 2010.06.25/outbox.cif.g09.slc.cpg/sg12_168_cif.got.tgz:334373.got - 2010.06.28 00:19:55.
