data_PCOD8111542
_publ_section_title
;
Structure prediction by ZEFSAII (Michael W. Deem and Ramdas Pophale) SiO2 
 PCOD8111542
Probable space group: C 2/M
;
_chemical_formula_sum "Si O2"
_cell_formula_units_Z 64
_cell_length_a 9.210222
_cell_length_b 27.359956
_cell_length_c 14.938166
_cell_angle_alpha 90.000000
_cell_angle_beta 47.158066
_cell_angle_gamma 90.000000
_cell_volume 2760.097464
_symmetry_space_group_name_H-M "C 2/M"
_symmetry_group_IT_number 12
_symmetry_cell_setting 'monoclinic'
loop_
_space_group_symop_operation_xyz
x,y,z
-x,y,-z
-x,-y,-z
x,-y,z
1/2+x,1/2+y,z
1/2-x,1/2+y,-z
1/2-x,1/2-y,-z
1/2+x,1/2-y,z
loop_
_atom_site_type_symbol
_atom_site_label
_atom_site_fract_x
_atom_site_fract_y
_atom_site_fract_z
Si Si1 0.075234 0.182778 0.156623
Si Si2 0.923283 0.690314 0.319296
Si Si3 0.593985 0.054868 0.863796
Si Si4 0.605791 0.102713 0.546057
Si Si5 0.201945 0.628025 0.093603
Si Si6 0.741200 0.445487 0.790197
Si Si7 0.261007 0.743244 0.758451
Si Si8 0.530934 0.412660 0.711315
O O1 0.237688 0.212456 0.148253
O O2 0.923405 0.218550 0.168309
O O3 0.958171 0.145474 0.270619
O O4 0.185435 0.147874 0.039704
O O5 0.833164 0.648569 0.418640
O O6 0.754809 0.708424 0.321642
O O7 0.117099 0.674409 0.181298
O O8 0.020183 0.732659 0.340515
O O9 0.482141 0.092693 0.848618
O O10 0.820455 0.070356 0.765568
O O11 0.571720 0.000000 0.835248
O O12 0.500000 0.058749 0.000000
O O13 0.500000 0.121568 0.500000
O O14 0.460946 0.066764 0.660811
O O15 0.809890 0.075917 0.433657
O O16 0.333808 0.594474 0.105238
O O17 0.741869 0.500000 0.831221
O O18 0.582593 0.444275 0.777047
#
# Coordination Sequence:
#
# PCOD8111542 Si02
#       8
#     8   8   8   8   8   8   8   8
#     4  11  23  42  61  93 125 171 215 262 325 381
#     4  10  22  40  62  93 125 168 213 265 323 375
#     4  11  23  41  62  93 130 169 209 252 311 384
#     4   9  20  40  66  95 130 169 212 266 319 373
#     4  11  23  41  64  86 133 171 209 263 325 380
#     4  10  22  41  66  98 129 167 217 266 314 374
#     4  10  23  40  64  92 128 165 220 268 319 383
#     4  11  22  41  69  93 130 171 213 261 320 383
#
# _framework density 23.187588999999999
#
# number of rings (size 3 to 8) (size 9 to 14) (size 15 to 20)
#    0.000    1.625    1.250    3.750    0.000    7.750 
#    0.000   13.125    0.000    3.750    0.000    0.000 
#    0.000    0.000    0.000    0.000    0.000    0.000 
#
# Total GULP energy -396719.713609 kJ/mol
# GULP energy per Si atom -12397.491050 kJ/mol
# Density = 2.313481 g / cm^3
# Si number density = 23.187589 Si / 1000 Ang^3
#
#
#
# Elastic Constant Matrix: (Units=GPa)
#
#
# Indices 1 2 3 4 5 6 
#
# 1 114.8888 27.4722 29.5997 0.0000 6.2390 0.0000
# 2 27.4722 94.8968 5.6305 0.0000 8.9756 0.0000
# 3 29.5997 5.6305 53.8085 0.0000 -5.4225 0.0000
# 4 0.0000 0.0000 0.0000 -1.5813 0.0000 -14.5525
# 5 6.2390 8.9756 -5.4225 0.0000 26.5039 0.0000
# 6 0.0000 0.0000 0.0000 -14.5525 0.0000 14.4020
#
#
#
# Elastic Compliance Matrix: (Units=1/GPa)
#
#
# Indices 1 2 3 4 5 6 
#
# 1 0.011052 -0.002554 -0.006113 0.000000 -0.002987 0.000000
# 2 -0.002554 0.011604 -0.000148 0.000000 -0.003359 0.000000
# 3 -0.006113 -0.000148 0.022578 0.000000 0.006108 0.000000
# 4 0.000000 0.000000 0.000000 -0.061402 0.000000 -0.062044
# 5 -0.002987 -0.003359 0.006108 0.000000 0.040821 0.000000
# 6 0.000000 0.000000 0.000000 -0.062044 0.000000 0.006742
#
#
# Mechanical properties :
#
#
# Convention : Reuss Voigt Hill
#
# Bulk Modulus (GPa) = 36.22722 43.22213 39.72467
# Shear Modulus (GPa) = 85.87193 21.25769 53.56481
#
# Velocity S-wave (km/s) = 6.09212 3.03111 4.81153
# Velocity P-wave (km/s) = 8.07111 5.56155 6.93086
#
# Compressibility (1/GPa) = 0.02760356
#
# Stress axis : x y z
#
# Youngs Moduli (GPa) = 90.48022 86.17999 44.29004
#
# Poissons Ratio (x) = 0.22013 0.27077
# Poissons Ratio (y) = 0.23111 0.00654
# Poissons Ratio (z) = 0.55315 0.01272
#
# Static dielectric constant tensor:
#      x y z
#    x 4.399190 0.000000 0.179020 
#    y 0.000000 4.318790 0.000000 
#    z 0.179020 0.000000 3.970690 
# 
# 
# High freq. dielectric constant tensor:
#      x y z
#    x 1.926020 0.000000 0.005540 
#    y 0.000000 1.923360 0.000000 
#    z 0.005540 0.000000 1.895650 
# 
# From -- ./inp_files/201269.got.cif
#   From: 2010.06.25/outbox.cif.g09.slc.cpg/sg12_101_cif.got.tgz:201269.got - 2010.06.28 00:19:55.
