data_PCOD8111296
_publ_section_title
;
Structure prediction by ZEFSAII (Michael W. Deem and Ramdas Pophale) SiO2 
 PCOD8111296
Probable space group: C 2/M
;
_chemical_formula_sum "Si O2"
_cell_formula_units_Z 60
_cell_length_a 26.668024
_cell_length_b 13.263384
_cell_length_c 20.661992
_cell_angle_alpha 90.000000
_cell_angle_beta 22.157137
_cell_angle_gamma 90.000000
_cell_volume 2756.317366
_symmetry_space_group_name_H-M "C 2/M"
_symmetry_group_IT_number 12
_symmetry_cell_setting 'monoclinic'
loop_
_space_group_symop_operation_xyz
x,y,z
-x,y,-z
-x,-y,-z
x,-y,z
1/2+x,1/2+y,z
1/2-x,1/2+y,-z
1/2-x,1/2-y,-z
1/2+x,1/2-y,z
loop_
_atom_site_type_symbol
_atom_site_label
_atom_site_fract_x
_atom_site_fract_y
_atom_site_fract_z
Si Si1 0.231169 0.800555 0.160916
Si Si2 0.941116 0.386298 0.641256
Si Si3 0.632066 0.885901 0.529211
Si Si4 0.476496 0.614136 0.682801
Si Si5 0.007281 0.240770 0.214985
Si Si6 0.065992 0.115640 0.815609
Si Si7 0.243661 0.119664 0.289625
Si Si8 0.000000 0.259160 0.000000
O O1 0.185868 0.685475 0.202707
O O2 0.220217 0.832615 0.247825
O O3 0.136256 0.877519 0.236721
O O4 0.380785 0.805880 0.955557
O O5 0.892851 0.500000 0.712831
O O6 0.000000 0.376282 0.500000
O O7 0.050807 0.350868 0.562658
O O8 0.600199 0.820211 0.630525
O O9 0.787924 0.877341 0.327723
O O10 0.593985 0.000000 0.592286
O O11 0.485401 0.500000 0.695961
O O12 0.432459 0.681945 0.795808
O O13 0.619657 0.648179 0.483464
O O14 0.935446 0.159388 0.255043
O O15 0.014686 0.000000 0.876995
O O16 0.971203 0.186070 0.973000
O O17 0.262792 0.000000 0.260876
O O18 0.374380 0.169362 0.164773
#
# Coordination Sequence:
#
# PCOD8111296 Si02
#       8
#     8   8   8   8   8   8   8   4
#     4  12  24  42  65  99 135 174 222 269 329 388
#     4  10  22  39  64  97 131 172 218 267 324 393
#     4  10  23  42  66  95 131 175 221 268 329 397
#     4  11  24  42  69  96 134 180 220 272 328 399
#     4  12  24  44  64 100 134 173 219 276 338 391
#     4  11  25  45  69  97 130 169 219 274 334 403
#     4  11  25  46  70  99 132 175 227 274 328 394
#     4  12  24  46  70 100 128 170 214 280 338 392
#
# _framework density 21.768173999999998
#
# number of rings (size 3 to 8) (size 9 to 14) (size 15 to 20)
#    0.000    0.933    2.667    4.000    1.867    3.200 
#    0.000    1.333    0.000    0.000    0.000    0.000 
#    0.000    0.000    0.000    0.000    0.000    0.000 
#
# Total GULP energy -372135.557995 kJ/mol
# GULP energy per Si atom -12404.518600 kJ/mol
# Density = 2.171863 g / cm^3
# Si number density = 21.768174 Si / 1000 Ang^3
#
#
#
# Elastic Constant Matrix: (Units=GPa)
#
#
# Indices 1 2 3 4 5 6 
#
# 1 94.2292 30.7834 11.5787 0.0008 5.3769 -0.0005
# 2 30.7834 113.1027 28.9723 0.0012 4.5717 -0.0008
# 3 11.5787 28.9723 67.2126 0.0017 1.3895 -0.0013
# 4 0.0008 0.0012 0.0017 29.8042 -0.0009 1.5958
# 5 5.3769 4.5717 1.3895 -0.0009 30.3349 0.0005
# 6 -0.0005 -0.0008 -0.0013 1.5958 0.0005 40.6776
#
#
#
# Elastic Compliance Matrix: (Units=1/GPa)
#
#
# Indices 1 2 3 4 5 6 
#
# 1 0.011756 -0.002950 -0.000720 0.000000 -0.001606 0.000000
# 2 -0.002950 0.010731 -0.004099 0.000000 -0.000907 0.000000
# 3 -0.000720 -0.004099 0.016769 -0.000001 -0.000023 0.000000
# 4 0.000000 0.000000 -0.000001 0.033623 0.000001 -0.001319
# 5 -0.001606 -0.000907 -0.000023 0.000001 0.033388 -0.000001
# 6 0.000000 0.000000 0.000000 -0.001319 -0.000001 0.024635
#
#
# Mechanical properties :
#
#
# Convention : Reuss Voigt Hill
#
# Bulk Modulus (GPa) = 42.16150 46.35702 44.25926
# Shear Modulus (GPa) = 32.39439 33.71068 33.05254
#
# Velocity S-wave (km/s) = 3.86184 3.93952 3.90088
# Velocity P-wave (km/s) = 6.26862 6.48345 6.37694
#
# Compressibility (1/GPa) = 0.02371832
#
# Stress axis : x y z
#
# Youngs Moduli (GPa) = 85.05996 93.18729 59.63216
#
# Poissons Ratio (x) = 0.27493 0.04295
# Poissons Ratio (y) = 0.25095 0.24441
# Poissons Ratio (z) = 0.06127 0.38195
#
# Static dielectric constant tensor:
#      x y z
#    x 3.881640 0.000000 0.003670 
#    y 0.000000 4.137810 0.000000 
#    z 0.003670 0.000000 3.717780 
# 
# 
# High freq. dielectric constant tensor:
#      x y z
#    x 1.858760 0.000000 0.002340 
#    y 0.000000 1.874180 0.000000 
#    z 0.002340 0.000000 1.845900 
# 
# From -- ./inp_files/328380.got.cif
#   From: 2010.06.25/outbox.cif.g09.slc.cpg/sg12_165_cif.got.tgz:328380.got - 2010.06.28 00:19:55.
