data_PCOD8111345
_publ_section_title
;
Structure prediction by ZEFSAII (Michael W. Deem and Ramdas Pophale) SiO2 
 PCOD8111345
Probable space group: C 2/M
;
_chemical_formula_sum "Si O2"
_cell_formula_units_Z 48
_cell_length_a 19.211439
_cell_length_b 8.647427
_cell_length_c 29.547046
_cell_angle_alpha 90.000000
_cell_angle_beta 148.658643
_cell_angle_gamma 90.000000
_cell_volume 2553.157250
_symmetry_space_group_name_H-M "C 2/M"
_symmetry_group_IT_number 12
_symmetry_cell_setting 'monoclinic'
loop_
_space_group_symop_operation_xyz
x,y,z
-x,y,-z
-x,-y,-z
x,-y,z
1/2+x,1/2+y,z
1/2-x,1/2+y,-z
1/2-x,1/2-y,-z
1/2+x,1/2-y,z
loop_
_atom_site_type_symbol
_atom_site_label
_atom_site_fract_x
_atom_site_fract_y
_atom_site_fract_z
Si Si1 0.369652 0.820460 0.594238
Si Si2 0.332295 0.182641 0.258264
Si Si3 0.220495 0.818813 0.865340
Si Si4 0.553990 0.177859 0.266487
Si Si5 0.124036 0.321561 0.206189
Si Si6 0.145270 0.818106 0.977245
O O1 0.250000 0.750000 0.500000
O O2 0.513629 0.760489 0.656617
O O3 0.355579 0.778049 0.639737
O O4 0.360888 0.000000 0.581235
O O5 0.261542 0.231723 0.172265
O O6 0.262916 0.267919 0.261613
O O7 0.319676 0.000000 0.257176
O O8 0.077065 0.784111 0.808390
O O9 0.237641 0.000000 0.866884
O O10 0.334574 0.758222 0.962459
O O11 0.639717 0.203314 0.268851
O O12 0.504828 0.000000 0.244059
O O13 0.094162 0.500000 0.178238
O O14 0.004991 0.217009 0.121225
O O15 0.168645 0.000000 0.993350
O O16 0.250000 0.750000 0.000000
#
# Coordination Sequence:
#
# PCOD8111345 Si02
#       6
#     8   8   8   8   8   8
#     4   9  19  37  61  86 110 144 184 229 282 341
#     4  10  22  40  58  81 117 151 184 233 291 339
#     4  11  21  35  57  83 110 149 198 237 278 333
#     4   9  19  36  57  81 114 149 185 231 285 335
#     4  11  22  37  58  84 114 150 191 236 285 335
#     4  12  23  36  55  82 115 152 195 238 279 326
#
# _framework density 18.800253000000001
#
# number of rings (size 3 to 8) (size 9 to 14) (size 15 to 20)
#    0.000    1.667    1.667    5.000    0.000    4.667 
#    0.000    4.167    0.000    5.000    0.000    0.000 
#    0.000    0.000    0.000    0.000    0.000    0.000 
#
# Total GULP energy -297658.084278 kJ/mol
# GULP energy per Si atom -12402.420178 kJ/mol
# Density = 1.875746 g / cm^3
# Si number density = 18.800253 Si / 1000 Ang^3
#
#
#
# Elastic Constant Matrix: (Units=GPa)
#
#
# Indices 1 2 3 4 5 6 
#
# 1 131.6023 26.2713 53.7145 0.0000 -2.7651 0.0000
# 2 26.2713 62.1598 20.3421 0.0000 -3.2041 0.0002
# 3 53.7145 20.3421 116.1447 0.0000 -15.0102 0.0000
# 4 0.0000 0.0000 0.0000 32.5425 0.0000 -0.2043
# 5 -2.7651 -3.2041 -15.0102 0.0000 23.5312 0.0000
# 6 0.0000 0.0002 0.0000 -0.2043 0.0000 32.3711
#
#
#
# Elastic Compliance Matrix: (Units=1/GPa)
#
#
# Indices 1 2 3 4 5 6 
#
# 1 0.009898 -0.002868 -0.004332 0.000000 -0.001991 0.000000
# 2 -0.002868 0.017901 -0.001676 0.000000 0.001032 0.000000
# 3 -0.004332 -0.001676 0.011783 0.000000 0.006779 0.000000
# 4 0.000000 0.000000 0.000000 0.030730 0.000000 0.000194
# 5 -0.001991 0.001032 0.006779 0.000000 0.046728 0.000000
# 6 0.000000 0.000000 0.000000 0.000194 0.000000 0.030893
#
#
# Mechanical properties :
#
#
# Convention : Reuss Voigt Hill
#
# Bulk Modulus (GPa) = 45.80853 56.72919 51.26886
# Shear Modulus (GPa) = 28.90813 31.66087 30.28450
#
# Velocity S-wave (km/s) = 3.92554 4.10819 4.01790
# Velocity P-wave (km/s) = 6.70561 7.26245 6.98958
#
# Compressibility (1/GPa) = 0.02183000
#
# Stress axis : x y z
#
# Youngs Moduli (GPa) = 101.03385 55.86212 84.86653
#
# Poissons Ratio (x) = 0.16021 0.36768
# Poissons Ratio (y) = 0.28976 0.14220
# Poissons Ratio (z) = 0.43773 0.09360
#
# Static dielectric constant tensor:
#      x y z
#    x 3.571160 0.000000 -0.101740 
#    y 0.000000 3.497130 0.000000 
#    z -0.101740 0.000000 3.800910 
# 
# 
# High freq. dielectric constant tensor:
#      x y z
#    x 1.734470 0.000000 -0.012400 
#    y 0.000000 1.738340 0.000000 
#    z -0.012400 0.000000 1.710940 
# 
# From -- ./inp_files/244729.got.cif
#   From: 2010.06.25/outbox.cif.g09.slc.cpg/sg12_123_cif.got.tgz:244729.got - 2010.06.28 00:19:55.
