data_PCOD8111414
_publ_section_title
;
Structure prediction by ZEFSAII (Michael W. Deem and Ramdas Pophale) SiO2 
 PCOD8111414
Probable space group: C 2/M
;
_chemical_formula_sum "Si O2"
_cell_formula_units_Z 40
_cell_length_a 28.617855
_cell_length_b 15.348700
_cell_length_c 5.172034
_cell_angle_alpha 90.000000
_cell_angle_beta 112.905370
_cell_angle_gamma 90.000000
_cell_volume 2092.665913
_symmetry_space_group_name_H-M "C 2/M"
_symmetry_group_IT_number 12
_symmetry_cell_setting 'monoclinic'
loop_
_space_group_symop_operation_xyz
x,y,z
-x,y,-z
-x,-y,-z
x,-y,z
1/2+x,1/2+y,z
1/2-x,1/2+y,-z
1/2-x,1/2-y,-z
1/2+x,1/2-y,z
loop_
_atom_site_type_symbol
_atom_site_label
_atom_site_fract_x
_atom_site_fract_y
_atom_site_fract_z
Si Si1 0.105834 0.242288 0.248270
Si Si2 0.441960 0.201844 0.365448
Si Si3 0.749906 0.147613 0.963019
Si Si4 0.358257 0.098091 0.408202
Si Si5 0.310089 0.598424 0.590408
O O1 0.070785 0.230861 0.428047
O O2 0.139817 0.330963 0.353550
O O3 0.141111 0.159319 0.288547
O O4 0.069177 0.249402 0.924956
O O5 0.500000 0.171368 0.500000
O O6 0.406093 0.116521 0.320183
O O7 0.693200 0.110533 0.864904
O O8 0.770324 0.125097 0.723708
O O9 0.750000 0.250000 0.000000
O O10 0.784044 0.103831 0.255086
O O11 0.362046 0.000000 0.526172
O O12 0.328665 0.500000 0.674981
#
# Coordination Sequence:
#
# PCOD8111414 Si02
#       5
#     8   8   8   8   8
#     4  10  22  40  60  88 115 160 198 250 300 356
#     4  10  22  41  62  85 116 158 199 251 313 359
#     4  12  23  40  60  91 130 167 203 245 299 358
#     4  10  23  37  59  90 122 158 203 245 296 360
#     4  12  24  40  63  92 127 167 204 245 300 364
#
# _framework density 19.114374000000002
#
# number of rings (size 3 to 8) (size 9 to 14) (size 15 to 20)
#    1.200    0.000    2.000    5.400    2.800    1.200 
#    0.000    1.000    0.000    3.600    0.000    0.000 
#    0.000    0.000    0.000    0.000    0.000    0.000 
#
# Total GULP energy -247934.472230 kJ/mol
# GULP energy per Si atom -12396.723611 kJ/mol
# Density = 1.907087 g / cm^3
# Si number density = 19.114374 Si / 1000 Ang^3
#
#
#
# Elastic Constant Matrix: (Units=GPa)
#
#
# Indices 1 2 3 4 5 6 
#
# 1 89.6853 36.7798 31.5126 0.0000 16.4178 0.0000
# 2 36.7798 141.5436 24.2704 0.0000 10.8741 0.0000
# 3 31.5126 24.2704 106.0417 0.0000 -3.5466 0.0000
# 4 0.0000 0.0000 0.0000 11.8860 0.0000 -8.6389
# 5 16.4178 10.8741 -3.5466 0.0000 35.1998 0.0000
# 6 0.0000 0.0000 0.0000 -8.6389 0.0000 9.8479
#
#
#
# Elastic Compliance Matrix: (Units=1/GPa)
#
#
# Indices 1 2 3 4 5 6 
#
# 1 0.014848 -0.002669 -0.004019 0.000000 -0.006506 0.000000
# 2 -0.002669 0.008050 -0.001094 0.000000 -0.001352 0.000000
# 3 -0.004019 -0.001094 0.010986 0.000000 0.003320 0.000000
# 4 0.000000 0.000000 0.000000 0.232137 0.000000 0.203637
# 5 -0.006506 -0.001352 0.003320 0.000000 0.032196 0.000000
# 6 0.000000 0.000000 0.000000 0.203637 0.000000 0.280179
#
#
# Mechanical properties :
#
#
# Convention : Reuss Voigt Hill
#
# Bulk Modulus (GPa) = 54.58938 58.04403 56.31670
# Shear Modulus (GPa) = 8.33239 27.70061 18.01650
#
# Velocity S-wave (km/s) = 2.09014 3.81097 3.07345
# Velocity P-wave (km/s) = 5.86909 7.05672 6.49013
#
# Compressibility (1/GPa) = 0.01831858
#
# Stress axis : x y z
#
# Youngs Moduli (GPa) = 67.34998 124.22196 91.02405
#
# Poissons Ratio (x) = 0.33158 0.36583
# Poissons Ratio (y) = 0.17977 0.09962
# Poissons Ratio (z) = 0.27068 0.13596
#
# Static dielectric constant tensor:
#      x y z
#    x 3.403820 0.000000 0.047070 
#    y 0.000000 3.434020 0.000000 
#    z 0.047070 0.000000 2.636210 
# 
# 
# High freq. dielectric constant tensor:
#      x y z
#    x 1.738030 0.000000 -0.005560 
#    y 0.000000 1.728970 0.000000 
#    z -0.005560 0.000000 1.749370 
# 
# From -- ./inp_files/28054.got.cif
#   From: 2010.06.25/outbox.cif.g09.slc.cpg/sg12_15_cif.got.tgz:28054.got - 2010.06.28 00:19:55.
