data_PCOD8111251
_publ_section_title
;
Structure prediction by ZEFSAII (Michael W. Deem and Ramdas Pophale) SiO2 
 PCOD8111251
Probable space group: C 2/M
;
_chemical_formula_sum "Si O2"
_cell_formula_units_Z 40
_cell_length_a 13.229576
_cell_length_b 13.364249
_cell_length_c 14.692972
_cell_angle_alpha 90.000000
_cell_angle_beta 48.529002
_cell_angle_gamma 90.000000
_cell_volume 1946.483241
_symmetry_space_group_name_H-M "C 2/M"
_symmetry_group_IT_number 12
_symmetry_cell_setting 'monoclinic'
loop_
_space_group_symop_operation_xyz
x,y,z
-x,y,-z
-x,-y,-z
x,-y,z
1/2+x,1/2+y,z
1/2-x,1/2+y,-z
1/2-x,1/2-y,-z
1/2+x,1/2-y,z
loop_
_atom_site_type_symbol
_atom_site_label
_atom_site_fract_x
_atom_site_fract_y
_atom_site_fract_z
Si Si1 0.377948 0.811634 0.133166
Si Si2 0.131940 0.383796 0.471273
Si Si3 0.400119 0.383985 0.209657
Si Si4 0.454994 0.114798 0.280503
Si Si5 0.347005 0.716005 0.861500
O O1 0.397058 0.690615 0.125308
O O2 0.375622 0.859093 0.235101
O O3 0.237471 0.836848 0.168193
O O4 0.500000 0.856650 0.000000
O O5 0.123577 0.500000 0.455267
O O6 0.274521 0.346698 0.346534
O O7 0.136764 0.362385 0.576562
O O8 0.000000 0.334005 0.500000
O O9 0.391125 0.500000 0.184874
O O10 0.540149 0.364913 0.178928
O O11 0.588074 0.181054 0.212077
O O12 0.501561 0.000000 0.251519
O O13 0.250000 0.750000 0.000000
#
# Coordination Sequence:
#
# PCOD8111251 Si02
#       5
#     8   8   8   8   8
#     4  11  22  40  55  86 127 155 199 247 287 358
#     4   9  18  37  63  93 119 149 203 255 298 359
#     4  10  22  39  63  88 118 158 201 249 302 350
#     4  10  22  39  63  86 116 161 201 241 303 359
#     4  11  22  40  55  86 127 155 200 249 285 355
#
# _framework density 20.549880999999999
#
# number of rings (size 3 to 8) (size 9 to 14) (size 15 to 20)
#    0.000    1.800    4.000    1.200    0.000    8.000 
#    0.000    3.000    0.000    3.600    0.000    0.000 
#    0.000    0.000    0.000    0.000    0.000    0.000 
#
# Total GULP energy -247871.672209 kJ/mol
# GULP energy per Si atom -12393.583610 kJ/mol
# Density = 2.050311 g / cm^3
# Si number density = 20.549881 Si / 1000 Ang^3
#
#
#
# Elastic Constant Matrix: (Units=GPa)
#
#
# Indices 1 2 3 4 5 6 
#
# 1 130.1662 -24.5093 36.7284 0.0000 -8.4732 0.0000
# 2 -24.5093 47.1635 2.8210 0.0000 -2.8735 0.0000
# 3 36.7284 2.8210 106.4600 0.0000 -5.6472 0.0000
# 4 0.0000 0.0000 0.0000 27.2258 0.0000 0.3964
# 5 -8.4732 -2.8735 -5.6472 0.0000 38.1089 0.0000
# 6 0.0000 0.0000 0.0000 0.3964 0.0000 23.8721
#
#
#
# Elastic Compliance Matrix: (Units=1/GPa)
#
#
# Indices 1 2 3 4 5 6 
#
# 1 0.009803 0.005426 -0.003415 0.000000 0.002083 0.000000
# 2 0.005426 0.024328 -0.002374 0.000000 0.002689 0.000000
# 3 -0.003415 -0.002374 0.010668 0.000000 0.000643 0.000000
# 4 0.000000 0.000000 0.000000 0.036739 0.000000 -0.000610
# 5 0.002083 0.002689 0.000643 0.000000 0.027002 0.000000
# 6 0.000000 0.000000 0.000000 -0.000610 0.000000 0.041900
#
#
# Mechanical properties :
#
#
# Convention : Reuss Voigt Hill
#
# Bulk Modulus (GPa) = 22.68972 34.87443 28.78207
# Shear Modulus (GPa) = 30.14612 35.75798 32.95205
#
# Velocity S-wave (km/s) = 3.83426 4.17593 4.00874
# Velocity P-wave (km/s) = 5.53781 6.34497 5.95508
#
# Compressibility (1/GPa) = 0.04407282
#
# Stress axis : x y z
#
# Youngs Moduli (GPa) = 102.00561 41.10460 93.73391
#
# Poissons Ratio (x) = -0.22302 0.32014
# Poissons Ratio (y) = -0.55345 0.22251
# Poissons Ratio (z) = 0.34839 0.09758
#
# Static dielectric constant tensor:
#      x y z
#    x 3.877190 0.000000 -0.186050 
#    y 0.000000 3.509650 0.000000 
#    z -0.186050 0.000000 4.040740 
# 
# 
# High freq. dielectric constant tensor:
#      x y z
#    x 1.806540 0.000000 -0.000400 
#    y 0.000000 1.780440 0.000000 
#    z -0.000400 0.000000 1.811480 
# 
# From -- ./inp_files/141846.got.cif
#   From: 2010.06.25/outbox.cif.g09.slc.cpg/sg12_71_cif.got.tgz:141846.got - 2010.06.28 00:19:55.
