data_PCOD8111529
_publ_section_title
;
Structure prediction by ZEFSAII (Michael W. Deem and Ramdas Pophale) SiO2 
 PCOD8111529
Probable space group: C 2/M
;
_chemical_formula_sum "Si O2"
_cell_formula_units_Z 56
_cell_length_a 24.278672
_cell_length_b 26.753724
_cell_length_c 11.267255
_cell_angle_alpha 90.000000
_cell_angle_beta 156.813669
_cell_angle_gamma 90.000000
_cell_volume 2881.493614
_symmetry_space_group_name_H-M "C 2/M"
_symmetry_group_IT_number 12
_symmetry_cell_setting 'monoclinic'
loop_
_space_group_symop_operation_xyz
x,y,z
-x,y,-z
-x,-y,-z
x,-y,z
1/2+x,1/2+y,z
1/2-x,1/2+y,-z
1/2-x,1/2-y,-z
1/2+x,1/2-y,z
loop_
_atom_site_type_symbol
_atom_site_label
_atom_site_fract_x
_atom_site_fract_y
_atom_site_fract_z
Si Si1 0.531209 0.058501 0.698365
Si Si2 0.162722 0.202492 0.182912
Si Si3 0.035914 0.941177 0.701430
Si Si4 0.155999 0.557359 0.317560
Si Si5 0.276803 0.103886 0.314601
Si Si6 0.335848 0.300359 0.538244
Si Si7 0.218897 0.904773 0.670301
O O1 0.500000 0.067855 0.500000
O O2 0.436936 0.094163 0.594720
O O3 0.512730 0.000000 0.695725
O O4 0.688034 0.077460 0.033788
O O5 0.231600 0.161787 0.230983
O O6 0.244176 0.253363 0.316813
O O7 0.184238 0.187369 0.362656
O O8 0.998460 0.209186 0.829467
O O9 0.000000 0.919743 0.500000
O O10 0.940108 0.916784 0.612565
O O11 0.016703 0.000000 0.664315
O O12 0.192115 0.926133 0.046413
O O13 0.141388 0.500000 0.323507
O O14 0.247222 0.583001 0.600912
O O15 0.237939 0.563044 0.357683
O O16 0.000000 0.581286 0.000000
O O17 0.271248 0.346034 0.336343
#
# Coordination Sequence:
#
# PCOD8111529 Si02
#       7
#     8   8   8   8   8   8   8
#     4  11  24  41  62  89 124 173 223 252 286 360
#     4  10  22  40  62  91 123 158 201 249 311 381
#     4  11  24  41  62  89 124 169 213 250 298 366
#     4  11  22  35  56  91 130 165 200 249 312 373
#     4  12  22  39  63  91 127 162 202 260 313 364
#     4  10  22  40  62  91 123 158 201 249 311 381
#     4  12  22  39  63  91 127 162 202 260 313 364
#
# _framework density 19.434365
#
# number of rings (size 3 to 8) (size 9 to 14) (size 15 to 20)
#    0.000    1.000    4.286    3.429    2.000    2.857 
#    0.000    1.429    0.000    5.143    0.000    0.000 
#    0.000    0.000    0.000    0.000    0.000    0.000 
#
# Total GULP energy -347309.261382 kJ/mol
# GULP energy per Si atom -12403.902192 kJ/mol
# Density = 1.939013 g / cm^3
# Si number density = 19.434365 Si / 1000 Ang^3
#
#
#
# Elastic Constant Matrix: (Units=GPa)
#
#
# Indices 1 2 3 4 5 6 
#
# 1 61.8093 30.7403 16.0026 0.0000 -8.3953 0.0000
# 2 30.7403 109.2206 32.5563 0.0000 -1.4101 0.0000
# 3 16.0026 32.5563 73.5963 0.0000 -11.4812 0.0000
# 4 0.0000 0.0000 0.0000 35.2082 0.0000 1.7834
# 5 -8.3953 -1.4101 -11.4812 0.0000 39.1327 0.0000
# 6 0.0000 0.0000 0.0000 1.7834 0.0000 19.4612
#
#
#
# Elastic Compliance Matrix: (Units=1/GPa)
#
#
# Indices 1 2 3 4 5 6 
#
# 1 0.019540 -0.005015 -0.001472 0.000000 0.003579 0.000000
# 2 -0.005015 0.011874 -0.004468 0.000000 -0.001959 0.000000
# 3 -0.001472 -0.004468 0.016568 0.000000 0.004384 0.000000
# 4 0.000000 0.000000 0.000000 0.028535 0.000000 -0.002615
# 5 0.003579 -0.001959 0.004384 0.000000 0.027538 0.000000
# 6 0.000000 0.000000 0.000000 -0.002615 0.000000 0.051624
#
#
# Mechanical properties :
#
#
# Convention : Reuss Voigt Hill
#
# Bulk Modulus (GPa) = 38.35388 44.80275 41.57831
# Shear Modulus (GPa) = 26.84166 29.78222 28.31194
#
# Velocity S-wave (km/s) = 3.72041 3.91890 3.82094
# Velocity P-wave (km/s) = 6.18330 6.60155 6.39584
#
# Compressibility (1/GPa) = 0.02607298
#
# Stress axis : x y z
#
# Youngs Moduli (GPa) = 51.17699 84.22077 60.35744
#
# Poissons Ratio (x) = 0.42233 0.08885
# Poissons Ratio (y) = 0.25663 0.26965
# Poissons Ratio (z) = 0.07534 0.37627
#
# Static dielectric constant tensor:
#      x y z
#    x 3.467050 0.000000 -0.038010 
#    y 0.000000 3.400480 0.000000 
#    z -0.038010 0.000000 3.706580 
# 
# 
# High freq. dielectric constant tensor:
#      x y z
#    x 1.748010 0.000000 0.002980 
#    y 0.000000 1.748100 0.000000 
#    z 0.002980 0.000000 1.768440 
# 
# From -- ./inp_files/178706.got.cif
#   From: 2010.06.25/outbox.cif.g09.slc.cpg/sg12_90_cif.got.tgz:178706.got - 2010.06.28 00:19:55.
