data_PCOD8111212
_publ_section_title
;
Structure prediction by ZEFSAII (Michael W. Deem and Ramdas Pophale) SiO2 
 PCOD8111212
Probable space group: C 2/M
;
_chemical_formula_sum "Si O2"
_cell_formula_units_Z 56
_cell_length_a 18.388424
_cell_length_b 8.912840
_cell_length_c 26.960393
_cell_angle_alpha 90.000000
_cell_angle_beta 141.316174
_cell_angle_gamma 90.000000
_cell_volume 2761.737312
_symmetry_space_group_name_H-M "C 2/M"
_symmetry_group_IT_number 12
_symmetry_cell_setting 'monoclinic'
loop_
_space_group_symop_operation_xyz
x,y,z
-x,y,-z
-x,-y,-z
x,-y,z
1/2+x,1/2+y,z
1/2-x,1/2+y,-z
1/2-x,1/2-y,-z
1/2+x,1/2-y,z
loop_
_atom_site_type_symbol
_atom_site_label
_atom_site_fract_x
_atom_site_fract_y
_atom_site_fract_z
Si Si1 0.490593 0.175260 0.270436
Si Si2 0.585226 0.672889 0.149323
Si Si3 0.674343 0.327236 0.302871
Si Si4 0.844260 0.322358 0.013691
Si Si5 0.884467 0.165070 0.468634
Si Si6 0.722083 0.324066 0.123261
Si Si7 0.126603 0.324575 0.440252
O O1 0.553041 0.267464 0.260391
O O2 0.356215 0.219894 0.200592
O O3 0.543572 0.223344 0.351305
O O4 0.508186 0.000000 0.269156
O O5 0.545094 0.500000 0.123394
O O6 0.671383 0.693642 0.241932
O O7 0.472969 0.775316 0.099042
O O8 0.654033 0.723646 0.136755
O O9 0.689026 0.500000 0.325541
O O10 0.782560 0.238293 0.382458
O O11 0.830942 0.500000 0.010082
O O12 0.750000 0.250000 0.000000
O O13 0.829590 0.268565 0.949619
O O14 0.925795 0.265007 0.536621
O O15 0.000000 0.145650 0.500000
O O16 0.839325 0.000000 0.461564
O O17 0.706455 0.500000 0.104189
O O18 0.141725 0.500000 0.451547
O O19 0.250000 0.250000 0.500000
#
# Coordination Sequence:
#
# PCOD8111212 Si02
#       7
#     8   8   8   8   8   8   8
#     4  10  22  39  62  89 123 162 204 253 308 368
#     4  10  23  42  65  94 128 163 202 249 306 367
#     4  11  23  39  63  91 121 161 208 257 306 366
#     4  12  25  42  66  95 126 163 207 251 301 362
#     4  11  25  42  60  86 123 165 208 258 314 368
#     4  10  22  42  66  93 127 165 201 249 307 363
#     4  11  22  38  63  91 122 161 208 258 309 367
#
# _framework density 20.277092
#
# number of rings (size 3 to 8) (size 9 to 14) (size 15 to 20)
#    0.000    1.286    1.429    3.857    2.000    8.000 
#    0.000    0.000    0.000    0.000    0.000    0.000 
#    0.000    0.000    0.000    0.000    0.000    0.000 
#
# Total GULP energy -347304.952578 kJ/mol
# GULP energy per Si atom -12403.748306 kJ/mol
# Density = 2.023094 g / cm^3
# Si number density = 20.277092 Si / 1000 Ang^3
#
#
#
# Elastic Constant Matrix: (Units=GPa)
#
#
# Indices 1 2 3 4 5 6 
#
# 1 118.2194 42.8754 29.4728 0.0000 -7.0345 0.0000
# 2 42.8754 87.2182 36.5328 0.0001 -2.9454 0.0001
# 3 29.4728 36.5328 89.9350 0.0000 -5.9072 0.0000
# 4 0.0000 0.0001 0.0000 22.0142 0.0000 -23.3985
# 5 -7.0345 -2.9454 -5.9072 0.0000 41.8741 0.0000
# 6 0.0000 0.0001 0.0000 -23.3985 0.0000 -27.1252
#
#
#
# Elastic Compliance Matrix: (Units=1/GPa)
#
#
# Indices 1 2 3 4 5 6 
#
# 1 0.010549 -0.004495 -0.001550 0.000000 0.001237 0.000000
# 2 -0.004495 0.015733 -0.004941 0.000000 -0.000345 0.000000
# 3 -0.001550 -0.004941 0.013721 0.000000 0.001328 0.000000
# 4 0.000000 0.000000 0.000000 0.023698 0.000000 -0.020442
# 5 0.001237 -0.000345 0.001328 0.000000 0.024252 0.000000
# 6 0.000000 0.000000 0.000000 -0.020442 0.000000 -0.019233
#
#
# Mechanical properties :
#
#
# Convention : Reuss Voigt Hill
#
# Bulk Modulus (GPa) = 55.45542 57.01496 56.23519
# Shear Modulus (GPa) = 51.70538 19.78539 35.74539
#
# Velocity S-wave (km/s) = 5.05517 3.12709 4.20318
# Velocity P-wave (km/s) = 7.84099 6.42006 7.16584
#
# Compressibility (1/GPa) = 0.01803250
#
# Stress axis : x y z
#
# Youngs Moduli (GPa) = 94.79547 63.56122 72.87977
#
# Poissons Ratio (x) = 0.28569 0.11296
# Poissons Ratio (y) = 0.42608 0.36007
# Poissons Ratio (z) = 0.14693 0.31403
#
# Static dielectric constant tensor:
#      x y z
#    x 3.735270 0.000000 0.143750 
#    y 0.000000 3.667500 0.000000 
#    z 0.143750 0.000000 3.341340 
# 
# 
# High freq. dielectric constant tensor:
#      x y z
#    x 1.803580 0.000000 -0.005030 
#    y 0.000000 1.794420 0.000000 
#    z -0.005030 0.000000 1.804460 
# 
# From -- ./inp_files/342206.got.cif
#   From: 2010.06.25/outbox.cif.g09.slc.cpg/sg12_172_cif.got.tgz:342206.got - 2010.06.28 00:19:55.
