data_PCOD8111587
_publ_section_title
;
Structure prediction by ZEFSAII (Michael W. Deem and Ramdas Pophale) SiO2 
 PCOD8111587
Probable space group: C 2/M
;
_chemical_formula_sum "Si O2"
_cell_formula_units_Z 64
_cell_length_a 11.604272
_cell_length_b 18.030377
_cell_length_c 14.089227
_cell_angle_alpha 90.000000
_cell_angle_beta 94.433001
_cell_angle_gamma 90.000000
_cell_volume 2939.061614
_symmetry_space_group_name_H-M "C 2/M"
_symmetry_group_IT_number 12
_symmetry_cell_setting 'monoclinic'
loop_
_space_group_symop_operation_xyz
x,y,z
-x,y,-z
-x,-y,-z
x,-y,z
1/2+x,1/2+y,z
1/2-x,1/2+y,-z
1/2-x,1/2-y,-z
1/2+x,1/2-y,z
loop_
_atom_site_type_symbol
_atom_site_label
_atom_site_fract_x
_atom_site_fract_y
_atom_site_fract_z
Si Si1 0.579442 0.334224 0.252986
Si Si2 0.130025 0.288183 0.528455
Si Si3 0.688425 0.912255 0.393795
Si Si4 0.749505 0.196359 0.090498
Si Si5 0.933909 0.918209 0.092296
Si Si6 0.327871 0.190587 0.248424
Si Si7 0.567103 0.834672 0.218770
Si Si8 0.052169 0.919534 0.604587
O O1 0.503803 0.362686 0.162268
O O2 0.711528 0.358395 0.239733
O O3 0.573836 0.246246 0.268132
O O4 0.537398 0.367937 0.347785
O O5 0.250000 0.250000 0.500000
O O6 0.126880 0.368788 0.476373
O O7 0.138209 0.291917 0.641819
O O8 0.000000 0.251596 0.500000
O O9 0.630892 0.894422 0.288613
O O10 0.820796 0.883810 0.393639
O O11 0.681005 0.000000 0.414656
O O12 0.811332 0.120239 0.065641
O O13 0.809919 0.234024 0.186183
O O14 0.620927 0.171893 0.116228
O O15 0.750000 0.250000 0.000000
O O16 0.915823 0.000000 0.136787
O O17 0.000000 0.927543 0.000000
O O18 0.431181 0.144177 0.204655
O O19 0.000000 0.931828 0.500000
O O20 0.061525 0.000000 0.656314
#
# Coordination Sequence:
#
# PCOD8111587 Si02
#       8
#     8   8   8   8   8   8   8   8
#     4  11  22  39  63  95 136 169 221 282 344 400
#     4  12  26  43  71 102 141 186 235 298 354 424
#     4  11  25  45  68  98 137 187 235 284 354 430
#     4  11  24  42  71 101 140 181 229 290 354 424
#     4  11  23  42  70 103 135 170 219 281 351 418
#     4  11  24  41  63  99 134 177 235 281 344 410
#     4  11  23  42  63  96 133 171 233 283 335 421
#     4  10  22  40  63  92 128 171 221 279 342 405
#
# _framework density 21.775658
#
# number of rings (size 3 to 8) (size 9 to 14) (size 15 to 20)
#    0.000    1.000    2.500    4.875    3.500    2.250 
#    0.000    1.875    0.000    1.500    0.000    3.500 
#    0.000    0.000    0.000    0.000    0.000    0.000 
#
# Total GULP energy -396590.015375 kJ/mol
# GULP energy per Si atom -12393.437980 kJ/mol
# Density = 2.172610 g / cm^3
# Si number density = 21.775658 Si / 1000 Ang^3
#
#
#
# Elastic Constant Matrix: (Units=GPa)
#
#
# Indices 1 2 3 4 5 6 
#
# 1 172.1435 41.2078 25.4911 0.0000 -21.8249 0.0000
# 2 41.2078 73.6755 31.4569 0.0000 -7.2995 0.0000
# 3 25.4911 31.4569 100.1406 0.0000 -17.3276 0.0000
# 4 0.0000 0.0000 0.0000 21.4563 0.0000 2.4717
# 5 -21.8249 -7.2995 -17.3276 0.0000 35.7140 0.0000
# 6 0.0000 0.0000 0.0000 2.4717 0.0000 25.6101
#
#
#
# Elastic Compliance Matrix: (Units=1/GPa)
#
#
# Indices 1 2 3 4 5 6 
#
# 1 0.007138 -0.003610 -0.000061 0.000000 0.003595 0.000000
# 2 -0.003610 0.017527 -0.004747 0.000000 -0.000927 0.000000
# 3 -0.000061 -0.004747 0.012356 0.000000 0.004987 0.000000
# 4 0.000000 0.000000 0.000000 0.047130 0.000000 -0.004549
# 5 0.003595 -0.000927 0.004987 0.000000 0.032427 0.000000
# 6 0.000000 0.000000 0.000000 -0.004549 0.000000 0.039486
#
#
# Mechanical properties :
#
#
# Convention : Reuss Voigt Hill
#
# Bulk Modulus (GPa) = 49.54375 60.25237 54.89806
# Shear Modulus (GPa) = 27.83505 33.07634 30.45570
#
# Velocity S-wave (km/s) = 3.57916 3.90161 3.74386
# Velocity P-wave (km/s) = 6.31520 6.93011 6.62979
#
# Compressibility (1/GPa) = 0.02018418
#
# Stress axis : x y z
#
# Youngs Moduli (GPa) = 140.09327 57.05357 80.93454
#
# Poissons Ratio (x) = 0.20598 0.00493
# Poissons Ratio (y) = 0.50578 0.38422
# Poissons Ratio (z) = 0.00854 0.27085
#
# Static dielectric constant tensor:
#      x y z
#    x 4.622730 0.000000 -0.201530 
#    y 0.000000 3.890920 0.000000 
#    z -0.201530 0.000000 3.802610 
# 
# 
# High freq. dielectric constant tensor:
#      x y z
#    x 1.877280 0.000000 -0.015220 
#    y 0.000000 1.833750 0.000000 
#    z -0.015220 0.000000 1.855000 
# 
# From -- ./inp_files/206678.got.cif
#   From: 2010.06.25/outbox.cif.g09.slc.cpg/sg12_104_cif.got.tgz:206678.got - 2010.06.28 00:19:55.
