data_PCOD8111995
_publ_section_title
;
Structure prediction by ZEFSAII (Michael W. Deem and Ramdas Pophale) SiO2 
 PCOD8111995
Probable space group: C 2/M
;
_chemical_formula_sum "Si O2"
_cell_formula_units_Z 64
_cell_length_a 12.675766
_cell_length_b 25.153422
_cell_length_c 15.628768
_cell_angle_alpha 90.000000
_cell_angle_beta 140.758791
_cell_angle_gamma 90.000000
_cell_volume 3152.215915
_symmetry_space_group_name_H-M "C 2/M"
_symmetry_group_IT_number 12
_symmetry_cell_setting 'monoclinic'
loop_
_space_group_symop_operation_xyz
x,y,z
-x,y,-z
-x,-y,-z
x,-y,z
1/2+x,1/2+y,z
1/2-x,1/2+y,-z
1/2-x,1/2-y,-z
1/2+x,1/2-y,z
loop_
_atom_site_type_symbol
_atom_site_label
_atom_site_fract_x
_atom_site_fract_y
_atom_site_fract_z
Si Si1 0.321657 0.730299 0.771809
Si Si2 0.268482 0.797471 0.575781
Si Si3 0.378287 0.844534 0.245446
Si Si4 0.822883 0.327455 0.880938
Si Si5 0.148901 0.439240 0.653269
Si Si6 0.984697 0.117189 0.393111
Si Si7 0.357807 0.339791 0.064015
Si Si8 0.985165 0.060475 0.760988
O O1 0.257752 0.770619 0.660442
O O2 0.166733 0.693868 0.703774
O O3 0.373294 0.769105 0.880132
O O4 0.470400 0.692105 0.835613
O O5 0.250000 0.750000 0.500000
O O6 0.436943 0.831769 0.671144
O O7 0.111600 0.834742 0.461730
O O8 0.358025 0.905011 0.264514
O O9 0.243558 0.836583 0.086612
O O10 0.701441 0.360878 0.742290
O O11 0.746113 0.313853 0.924961
O O12 0.000000 0.359148 0.000000
O O13 0.129762 0.500000 0.671008
O O14 0.311083 0.430392 0.698191
O O15 0.000000 0.420159 0.500000
O O16 0.000000 0.094006 0.500000
O O17 0.029246 0.073000 0.349765
O O18 0.385748 0.401082 0.109590
O O19 0.047670 0.000000 0.810310
#
# Coordination Sequence:
#
# PCOD8111995 Si02
#       8
#     8   8   8   8   8   8   8   8
#     4  12  23  39  60  91 130 175 216 260 318 382
#     4  12  26  39  60  95 134 175 214 264 320 383
#     4  12  25  38  64  94 130 174 218 267 321 388
#     4  11  23  41  63  86 130 177 210 264 320 373
#     4  10  22  41  65  93 126 165 212 274 339 388
#     4  11  23  43  65  97 130 164 222 268 316 392
#     4  11  24  41  61  95 129 167 224 265 317 398
#     4  10  22  43  69  94 128 168 212 274 335 387
#
# _framework density 20.303177999999999
#
# number of rings (size 3 to 8) (size 9 to 14) (size 15 to 20)
#    0.000    0.875    2.500    5.625    1.750    2.250 
#    0.000    1.250    0.000    6.000    0.000    0.000 
#    0.000    0.000    0.000    0.000    0.000    0.000 
#
# Total GULP energy -396778.159821 kJ/mol
# GULP energy per Si atom -12399.317494 kJ/mol
# Density = 2.025697 g / cm^3
# Si number density = 20.303178 Si / 1000 Ang^3
#
#
#
# Elastic Constant Matrix: (Units=GPa)
#
#
# Indices 1 2 3 4 5 6 
#
# 1 90.8904 37.7399 37.4354 0.0000 -11.8042 0.0000
# 2 37.7399 98.4635 31.6038 0.0000 -9.1482 0.0000
# 3 37.4354 31.6038 86.0065 0.0000 12.1450 -0.0001
# 4 0.0000 0.0000 0.0000 21.0506 0.0000 -7.2980
# 5 -11.8042 -9.1482 12.1450 0.0000 29.8464 0.0000
# 6 0.0000 0.0000 -0.0001 -7.2980 0.0000 16.6465
#
#
#
# Elastic Compliance Matrix: (Units=1/GPa)
#
#
# Indices 1 2 3 4 5 6 
#
# 1 0.016357 -0.003202 -0.007127 0.000000 0.008388 0.000000
# 2 -0.003202 0.013086 -0.004034 0.000000 0.004386 0.000000
# 3 -0.007127 -0.004034 0.017807 0.000000 -0.011301 0.000000
# 4 0.000000 0.000000 0.000000 0.056019 0.000000 0.024559
# 5 0.008388 0.004386 -0.011301 0.000000 0.042765 0.000000
# 6 0.000000 0.000000 0.000000 0.024559 0.000000 0.070840
#
#
# Mechanical properties :
#
#
# Convention : Reuss Voigt Hill
#
# Bulk Modulus (GPa) = 53.98717 54.32429 54.15573
# Shear Modulus (GPa) = 19.85901 24.74746 22.30324
#
# Velocity S-wave (km/s) = 3.13089 3.49506 3.31797
# Velocity P-wave (km/s) = 6.30224 6.56520 6.43506
#
# Compressibility (1/GPa) = 0.01852292
#
# Stress axis : x y z
#
# Youngs Moduli (GPa) = 61.13656 76.41892 56.15663
#
# Poissons Ratio (x) = 0.24473 0.40024
# Poissons Ratio (y) = 0.19579 0.22653
# Poissons Ratio (z) = 0.43573 0.30826
#
# Static dielectric constant tensor:
#      x y z
#    x 3.806940 0.000000 0.208680 
#    y 0.000000 3.658660 0.000000 
#    z 0.208680 0.000000 3.462470 
# 
# 
# High freq. dielectric constant tensor:
#      x y z
#    x 1.809610 0.000000 -0.001930 
#    y 0.000000 1.781820 0.000000 
#    z -0.001930 0.000000 1.799920 
# 
# From -- ./inp_files/209414.got.cif
#   From: 2010.06.25/outbox.cif.g09.slc.cpg/sg12_105_cif.got.tgz:209414.got - 2010.06.28 00:19:55.
