data_PCOD8111021
_publ_section_title
;
Structure prediction by ZEFSAII (Michael W. Deem and Ramdas Pophale) SiO2 
 PCOD8111021
Probable space group: C 2/M
;
_chemical_formula_sum "Si O2"
_cell_formula_units_Z 64
_cell_length_a 24.256831
_cell_length_b 9.300724
_cell_length_c 14.687696
_cell_angle_alpha 90.000000
_cell_angle_beta 91.048091
_cell_angle_gamma 90.000000
_cell_volume 3313.079280
_symmetry_space_group_name_H-M "C 2/M"
_symmetry_group_IT_number 12
_symmetry_cell_setting 'monoclinic'
loop_
_space_group_symop_operation_xyz
x,y,z
-x,y,-z
-x,-y,-z
x,-y,z
1/2+x,1/2+y,z
1/2-x,1/2+y,-z
1/2-x,1/2-y,-z
1/2+x,1/2-y,z
loop_
_atom_site_type_symbol
_atom_site_label
_atom_site_fract_x
_atom_site_fract_y
_atom_site_fract_z
Si Si1 0.053058 0.667625 0.758394
Si Si2 0.626127 0.165893 0.927420
Si Si3 0.649309 0.833638 0.624487
Si Si4 0.863062 0.831415 0.885170
Si Si5 0.628390 0.837264 0.413743
Si Si6 0.559239 0.329195 0.273973
Si Si7 0.249841 0.165952 0.593596
Si Si8 0.245049 0.664098 0.909081
O O1 0.037185 0.500000 0.748875
O O2 0.075698 0.703421 0.859725
O O3 0.098592 0.711007 0.685780
O O4 0.001241 0.767296 0.739887
O O5 0.683068 0.194412 0.869896
O O6 0.623864 0.000000 0.957319
O O7 0.621854 0.258872 0.018378
O O8 0.632702 0.799051 0.520352
O O9 0.703469 0.741049 0.655664
O O10 0.665216 0.000000 0.638212
O O11 0.903431 0.772715 0.808527
O O12 0.799435 0.796148 0.850813
O O13 0.872459 0.000000 0.898746
O O14 0.584945 0.728920 0.368331
O O15 0.688005 0.821232 0.365454
O O16 0.606553 0.000000 0.401385
O O17 0.556656 0.500000 0.279067
O O18 0.250000 0.250000 0.500000
O O19 0.234043 0.000000 0.576879
O O20 0.250668 0.500000 0.937431
O O21 0.250000 0.750000 0.000000
#
# Coordination Sequence:
#
# PCOD8111021 Si02
#       8
#     8   8   8   8   8   8   8   8
#     4  10  22  39  56  76 105 142 183 225 268 317
#     4   9  18  33  56  82 104 133 173 214 260 318
#     4   9  19  36  58  82 109 143 178 216 268 323
#     4   9  19  35  54  77 107 139 168 210 269 320
#     4   9  19  36  56  79 108 141 175 214 264 319
#     4  11  24  38  53  76 104 140 186 229 268 313
#     4   9  17  31  54  84 114 142 174 214 264 321
#     4   8  14  28  50  76 103 128 161 204 252 311
#
# _framework density 19.317375999999999
#
# number of rings (size 3 to 8) (size 9 to 14) (size 15 to 20)
#    0.000    2.750    0.000    1.500    0.000    6.500 
#    0.000    7.500    0.000    6.000    0.000    0.000 
#    0.000    0.000    0.000    0.000    0.000    0.000 
#
# Total GULP energy -396508.812852 kJ/mol
# GULP energy per Si atom -12390.900402 kJ/mol
# Density = 1.927341 g / cm^3
# Si number density = 19.317376 Si / 1000 Ang^3
#
#
#
# Elastic Constant Matrix: (Units=GPa)
#
#
# Indices 1 2 3 4 5 6 
#
# 1 79.3769 27.4266 7.6281 0.0000 -0.4687 0.0000
# 2 27.4266 53.2517 8.1853 0.0000 0.5234 0.0000
# 3 7.6281 8.1853 35.7667 0.0000 -5.3799 0.0000
# 4 0.0000 0.0000 0.0000 23.6981 0.0000 -0.2272
# 5 -0.4687 0.5234 -5.3799 0.0000 29.9941 0.0000
# 6 0.0000 0.0000 0.0000 -0.2272 0.0000 36.4642
#
#
#
# Elastic Compliance Matrix: (Units=1/GPa)
#
#
# Indices 1 2 3 4 5 6 
#
# 1 0.015405 -0.007704 -0.001507 0.000000 0.000105 0.000000
# 2 -0.007704 0.023356 -0.003886 0.000000 -0.001225 0.000000
# 3 -0.001507 -0.003886 0.029985 0.000000 0.005423 0.000000
# 4 0.000000 0.000000 0.000000 0.042200 0.000000 0.000263
# 5 0.000105 -0.001225 0.005423 0.000000 0.034336 0.000000
# 6 0.000000 0.000000 0.000000 0.000263 0.000000 0.027426
#
#
# Mechanical properties :
#
#
# Convention : Reuss Voigt Hill
#
# Bulk Modulus (GPa) = 23.50012 28.31948 25.90980
# Shear Modulus (GPa) = 23.46472 26.37498 24.91985
#
# Velocity S-wave (km/s) = 3.48903 3.69907 3.59558
# Velocity P-wave (km/s) = 5.33130 5.73900 5.53890
#
# Compressibility (1/GPa) = 0.04255298
#
# Stress axis : x y z
#
# Youngs Moduli (GPa) = 64.91236 42.81579 33.34960
#
# Poissons Ratio (x) = 0.32984 0.05025
# Poissons Ratio (y) = 0.50007 0.12961
# Poissons Ratio (z) = 0.09781 0.16639
#
# Static dielectric constant tensor:
#      x y z
#    x 4.099470 0.000000 -0.080880 
#    y 0.000000 3.538520 0.000000 
#    z -0.080880 0.000000 3.257580 
# 
# 
# High freq. dielectric constant tensor:
#      x y z
#    x 1.762440 0.000000 -0.004460 
#    y 0.000000 1.748710 0.000000 
#    z -0.004460 0.000000 1.729780 
# 
# From -- ./inp_files/238777.got.cif
#   From: 2010.06.25/outbox.cif.g09.slc.cpg/sg12_120_cif.got.tgz:238777.got - 2010.06.28 00:19:55.
