data_PCOD8111891
_publ_section_title
;
Structure prediction by ZEFSAII (Michael W. Deem and Ramdas Pophale) SiO2 
 PCOD8111891
Probable space group: C 2/M
;
_chemical_formula_sum "Si O2"
_cell_formula_units_Z 40
_cell_length_a 24.369490
_cell_length_b 8.789706
_cell_length_c 10.049423
_cell_angle_alpha 90.000000
_cell_angle_beta 67.593013
_cell_angle_gamma 90.000000
_cell_volume 1990.071240
_symmetry_space_group_name_H-M "C 2/M"
_symmetry_group_IT_number 12
_symmetry_cell_setting 'monoclinic'
loop_
_space_group_symop_operation_xyz
x,y,z
-x,y,-z
-x,-y,-z
x,-y,z
1/2+x,1/2+y,z
1/2-x,1/2+y,-z
1/2-x,1/2-y,-z
1/2+x,1/2-y,z
loop_
_atom_site_type_symbol
_atom_site_label
_atom_site_fract_x
_atom_site_fract_y
_atom_site_fract_z
Si Si1 0.936093 0.822371 0.842139
Si Si2 0.356172 0.320972 0.163680
Si Si3 0.440109 0.178535 0.300073
Si Si4 0.742332 0.321210 0.363058
Si Si5 0.889345 0.177199 0.596594
O O1 0.906146 0.779167 0.730745
O O2 0.995436 0.726894 0.811084
O O3 0.952261 0.000000 0.835978
O O4 0.890618 0.773753 0.998879
O O5 0.348387 0.500000 0.183528
O O6 0.389937 0.263113 0.262613
O O7 0.291443 0.245040 0.217226
O O8 0.432207 0.227173 0.460691
O O9 0.431998 0.000000 0.290704
O O10 0.750431 0.500000 0.367924
O O11 0.750000 0.250000 0.500000
O O12 0.678766 0.276696 0.361957
O O13 0.900430 0.000000 0.557337
#
# Coordination Sequence:
#
# PCOD8111891 Si02
#       5
#     8   8   8   8   8
#     4  10  23  42  62  87 121 161 201 243 300 362
#     4  11  23  40  63  89 120 160 202 247 298 354
#     4  12  24  38  61  91 122 158 202 250 298 353
#     4  11  22  38  63  91 120 156 201 247 295 354
#     4  10  22  41  64  88 119 160 201 243 298 360
#
# _framework density 20.099781
#
# number of rings (size 3 to 8) (size 9 to 14) (size 15 to 20)
#    0.000    1.200    2.000    4.200    0.000    8.800 
#    0.000    0.000    0.000    0.000    0.000    0.000 
#    0.000    0.000    0.000    0.000    0.000    0.000 
#
# Total GULP energy -248155.504860 kJ/mol
# GULP energy per Si atom -12407.775243 kJ/mol
# Density = 2.005403 g / cm^3
# Si number density = 20.099781 Si / 1000 Ang^3
#
#
#
# Elastic Constant Matrix: (Units=GPa)
#
#
# Indices 1 2 3 4 5 6 
#
# 1 77.2389 27.3343 15.9888 0.0000 -20.9297 0.0000
# 2 27.3343 67.4753 24.7425 0.0000 -15.0894 0.0000
# 3 15.9888 24.7425 101.9849 0.0000 -18.9457 0.0000
# 4 0.0000 0.0000 0.0000 26.7247 0.0000 -11.5741
# 5 -20.9297 -15.0894 -18.9457 0.0000 39.2513 0.0000
# 6 0.0000 0.0000 0.0000 -11.5741 0.0000 32.2615
#
#
#
# Elastic Compliance Matrix: (Units=1/GPa)
#
#
# Indices 1 2 3 4 5 6 
#
# 1 0.016654 -0.005186 -0.000081 0.000000 0.006848 0.000000
# 2 -0.005186 0.018741 -0.003195 0.000000 0.002897 0.000000
# 3 -0.000081 -0.003195 0.011377 0.000000 0.004220 0.000000
# 4 0.000000 0.000000 0.000000 0.044302 0.000000 0.015894
# 5 0.006848 0.002897 0.004220 0.000000 0.032279 0.000000
# 6 0.000000 0.000000 0.000000 0.015894 0.000000 0.036699
#
#
# Mechanical properties :
#
#
# Convention : Reuss Voigt Hill
#
# Bulk Modulus (GPa) = 33.50274 42.53670 38.01972
# Shear Modulus (GPa) = 26.74871 31.55641 29.15256
#
# Velocity S-wave (km/s) = 3.65197 3.96661 3.81253
# Velocity P-wave (km/s) = 5.87255 6.49518 6.19170
#
# Compressibility (1/GPa) = 0.02984831
#
# Stress axis : x y z
#
# Youngs Moduli (GPa) = 60.04434 53.36021 87.89474
#
# Poissons Ratio (x) = 0.27671 0.00710
# Poissons Ratio (y) = 0.31137 0.28087
# Poissons Ratio (z) = 0.00485 0.17051
#
# Static dielectric constant tensor:
#      x y z
#    x 3.886430 0.000000 -0.078650 
#    y 0.000000 3.610340 0.000000 
#    z -0.078650 0.000000 3.693680 
# 
# 
# High freq. dielectric constant tensor:
#      x y z
#    x 1.796050 0.000000 -0.008830 
#    y 0.000000 1.783210 0.000000 
#    z -0.008830 0.000000 1.792180 
# 
# From -- ./inp_files/92759.got.cif
#   From: 2010.06.25/outbox.cif.g09.slc.cpg/sg12_47_cif.got.tgz:92759.got - 2010.06.28 00:19:55.
