data_PCOD8111539
_publ_section_title
;
Structure prediction by ZEFSAII (Michael W. Deem and Ramdas Pophale) SiO2 
 PCOD8111539
Probable space group: C 2/M
;
_chemical_formula_sum "Si O2"
_cell_formula_units_Z 40
_cell_length_a 8.308462
_cell_length_b 18.650121
_cell_length_c 10.958089
_cell_angle_alpha 90.000000
_cell_angle_beta 93.033153
_cell_angle_gamma 90.000000
_cell_volume 1695.619017
_symmetry_space_group_name_H-M "C 2/M"
_symmetry_group_IT_number 12
_symmetry_cell_setting 'monoclinic'
loop_
_space_group_symop_operation_xyz
x,y,z
-x,y,-z
-x,-y,-z
x,-y,z
1/2+x,1/2+y,z
1/2-x,1/2+y,-z
1/2-x,1/2-y,-z
1/2+x,1/2-y,z
loop_
_atom_site_type_symbol
_atom_site_label
_atom_site_fract_x
_atom_site_fract_y
_atom_site_fract_z
Si Si1 0.515850 0.799793 0.819848
Si Si2 0.334275 0.185152 0.432043
Si Si3 0.280718 0.919842 0.066418
Si Si4 0.660834 0.658370 0.833208
Si Si5 0.094238 0.080926 0.310380
O O1 0.616906 0.790623 0.700490
O O2 0.572150 0.865068 0.907761
O O3 0.552436 0.723287 0.885210
O O4 0.328093 0.810264 0.787914
O O5 0.500000 0.157590 0.500000
O O6 0.250000 0.250000 0.500000
O O7 0.206752 0.119950 0.414999
O O8 0.165965 0.916703 0.177899
O O9 0.351049 0.000000 0.053878
O O10 0.182674 0.899194 0.941582
O O11 0.576845 0.621284 0.711812
O O12 0.069391 0.000000 0.356141
#
# Coordination Sequence:
#
# PCOD8111539 Si02
#       5
#     8   8   8   8   8
#     4  11  24  39  62  95 127 164 218 267 311 377
#     4  11  23  43  70  93 121 164 212 268 325 373
#     4  10  22  40  62  92 134 177 211 252 311 377
#     4  12  22  38  62  93 132 171 209 256 314 378
#     4  10  23  42  65  96 130 167 214 261 311 377
#
# _framework density 23.590205999999998
#
# number of rings (size 3 to 8) (size 9 to 14) (size 15 to 20)
#    0.000    1.200    0.000    7.200    0.000    6.000 
#    0.000    0.000    0.000   17.400    0.000    0.000 
#    0.000    0.000    0.000    0.000    0.000    0.000 
#
# Total GULP energy -248009.782753 kJ/mol
# GULP energy per Si atom -12400.489138 kJ/mol
# Density = 2.353651 g / cm^3
# Si number density = 23.590206 Si / 1000 Ang^3
#
#
#
# Elastic Constant Matrix: (Units=GPa)
#
#
# Indices 1 2 3 4 5 6 
#
# 1 137.4742 79.2763 36.4464 0.0000 42.8191 0.0000
# 2 79.2763 223.1761 55.2185 0.0000 34.9909 0.0000
# 3 36.4464 55.2185 94.9480 0.0000 24.2753 0.0000
# 4 0.0000 0.0000 0.0000 34.8140 0.0000 16.4714
# 5 42.8191 34.9909 24.2753 0.0000 52.7817 0.0000
# 6 0.0000 0.0000 0.0000 16.4714 0.0000 29.5342
#
#
#
# Elastic Compliance Matrix: (Units=1/GPa)
#
#
# Indices 1 2 3 4 5 6 
#
# 1 0.011213 -0.002658 -0.001001 0.000000 -0.006874 0.000000
# 2 -0.002658 0.006133 -0.002333 0.000000 -0.000837 0.000000
# 3 -0.001001 -0.002333 0.013225 0.000000 -0.003724 0.000000
# 4 0.000000 0.000000 0.000000 0.039020 0.000000 -0.021762
# 5 -0.006874 -0.000837 -0.003724 0.000000 0.026790 0.000000
# 6 0.000000 0.000000 0.000000 -0.021762 0.000000 0.045996
#
#
# Mechanical properties :
#
#
# Convention : Reuss Voigt Hill
#
# Bulk Modulus (GPa) = 53.79631 88.60897 71.20264
# Shear Modulus (GPa) = 31.14161 42.40311 36.77236
#
# Velocity S-wave (km/s) = 3.63727 4.24428 3.95244
# Velocity P-wave (km/s) = 6.36346 7.85251 7.14687
#
# Compressibility (1/GPa) = 0.01858863
#
# Stress axis : x y z
#
# Youngs Moduli (GPa) = 89.18021 163.04679 75.61402
#
# Poissons Ratio (x) = 0.43332 0.07570
# Poissons Ratio (y) = 0.23701 0.17638
# Poissons Ratio (z) = 0.08928 0.38034
#
# Static dielectric constant tensor:
#      x y z
#    x 4.280760 0.000000 0.213680 
#    y 0.000000 4.436890 0.000000 
#    z 0.213680 0.000000 4.132400 
# 
# 
# High freq. dielectric constant tensor:
#      x y z
#    x 1.943870 0.000000 0.008130 
#    y 0.000000 1.937460 0.000000 
#    z 0.008130 0.000000 1.929130 
# 
# From -- ./inp_files/119144.got.cif
#   From: 2010.06.25/outbox.cif.g09.slc.cpg/sg12_60_cif.got.tgz:119144.got - 2010.06.28 00:19:55.
