data_PCOD8111881
_publ_section_title
;
Structure prediction by ZEFSAII (Michael W. Deem and Ramdas Pophale) SiO2 
 PCOD8111881
Probable space group: C 2/M
;
_chemical_formula_sum "Si O2"
_cell_formula_units_Z 40
_cell_length_a 17.724594
_cell_length_b 21.098167
_cell_length_c 11.126500
_cell_angle_alpha 90.000000
_cell_angle_beta 149.248089
_cell_angle_gamma 90.000000
_cell_volume 2127.521023
_symmetry_space_group_name_H-M "C 2/M"
_symmetry_group_IT_number 12
_symmetry_cell_setting 'monoclinic'
loop_
_space_group_symop_operation_xyz
x,y,z
-x,y,-z
-x,-y,-z
x,-y,z
1/2+x,1/2+y,z
1/2-x,1/2+y,-z
1/2-x,1/2-y,-z
1/2+x,1/2-y,z
loop_
_atom_site_type_symbol
_atom_site_label
_atom_site_fract_x
_atom_site_fract_y
_atom_site_fract_z
Si Si1 0.000000 0.789533 0.000000
Si Si2 0.500000 0.775038 0.500000
Si Si3 0.546941 0.000000 0.427569
Si Si4 0.697112 0.366305 0.441353
Si Si5 0.004635 0.363755 0.736806
Si Si6 0.735796 0.805286 0.222120
Si Si7 0.652318 0.500000 0.278490
O O1 0.940001 0.832494 0.810226
O O2 0.866490 0.748555 0.864233
O O3 0.515096 0.819787 0.635300
O O4 0.640141 0.729222 0.685833
O O5 0.500000 0.000000 0.500000
O O6 0.482459 0.937621 0.276711
O O7 0.724184 0.000000 0.657306
O O8 0.692802 0.347395 0.574716
O O9 0.671131 0.440940 0.393015
O O10 0.853266 0.345935 0.597443
O O11 0.143325 0.351863 0.011667
O O12 0.500000 0.500000 0.000000
#
# Coordination Sequence:
#
# PCOD8111881 Si02
#       7
#     4   4   4   8   8   8   4
#     4  12  20  37  66  83 126 166 194 244 298 362
#     4  12  24  39  60  93 128 158 204 244 306 364
#     4  10  22  41  65  88 118 160 205 246 301 359
#     4  11  22  40  66  91 121 161 207 247 299 359
#     4  11  22  41  64  92 122 161 203 251 298 361
#     4  12  24  40  61  92 127 159 200 253 306 356
#     4  10  22  41  63  92 116 158 207 250 295 355
#
# _framework density 18.801224999999999
#
# number of rings (size 3 to 8) (size 9 to 14) (size 15 to 20)
#    0.000    0.800    6.000    2.400    0.000    0.800 
#    3.600    3.000    0.000    1.200    0.000    0.000 
#    0.000    0.000    0.000    0.000    0.000    0.000 
#
# Total GULP energy -248094.154368 kJ/mol
# GULP energy per Si atom -12404.707718 kJ/mol
# Density = 1.875843 g / cm^3
# Si number density = 18.801225 Si / 1000 Ang^3
#
#
#
# Elastic Constant Matrix: (Units=GPa)
#
#
# Indices 1 2 3 4 5 6 
#
# 1 60.2077 40.6164 30.4612 0.0000 -7.6078 0.0000
# 2 40.6164 125.7529 60.9216 0.0000 -3.7656 0.0000
# 3 30.4612 60.9216 131.2591 0.0000 -19.0865 0.0000
# 4 0.0000 0.0000 0.0000 30.5060 0.0000 10.2346
# 5 -7.6078 -3.7656 -19.0865 0.0000 37.4626 0.0000
# 6 0.0000 0.0000 0.0000 10.2346 0.0000 25.8492
#
#
#
# Elastic Compliance Matrix: (Units=1/GPa)
#
#
# Indices 1 2 3 4 5 6 
#
# 1 0.022055 -0.006144 -0.001842 0.000000 0.002923 0.000000
# 2 -0.006144 0.012049 -0.004506 0.000000 -0.002332 0.000000
# 3 -0.001842 -0.004506 0.010819 0.000000 0.004685 0.000000
# 4 0.000000 0.000000 0.000000 0.037802 0.000000 -0.014967
# 5 0.002923 -0.002332 0.004685 0.000000 0.029439 0.000000
# 6 0.000000 0.000000 0.000000 -0.014967 0.000000 0.044612
#
#
# Mechanical properties :
#
#
# Convention : Reuss Voigt Hill
#
# Bulk Modulus (GPa) = 50.14988 64.57979 57.36484
# Shear Modulus (GPa) = 26.53851 31.11159 28.82505
#
# Velocity S-wave (km/s) = 3.76111 4.07229 3.91979
# Velocity P-wave (km/s) = 6.75225 7.51896 7.14589
#
# Compressibility (1/GPa) = 0.01994023
#
# Stress axis : x y z
#
# Youngs Moduli (GPa) = 45.34148 82.99101 92.43406
#
# Poissons Ratio (x) = 0.50987 0.17024
# Poissons Ratio (y) = 0.27856 0.41650
# Poissons Ratio (z) = 0.08351 0.37395
#
# Static dielectric constant tensor:
#      x y z
#    x 3.434300 0.000000 0.006670 
#    y 0.000000 3.640820 0.000000 
#    z 0.006670 0.000000 3.599460 
# 
# 
# High freq. dielectric constant tensor:
#      x y z
#    x 1.726850 0.000000 -0.000460 
#    y 0.000000 1.744880 0.000000 
#    z -0.000460 0.000000 1.738910 
# 
# From -- ./inp_files/77823.got.cif
#   From: 2010.06.25/outbox.cif.g09.slc.cpg/sg12_39_cif.got.tgz:77823.got - 2010.06.28 00:19:55.
