data_PCOD8111846
_publ_section_title
;
Structure prediction by ZEFSAII (Michael W. Deem and Ramdas Pophale) SiO2 
 PCOD8111846
Probable space group: C 2/M
;
_chemical_formula_sum "Si O2"
_cell_formula_units_Z 56
_cell_length_a 15.246363
_cell_length_b 8.385541
_cell_length_c 28.383956
_cell_angle_alpha 90.000000
_cell_angle_beta 48.823243
_cell_angle_gamma 90.000000
_cell_volume 2731.378141
_symmetry_space_group_name_H-M "C 2/M"
_symmetry_group_IT_number 12
_symmetry_cell_setting 'monoclinic'
loop_
_space_group_symop_operation_xyz
x,y,z
-x,y,-z
-x,-y,-z
x,-y,z
1/2+x,1/2+y,z
1/2-x,1/2+y,-z
1/2-x,1/2-y,-z
1/2+x,1/2-y,z
loop_
_atom_site_type_symbol
_atom_site_label
_atom_site_fract_x
_atom_site_fract_y
_atom_site_fract_z
Si Si1 0.090485 0.814700 0.508098
Si Si2 0.389983 0.189585 0.067636
Si Si3 0.742593 0.186244 0.703662
Si Si4 0.936688 0.311475 0.154529
Si Si5 0.489879 0.184980 0.636750
Si Si6 0.807548 0.185759 0.379734
Si Si7 0.306999 0.311758 0.932218
O O1 0.219952 0.780395 0.444604
O O2 0.000000 0.762403 0.500000
O O3 0.064602 0.711064 0.563151
O O4 0.076584 0.000000 0.525830
O O5 0.395206 0.259059 0.118810
O O6 0.271585 0.245685 0.084072
O O7 0.397443 0.000000 0.065998
O O8 0.500000 0.258828 0.000000
O O9 0.650869 0.250481 0.774501
O O10 0.871526 0.214553 0.677584
O O11 0.723391 0.286796 0.663473
O O12 0.725690 0.000000 0.698425
O O13 0.933693 0.500000 0.153234
O O14 0.065887 0.257195 0.121451
O O15 0.563468 0.248016 0.655344
O O16 0.460439 0.000000 0.653505
O O17 0.799174 0.000000 0.394491
O O18 0.313104 0.500000 0.932883
O O19 0.250000 0.250000 0.000000
#
# Coordination Sequence:
#
# PCOD8111846 Si02
#       7
#     8   8   8   8   8   8   8
#     4  11  22  39  66  96 129 164 207 261 320 374
#     4   9  17  34  60  86 117 156 195 235 296 365
#     4  11  24  43  64  90 126 167 212 260 317 379
#     4  10  22  41  63  88 121 160 201 251 306 367
#     4  12  25  42  66  94 128 166 212 262 317 375
#     4  12  25  42  66  93 127 168 214 261 315 375
#     4  11  21  35  60  90 121 156 200 248 301 364
#
# _framework density 20.502472000000001
#
# number of rings (size 3 to 8) (size 9 to 14) (size 15 to 20)
#    0.000    1.143    2.857    4.286    0.000    2.857 
#    0.000    3.571    0.000    0.000    0.000    0.000 
#    0.000    0.000    0.000    0.000    0.000    0.000 
#
# Total GULP energy -347351.807278 kJ/mol
# GULP energy per Si atom -12405.421688 kJ/mol
# Density = 2.045581 g / cm^3
# Si number density = 20.502472 Si / 1000 Ang^3
#
#
#
# Elastic Constant Matrix: (Units=GPa)
#
#
# Indices 1 2 3 4 5 6 
#
# 1 111.4861 -11.4912 46.0010 0.0006 -23.6254 0.0008
# 2 -11.4912 24.2142 5.8640 0.0017 7.0343 0.0020
# 3 46.0010 5.8640 134.5450 0.0000 -17.7389 0.0002
# 4 0.0006 0.0017 0.0000 22.5578 -0.0001 -3.1060
# 5 -23.6254 7.0343 -17.7389 -0.0001 15.9243 0.0000
# 6 0.0008 0.0020 0.0002 -3.1060 0.0000 33.9635
#
#
#
# Elastic Compliance Matrix: (Units=1/GPa)
#
#
# Indices 1 2 3 4 5 6 
#
# 1 0.013800 0.002413 -0.002654 -0.000001 0.016451 -0.000001
# 2 0.002413 0.051778 -0.006594 -0.000005 -0.026638 -0.000003
# 3 -0.002654 -0.006594 0.009954 0.000001 0.010063 0.000000
# 4 -0.000001 -0.000005 0.000001 0.044896 0.000002 0.004106
# 5 0.016451 -0.026638 0.010063 0.000002 0.110180 0.000001
# 6 -0.000001 -0.000003 0.000000 0.004106 0.000001 0.029819
#
#
# Mechanical properties :
#
#
# Convention : Reuss Voigt Hill
#
# Bulk Modulus (GPa) = 16.16515 38.99922 27.58219
# Shear Modulus (GPa) = 16.96535 29.81388 23.38961
#
# Velocity S-wave (km/s) = 2.87971 3.81748 3.38127
# Velocity P-wave (km/s) = 4.35415 6.20435 5.35969
#
# Compressibility (1/GPa) = 0.06186147
#
# Stress axis : x y z
#
# Youngs Moduli (GPa) = 72.46479 19.31312 100.46110
#
# Poissons Ratio (x) = -0.04660 0.26666
# Poissons Ratio (y) = -0.17483 0.66240
# Poissons Ratio (z) = 0.19235 0.12734
#
# Static dielectric constant tensor:
#      x y z
#    x 4.042870 0.000000 0.031540 
#    y 0.000000 3.530170 0.000000 
#    z 0.031540 0.000000 3.800550 
# 
# 
# High freq. dielectric constant tensor:
#      x y z
#    x 1.821080 0.000000 -0.002390 
#    y 0.000000 1.791950 0.000000 
#    z -0.002390 0.000000 1.796490 
# 
# From -- ./inp_files/374957.got.cif
#   From: 2010.06.25/outbox.cif.g09.slc.cpg/sg12_188_cif.got.tgz:374957.got - 2010.06.28 00:19:55.
