data_PCOD8111880
_publ_section_title
;
Structure prediction by ZEFSAII (Michael W. Deem and Ramdas Pophale) SiO2 
 PCOD8111880
Probable space group: C 2/M
;
_chemical_formula_sum "Si O2"
_cell_formula_units_Z 48
_cell_length_a 26.926244
_cell_length_b 8.784454
_cell_length_c 16.801892
_cell_angle_alpha 90.000000
_cell_angle_beta 143.516646
_cell_angle_gamma 90.000000
_cell_volume 2363.011141
_symmetry_space_group_name_H-M "C 2/M"
_symmetry_group_IT_number 12
_symmetry_cell_setting 'monoclinic'
loop_
_space_group_symop_operation_xyz
x,y,z
-x,y,-z
-x,-y,-z
x,-y,z
1/2+x,1/2+y,z
1/2-x,1/2+y,-z
1/2-x,1/2-y,-z
1/2+x,1/2-y,z
loop_
_atom_site_type_symbol
_atom_site_label
_atom_site_fract_x
_atom_site_fract_y
_atom_site_fract_z
Si Si1 0.654633 0.675284 0.033136
Si Si2 0.265679 0.321303 0.605219
Si Si3 0.152730 0.324667 0.726723
Si Si4 0.937788 0.825275 0.246140
Si Si5 0.904744 0.321930 0.884554
Si Si6 0.875038 0.174975 0.472065
O O1 0.641507 0.500000 0.041649
O O2 0.596957 0.720262 0.884687
O O3 0.750013 0.707390 0.132586
O O4 0.630238 0.783184 0.073942
O O5 0.267977 0.500000 0.598343
O O6 0.250000 0.250000 0.500000
O O7 0.354641 0.266097 0.751885
O O8 0.193744 0.278088 0.574508
O O9 0.136267 0.500000 0.684227
O O10 0.103498 0.283830 0.742719
O O11 0.117079 0.222318 0.609587
O O12 0.036862 0.799356 0.371275
O O13 0.915617 0.000000 0.238411
O O14 0.894470 0.500000 0.855991
O O15 0.000000 0.268675 0.000000
O O16 0.846638 0.000000 0.441047
#
# Coordination Sequence:
#
# PCOD8111880 Si02
#       6
#     8   8   8   8   8   8
#     4  10  22  41  63  91 126 168 212 257 316 375
#     4  12  26  45  69  96 128 167 210 261 319 379
#     4  11  22  38  62  92 125 167 214 263 316 373
#     4  10  23  40  61  91 126 168 215 259 310 375
#     4  11  25  44  67  98 129 164 210 260 315 378
#     4  11  23  41  64  92 127 168 211 262 316 372
#
# _framework density 20.313065999999999
#
# number of rings (size 3 to 8) (size 9 to 14) (size 15 to 20)
#    0.000    1.167    1.667    4.000    2.333    6.000 
#    0.000    0.000    0.000    0.000    0.000    0.000 
#    0.000    0.000    0.000    0.000    0.000    0.000 
#
# Total GULP energy -297799.587626 kJ/mol
# GULP energy per Si atom -12408.316151 kJ/mol
# Density = 2.026683 g / cm^3
# Si number density = 20.313066 Si / 1000 Ang^3
#
#
#
# Elastic Constant Matrix: (Units=GPa)
#
#
# Indices 1 2 3 4 5 6 
#
# 1 80.7315 41.6270 40.5351 0.0000 -1.2611 0.0000
# 2 41.6270 111.5518 62.0970 0.0000 1.8277 0.0000
# 3 40.5351 62.0970 154.8009 0.0000 -10.7673 0.0000
# 4 0.0000 0.0000 0.0000 29.7447 0.0000 -6.3567
# 5 -1.2611 1.8277 -10.7673 0.0000 36.1875 0.0000
# 6 0.0000 0.0000 0.0000 -6.3567 0.0000 31.5536
#
#
#
# Elastic Compliance Matrix: (Units=1/GPa)
#
#
# Indices 1 2 3 4 5 6 
#
# 1 0.015952 -0.004678 -0.002293 0.000000 0.000110 0.000000
# 2 -0.004678 0.013057 -0.004156 0.000000 -0.002059 0.000000
# 3 -0.002293 -0.004156 0.008921 0.000000 0.002784 0.000000
# 4 0.000000 0.000000 0.000000 0.035132 0.000000 0.007078
# 5 0.000110 -0.002059 0.002784 0.000000 0.028570 0.000000
# 6 0.000000 0.000000 0.000000 0.007078 0.000000 0.033118
#
#
# Mechanical properties :
#
#
# Convention : Reuss Voigt Hill
#
# Bulk Modulus (GPa) = 63.79038 70.62249 67.20644
# Shear Modulus (GPa) = 30.82044 33.01883 31.91963
#
# Velocity S-wave (km/s) = 3.89944 4.03612 3.96837
# Velocity P-wave (km/s) = 7.19347 7.52083 7.35897
#
# Compressibility (1/GPa) = 0.01567634
#
# Stress axis : x y z
#
# Youngs Moduli (GPa) = 62.68881 76.58468 112.09312
#
# Poissons Ratio (x) = 0.35827 0.25701
# Poissons Ratio (y) = 0.29326 0.46587
# Poissons Ratio (z) = 0.14373 0.31830
#
# Static dielectric constant tensor:
#      x y z
#    x 3.641700 0.000000 -0.018690 
#    y 0.000000 3.757310 0.000000 
#    z -0.018690 0.000000 4.074700 
# 
# 
# High freq. dielectric constant tensor:
#      x y z
#    x 1.794450 0.000000 0.000720 
#    y 0.000000 1.799430 0.000000 
#    z 0.000720 0.000000 1.814370 
# 
# From -- ./inp_files/295885.got.cif
#   From: 2010.06.25/outbox.cif.g09.slc.cpg/sg12_148_cif.got.tgz:295885.got - 2010.06.28 00:19:55.
