data_PCOD8111704
_publ_section_title
;
Structure prediction by ZEFSAII (Michael W. Deem and Ramdas Pophale) SiO2 
 PCOD8111704
Probable space group: C 2/M
;
_chemical_formula_sum "Si O2"
_cell_formula_units_Z 56
_cell_length_a 20.803044
_cell_length_b 14.838304
_cell_length_c 13.869346
_cell_angle_alpha 90.000000
_cell_angle_beta 40.879589
_cell_angle_gamma 90.000000
_cell_volume 2801.933857
_symmetry_space_group_name_H-M "C 2/M"
_symmetry_group_IT_number 12
_symmetry_cell_setting 'monoclinic'
loop_
_space_group_symop_operation_xyz
x,y,z
-x,y,-z
-x,-y,-z
x,-y,z
1/2+x,1/2+y,z
1/2-x,1/2+y,-z
1/2-x,1/2-y,-z
1/2+x,1/2-y,z
loop_
_atom_site_type_symbol
_atom_site_label
_atom_site_fract_x
_atom_site_fract_y
_atom_site_fract_z
Si Si1 0.955168 0.259770 0.948097
Si Si2 0.761578 0.837244 0.551766
Si Si3 0.064665 0.600966 0.700598
Si Si4 0.600628 0.896571 0.442088
Si Si5 0.579256 0.604812 0.329414
Si Si6 0.269836 0.734160 0.756213
Si Si7 0.970334 0.101214 0.256694
O O1 0.982280 0.336435 0.840680
O O2 0.003341 0.165614 0.861710
O O3 0.838901 0.250955 0.081583
O O4 0.000000 0.286698 0.000000
O O5 0.750000 0.750000 0.500000
O O6 0.665250 0.898064 0.647327
O O7 0.770569 0.812601 0.652363
O O8 0.855829 0.893085 0.412182
O O9 0.022187 0.500000 0.746993
O O10 0.084943 0.635612 0.569524
O O11 0.500000 0.884590 0.500000
O O12 0.681457 0.832913 0.301688
O O13 0.638159 0.000000 0.395215
O O14 0.500000 0.631526 0.500000
O O15 0.609248 0.500000 0.305018
O O16 0.674249 0.667564 0.234028
O O17 0.534561 0.627542 0.276403
O O18 0.993270 0.000000 0.197105
#
# Coordination Sequence:
#
# PCOD8111704 Si02
#       7
#     8   8   8   8   8   8   8
#     4  12  26  44  59  93 134 168 209 252 311 385
#     4  12  20  39  65  96 123 158 214 264 307 369
#     4  11  24  43  66  92 126 168 212 260 313 367
#     4  10  23  43  68  97 124 161 215 264 310 371
#     4  10  22  40  65  98 124 156 212 264 315 372
#     4  12  23  38  68  91 129 169 202 260 319 367
#     4  11  24  43  67  93 126 165 208 262 317 372
#
# _framework density 19.986196
#
# number of rings (size 3 to 8) (size 9 to 14) (size 15 to 20)
#    0.000    0.857    5.714    0.857    2.000    2.857 
#    0.000    0.000    0.000    0.000    0.000    0.000 
#    0.000    0.000    0.000    0.000    0.000    0.000 
#
# Total GULP energy -347372.386882 kJ/mol
# GULP energy per Si atom -12406.156674 kJ/mol
# Density = 1.994071 g / cm^3
# Si number density = 19.986196 Si / 1000 Ang^3
#
#
#
# Elastic Constant Matrix: (Units=GPa)
#
#
# Indices 1 2 3 4 5 6 
#
# 1 81.2056 29.5895 22.5865 0.0000 -14.6881 0.0000
# 2 29.5895 101.3656 53.2383 0.0000 -4.5776 0.0000
# 3 22.5865 53.2383 114.2314 0.0000 -27.2974 0.0000
# 4 0.0000 0.0000 0.0000 19.4471 0.0000 -0.8904
# 5 -14.6881 -4.5776 -27.2974 0.0000 25.4922 0.0000
# 6 0.0000 0.0000 0.0000 -0.8904 0.0000 31.0306
#
#
#
# Elastic Compliance Matrix: (Units=1/GPa)
#
#
# Indices 1 2 3 4 5 6 
#
# 1 0.015405 -0.004861 0.001521 0.000000 0.009632 0.000000
# 2 -0.004861 0.015222 -0.008264 0.000000 -0.008916 0.000000
# 3 0.001521 -0.008264 0.016341 0.000000 0.016891 0.000000
# 4 0.000000 0.000000 0.000000 0.051489 0.000000 0.001478
# 5 0.009632 -0.008916 0.016891 0.000000 0.061263 0.000000
# 6 0.000000 0.000000 0.000000 0.001478 0.000000 0.032269
#
#
# Mechanical properties :
#
#
# Convention : Reuss Voigt Hill
#
# Bulk Modulus (GPa) = 42.08601 56.40345 49.24473
# Shear Modulus (GPa) = 22.40989 27.95319 25.18154
#
# Velocity S-wave (km/s) = 3.35217 3.74388 3.55342
# Velocity P-wave (km/s) = 6.00716 6.85356 6.44427
#
# Compressibility (1/GPa) = 0.02376086
#
# Stress axis : x y z
#
# Youngs Moduli (GPa) = 64.91550 65.69549 61.19529
#
# Poissons Ratio (x) = 0.31933 -0.09309
# Poissons Ratio (y) = 0.31554 0.50571
# Poissons Ratio (z) = -0.09875 0.54289
#
# Static dielectric constant tensor:
#      x y z
#    x 4.158070 0.000000 -0.055900 
#    y 0.000000 3.735670 0.000000 
#    z -0.055900 0.000000 3.532910 
# 
# 
# High freq. dielectric constant tensor:
#      x y z
#    x 1.793090 0.000000 -0.001800 
#    y 0.000000 1.790550 0.000000 
#    z -0.001800 0.000000 1.765240 
# 
# From -- ./inp_files/233677.got.cif
#   From: 2010.06.25/outbox.cif.g09.slc.cpg/sg12_117_cif.got.tgz:233677.got - 2010.06.28 00:19:55.
