data_PCOD8111102
_publ_section_title
;
Structure prediction by ZEFSAII (Michael W. Deem and Ramdas Pophale) SiO2 
 PCOD8111102
Probable space group: C 2/M
;
_chemical_formula_sum "Si O2"
_cell_formula_units_Z 64
_cell_length_a 15.328642
_cell_length_b 8.866307
_cell_length_c 33.491220
_cell_angle_alpha 90.000000
_cell_angle_beta 134.766477
_cell_angle_gamma 90.000000
_cell_volume 3231.657266
_symmetry_space_group_name_H-M "C 2/M"
_symmetry_group_IT_number 12
_symmetry_cell_setting 'monoclinic'
loop_
_space_group_symop_operation_xyz
x,y,z
-x,y,-z
-x,-y,-z
x,-y,z
1/2+x,1/2+y,z
1/2-x,1/2+y,-z
1/2-x,1/2-y,-z
1/2+x,1/2-y,z
loop_
_atom_site_type_symbol
_atom_site_label
_atom_site_fract_x
_atom_site_fract_y
_atom_site_fract_z
Si Si1 0.113841 0.322359 0.139202
Si Si2 0.277653 0.322105 0.749656
Si Si3 0.046356 0.173984 0.634853
Si Si4 0.836200 0.678149 0.060524
Si Si5 0.534363 0.174050 0.248387
Si Si6 0.417727 0.176973 0.436330
Si Si7 0.863717 0.173251 0.643855
Si Si8 0.728691 0.174253 0.871921
O O1 0.121746 0.500000 0.147464
O O2 0.200677 0.245908 0.199857
O O3 0.161754 0.273585 0.111115
O O4 0.974858 0.264062 0.099049
O O5 0.271966 0.500000 0.751637
O O6 0.149533 0.265129 0.691434
O O7 0.386188 0.276567 0.755126
O O8 0.030538 0.236312 0.585298
O O9 0.917234 0.194529 0.616529
O O10 0.086030 0.000000 0.645692
O O11 0.830703 0.500000 0.054516
O O12 0.791757 0.731045 0.089676
O O13 0.750000 0.750000 0.000000
O O14 0.558274 0.221611 0.301501
O O15 0.392689 0.201378 0.193204
O O16 0.570696 0.000000 0.253318
O O17 0.500000 0.227992 0.500000
O O18 0.277926 0.223761 0.400885
O O19 0.429313 0.000000 0.431781
O O20 0.876937 0.000000 0.662105
O O21 0.767835 0.000000 0.883872
#
# Coordination Sequence:
#
# PCOD8111102 Si02
#       8
#     8   8   8   8   8   8   8   8
#     4  11  23  41  63  91 124 158 200 249 299 354
#     4  12  23  37  61  91 123 159 197 240 302 365
#     4  11  23  39  61  90 122 157 201 249 298 354
#     4  10  23  43  63  86 121 160 204 253 300 352
#     4  11  21  37  62  90 123 158 195 243 299 357
#     4  10  22  41  62  85 118 161 206 252 301 354
#     4  10  22  39  59  88 123 158 197 243 298 358
#     4  10  22  41  62  89 124 159 198 244 300 361
#
# _framework density 19.804081
#
# number of rings (size 3 to 8) (size 9 to 14) (size 15 to 20)
#    0.000    1.375    2.500    3.000    0.000    6.750 
#    0.000    2.500    0.000    0.000    0.000    0.000 
#    0.000    0.000    0.000    0.000    0.000    0.000 
#
# Total GULP energy -396975.785216 kJ/mol
# GULP energy per Si atom -12405.493288 kJ/mol
# Density = 1.975901 g / cm^3
# Si number density = 19.804081 Si / 1000 Ang^3
#
#
#
# Elastic Constant Matrix: (Units=GPa)
#
#
# Indices 1 2 3 4 5 6 
#
# 1 135.8099 44.7464 56.4539 0.0000 -25.6938 0.0000
# 2 44.7464 80.3622 48.0564 0.0000 -8.8555 0.0000
# 3 56.4539 48.0564 134.7137 0.0000 -18.2635 0.0000
# 4 0.0000 0.0000 0.0000 33.5421 0.0000 -6.6295
# 5 -25.6938 -8.8555 -18.2635 0.0000 18.3498 0.0000
# 6 0.0000 0.0000 0.0000 -6.6295 0.0000 33.4675
#
#
#
# Elastic Compliance Matrix: (Units=1/GPa)
#
#
# Indices 1 2 3 4 5 6 
#
# 1 0.011906 -0.004156 -0.001755 0.000000 0.012919 0.000000
# 2 -0.004156 0.017356 -0.004743 0.000000 -0.002165 0.000000
# 3 -0.001755 -0.004743 0.010643 0.000000 0.005846 0.000000
# 4 0.000000 0.000000 0.000000 0.031028 0.000000 0.006146
# 5 0.012919 -0.002165 0.005846 0.000000 0.077359 0.000000
# 6 0.000000 0.000000 0.000000 0.006146 0.000000 0.031097
#
#
# Mechanical properties :
#
#
# Convention : Reuss Voigt Hill
#
# Bulk Modulus (GPa) = 53.77513 72.15547 62.96530
# Shear Modulus (GPa) = 24.16645 30.51383 27.34014
#
# Velocity S-wave (km/s) = 3.49703 3.92954 3.71958
# Velocity P-wave (km/s) = 6.59683 7.55660 7.09297
#
# Compressibility (1/GPa) = 0.01859596
#
# Stress axis : x y z
#
# Youngs Moduli (GPa) = 83.98823 57.61798 93.95507
#
# Poissons Ratio (x) = 0.23948 0.16494
# Poissons Ratio (y) = 0.34908 0.44563
# Poissons Ratio (z) = 0.14744 0.27328
#
# Static dielectric constant tensor:
#      x y z
#    x 3.847740 0.000000 -0.068020 
#    y 0.000000 3.580980 0.000000 
#    z -0.068020 0.000000 3.630350 
# 
# 
# High freq. dielectric constant tensor:
#      x y z
#    x 1.787790 0.000000 -0.005150 
#    y 0.000000 1.771750 0.000000 
#    z -0.005150 0.000000 1.767880 
# 
# From -- ./inp_files/359769.got.cif
#   From: 2010.06.25/outbox.cif.g09.slc.cpg/sg12_180_cif.got.tgz:359769.got - 2010.06.28 00:19:55.
