data_PCOD8111921
_publ_section_title
;
Structure prediction by ZEFSAII (Michael W. Deem and Ramdas Pophale) SiO2 
 PCOD8111921
Probable space group: C 2/M
;
_chemical_formula_sum "Si O2"
_cell_formula_units_Z 48
_cell_length_a 30.731676
_cell_length_b 8.513905
_cell_length_c 17.663448
_cell_angle_alpha 90.000000
_cell_angle_beta 30.044130
_cell_angle_gamma 90.000000
_cell_volume 2313.872314
_symmetry_space_group_name_H-M "C 2/M"
_symmetry_group_IT_number 12
_symmetry_cell_setting 'monoclinic'
loop_
_space_group_symop_operation_xyz
x,y,z
-x,y,-z
-x,-y,-z
x,-y,z
1/2+x,1/2+y,z
1/2-x,1/2+y,-z
1/2-x,1/2-y,-z
1/2+x,1/2-y,z
loop_
_atom_site_type_symbol
_atom_site_label
_atom_site_fract_x
_atom_site_fract_y
_atom_site_fract_z
Si Si1 0.991935 0.182445 0.423182
Si Si2 0.673889 0.817933 0.404398
Si Si3 0.169577 0.817209 0.575275
Si Si4 0.833020 0.319110 0.079116
Si Si5 0.990198 0.318463 0.102257
Si Si6 0.332833 0.682145 0.916530
O O1 0.911936 0.283715 0.514272
O O2 0.000000 0.207844 0.500000
O O3 0.078339 0.250882 0.252748
O O4 0.976313 0.000000 0.426270
O O5 0.657559 0.775685 0.515744
O O6 0.752837 0.714860 0.254587
O O7 0.697850 0.000000 0.360837
O O8 0.250000 0.750000 0.500000
O O9 0.083106 0.794084 0.754218
O O10 0.184347 0.000000 0.536226
O O11 0.830446 0.500000 0.058173
O O12 0.827614 0.213482 0.013134
O O13 0.920146 0.276937 0.992166
O O14 0.963788 0.500000 0.154022
O O15 0.000000 0.277762 0.000000
O O16 0.332263 0.500000 0.900790
O O17 0.250000 0.750000 0.000000
#
# Coordination Sequence:
#
# PCOD8111921 Si02
#       6
#     8   8   8   8   8   8
#     4  10  22  41  64  91 125 164 205 251 306 365
#     4  12  25  41  64  93 125 161 206 256 307 366
#     4  12  25  42  65  92 126 164 205 253 305 364
#     4  11  23  40  63  90 125 165 205 253 307 364
#     4  10  22  41  65  93 125 162 204 250 302 360
#     4  11  23  39  62  91 124 162 206 255 307 367
#
# _framework density 20.744446
#
# number of rings (size 3 to 8) (size 9 to 14) (size 15 to 20)
#    0.000    1.000    0.000    7.000    0.000    8.667 
#    0.000    0.000    0.000    0.000    0.000    0.000 
#    0.000    0.000    0.000    0.000    0.000    0.000 
#
# Total GULP energy -297795.838025 kJ/mol
# GULP energy per Si atom -12408.159918 kJ/mol
# Density = 2.069723 g / cm^3
# Si number density = 20.744446 Si / 1000 Ang^3
#
#
#
# Elastic Constant Matrix: (Units=GPa)
#
#
# Indices 1 2 3 4 5 6 
#
# 1 132.9591 27.1469 44.7230 -0.0011 -6.5132 0.0005
# 2 27.1469 60.4673 22.4563 -0.0061 -12.9542 0.0055
# 3 44.7230 22.4563 134.9837 -0.0053 -12.1538 0.0029
# 4 -0.0011 -0.0061 -0.0053 35.3958 0.0019 -1.2365
# 5 -6.5132 -12.9542 -12.1538 0.0019 42.7733 -0.0007
# 6 0.0005 0.0055 0.0029 -1.2365 -0.0007 24.9349
#
#
#
# Elastic Compliance Matrix: (Units=1/GPa)
#
#
# Indices 1 2 3 4 5 6 
#
# 1 0.008989 -0.003180 -0.002476 -0.000001 -0.000298 0.000001
# 2 -0.003180 0.019690 -0.001774 0.000003 0.004975 -0.000004
# 3 -0.002476 -0.001774 0.008663 0.000001 0.001547 0.000000
# 4 -0.000001 0.000003 0.000001 0.028301 0.000000 0.001403
# 5 -0.000298 0.004975 0.001547 0.000000 0.025280 -0.000001
# 6 0.000001 -0.000004 0.000000 0.001403 -0.000001 0.040174
#
#
# Mechanical properties :
#
#
# Convention : Reuss Voigt Hill
#
# Bulk Modulus (GPa) = 44.48005 57.45137 50.96571
# Shear Modulus (GPa) = 32.58379 36.22641 34.40510
#
# Velocity S-wave (km/s) = 3.96753 4.18343 4.07691
# Velocity P-wave (km/s) = 6.51743 7.14771 6.83983
#
# Compressibility (1/GPa) = 0.02248199
#
# Stress axis : x y z
#
# Youngs Moduli (GPa) = 111.25258 50.78691 115.43200
#
# Poissons Ratio (x) = 0.16149 0.28580
# Poissons Ratio (y) = 0.35375 0.20481
# Poissons Ratio (z) = 0.27545 0.09011
#
# Static dielectric constant tensor:
#      x y z
#    x 3.809350 0.000000 -0.121600 
#    y 0.000000 3.715800 0.000000 
#    z -0.121600 0.000000 4.221290 
# 
# 
# High freq. dielectric constant tensor:
#      x y z
#    x 1.830210 0.000000 -0.001450 
#    y 0.000000 1.811670 0.000000 
#    z -0.001450 0.000000 1.830090 
# 
# From -- ./inp_files/295363.got.cif
#   From: 2010.06.25/outbox.cif.g09.slc.cpg/sg12_148_cif.got.tgz:295363.got - 2010.06.28 00:19:55.
