data_PCOD8111327
_publ_section_title
;
Structure prediction by ZEFSAII (Michael W. Deem and Ramdas Pophale) SiO2 
 PCOD8111327
Probable space group: C 2/M
;
_chemical_formula_sum "Si O2"
_cell_formula_units_Z 56
_cell_length_a 8.584133
_cell_length_b 32.729388
_cell_length_c 19.980568
_cell_angle_alpha 90.000000
_cell_angle_beta 28.701945
_cell_angle_gamma 90.000000
_cell_volume 2695.954052
_symmetry_space_group_name_H-M "C 2/M"
_symmetry_group_IT_number 12
_symmetry_cell_setting 'monoclinic'
loop_
_space_group_symop_operation_xyz
x,y,z
-x,y,-z
-x,-y,-z
x,-y,z
1/2+x,1/2+y,z
1/2-x,1/2+y,-z
1/2-x,1/2-y,-z
1/2+x,1/2-y,z
loop_
_atom_site_type_symbol
_atom_site_label
_atom_site_fract_x
_atom_site_fract_y
_atom_site_fract_z
Si Si1 0.124579 0.379726 0.651005
Si Si2 0.112462 0.290976 0.650113
Si Si3 0.777938 0.634517 0.148078
Si Si4 0.273530 0.708209 0.341732
Si Si5 0.945653 0.000000 0.224911
Si Si6 0.572824 0.000000 0.077775
Si Si7 0.365442 0.086698 0.875999
Si Si8 0.682712 0.082515 0.360280
O O1 0.500000 0.380909 0.500000
O O2 0.011776 0.334658 0.719768
O O3 0.038779 0.413142 0.738643
O O4 0.977390 0.387693 0.633368
O O5 0.500000 0.289406 0.500000
O O6 0.023465 0.250617 0.726037
O O7 0.924302 0.288775 0.651578
O O8 0.545073 0.673263 0.245815
O O9 0.558788 0.594403 0.223557
O O10 0.002521 0.623159 0.126508
O O11 0.000000 0.641686 0.000000
O O12 0.000000 0.699671 0.500000
O O13 0.692402 0.036875 0.328642
O O14 0.221153 0.000000 0.177285
O O15 0.122241 0.000000 0.087102
O O16 0.598334 0.959178 0.111462
O O17 0.000000 0.098680 0.000000
O O18 0.500000 0.086112 0.500000
#
# Coordination Sequence:
#
# PCOD8111327 Si02
#       8
#     8   8   8   8   4   4   8   8
#     4  11  25  42  66 101 136 174 219 282 339 394
#     4  10  22  39  68  99 135 170 230 274 340 395
#     4  12  25  43  67  97 135 178 227 271 336 407
#     4  11  23  41  70  99 132 177 228 280 334 401
#     4  11  23  42  72  98 135 169 235 273 330 396
#     4  11  23  44  70  97 131 184 219 277 330 404
#     4  12  26  43  69  96 134 174 229 271 337 399
#     4  12  24  45  71 100 132 177 228 276 334 397
#
# _framework density 20.771868000000001
#
# number of rings (size 3 to 8) (size 9 to 14) (size 15 to 20)
#    0.000    0.714    2.857    6.000    6.000    0.571 
#    0.000    2.143    0.000    0.000    0.000    0.000 
#    0.000    0.000    0.000    0.000    0.000    0.000 
#
# Total GULP energy -347042.664293 kJ/mol
# GULP energy per Si atom -12394.380868 kJ/mol
# Density = 2.072459 g / cm^3
# Si number density = 20.771868 Si / 1000 Ang^3
#
#
#
# Elastic Constant Matrix: (Units=GPa)
#
#
# Indices 1 2 3 4 5 6 
#
# 1 138.2602 60.7138 47.8844 0.0002 -3.1431 0.0000
# 2 60.7138 153.8639 62.7490 -0.0002 -3.5939 -0.0001
# 3 47.8844 62.7490 106.4470 -0.0019 12.5795 0.0004
# 4 0.0002 -0.0002 -0.0019 40.0997 0.0005 -3.3268
# 5 -3.1431 -3.5939 12.5795 0.0005 37.4632 0.0000
# 6 0.0000 -0.0001 0.0004 -3.3268 0.0000 40.8285
#
#
#
# Elastic Compliance Matrix: (Units=1/GPa)
#
#
# Indices 1 2 3 4 5 6 
#
# 1 0.009368 -0.002459 -0.002947 0.000000 0.001539 0.000000
# 2 -0.002459 0.009456 -0.004739 0.000000 0.002292 0.000000
# 3 -0.002947 -0.004739 0.014158 0.000001 -0.005456 0.000000
# 4 0.000000 0.000000 0.000001 0.025108 -0.000001 0.002046
# 5 0.001539 0.002292 -0.005456 -0.000001 0.028874 0.000000
# 6 0.000000 0.000000 0.000000 0.002046 0.000000 0.024659
#
#
# Mechanical properties :
#
#
# Convention : Reuss Voigt Hill
#
# Bulk Modulus (GPa) = 78.78198 82.36284 80.57241
# Shear Modulus (GPa) = 36.72643 38.82655 37.77649
#
# Velocity S-wave (km/s) = 4.20942 4.32810 4.26917
# Velocity P-wave (km/s) = 7.85081 8.04449 7.94824
#
# Compressibility (1/GPa) = 0.01269326
#
# Stress axis : x y z
#
# Youngs Moduli (GPa) = 106.74617 105.75747 70.63170
#
# Poissons Ratio (x) = 0.26005 0.20812
# Poissons Ratio (y) = 0.26248 0.33470
# Poissons Ratio (z) = 0.31453 0.50115
#
# Static dielectric constant tensor:
#      x y z
#    x 4.110870 0.000000 0.021720 
#    y 0.000000 4.261670 0.000000 
#    z 0.021720 0.000000 3.715970 
# 
# 
# High freq. dielectric constant tensor:
#      x y z
#    x 1.829660 0.000000 -0.009540 
#    y 0.000000 1.834160 0.000000 
#    z -0.009540 0.000000 1.795520 
# 
# From -- ./inp_files/303018.got.cif
#   From: 2010.06.25/outbox.cif.g09.slc.cpg/sg12_152_cif.got.tgz:303018.got - 2010.06.28 00:19:55.
