data_PCOD8111827
_publ_section_title
;
Structure prediction by ZEFSAII (Michael W. Deem and Ramdas Pophale) SiO2 
 PCOD8111827
Probable space group: C 2/M
;
_chemical_formula_sum "Si O2"
_cell_formula_units_Z 40
_cell_length_a 11.138116
_cell_length_b 18.467027
_cell_length_c 14.738786
_cell_angle_alpha 90.000000
_cell_angle_beta 37.588332
_cell_angle_gamma 90.000000
_cell_volume 1849.220669
_symmetry_space_group_name_H-M "C 2/M"
_symmetry_group_IT_number 12
_symmetry_cell_setting 'monoclinic'
loop_
_space_group_symop_operation_xyz
x,y,z
-x,y,-z
-x,-y,-z
x,-y,z
1/2+x,1/2+y,z
1/2-x,1/2+y,-z
1/2-x,1/2-y,-z
1/2+x,1/2-y,z
loop_
_atom_site_type_symbol
_atom_site_label
_atom_site_fract_x
_atom_site_fract_y
_atom_site_fract_z
Si Si1 0.085622 0.813437 0.189411
Si Si2 0.966237 0.918930 0.420635
Si Si3 0.288776 0.664578 0.080462
Si Si4 0.832389 0.284113 0.544550
Si Si5 0.973518 0.580188 0.370146
O O1 0.190745 0.741694 0.165118
O O2 0.068274 0.870029 0.282311
O O3 0.867205 0.796058 0.279137
O O4 0.203661 0.845063 0.033276
O O5 0.731867 0.919783 0.558728
O O6 0.000000 0.886815 0.500000
O O7 0.052695 0.000000 0.357252
O O8 0.151283 0.599491 0.196048
O O9 0.500000 0.658050 0.000000
O O10 0.750000 0.250000 0.500000
O O11 0.952991 0.358801 0.458695
O O12 0.000000 0.237468 0.500000
O O13 0.015781 0.500000 0.386102
#
# Coordination Sequence:
#
# PCOD8111827 Si02
#       5
#     8   8   8   8   8
#     4  10  23  38  61  93 127 169 215 272 317 392
#     4   9  20  40  66  94 125 163 216 275 330 389
#     4  11  23  41  58  89 131 169 217 262 320 388
#     4  11  22  40  67  97 125 168 217 273 328 382
#     4  10  22  41  62  93 129 165 212 266 323 389
#
# _framework density 21.630731999999998
#
# number of rings (size 3 to 8) (size 9 to 14) (size 15 to 20)
#    0.000    1.800    2.000    1.200    0.000    8.000 
#    0.000    4.000    0.000    4.200    0.000    0.000 
#    0.000    0.000    0.000    0.000    0.000    0.000 
#
# Total GULP energy -247763.030986 kJ/mol
# GULP energy per Si atom -12388.151549 kJ/mol
# Density = 2.158150 g / cm^3
# Si number density = 21.630732 Si / 1000 Ang^3
#
#
#
# Elastic Constant Matrix: (Units=GPa)
#
#
# Indices 1 2 3 4 5 6 
#
# 1 114.9555 31.5072 36.7630 0.0086 12.6922 -0.0045
# 2 31.5072 128.5527 60.1066 -0.0071 8.5895 0.0018
# 3 36.7630 60.1066 123.6792 -0.0047 -4.2603 -0.0007
# 4 0.0086 -0.0071 -0.0047 40.0019 -0.0009 -0.9778
# 5 12.6922 8.5895 -4.2603 -0.0009 21.2134 -0.0003
# 6 -0.0045 0.0018 -0.0007 -0.9778 -0.0003 14.8890
#
#
#
# Elastic Compliance Matrix: (Units=1/GPa)
#
#
# Indices 1 2 3 4 5 6 
#
# 1 0.010602 -0.000742 -0.003020 -0.000003 -0.006649 0.000003
# 2 -0.000742 0.010696 -0.005147 0.000001 -0.004921 -0.000002
# 3 -0.003020 -0.005147 0.011699 0.000001 0.006240 0.000001
# 4 -0.000003 0.000001 0.000001 0.025039 0.000003 0.001644
# 5 -0.006649 -0.004921 0.006240 0.000003 0.054364 0.000000
# 6 0.000003 -0.000002 0.000001 0.001644 0.000000 0.067272
#
#
# Mechanical properties :
#
#
# Convention : Reuss Voigt Hill
#
# Bulk Modulus (GPa) = 65.87770 69.32679 67.60225
# Shear Modulus (GPa) = 24.68513 31.14157 27.91335
#
# Velocity S-wave (km/s) = 3.38184 3.79844 3.59618
# Velocity P-wave (km/s) = 6.76541 7.16640 6.96879
#
# Compressibility (1/GPa) = 0.01517964
#
# Stress axis : x y z
#
# Youngs Moduli (GPa) = 94.31857 93.49105 85.47421
#
# Poissons Ratio (x) = 0.06940 0.25811
# Poissons Ratio (y) = 0.07001 0.43994
# Poissons Ratio (z) = 0.28482 0.48121
#
# Static dielectric constant tensor:
#      x y z
#    x 3.973640 0.000020 -0.222270 
#    y 0.000020 4.434960 0.000010 
#    z -0.222270 0.000010 4.159360 
# 
# 
# High freq. dielectric constant tensor:
#      x y z
#    x 1.854840 0.000000 -0.001340 
#    y 0.000000 1.848740 0.000000 
#    z -0.001340 0.000000 1.853340 
# 
# From -- ./inp_files/205922.got.cif
#   From: 2010.06.25/outbox.cif.g09.slc.cpg/sg12_103_cif.got.tgz:205922.got - 2010.06.28 00:19:55.
