data_PCOD8111790
_publ_section_title
;
Structure prediction by ZEFSAII (Michael W. Deem and Ramdas Pophale) SiO2 
 PCOD8111790
Probable space group: C 2/M
;
_chemical_formula_sum "Si O2"
_cell_formula_units_Z 64
_cell_length_a 15.429447
_cell_length_b 8.743410
_cell_length_c 33.152905
_cell_angle_alpha 90.000000
_cell_angle_beta 134.432869
_cell_angle_gamma 90.000000
_cell_volume 3193.701352
_symmetry_space_group_name_H-M "C 2/M"
_symmetry_group_IT_number 12
_symmetry_cell_setting 'monoclinic'
loop_
_space_group_symop_operation_xyz
x,y,z
-x,y,-z
-x,-y,-z
x,-y,z
1/2+x,1/2+y,z
1/2-x,1/2+y,-z
1/2-x,1/2-y,-z
1/2+x,1/2-y,z
loop_
_atom_site_type_symbol
_atom_site_label
_atom_site_fract_x
_atom_site_fract_y
_atom_site_fract_z
Si Si1 0.740202 0.180644 0.387763
Si Si2 0.031464 0.680635 0.688689
Si Si3 0.656449 0.179166 0.500498
Si Si4 0.402702 0.179467 0.378004
Si Si5 0.787628 0.821805 0.189904
Si Si6 0.488623 0.179171 0.886020
Si Si7 0.398831 0.679146 0.999345
Si Si8 0.166331 0.820179 0.886649
O O1 0.603760 0.245010 0.348050
O O2 0.826333 0.253295 0.449597
O O3 0.789163 0.231227 0.360062
O O4 0.743782 0.000000 0.393518
O O5 0.025208 0.500000 0.685199
O O6 0.081217 0.742126 0.662200
O O7 0.117716 0.730508 0.752664
O O8 0.750000 0.250000 0.500000
O O9 0.521818 0.219392 0.442357
O O10 0.678738 0.000000 0.508942
O O11 0.374776 0.000000 0.369438
O O12 0.652995 0.779105 0.160632
O O13 0.804588 0.769132 0.149361
O O14 0.813841 0.000000 0.203476
O O15 0.555211 0.277469 0.941678
O O16 0.546086 0.230120 0.862075
O O17 0.508343 0.000000 0.900718
O O18 0.368761 0.500000 0.987505
O O19 0.500000 0.727148 0.000000
O O20 0.278192 0.774437 0.951401
O O21 0.143328 0.000000 0.882415
#
# Coordination Sequence:
#
# PCOD8111790 Si02
#       8
#     8   8   8   8   8   8   8   8
#     4  11  23  40  61  92 124 157 202 247 299 360
#     4  10  23  43  63  84 120 160 200 252 302 353
#     4  11  21  37  62  90 125 161 198 244 301 362
#     4  10  22  41  61  88 123 160 198 243 302 359
#     4  10  24  43  63  87 118 157 205 252 298 354
#     4  11  23  41  63  90 124 159 198 247 301 355
#     4  11  22  37  62  94 124 158 200 242 296 362
#     4  11  23  41  63  90 124 160 199 246 301 358
#
# _framework density 20.039445000000001
#
# number of rings (size 3 to 8) (size 9 to 14) (size 15 to 20)
#    0.000    1.375    2.500    2.625    0.000    7.500 
#    0.000    5.000    0.000    0.000    0.000    0.000 
#    0.000    0.000    0.000    0.000    0.000    0.000 
#
# Total GULP energy -396992.241533 kJ/mol
# GULP energy per Si atom -12406.007548 kJ/mol
# Density = 1.999383 g / cm^3
# Si number density = 20.039445 Si / 1000 Ang^3
#
#
#
# Elastic Constant Matrix: (Units=GPa)
#
#
# Indices 1 2 3 4 5 6 
#
# 1 136.6525 31.4238 28.7666 0.0000 -1.5574 0.0000
# 2 31.4238 43.1653 22.6933 0.0000 0.3028 0.0000
# 3 28.7666 22.6933 82.7764 0.0000 5.6839 0.0000
# 4 0.0000 0.0000 0.0000 34.4254 0.0000 -1.9637
# 5 -1.5574 0.3028 5.6839 0.0000 16.5613 0.0000
# 6 0.0000 0.0000 0.0000 -1.9637 0.0000 36.6886
#
#
#
# Elastic Compliance Matrix: (Units=1/GPa)
#
#
# Indices 1 2 3 4 5 6 
#
# 1 0.008993 -0.005678 -0.001673 0.000000 0.001524 0.000000
# 2 -0.005678 0.030724 -0.006529 0.000000 0.001145 0.000000
# 3 -0.001673 -0.006529 0.014804 0.000000 -0.005119 0.000000
# 4 0.000000 0.000000 0.000000 0.029137 0.000000 0.001560
# 5 0.001524 0.001145 -0.005119 0.000000 0.062261 0.000000
# 6 0.000000 0.000000 0.000000 0.001560 0.000000 0.027340
#
#
# Mechanical properties :
#
#
# Convention : Reuss Voigt Hill
#
# Bulk Modulus (GPa) = 37.36710 47.59573 42.48141
# Shear Modulus (GPa) = 23.81648 29.51579 26.66613
#
# Velocity S-wave (km/s) = 3.45117 3.84198 3.65181
# Velocity P-wave (km/s) = 5.87946 6.59422 6.24707
#
# Compressibility (1/GPa) = 0.02676151
#
# Stress axis : x y z
#
# Youngs Moduli (GPa) = 111.19648 32.54749 67.55144
#
# Poissons Ratio (x) = 0.18480 0.11304
# Poissons Ratio (y) = 0.63135 0.44101
# Poissons Ratio (z) = 0.18607 0.21249
#
# Static dielectric constant tensor:
#      x y z
#    x 3.937920 0.000000 -0.069920 
#    y 0.000000 3.541830 0.000000 
#    z -0.069920 0.000000 3.548950 
# 
# 
# High freq. dielectric constant tensor:
#      x y z
#    x 1.803430 0.000000 -0.002740 
#    y 0.000000 1.780880 0.000000 
#    z -0.002740 0.000000 1.775520 
# 
# From -- ./inp_files/375539.got.cif
#   From: 2010.06.25/outbox.cif.g09.slc.cpg/sg12_188_cif.got.tgz:375539.got - 2010.06.28 00:19:55.
