data_PCOD8111334
_publ_section_title
;
Structure prediction by ZEFSAII (Michael W. Deem and Ramdas Pophale) SiO2 
 PCOD8111334
Probable space group: C 2/M
;
_chemical_formula_sum "Si O2"
_cell_formula_units_Z 48
_cell_length_a 17.145403
_cell_length_b 14.756461
_cell_length_c 10.703566
_cell_angle_alpha 90.000000
_cell_angle_beta 76.598266
_cell_angle_gamma 90.000000
_cell_volume 2634.317184
_symmetry_space_group_name_H-M "C 2/M"
_symmetry_group_IT_number 12
_symmetry_cell_setting 'monoclinic'
loop_
_space_group_symop_operation_xyz
x,y,z
-x,y,-z
-x,-y,-z
x,-y,z
1/2+x,1/2+y,z
1/2-x,1/2+y,-z
1/2-x,1/2-y,-z
1/2+x,1/2-y,z
loop_
_atom_site_type_symbol
_atom_site_label
_atom_site_fract_x
_atom_site_fract_y
_atom_site_fract_z
Si Si1 0.071481 0.897725 0.864102
Si Si2 0.592470 0.599514 0.178692
Si Si3 0.155102 0.898439 0.584223
Si Si4 0.309695 0.101933 0.691521
Si Si5 0.413556 0.729982 0.590772
Si Si6 0.287137 0.660785 0.043839
O O1 0.082724 0.889485 0.709725
O O2 0.130987 0.823509 0.905083
O O3 0.973660 0.884427 0.911216
O O4 0.098627 0.000000 0.895915
O O5 0.578660 0.500000 0.243010
O O6 0.579738 0.676880 0.283063
O O7 0.681750 0.602251 0.086229
O O8 0.238334 0.878517 0.622302
O O9 0.145132 0.825697 0.478158
O O10 0.155389 0.000000 0.526229
O O11 0.380314 0.170726 0.632999
O O12 0.279225 0.112489 0.845953
O O13 0.342929 0.000000 0.664297
O O14 0.500000 0.743070 0.500000
O O15 0.250000 0.750000 0.000000
#
# Coordination Sequence:
#
# PCOD8111334 Si02
#       6
#     8   8   8   8   8   8
#     4   9  18  33  55  82 112 144 173 215 275 335
#     4  11  21  34  55  84 116 143 170 219 283 333
#     4   9  18  34  56  81 112 145 174 218 278 325
#     4  10  22  40  57  75 107 150 190 224 259 316
#     4  12  22  34  55  85 114 142 181 226 268 318
#     4  11  20  35  55  82 108 137 183 226 269 316
#
# _framework density 18.221039999999999
#
# number of rings (size 3 to 8) (size 9 to 14) (size 15 to 20)
#    0.000    1.667    3.333    4.000    0.000    2.333 
#    0.000    0.000    0.000    0.000    0.000    4.667 
#    0.000    0.000    0.000    0.000    0.000    0.000 
#
# Total GULP energy -297452.191770 kJ/mol
# GULP energy per Si atom -12393.841324 kJ/mol
# Density = 1.817957 g / cm^3
# Si number density = 18.221040 Si / 1000 Ang^3
#
#
#
# Elastic Constant Matrix: (Units=GPa)
#
#
# Indices 1 2 3 4 5 6 
#
# 1 70.9559 67.3019 47.2019 0.0000 0.7705 0.0000
# 2 67.3019 134.4116 56.0416 0.0000 2.7580 0.0000
# 3 47.2019 56.0416 85.2170 0.0000 -9.2986 0.0000
# 4 0.0000 0.0000 0.0000 28.1856 0.0000 3.0953
# 5 0.7705 2.7580 -9.2986 0.0000 29.3954 0.0000
# 6 0.0000 0.0000 0.0000 3.0953 0.0000 29.8148
#
#
#
# Elastic Compliance Matrix: (Units=1/GPa)
#
#
# Indices 1 2 3 4 5 6 
#
# 1 0.032171 -0.011679 -0.010473 0.000000 -0.003060 0.000000
# 2 -0.011679 0.014790 -0.003496 0.000000 -0.002188 0.000000
# 3 -0.010473 -0.003496 0.020612 0.000000 0.007123 0.000000
# 4 0.000000 0.000000 0.000000 0.035888 0.000000 -0.003726
# 5 -0.003060 -0.002188 0.007123 0.000000 0.036558 0.000000
# 6 0.000000 0.000000 0.000000 -0.003726 0.000000 0.033927
#
#
# Mechanical properties :
#
#
# Convention : Reuss Voigt Hill
#
# Bulk Modulus (GPa) = 61.43655 70.18616 65.81136
# Shear Modulus (GPa) = 21.67608 25.48178 23.57893
#
# Velocity S-wave (km/s) = 3.45283 3.74368 3.60119
# Velocity P-wave (km/s) = 7.04887 7.56900 7.31356
#
# Compressibility (1/GPa) = 0.01627695
#
# Stress axis : x y z
#
# Youngs Moduli (GPa) = 31.08378 67.61154 48.51497
#
# Poissons Ratio (x) = 0.78965 0.50810
# Poissons Ratio (y) = 0.36303 0.16962
# Poissons Ratio (z) = 0.32554 0.23639
#
# Static dielectric constant tensor:
#      x y z
#    x 3.283170 0.000000 -0.104400 
#    y 0.000000 3.198020 0.000000 
#    z -0.104400 0.000000 3.625980 
# 
# 
# High freq. dielectric constant tensor:
#      x y z
#    x 1.695310 0.000000 -0.007070 
#    y 0.000000 1.682790 0.000000 
#    z -0.007070 0.000000 1.727150 
# 
# From -- ./inp_files/142849.got.cif
#   From: 2010.06.25/outbox.cif.g09.slc.cpg/sg12_72_cif.got.tgz:142849.got - 2010.06.28 00:19:55.
