data_PCOD8111377
_publ_section_title
;
Structure prediction by ZEFSAII (Michael W. Deem and Ramdas Pophale) SiO2 
 PCOD8111377
Probable space group: C 2/M
;
_chemical_formula_sum "Si O2"
_cell_formula_units_Z 48
_cell_length_a 9.883891
_cell_length_b 26.884401
_cell_length_c 8.773676
_cell_angle_alpha 90.000000
_cell_angle_beta 90.309075
_cell_angle_gamma 90.000000
_cell_volume 2331.329105
_symmetry_space_group_name_H-M "C 2/M"
_symmetry_group_IT_number 12
_symmetry_cell_setting 'monoclinic'
loop_
_space_group_symop_operation_xyz
x,y,z
-x,y,-z
-x,-y,-z
x,-y,z
1/2+x,1/2+y,z
1/2-x,1/2+y,-z
1/2-x,1/2-y,-z
1/2+x,1/2-y,z
loop_
_atom_site_type_symbol
_atom_site_label
_atom_site_fract_x
_atom_site_fract_y
_atom_site_fract_z
Si Si1 0.728268 0.718955 0.150360
Si Si2 0.036520 0.382001 0.329438
Si Si3 0.731847 0.894233 0.850412
Si Si4 0.460349 0.557415 0.666883
Si Si5 0.762279 0.942846 0.171436
Si Si6 0.498071 0.231871 0.328212
O O1 0.731770 0.661658 0.101274
O O2 0.583414 0.731376 0.222311
O O3 0.843497 0.731347 0.273540
O O4 0.750000 0.750000 0.000000
O O5 0.173138 0.409069 0.281654
O O6 0.062919 0.323038 0.321032
O O7 0.000000 0.398498 0.500000
O O8 0.919894 0.398220 0.212528
O O9 0.832253 0.911047 0.718348
O O10 0.743099 0.929720 0.995285
O O11 0.500000 0.576845 0.500000
O O12 0.416948 0.500000 0.659203
O O13 0.581871 0.565988 0.785585
O O14 0.720690 0.000000 0.196949
O O15 0.500000 0.252483 0.500000
#
# Coordination Sequence:
#
# PCOD8111377 Si02
#       6
#     8   8   8   8   8   8
#     4  11  23  38  59  86 115 150 190 232 281 336
#     4  10  22  40  60  84 115 149 188 235 283 333
#     4  11  23  38  59  86 115 150 190 232 281 336
#     4  10  22  40  60  84 115 149 188 235 283 333
#     4  11  23  38  59  86 115 150 190 232 281 336
#     4  10  22  40  60  84 115 149 188 235 283 333
#
# _framework density 20.589113000000001
#
# number of rings (size 3 to 8) (size 9 to 14) (size 15 to 20)
#    0.000    1.500    0.000    4.500    0.000   11.000 
#    0.000    0.000    0.000    0.000    0.000    0.000 
#    0.000    0.000    0.000    0.000    0.000    0.000 
#
# Total GULP energy -297795.327567 kJ/mol
# GULP energy per Si atom -12408.138649 kJ/mol
# Density = 2.054225 g / cm^3
# Si number density = 20.589113 Si / 1000 Ang^3
#
#
#
# Elastic Constant Matrix: (Units=GPa)
#
#
# Indices 1 2 3 4 5 6 
#
# 1 47.3708 20.2158 -6.9900 0.0000 -12.2780 0.0000
# 2 20.2158 63.1549 10.0980 0.0000 -2.5697 0.0000
# 3 -6.9900 10.0980 95.8744 0.0000 -3.6516 0.0000
# 4 0.0000 0.0000 0.0000 34.0969 0.0000 -6.5659
# 5 -12.2780 -2.5697 -3.6516 0.0000 36.3563 0.0000
# 6 0.0000 0.0000 0.0000 -6.5659 0.0000 34.7042
#
#
#
# Elastic Compliance Matrix: (Units=1/GPa)
#
#
# Indices 1 2 3 4 5 6 
#
# 1 0.027829 -0.009071 0.003331 0.000000 0.009092 0.000000
# 2 -0.009071 0.019096 -0.002748 0.000000 -0.001990 0.000000
# 3 0.003331 -0.002748 0.011040 0.000000 0.002039 0.000000
# 4 0.000000 0.000000 0.000000 0.030437 0.000000 0.005759
# 5 0.009092 -0.001990 0.002039 0.000000 0.030640 0.000000
# 6 0.000000 0.000000 0.000000 0.005759 0.000000 0.029904
#
#
# Mechanical properties :
#
#
# Convention : Reuss Voigt Hill
#
# Bulk Modulus (GPa) = 24.39712 28.11639 26.25675
# Shear Modulus (GPa) = 27.84175 33.23656 30.53915
#
# Velocity S-wave (km/s) = 3.68129 4.02217 3.85550
# Velocity P-wave (km/s) = 5.47215 5.93768 5.70966
#
# Compressibility (1/GPa) = 0.04098845
#
# Stress axis : x y z
#
# Youngs Moduli (GPa) = 35.93392 52.36686 90.57733
#
# Poissons Ratio (x) = 0.47500 -0.30167
# Poissons Ratio (y) = 0.32594 0.24894
# Poissons Ratio (z) = -0.11968 0.14392
#
# Static dielectric constant tensor:
#      x y z
#    x 3.774030 0.000000 0.050750 
#    y 0.000000 3.739420 0.000000 
#    z 0.050750 0.000000 3.831750 
# 
# 
# High freq. dielectric constant tensor:
#      x y z
#    x 1.810860 0.000000 0.001820 
#    y 0.000000 1.804360 0.000000 
#    z 0.001820 0.000000 1.821230 
# 
# From -- ./inp_files/42249.got.cif
#   From: 2010.06.25/outbox.cif.g09.slc.cpg/sg12_22_cif.got.tgz:42249.got - 2010.06.28 00:19:55.
