data_PCOD8111171
_publ_section_title
;
Structure prediction by ZEFSAII (Michael W. Deem and Ramdas Pophale) SiO2 
 PCOD8111171
Probable space group: C 2/M
;
_chemical_formula_sum "Si O2"
_cell_formula_units_Z 64
_cell_length_a 32.968393
_cell_length_b 9.004157
_cell_length_c 16.288279
_cell_angle_alpha 90.000000
_cell_angle_beta 137.975256
_cell_angle_gamma 90.000000
_cell_volume 3236.943689
_symmetry_space_group_name_H-M "C 2/M"
_symmetry_group_IT_number 12
_symmetry_cell_setting 'monoclinic'
loop_
_space_group_symop_operation_xyz
x,y,z
-x,y,-z
-x,-y,-z
x,-y,z
1/2+x,1/2+y,z
1/2-x,1/2+y,-z
1/2-x,1/2-y,-z
1/2+x,1/2-y,z
loop_
_atom_site_type_symbol
_atom_site_label
_atom_site_fract_x
_atom_site_fract_y
_atom_site_fract_z
Si Si1 0.782369 0.330189 0.974562
Si Si2 0.743566 0.326403 0.234350
Si Si3 0.035098 0.829651 0.923211
Si Si4 0.513713 0.671941 0.425906
Si Si5 0.858210 0.169726 0.794351
Si Si6 0.421567 0.170110 0.168896
Si Si7 0.121630 0.327356 0.507074
Si Si8 0.409213 0.174546 0.724346
O O1 0.761209 0.500000 0.940599
O O2 0.763200 0.258059 0.860634
O O3 0.750000 0.250000 0.000000
O O4 0.853567 0.316792 0.098798
O O5 0.733141 0.500000 0.201647
O O6 0.693767 0.266258 0.223954
O O7 0.808893 0.292151 0.370083
O O8 0.073341 0.764587 0.905752
O O9 0.974092 0.739740 0.845551
O O10 0.018676 0.000000 0.879783
O O11 0.075960 0.815662 0.065313
O O12 0.500000 0.697071 0.500000
O O13 0.508547 0.500000 0.393189
O O14 0.465447 0.767079 0.303690
O O15 0.580912 0.730343 0.507165
O O16 0.858706 0.261706 0.710561
O O17 0.843170 0.000000 0.749986
O O18 0.439955 0.000000 0.178090
O O19 0.106526 0.500000 0.498205
O O20 0.107913 0.278500 0.393427
O O21 0.411228 0.000000 0.737932
#
# Coordination Sequence:
#
# PCOD8111171 Si02
#       8
#     8   8   8   8   8   8   8   8
#     4  11  25  42  64  94 126 161 204 252 305 364
#     4  10  22  43  65  88 122 164 207 253 307 364
#     4  11  21  37  62  91 123 158 201 253 308 362
#     4  11  25  42  63  93 125 160 205 254 303 358
#     4  10  22  39  61  89 121 160 204 251 306 364
#     4  11  23  40  64  93 124 161 202 249 309 364
#     4  10  23  42  63  88 122 163 206 252 305 362
#     4  11  23  38  59  90 124 161 205 251 302 365
#
# _framework density 19.771737000000002
#
# number of rings (size 3 to 8) (size 9 to 14) (size 15 to 20)
#    0.000    1.375    2.500    2.250    1.750    7.000 
#    0.000    0.000    0.000    0.000    0.000    0.000 
#    0.000    0.000    0.000    0.000    0.000    0.000 
#
# Total GULP energy -396980.071299 kJ/mol
# GULP energy per Si atom -12405.627228 kJ/mol
# Density = 1.972674 g / cm^3
# Si number density = 19.771737 Si / 1000 Ang^3
#
#
#
# Elastic Constant Matrix: (Units=GPa)
#
#
# Indices 1 2 3 4 5 6 
#
# 1 151.9700 57.9599 44.0059 0.0000 -11.2028 0.0000
# 2 57.9599 77.4602 34.7426 0.0000 -8.4235 0.0000
# 3 44.0059 34.7426 72.9787 0.0000 6.7690 0.0000
# 4 0.0000 0.0000 0.0000 28.7759 0.0000 -3.3310
# 5 -11.2028 -8.4235 6.7690 0.0000 29.1203 0.0000
# 6 0.0000 0.0000 0.0000 -3.3310 0.0000 36.3813
#
#
#
# Elastic Compliance Matrix: (Units=1/GPa)
#
#
# Indices 1 2 3 4 5 6 
#
# 1 0.009962 -0.005457 -0.003698 0.000000 0.003113 0.000000
# 2 -0.005457 0.020795 -0.007126 0.000000 0.005573 0.000000
# 3 -0.003698 -0.007126 0.020081 0.000000 -0.008152 0.000000
# 4 0.000000 0.000000 0.000000 0.035124 0.000000 0.003216
# 5 0.003113 0.005573 -0.008152 0.000000 0.039045 0.000000
# 6 0.000000 0.000000 0.000000 0.003216 0.000000 0.027781
#
#
# Mechanical properties :
#
#
# Convention : Reuss Voigt Hill
#
# Bulk Modulus (GPa) = 54.71622 63.98063 59.34842
# Shear Modulus (GPa) = 26.11764 29.90222 28.00993
#
# Velocity S-wave (km/s) = 3.63844 3.89314 3.76794
# Velocity P-wave (km/s) = 6.73684 7.25525 7.00085
#
# Compressibility (1/GPa) = 0.01827612
#
# Stress axis : x y z
#
# Youngs Moduli (GPa) = 100.38453 48.08806 49.79788
#
# Poissons Ratio (x) = 0.26240 0.18415
# Poissons Ratio (y) = 0.54777 0.35488
# Poissons Ratio (z) = 0.37121 0.34269
#
# Static dielectric constant tensor:
#      x y z
#    x 3.800510 0.000000 -0.036740 
#    y 0.000000 3.774940 0.000000 
#    z -0.036740 0.000000 3.630150 
# 
# 
# High freq. dielectric constant tensor:
#      x y z
#    x 1.785740 0.000000 -0.001210 
#    y 0.000000 1.776530 0.000000 
#    z -0.001210 0.000000 1.771720 
# 
# From -- ./inp_files/250059.got.cif
#   From: 2010.06.25/outbox.cif.g09.slc.cpg/sg12_126_cif.got.tgz:250059.got - 2010.06.28 00:19:55.
