data_PCOD8111873
_publ_section_title
;
Structure prediction by ZEFSAII (Michael W. Deem and Ramdas Pophale) SiO2 
 PCOD8111873
Probable space group: C 2/M
;
_chemical_formula_sum "Si O2"
_cell_formula_units_Z 48
_cell_length_a 9.496968
_cell_length_b 17.619653
_cell_length_c 30.382724
_cell_angle_alpha 90.000000
_cell_angle_beta 150.971550
_cell_angle_gamma 90.000000
_cell_volume 2466.999570
_symmetry_space_group_name_H-M "C 2/M"
_symmetry_group_IT_number 12
_symmetry_cell_setting 'monoclinic'
loop_
_space_group_symop_operation_xyz
x,y,z
-x,y,-z
-x,-y,-z
x,-y,z
1/2+x,1/2+y,z
1/2-x,1/2+y,-z
1/2-x,1/2-y,-z
1/2+x,1/2-y,z
loop_
_atom_site_type_symbol
_atom_site_label
_atom_site_fract_x
_atom_site_fract_y
_atom_site_fract_z
Si Si1 0.827797 0.327235 0.497084
Si Si2 0.362219 0.802441 0.254387
Si Si3 0.249053 0.089104 0.689017
Si Si4 0.339352 0.913092 0.815465
Si Si5 0.808481 0.726748 0.064588
Si Si6 0.712377 0.337048 0.312209
O O1 0.750000 0.250000 0.500000
O O2 0.546955 0.377155 0.410889
O O3 0.000000 0.308532 0.500000
O O4 0.036941 0.372646 0.588287
O O5 0.473012 0.879121 0.261356
O O6 0.587049 0.736957 0.302727
O O7 0.350280 0.813252 0.303490
O O8 0.041057 0.782801 0.150090
O O9 0.280685 0.110357 0.748923
O O10 0.241641 0.000000 0.679785
O O11 0.595098 0.860948 0.904503
O O12 0.045156 0.898505 0.763080
O O13 0.436345 0.000000 0.847024
O O14 0.500000 0.740624 0.000000
O O15 0.750000 0.750000 0.000000
#
# Coordination Sequence:
#
# PCOD8111873 Si02
#       6
#     8   8   8   8   8   8
#     4  12  23  37  62  94 125 164 215 259 297 350
#     4  11  22  40  62  89 124 161 208 260 312 370
#     4  11  24  41  61  90 129 170 208 253 307 362
#     4  10  22  41  63  90 125 163 203 252 315 372
#     4  11  22  39  64  93 118 153 205 261 312 374
#     4  11  21  37  63  89 123 167 210 256 302 362
#
# _framework density 19.456834000000001
#
# number of rings (size 3 to 8) (size 9 to 14) (size 15 to 20)
#    0.000    1.000    3.333    6.000    0.000    2.000 
#    0.000    1.667    0.000    2.000    0.000    0.000 
#    0.000    0.000    0.000    0.000    0.000    0.000 
#
# Total GULP energy -297603.968864 kJ/mol
# GULP energy per Si atom -12400.165369 kJ/mol
# Density = 1.941255 g / cm^3
# Si number density = 19.456834 Si / 1000 Ang^3
#
#
#
# Elastic Constant Matrix: (Units=GPa)
#
#
# Indices 1 2 3 4 5 6 
#
# 1 135.3091 62.3225 43.8817 -0.0027 -0.8753 -0.0022
# 2 62.3225 104.3432 60.5905 -0.0027 -2.4615 -0.0018
# 3 43.8817 60.5905 130.5666 -0.0042 -2.1948 -0.0037
# 4 -0.0027 -0.0027 -0.0042 30.8048 -0.0025 -2.1955
# 5 -0.8753 -2.4615 -2.1948 -0.0025 39.5004 -0.0020
# 6 -0.0022 -0.0018 -0.0037 -2.1955 -0.0020 26.0013
#
#
#
# Elastic Compliance Matrix: (Units=1/GPa)
#
#
# Indices 1 2 3 4 5 6 
#
# 1 0.010261 -0.005652 -0.000829 0.000000 -0.000171 0.000000
# 2 -0.005652 0.016241 -0.005628 0.000000 0.000574 0.000000
# 3 -0.000829 -0.005628 0.010553 0.000001 0.000217 0.000001
# 4 0.000000 0.000000 0.000001 0.032659 0.000002 0.002758
# 5 -0.000171 0.000574 0.000217 0.000002 0.025360 0.000002
# 6 0.000000 0.000000 0.000001 0.002758 0.000002 0.038692
#
#
# Mechanical properties :
#
#
# Convention : Reuss Voigt Hill
#
# Bulk Modulus (GPa) = 77.89015 78.20093 78.04554
# Shear Modulus (GPa) = 30.81433 32.82290 31.81862
#
# Velocity S-wave (km/s) = 3.98393 4.11172 4.04833
# Velocity P-wave (km/s) = 7.82824 7.92596 7.87726
#
# Compressibility (1/GPa) = 0.01283859
#
# Stress axis : x y z
#
# Youngs Moduli (GPa) = 97.45362 61.57349 94.76269
#
# Poissons Ratio (x) = 0.34799 0.07855
# Poissons Ratio (y) = 0.55077 0.53328
# Poissons Ratio (z) = 0.08078 0.34651
#
# Static dielectric constant tensor:
#      x y z
#    x 3.685530 -0.000310 0.014130 
#    y -0.000310 3.298070 -0.000280 
#    z 0.014130 -0.000280 3.917740 
# 
# 
# High freq. dielectric constant tensor:
#      x y z
#    x 1.771900 0.000000 0.003690 
#    y 0.000000 1.740460 0.000000 
#    z 0.003690 0.000000 1.770220 
# 
# From -- ./inp_files/256452.got.cif
#   From: 2010.06.25/outbox.cif.g09.slc.cpg/sg12_129_cif.got.tgz:256452.got - 2010.06.28 00:19:55.
