data_PCOD8111158
_publ_section_title
;
Structure prediction by ZEFSAII (Michael W. Deem and Ramdas Pophale) SiO2 
 PCOD8111158
Probable space group: C 2/M
;
_chemical_formula_sum "Si O2"
_cell_formula_units_Z 56
_cell_length_a 25.025727
_cell_length_b 8.648141
_cell_length_c 14.483310
_cell_angle_alpha 90.000000
_cell_angle_beta 118.584632
_cell_angle_gamma 90.000000
_cell_volume 2752.497140
_symmetry_space_group_name_H-M "C 2/M"
_symmetry_group_IT_number 12
_symmetry_cell_setting 'monoclinic'
loop_
_space_group_symop_operation_xyz
x,y,z
-x,y,-z
-x,-y,-z
x,-y,z
1/2+x,1/2+y,z
1/2-x,1/2+y,-z
1/2-x,1/2-y,-z
1/2+x,1/2-y,z
loop_
_atom_site_type_symbol
_atom_site_label
_atom_site_fract_x
_atom_site_fract_y
_atom_site_fract_z
Si Si1 0.274253 0.682656 0.792887
Si Si2 0.300639 0.683892 0.608382
Si Si3 0.976902 0.683681 0.383544
Si Si4 0.846615 0.683821 0.211725
Si Si5 0.486284 0.673860 0.095142
Si Si6 0.859412 0.319917 0.015770
Si Si7 0.929295 0.683116 0.695447
O O1 0.270825 0.500000 0.786912
O O2 0.289239 0.746508 0.703253
O O3 0.209113 0.749631 0.773159
O O4 0.326678 0.727330 0.907742
O O5 0.300406 0.500000 0.605711
O O6 0.250000 0.750000 0.500000
O O7 0.363378 0.748563 0.620150
O O8 0.973058 0.500000 0.384915
O O9 0.910261 0.752125 0.303298
O O10 0.000000 0.751622 0.500000
O O11 0.025328 0.736862 0.347608
O O12 0.849784 0.500000 0.219263
O O13 0.835101 0.734086 0.096025
O O14 0.472558 0.500000 0.119169
O O15 0.546978 0.742374 0.190617
O O16 0.500000 0.672030 0.000000
O O17 0.430987 0.786472 0.073563
O O18 0.848101 0.500000 0.990009
O O19 0.925324 0.500000 0.701140
#
# Coordination Sequence:
#
# PCOD8111158 Si02
#       7
#     8   8   8   8   8   8   8
#     4  10  22  39  61  86 118 160 202 242 292 355
#     4  11  25  43  63  88 119 158 203 246 292 349
#     4   9  18  33  60  91 118 150 194 242 293 356
#     4   9  18  35  58  88 120 152 195 244 293 353
#     4  11  23  38  58  84 119 161 201 240 289 351
#     4  11  21  36  59  89 122 152 193 247 301 353
#     4  11  22  39  64  92 120 153 195 245 300 349
#
# _framework density 20.345161999999998
#
# number of rings (size 3 to 8) (size 9 to 14) (size 15 to 20)
#    0.000    1.714    1.429    3.000    2.000    5.714 
#    0.000    0.714    0.000    1.714    0.000    0.000 
#    0.000    0.000    0.000    0.000    0.000    0.000 
#
# Total GULP energy -347267.009573 kJ/mol
# GULP energy per Si atom -12402.393199 kJ/mol
# Density = 2.029886 g / cm^3
# Si number density = 20.345162 Si / 1000 Ang^3
#
#
#
# Elastic Constant Matrix: (Units=GPa)
#
#
# Indices 1 2 3 4 5 6 
#
# 1 108.0622 21.0073 41.4861 0.0000 13.5899 0.0000
# 2 21.0073 36.7654 21.9895 0.0000 -6.7320 0.0000
# 3 41.4861 21.9895 142.1796 0.0000 10.8114 0.0000
# 4 0.0000 0.0000 0.0000 20.1043 0.0000 4.7742
# 5 13.5899 -6.7320 10.8114 0.0000 33.2522 0.0000
# 6 0.0000 0.0000 0.0000 4.7742 0.0000 27.0959
#
#
#
# Elastic Compliance Matrix: (Units=1/GPa)
#
#
# Indices 1 2 3 4 5 6 
#
# 1 0.012047 -0.006681 -0.002055 0.000000 -0.005608 0.000000
# 2 -0.006681 0.035770 -0.004451 0.000000 0.011419 0.000000
# 3 -0.002055 -0.004451 0.008537 0.000000 -0.002837 0.000000
# 4 0.000000 0.000000 0.000000 0.051913 0.000000 -0.009147
# 5 -0.005608 0.011419 -0.002837 0.000000 0.035599 0.000000
# 6 0.000000 0.000000 0.000000 -0.009147 0.000000 0.038518
#
#
# Mechanical properties :
#
#
# Convention : Reuss Voigt Hill
#
# Bulk Modulus (GPa) = 33.35639 50.66368 42.01004
# Shear Modulus (GPa) = 22.85690 29.59210 26.22450
#
# Velocity S-wave (km/s) = 3.35544 3.81793 3.59413
# Velocity P-wave (km/s) = 5.60739 6.66270 6.15769
#
# Compressibility (1/GPa) = 0.02997926
#
# Stress axis : x y z
#
# Youngs Moduli (GPa) = 83.00775 27.95628 117.13388
#
# Poissons Ratio (x) = 0.18678 0.24077
# Poissons Ratio (y) = 0.55458 0.52138
# Poissons Ratio (z) = 0.17062 0.12444
#
# Static dielectric constant tensor:
#      x y z
#    x 4.040880 0.000000 -0.034460 
#    y 0.000000 3.456440 0.000000 
#    z -0.034460 0.000000 3.854250 
# 
# 
# High freq. dielectric constant tensor:
#      x y z
#    x 1.808130 0.000000 0.001680 
#    y 0.000000 1.767520 0.000000 
#    z 0.001680 0.000000 1.807650 
# 
# From -- ./inp_files/238906.got.cif
#   From: 2010.06.25/outbox.cif.g09.slc.cpg/sg12_120_cif.got.tgz:238906.got - 2010.06.28 00:19:55.
