data_PCOD8111444
_publ_section_title
;
Structure prediction by ZEFSAII (Michael W. Deem and Ramdas Pophale) SiO2 
 PCOD8111444
Probable space group: C 2/M
;
_chemical_formula_sum "Si O2"
_cell_formula_units_Z 44
_cell_length_a 12.763069
_cell_length_b 24.715147
_cell_length_c 9.169507
_cell_angle_alpha 90.000000
_cell_angle_beta 131.160954
_cell_angle_gamma 90.000000
_cell_volume 2177.612557
_symmetry_space_group_name_H-M "C 2/M"
_symmetry_group_IT_number 12
_symmetry_cell_setting 'monoclinic'
loop_
_space_group_symop_operation_xyz
x,y,z
-x,y,-z
-x,-y,-z
x,-y,z
1/2+x,1/2+y,z
1/2-x,1/2+y,-z
1/2-x,1/2-y,-z
1/2+x,1/2-y,z
loop_
_atom_site_type_symbol
_atom_site_label
_atom_site_fract_x
_atom_site_fract_y
_atom_site_fract_z
Si Si1 0.630525 0.000000 0.215198
Si Si2 0.513077 0.391858 0.341002
Si Si3 0.895026 0.697596 0.527549
Si Si4 0.834215 0.000000 0.140851
Si Si5 0.685402 0.085896 0.487526
Si Si6 0.071672 0.209515 0.217417
Si Si7 0.663004 0.000000 0.691644
O O1 0.608693 0.949478 0.298646
O O2 0.770698 0.000000 0.245631
O O3 0.500000 0.000000 0.000000
O O4 0.500000 0.379508 0.500000
O O5 0.426725 0.445171 0.210826
O O6 0.673753 0.398618 0.460876
O O7 0.481108 0.337469 0.217191
O O8 0.923227 0.634849 0.589622
O O9 0.928933 0.734766 0.695255
O O10 0.732924 0.696178 0.332248
O O11 0.000000 0.717772 0.500000
O O12 0.712841 0.000000 0.906036
O O13 0.723187 0.054207 0.671688
O O14 0.000000 0.221657 0.000000
O O15 0.500000 0.000000 0.500000
#
# Coordination Sequence:
#
# PCOD8111444 Si02
#       7
#     4   8   8   4   8   8   4
#     4  11  22  39  56  92 130 169 214 260 308 394
#     4  11  22  40  64  92 128 162 207 270 321 376
#     4  10  22  43  68  90 127 175 212 267 328 379
#     4  12  23  36  68  97 125 176 215 255 335 380
#     4  10  22  40  61  86 129 166 208 266 316 374
#     4  10  24  43  65  97 129 164 220 272 320 383
#     4  11  24  40  58  91 133 167 209 261 314 389
#
# _framework density 20.205614000000001
#
# number of rings (size 3 to 8) (size 9 to 14) (size 15 to 20)
#    0.000    1.455    1.818    3.545    5.091    2.182 
#    0.000    0.000    0.000    0.000    0.000    0.000 
#    0.000    0.000    0.000    0.000    0.000    0.000 
#
# Total GULP energy -272567.401766 kJ/mol
# GULP energy per Si atom -12389.427353 kJ/mol
# Density = 2.015962 g / cm^3
# Si number density = 20.205614 Si / 1000 Ang^3
#
#
#
# Elastic Constant Matrix: (Units=GPa)
#
#
# Indices 1 2 3 4 5 6 
#
# 1 98.7661 28.1035 31.1726 0.0000 -12.6798 0.0000
# 2 28.1035 140.6574 47.1194 0.0000 -10.8106 0.0000
# 3 31.1726 47.1194 127.7502 0.0000 -19.6276 0.0000
# 4 0.0000 0.0000 0.0000 4.1285 0.0000 -5.7356
# 5 -12.6798 -10.8106 -19.6276 0.0000 24.8206 0.0000
# 6 0.0000 0.0000 0.0000 -5.7356 0.0000 40.4391
#
#
#
# Elastic Compliance Matrix: (Units=1/GPa)
#
#
# Indices 1 2 3 4 5 6 
#
# 1 0.011575 -0.001445 -0.001684 0.000000 0.003952 0.000000
# 2 -0.001445 0.008331 -0.002591 0.000000 0.000842 0.000000
# 3 -0.001684 -0.002591 0.010118 0.000000 0.006012 0.000000
# 4 0.000000 0.000000 0.000000 0.301655 0.000000 0.042784
# 5 0.003952 0.000842 0.006012 0.000000 0.047429 0.000000
# 6 0.000000 0.000000 0.000000 0.042784 0.000000 0.030797
#
#
# Mechanical properties :
#
#
# Convention : Reuss Voigt Hill
#
# Bulk Modulus (GPa) = 53.80994 64.44051 59.12522
# Shear Modulus (GPa) = 11.69483 31.26286 21.47885
#
# Velocity S-wave (km/s) = 2.40842 3.93776 3.26393
# Velocity P-wave (km/s) = 5.86711 7.25508 6.59770
#
# Compressibility (1/GPa) = 0.01858393
#
# Stress axis : x y z
#
# Youngs Moduli (GPa) = 86.39309 120.03736 98.83237
#
# Poissons Ratio (x) = 0.17342 0.16647
# Poissons Ratio (y) = 0.12481 0.25606
# Poissons Ratio (z) = 0.14552 0.31100
#
# Static dielectric constant tensor:
#      x y z
#    x 3.434480 0.000000 -0.072410 
#    y 0.000000 5.071400 0.000000 
#    z -0.072410 0.000000 3.430450 
# 
# 
# High freq. dielectric constant tensor:
#      x y z
#    x 1.803520 0.000000 -0.008850 
#    y 0.000000 1.804520 0.000000 
#    z -0.008850 0.000000 1.773580 
# 
# From -- ./inp_files/53462.got.cif
#   From: 2010.06.25/outbox.cif.g09.slc.cpg/sg12_27_cif.got.tgz:53462.got - 2010.06.28 00:19:55.
