data_PCOD8111144
_publ_section_title
;
Structure prediction by ZEFSAII (Michael W. Deem and Ramdas Pophale) SiO2 
 PCOD8111144
Probable space group: C 2/M
;
_chemical_formula_sum "Si O2"
_cell_formula_units_Z 40
_cell_length_a 14.414118
_cell_length_b 28.885028
_cell_length_c 4.893465
_cell_angle_alpha 90.000000
_cell_angle_beta 119.747397
_cell_angle_gamma 90.000000
_cell_volume 1768.918472
_symmetry_space_group_name_H-M "C 2/M"
_symmetry_group_IT_number 12
_symmetry_cell_setting 'monoclinic'
loop_
_space_group_symop_operation_xyz
x,y,z
-x,y,-z
-x,-y,-z
x,-y,z
1/2+x,1/2+y,z
1/2-x,1/2+y,-z
1/2-x,1/2-y,-z
1/2+x,1/2-y,z
loop_
_atom_site_type_symbol
_atom_site_label
_atom_site_fract_x
_atom_site_fract_y
_atom_site_fract_z
Si Si1 0.928300 0.448979 0.135529
Si Si2 0.755911 0.818753 0.657470
Si Si3 0.073779 0.246723 0.350250
Si Si4 0.072541 0.949408 0.352580
Si Si5 0.753587 0.119819 0.173077
O O1 0.884302 0.500000 0.985086
O O2 0.000000 0.454459 0.500000
O O3 0.832654 0.415216 0.073698
O O4 0.000000 0.427473 0.000000
O O5 0.864068 0.796842 0.690257
O O6 0.663051 0.782163 0.595800
O O7 0.703969 0.850456 0.346615
O O8 0.790354 0.846971 0.978842
O O9 0.000000 0.231887 0.500000
O O10 0.000000 0.268019 0.000000
O O11 0.153953 0.909512 0.549799
O O12 0.000000 0.959646 0.500000
O O13 0.124824 0.000000 0.348497
O O14 0.000000 0.930301 0.000000
#
# Coordination Sequence:
#
# PCOD8111144 Si02
#       5
#     8   8   8   8   8
#     4  10  22  39  60  90 129 174 217 254 308 378
#     4  11  26  41  64 101 124 159 220 263 319 403
#     4  11  24  46  69  89 127 170 205 263 334 394
#     4  10  22  40  62  90 127 173 217 254 307 374
#     4  12  23  40  64  94 133 163 208 275 319 363
#
# _framework density 22.612689
#
# number of rings (size 3 to 8) (size 9 to 14) (size 15 to 20)
#    0.000    1.200    0.000    5.400    0.000   11.200 
#    0.000    8.000    0.000    0.000    0.000    0.000 
#    0.000    0.000    0.000    0.000    0.000    0.000 
#
# Total GULP energy -247932.459895 kJ/mol
# GULP energy per Si atom -12396.622995 kJ/mol
# Density = 2.256122 g / cm^3
# Si number density = 22.612689 Si / 1000 Ang^3
#
#
#
# Elastic Constant Matrix: (Units=GPa)
#
#
# Indices 1 2 3 4 5 6 
#
# 1 123.7197 57.7323 52.4502 0.0000 -6.5392 0.0000
# 2 57.7323 126.7013 59.5143 0.0000 6.6368 0.0000
# 3 52.4502 59.5143 148.9679 0.0000 -9.9437 0.0000
# 4 0.0000 0.0000 0.0000 60.5838 0.0000 -5.6235
# 5 -6.5392 6.6368 -9.9437 0.0000 40.9438 0.0000
# 6 0.0000 0.0000 0.0000 -5.6235 0.0000 25.9602
#
#
#
# Elastic Compliance Matrix: (Units=1/GPa)
#
#
# Indices 1 2 3 4 5 6 
#
# 1 0.010999 -0.004128 -0.002096 0.000000 0.001917 0.000000
# 2 -0.004128 0.011536 -0.003379 0.000000 -0.003350 0.000000
# 3 -0.002096 -0.003379 0.008960 0.000000 0.002389 0.000000
# 4 0.000000 0.000000 0.000000 0.016845 0.000000 0.003649
# 5 0.001917 -0.003350 0.002389 0.000000 0.025853 0.000000
# 6 0.000000 0.000000 0.000000 0.003649 0.000000 0.039311
#
#
# Mechanical properties :
#
#
# Convention : Reuss Voigt Hill
#
# Bulk Modulus (GPa) = 81.36516 82.08693 81.72605
# Shear Modulus (GPa) = 36.54839 40.81036 38.67938
#
# Velocity S-wave (km/s) = 4.02466 4.25285 4.14033
# Velocity P-wave (km/s) = 7.59324 7.77790 7.68613
#
# Compressibility (1/GPa) = 0.01229027
#
# Stress axis : x y z
#
# Youngs Moduli (GPa) = 90.92056 86.68453 111.60572
#
# Poissons Ratio (x) = 0.35781 0.23387
# Poissons Ratio (y) = 0.37529 0.37712
# Poissons Ratio (z) = 0.19052 0.29291
#
# Static dielectric constant tensor:
#      x y z
#    x 3.872970 0.000000 -0.098220 
#    y 0.000000 4.317970 0.000000 
#    z -0.098220 0.000000 4.076590 
# 
# 
# High freq. dielectric constant tensor:
#      x y z
#    x 1.881680 0.000000 -0.011700 
#    y 0.000000 1.899180 0.000000 
#    z -0.011700 0.000000 1.906770 
# 
# From -- ./inp_files/12243.got.cif
#   From: 2010.06.25/outbox.cif.g09.slc.cpg/sg12_7_cif.got.tgz:12243.got - 2010.06.28 00:19:55.
