data_PCOD8111357
_publ_section_title
;
Structure prediction by ZEFSAII (Michael W. Deem and Ramdas Pophale) SiO2 
 PCOD8111357
Probable space group: C 2/M
;
_chemical_formula_sum "Si O2"
_cell_formula_units_Z 56
_cell_length_a 15.896641
_cell_length_b 8.911420
_cell_length_c 22.391143
_cell_angle_alpha 90.000000
_cell_angle_beta 58.678200
_cell_angle_gamma 90.000000
_cell_volume 2709.687287
_symmetry_space_group_name_H-M "C 2/M"
_symmetry_group_IT_number 12
_symmetry_cell_setting 'monoclinic'
loop_
_space_group_symop_operation_xyz
x,y,z
-x,y,-z
-x,-y,-z
x,-y,z
1/2+x,1/2+y,z
1/2-x,1/2+y,-z
1/2-x,1/2-y,-z
1/2+x,1/2-y,z
loop_
_atom_site_type_symbol
_atom_site_label
_atom_site_fract_x
_atom_site_fract_y
_atom_site_fract_z
Si Si1 0.207170 0.677189 0.336984
Si Si2 0.097605 0.670987 0.929227
Si Si3 0.558595 0.327936 0.201902
Si Si4 0.730655 0.824457 0.070208
Si Si5 0.968817 0.172551 0.653503
Si Si6 0.194035 0.822698 0.575210
Si Si7 0.879809 0.672585 0.216091
O O1 0.213538 0.500000 0.325406
O O2 0.093924 0.730725 0.371045
O O3 0.250298 0.728021 0.384999
O O4 0.270017 0.761403 0.262519
O O5 0.127119 0.500000 0.934761
O O6 0.183974 0.781999 0.915560
O O7 0.079784 0.688543 0.865780
O O8 0.000000 0.720281 0.000000
O O9 0.568964 0.500000 0.177792
O O10 0.627735 0.226789 0.135599
O O11 0.582798 0.310540 0.262784
O O12 0.447243 0.273089 0.234025
O O13 0.726064 0.000000 0.062034
O O14 0.750000 0.750000 0.000000
O O15 0.080777 0.233216 0.615675
O O16 0.967915 0.000000 0.633078
O O17 0.250000 0.750000 0.500000
O O18 0.198092 0.000000 0.567805
O O19 0.881260 0.500000 0.236160
#
# Coordination Sequence:
#
# PCOD8111357 Si02
#       7
#     8   8   8   8   8   8   8
#     4  11  23  41  64  94 130 168 214 267 320 378
#     4  10  22  40  59  83 119 159 202 259 318 375
#     4  11  22  40  64  89 125 165 206 262 318 372
#     4  12  25  40  59  86 119 159 209 260 316 381
#     4  10  22  42  65  93 130 170 212 261 322 384
#     4  10  23  44  66  93 131 171 212 264 325 384
#     4  11  22  37  62  93 124 164 211 257 316 380
#
# _framework density 20.666591
#
# number of rings (size 3 to 8) (size 9 to 14) (size 15 to 20)
#    0.000    1.286    1.429    4.286    0.000    9.429 
#    0.000    2.857    0.000    0.000    0.000    0.000 
#    0.000    0.000    0.000    0.000    0.000    0.000 
#
# Total GULP energy -347341.535079 kJ/mol
# GULP energy per Si atom -12405.054824 kJ/mol
# Density = 2.061955 g / cm^3
# Si number density = 20.666591 Si / 1000 Ang^3
#
#
#
# Elastic Constant Matrix: (Units=GPa)
#
#
# Indices 1 2 3 4 5 6 
#
# 1 141.7296 51.3967 40.6773 0.0000 -3.9700 0.0001
# 2 51.3967 107.9263 39.0292 0.0000 -0.1806 0.0002
# 3 40.6773 39.0292 105.9472 0.0000 -6.1695 0.0000
# 4 0.0000 0.0000 0.0000 35.6862 0.0000 -3.2535
# 5 -3.9700 -0.1806 -6.1695 0.0000 24.7565 0.0000
# 6 0.0001 0.0002 0.0000 -3.2535 0.0000 36.1982
#
#
#
# Elastic Compliance Matrix: (Units=1/GPa)
#
#
# Indices 1 2 3 4 5 6 
#
# 1 0.008953 -0.003504 -0.002095 0.000000 0.000888 0.000000
# 2 -0.003504 0.012082 -0.003179 0.000000 -0.001266 0.000000
# 3 -0.002095 -0.003179 0.011561 0.000000 0.002522 0.000000
# 4 0.000000 0.000000 0.000000 0.028254 0.000000 0.002539
# 5 0.000888 -0.001266 0.002522 0.000000 0.041155 0.000000
# 6 0.000000 0.000000 0.000000 0.002539 0.000000 0.027854
#
#
# Mechanical properties :
#
#
# Convention : Reuss Voigt Hill
#
# Bulk Modulus (GPa) = 66.49250 68.64549 67.56899
# Shear Modulus (GPa) = 32.80256 34.29484 33.54870
#
# Velocity S-wave (km/s) = 3.98832 4.07803 4.03343
# Velocity P-wave (km/s) = 7.31114 7.44725 7.37951
#
# Compressibility (1/GPa) = 0.01503929
#
# Stress axis : x y z
#
# Youngs Moduli (GPa) = 111.69983 82.76789 86.49923
#
# Poissons Ratio (x) = 0.29006 0.18118
# Poissons Ratio (y) = 0.39145 0.27498
# Poissons Ratio (z) = 0.23396 0.26312
#
# Static dielectric constant tensor:
#      x y z
#    x 3.867530 0.000000 -0.092190 
#    y 0.000000 3.823070 0.000000 
#    z -0.092190 0.000000 3.757580 
# 
# 
# High freq. dielectric constant tensor:
#      x y z
#    x 1.819110 0.000000 -0.003540 
#    y 0.000000 1.807660 0.000000 
#    z -0.003540 0.000000 1.809180 
# 
# From -- ./inp_files/338533.got.cif
#   From: 2010.06.25/outbox.cif.g09.slc.cpg/sg12_170_cif.got.tgz:338533.got - 2010.06.28 00:19:55.
