data_PCOD8111618
_publ_section_title
;
Structure prediction by ZEFSAII (Michael W. Deem and Ramdas Pophale) SiO2 
 PCOD8111618
Probable space group: C 2/M
;
_chemical_formula_sum "Si O2"
_cell_formula_units_Z 36
_cell_length_a 9.345186
_cell_length_b 24.128860
_cell_length_c 8.013535
_cell_angle_alpha 90.000000
_cell_angle_beta 107.690434
_cell_angle_gamma 90.000000
_cell_volume 1721.514286
_symmetry_space_group_name_H-M "C 2/M"
_symmetry_group_IT_number 12
_symmetry_cell_setting 'monoclinic'
loop_
_space_group_symop_operation_xyz
x,y,z
-x,y,-z
-x,-y,-z
x,-y,z
1/2+x,1/2+y,z
1/2-x,1/2+y,-z
1/2-x,1/2-y,-z
1/2+x,1/2-y,z
loop_
_atom_site_type_symbol
_atom_site_label
_atom_site_fract_x
_atom_site_fract_y
_atom_site_fract_z
Si Si1 0.042433 0.186189 0.685780
Si Si2 0.000000 0.636118 0.000000
Si Si3 0.000000 0.115737 0.000000
Si Si4 0.500000 0.878301 0.500000
Si Si5 0.688143 0.064678 0.854516
Si Si6 0.863564 0.295532 0.676631
O O1 0.044782 0.152569 0.857043
O O2 0.916856 0.234503 0.644753
O O3 0.000000 0.151729 0.500000
O O4 0.207587 0.211269 0.718337
O O5 0.016346 0.676769 0.160068
O O6 0.859293 0.596157 0.991638
O O7 0.863153 0.077906 0.888207
O O8 0.420126 0.917200 0.335437
O O9 0.365727 0.838167 0.520831
O O10 0.667287 0.000000 0.874379
#
# Coordination Sequence:
#
# PCOD8111618 Si02
#       6
#     8   4   4   4   8   8
#     4  12  25  40  65  96 137 177 211 262 325 398
#     4  10  22  40  64  90 124 166 220 270 318 396
#     4  12  26  42  68 100 138 170 218 274 330 384
#     4  10  23  42  70  96 128 172 219 274 322 396
#     4  11  23  44  68  93 126 172 223 276 331 380
#     4  11  23  40  62  96 131 168 218 257 326 397
#
# _framework density 20.911822000000001
#
# number of rings (size 3 to 8) (size 9 to 14) (size 15 to 20)
#    0.000    0.889    3.333    3.667    6.222    1.778 
#    0.000    0.000    0.000    2.667    0.000    0.000 
#    0.000    0.000    0.000    0.000    0.000    0.000 
#
# Total GULP energy -223086.336490 kJ/mol
# GULP energy per Si atom -12393.685361 kJ/mol
# Density = 2.086423 g / cm^3
# Si number density = 20.911822 Si / 1000 Ang^3
#
#
#
# Elastic Constant Matrix: (Units=GPa)
#
#
# Indices 1 2 3 4 5 6 
#
# 1 90.3976 -6.1122 13.9391 0.0000 -5.6614 0.0000
# 2 -6.1122 61.8329 35.9588 0.0000 -6.8838 0.0000
# 3 13.9391 35.9588 102.2537 0.0000 -11.7021 0.0000
# 4 0.0000 0.0000 0.0000 23.5424 0.0000 3.7275
# 5 -5.6614 -6.8838 -11.7021 0.0000 34.2011 0.0000
# 6 0.0000 0.0000 0.0000 3.7275 0.0000 24.3970
#
#
#
# Elastic Compliance Matrix: (Units=1/GPa)
#
#
# Indices 1 2 3 4 5 6 
#
# 1 0.011715 0.002718 -0.002361 0.000000 0.001679 0.000000
# 2 0.002718 0.021058 -0.007534 0.000000 0.002110 0.000000
# 3 -0.002361 -0.007534 0.013043 0.000000 0.002556 0.000000
# 4 0.000000 0.000000 0.000000 0.043530 0.000000 -0.006651
# 5 0.001679 0.002110 0.002556 0.000000 0.030816 0.000000
# 6 0.000000 0.000000 0.000000 -0.006651 0.000000 0.042005
#
#
# Mechanical properties :
#
#
# Convention : Reuss Voigt Hill
#
# Bulk Modulus (GPa) = 31.78433 38.00619 34.89526
# Shear Modulus (GPa) = 26.73686 30.47467 28.60577
#
# Velocity S-wave (km/s) = 3.57956 3.82159 3.70256
# Velocity P-wave (km/s) = 5.68477 6.13895 5.91622
#
# Compressibility (1/GPa) = 0.03146205
#
# Stress axis : x y z
#
# Youngs Moduli (GPa) = 85.35977 47.48858 76.66742
#
# Poissons Ratio (x) = -0.12906 0.18098
# Poissons Ratio (y) = -0.23198 0.57762
# Poissons Ratio (z) = 0.20150 0.35779
#
# Static dielectric constant tensor:
#      x y z
#    x 4.134870 0.000000 -0.227870 
#    y 0.000000 3.602910 0.000000 
#    z -0.227870 0.000000 3.968600 
# 
# 
# High freq. dielectric constant tensor:
#      x y z
#    x 1.835880 0.000000 -0.006690 
#    y 0.000000 1.797960 0.000000 
#    z -0.006690 0.000000 1.831130 
# 
# From -- ./inp_files/40626.got.cif
#   From: 2010.06.25/outbox.cif.g09.slc.cpg/sg12_21_cif.got.tgz:40626.got - 2010.06.28 00:19:55.
