data_PCOD8111321
_publ_section_title
;
Structure prediction by ZEFSAII (Michael W. Deem and Ramdas Pophale) SiO2 
 PCOD8111321
Probable space group: C 2/M
;
_chemical_formula_sum "Si O2"
_cell_formula_units_Z 56
_cell_length_a 18.115087
_cell_length_b 13.556739
_cell_length_c 12.723944
_cell_angle_alpha 90.000000
_cell_angle_beta 121.017514
_cell_angle_gamma 90.000000
_cell_volume 2677.954594
_symmetry_space_group_name_H-M "C 2/M"
_symmetry_group_IT_number 12
_symmetry_cell_setting 'monoclinic'
loop_
_space_group_symop_operation_xyz
x,y,z
-x,y,-z
-x,-y,-z
x,-y,z
1/2+x,1/2+y,z
1/2-x,1/2+y,-z
1/2-x,1/2-y,-z
1/2+x,1/2-y,z
loop_
_atom_site_type_symbol
_atom_site_label
_atom_site_fract_x
_atom_site_fract_y
_atom_site_fract_z
Si Si1 0.889310 0.609663 0.363240
Si Si2 0.006230 0.745698 0.699572
Si Si3 0.170934 0.245242 0.520375
Si Si4 0.711847 0.609275 0.138330
Si Si5 0.782191 0.314025 0.778469
Si Si6 0.961504 0.387664 0.861429
Si Si7 0.161608 0.113170 0.862429
O O1 0.924298 0.500000 0.407352
O O2 0.967411 0.677024 0.379563
O O3 0.850691 0.647482 0.446016
O O4 0.815844 0.612009 0.218864
O O5 0.074609 0.831583 0.766764
O O6 0.913958 0.794748 0.601883
O O7 0.999324 0.680789 0.798978
O O8 0.250000 0.250000 0.500000
O O9 0.201284 0.175817 0.639080
O O10 0.679989 0.500000 0.155065
O O11 0.679833 0.700967 0.187022
O O12 0.679806 0.627446 0.997872
O O13 0.858063 0.382993 0.792471
O O14 0.746147 0.346079 0.865090
O O15 0.988840 0.500000 0.857487
O O16 0.000000 0.350880 0.000000
O O17 0.147915 0.000000 0.822024
#
# Coordination Sequence:
#
# PCOD8111321 Si02
#       7
#     8   8   8   8   8   8   8
#     4  10  22  39  67  97 121 157 207 262 314 361
#     4  12  23  41  65  88 128 163 208 262 303 362
#     4  11  23  43  62  87 124 162 207 253 306 370
#     4   9  19  36  64  97 123 154 203 253 310 374
#     4  11  21  42  64  88 127 166 202 254 315 365
#     4  11  25  40  62  97 130 161 202 254 318 378
#     4  11  23  39  63  94 125 164 208 251 310 377
#
# _framework density 20.911481999999999
#
# number of rings (size 3 to 8) (size 9 to 14) (size 15 to 20)
#    0.000    1.286    4.286    2.571    2.000    1.714 
#    0.000    3.571    0.000    2.571    0.000    0.000 
#    0.000    0.000    0.000    0.000    0.000    0.000 
#
# Total GULP energy -347129.983908 kJ/mol
# GULP energy per Si atom -12397.499425 kJ/mol
# Density = 2.086389 g / cm^3
# Si number density = 20.911482 Si / 1000 Ang^3
#
#
#
# Elastic Constant Matrix: (Units=GPa)
#
#
# Indices 1 2 3 4 5 6 
#
# 1 103.6943 40.9080 31.6433 0.0000 1.4598 0.0000
# 2 40.9080 92.8686 34.4708 0.0000 -1.5590 0.0000
# 3 31.6433 34.4708 87.0245 0.0000 -1.5875 0.0000
# 4 0.0000 0.0000 0.0000 18.4598 0.0000 -2.5380
# 5 1.4598 -1.5590 -1.5875 0.0000 31.0337 0.0000
# 6 0.0000 0.0000 0.0000 -2.5380 0.0000 18.9567
#
#
#
# Elastic Compliance Matrix: (Units=1/GPa)
#
#
# Indices 1 2 3 4 5 6 
#
# 1 0.012218 -0.004387 -0.002722 0.000000 -0.000934 0.000000
# 2 -0.004387 0.014204 -0.004018 0.000000 0.000714 0.000000
# 3 -0.002722 -0.004018 0.014084 0.000000 0.000647 0.000000
# 4 0.000000 0.000000 0.000000 0.055188 0.000000 0.007389
# 5 -0.000934 0.000714 0.000647 0.000000 0.032336 0.000000
# 6 0.000000 0.000000 0.000000 0.007389 0.000000 0.053741
#
#
# Mechanical properties :
#
#
# Convention : Reuss Voigt Hill
#
# Bulk Modulus (GPa) = 54.78908 55.29240 55.04074
# Shear Modulus (GPa) = 23.79714 25.46106 24.62910
#
# Velocity S-wave (km/s) = 3.37708 3.49315 3.43560
# Velocity P-wave (km/s) = 6.43922 6.53972 6.48967
#
# Compressibility (1/GPa) = 0.01825181
#
# Stress axis : x y z
#
# Youngs Moduli (GPa) = 81.84376 70.40322 71.00239
#
# Poissons Ratio (x) = 0.30889 0.19326
# Poissons Ratio (y) = 0.35909 0.28528
# Poissons Ratio (z) = 0.22277 0.28287
#
# Static dielectric constant tensor:
#      x y z
#    x 3.646340 0.000000 0.058560 
#    y 0.000000 3.859620 0.000000 
#    z 0.058560 0.000000 4.066240 
# 
# 
# High freq. dielectric constant tensor:
#      x y z
#    x 1.805650 0.000000 0.006990 
#    y 0.000000 1.807170 0.000000 
#    z 0.006990 0.000000 1.839210 
# 
# From -- ./inp_files/156747.got.cif
#   From: 2010.06.25/outbox.cif.g09.slc.cpg/sg12_79_cif.got.tgz:156747.got - 2010.06.28 00:19:55.
