data_PCOD8111353
_publ_section_title
;
Structure prediction by ZEFSAII (Michael W. Deem and Ramdas Pophale) SiO2 
 PCOD8111353
Probable space group: C 2/M
;
_chemical_formula_sum "Si O2"
_cell_formula_units_Z 24
_cell_length_a 7.283196
_cell_length_b 14.013942
_cell_length_c 8.640557
_cell_angle_alpha 90.000000
_cell_angle_beta 83.058194
_cell_angle_gamma 90.000000
_cell_volume 875.444656
_symmetry_space_group_name_H-M "C 2/M"
_symmetry_group_IT_number 12
_symmetry_cell_setting 'monoclinic'
loop_
_space_group_symop_operation_xyz
x,y,z
-x,y,-z
-x,-y,-z
x,-y,z
1/2+x,1/2+y,z
1/2-x,1/2+y,-z
1/2-x,1/2-y,-z
1/2+x,1/2-y,z
loop_
_atom_site_type_symbol
_atom_site_label
_atom_site_fract_x
_atom_site_fract_y
_atom_site_fract_z
Si Si1 0.680933 0.606364 0.376414
Si Si2 0.371463 0.109585 0.669756
Si Si3 0.467332 0.728548 0.182678
O O1 0.500000 0.617907 0.500000
O O2 0.691102 0.500000 0.304376
O O3 0.852044 0.620571 0.483738
O O4 0.658698 0.685717 0.241642
O O5 0.547999 0.166676 0.731193
O O6 0.190835 0.151786 0.771425
O O7 0.389060 0.000000 0.717096
O O8 0.500000 0.743588 0.000000
#
# Coordination Sequence:
#
# PCOD8111353 Si02
#       3
#     8   8   8
#     4   8  16  33  57  81 108 147 187 224 273 330
#     4  10  22  40  59  81 113 151 188 227 275 333
#     4  11  21  36  59  86 114 146 185 232 282 328
#
# _framework density 27.414641
#
# number of rings (size 3 to 8) (size 9 to 14) (size 15 to 20)
#    0.000    2.333    0.000    5.000    0.000    3.333 
#    0.000    3.333    0.000   13.000    0.000    0.000 
#    0.000    0.000    0.000    0.000    0.000    0.000 
#
# Total GULP energy -148831.544726 kJ/mol
# GULP energy per Si atom -12402.628727 kJ/mol
# Density = 2.735224 g / cm^3
# Si number density = 27.414641 Si / 1000 Ang^3
#
#
#
# Elastic Constant Matrix: (Units=GPa)
#
#
# Indices 1 2 3 4 5 6 
#
# 1 144.3444 58.4331 47.4708 0.0000 34.6454 0.0000
# 2 58.4331 237.4117 123.0040 0.0000 0.5618 0.0000
# 3 47.4708 123.0040 213.9820 0.0000 -1.4899 0.0000
# 4 0.0000 0.0000 0.0000 22.9829 0.0000 -3.0057
# 5 34.6454 0.5618 -1.4899 0.0000 40.3942 0.0000
# 6 0.0000 0.0000 0.0000 -3.0057 0.0000 34.0937
#
#
#
# Elastic Compliance Matrix: (Units=1/GPa)
#
#
# Indices 1 2 3 4 5 6 
#
# 1 0.010188 -0.001829 -0.001270 0.000000 -0.008760 0.000000
# 2 -0.001829 0.006329 -0.003223 0.000000 0.001362 0.000000
# 3 -0.001270 -0.003223 0.006817 0.000000 0.001385 0.000000
# 4 0.000000 0.000000 0.000000 0.044018 0.000000 0.003881
# 5 -0.008760 0.001362 0.001385 0.000000 0.032301 0.000000
# 6 0.000000 0.000000 0.000000 0.003881 0.000000 0.029673
#
#
# Mechanical properties :
#
#
# Convention : Reuss Voigt Hill
#
# Bulk Modulus (GPa) = 93.53521 117.06154 105.29837
# Shear Modulus (GPa) = 34.35625 43.94950 39.15288
#
# Velocity S-wave (km/s) = 3.54391 4.00827 3.78322
# Velocity P-wave (km/s) = 7.13712 8.01341 7.58792
#
# Compressibility (1/GPa) = 0.01069116
#
# Stress axis : x y z
#
# Youngs Moduli (GPa) = 98.15060 158.00929 146.68786
#
# Poissons Ratio (x) = 0.28899 0.18628
# Poissons Ratio (y) = 0.17951 0.47274
# Poissons Ratio (z) = 0.12464 0.50922
#
# Static dielectric constant tensor:
#      x y z
#    x 6.705550 0.000000 0.799440 
#    y 0.000000 5.156800 0.000000 
#    z 0.799440 0.000000 4.885640 
# 
# 
# High freq. dielectric constant tensor:
#      x y z
#    x 2.210340 0.000000 0.007480 
#    y 0.000000 2.118050 0.000000 
#    z 0.007480 0.000000 2.083050 
# 
# From -- ./inp_files/35705.got.cif
#   From: 2010.06.25/outbox.cif.g09.slc.cpg/sg12_18_cif.got.tgz:35705.got - 2010.06.28 00:19:55.
