data_PCOD8111675
_publ_section_title
;
Structure prediction by ZEFSAII (Michael W. Deem and Ramdas Pophale) SiO2 
 PCOD8111675
Probable space group: C 2/M
;
_chemical_formula_sum "Si O2"
_cell_formula_units_Z 32
_cell_length_a 15.229737
_cell_length_b 12.443060
_cell_length_c 9.662875
_cell_angle_alpha 90.000000
_cell_angle_beta 53.718850
_cell_angle_gamma 90.000000
_cell_volume 1476.139076
_symmetry_space_group_name_H-M "C 2/M"
_symmetry_group_IT_number 12
_symmetry_cell_setting 'monoclinic'
loop_
_space_group_symop_operation_xyz
x,y,z
-x,y,-z
-x,-y,-z
x,-y,z
1/2+x,1/2+y,z
1/2-x,1/2+y,-z
1/2-x,1/2-y,-z
1/2+x,1/2-y,z
loop_
_atom_site_type_symbol
_atom_site_label
_atom_site_fract_x
_atom_site_fract_y
_atom_site_fract_z
Si Si1 0.964659 0.500000 0.877430
Si Si2 0.712062 0.324545 0.659470
Si Si3 0.358444 0.500000 0.714124
Si Si4 0.890129 0.500000 0.511975
Si Si5 0.698239 0.817950 0.928152
Si Si6 0.934299 0.000000 0.333554
O O1 0.072420 0.500000 0.682828
O O2 0.897550 0.390058 0.915008
O O3 0.000000 0.500000 0.000000
O O4 0.750000 0.250000 0.500000
O O5 0.816051 0.395682 0.611027
O O6 0.662164 0.258872 0.835217
O O7 0.611767 0.395680 0.699495
O O8 0.288096 0.393690 0.779195
O O9 0.414015 0.500000 0.514821
O O10 0.434015 0.500000 0.783273
O O11 0.000000 0.500000 0.500000
O O12 0.750000 0.750000 0.000000
#
# Coordination Sequence:
#
# PCOD8111675 Si02
#       6
#     4   8   4   4   8   4
#     4  11  24  42  63  91 134 166 203 261 330 376
#     4  11  22  40  67  92 124 165 221 260 307 382
#     4  10  22  42  63  90 128 164 209 268 318 373
#     4  11  24  40  63  97 126 162 214 267 305 377
#     4  11  24  42  64  93 130 170 206 262 328 382
#     4  10  22  40  65  93 122 161 220 268 307 365
#
# _framework density 21.678172
#
# number of rings (size 3 to 8) (size 9 to 14) (size 15 to 20)
#    0.000    1.250    2.500    3.000    3.500    9.000 
#    0.000    1.250    0.000    0.000    0.000    0.000 
#    0.000    0.000    0.000    0.000    0.000    0.000 
#
# Total GULP energy -198367.804141 kJ/mol
# GULP energy per Si atom -12397.987759 kJ/mol
# Density = 2.162883 g / cm^3
# Si number density = 21.678172 Si / 1000 Ang^3
#
#
#
# Elastic Constant Matrix: (Units=GPa)
#
#
# Indices 1 2 3 4 5 6 
#
# 1 108.2935 35.0723 -3.5502 0.0000 13.6177 0.0000
# 2 35.0723 131.7664 24.4550 0.0000 11.2376 0.0000
# 3 -3.5502 24.4550 69.1562 0.0000 13.7476 0.0000
# 4 0.0000 0.0000 0.0000 1081.6118 0.0000 248.2373
# 5 13.6177 11.2376 13.7476 0.0000 39.1247 0.0000
# 6 0.0000 0.0000 0.0000 248.2373 0.0000 76.9201
#
#
#
# Elastic Compliance Matrix: (Units=1/GPa)
#
#
# Indices 1 2 3 4 5 6 
#
# 1 0.010741 -0.002977 0.002341 0.000000 -0.003706 0.000000
# 2 -0.002977 0.009022 -0.003262 0.000000 -0.000409 0.000000
# 3 0.002341 -0.003262 0.016889 0.000000 -0.005812 0.000000
# 4 0.000000 0.000000 0.000000 0.003565 0.000000 -0.011505
# 5 -0.003706 -0.000409 -0.005812 0.000000 0.029009 0.000000
# 6 0.000000 0.000000 0.000000 -0.011505 0.000000 0.050131
#
#
# Mechanical properties :
#
#
# Convention : Reuss Voigt Hill
#
# Bulk Modulus (GPa) = 34.65528 46.79671 40.72599
# Shear Modulus (GPa) = 36.55713 256.41389 146.48551
#
# Velocity S-wave (km/s) = 4.11098 10.88755 8.22919
# Velocity P-wave (km/s) = 6.20923 13.40469 10.44606
#
# Compressibility (1/GPa) = 0.02885563
#
# Stress axis : x y z
#
# Youngs Moduli (GPa) = 93.09942 110.84083 59.20963
#
# Poissons Ratio (x) = 0.33002 -0.13861
# Poissons Ratio (y) = 0.27719 0.19314
# Poissons Ratio (z) = -0.21795 0.36155
#
# Static dielectric constant tensor:
#      x y z
#    x 3.369930 0.000000 0.364290 
#    y 0.000000 3.777060 0.000000 
#    z 0.364290 0.000000 3.952700 
# 
# 
# High freq. dielectric constant tensor:
#      x y z
#    x 1.861470 0.000000 0.011460 
#    y 0.000000 1.867360 0.000000 
#    z 0.011460 0.000000 1.846910 
# 
# From -- ./inp_files/56852.got.cif
#   From: 2010.06.25/outbox.cif.g09.slc.cpg/sg12_29_cif.got.tgz:56852.got - 2010.06.28 00:19:55.
