data_PCOD8111261
_publ_section_title
;
Structure prediction by ZEFSAII (Michael W. Deem and Ramdas Pophale) SiO2 
 PCOD8111261
Probable space group: C 2/M
;
_chemical_formula_sum "Si O2"
_cell_formula_units_Z 52
_cell_length_a 21.412658
_cell_length_b 18.707405
_cell_length_c 8.657594
_cell_angle_alpha 90.000000
_cell_angle_beta 50.239679
_cell_angle_gamma 90.000000
_cell_volume 2665.957814
_symmetry_space_group_name_H-M "C 2/M"
_symmetry_group_IT_number 12
_symmetry_cell_setting 'monoclinic'
loop_
_space_group_symop_operation_xyz
x,y,z
-x,y,-z
-x,-y,-z
x,-y,z
1/2+x,1/2+y,z
1/2-x,1/2+y,-z
1/2-x,1/2-y,-z
1/2+x,1/2-y,z
loop_
_atom_site_type_symbol
_atom_site_label
_atom_site_fract_x
_atom_site_fract_y
_atom_site_fract_z
Si Si1 0.404853 0.000000 0.108884
Si Si2 0.172711 0.362985 0.299406
Si Si3 0.789416 0.236053 0.275635
Si Si4 0.089509 0.000000 0.775405
Si Si5 0.026390 0.724583 0.623845
Si Si6 0.923223 0.155189 0.226799
Si Si7 0.126606 0.642424 0.026560
Si Si8 0.274344 0.000000 0.597716
O O1 0.335727 0.000000 0.352602
O O2 0.500000 0.000000 0.000000
O O3 0.393209 0.931016 0.023169
O O4 0.231159 0.296058 0.237426
O O5 0.084894 0.343126 0.507222
O O6 0.167295 0.375803 0.125584
O O7 0.205179 0.431974 0.332513
O O8 0.750000 0.250000 0.500000
O O9 0.858647 0.178521 0.200321
O O10 0.813516 0.313790 0.177040
O O11 0.094024 0.075383 0.674401
O O12 0.176544 0.000000 0.728950
O O13 0.000000 0.000000 0.000000
O O14 0.070428 0.788492 0.644717
O O15 0.000000 0.756516 0.500000
O O16 0.951292 0.693856 0.837567
O O17 0.000000 0.149834 0.000000
#
# Coordination Sequence:
#
# PCOD8111261 Si02
#       8
#     4   8   8   4   8   8   8   4
#     4  12  27  40  63  98 133 171 217 253 310 396
#     4  11  23  41  63  93 126 164 210 258 323 384
#     4  12  22  36  65  93 119 160 212 261 306 377
#     4  10  24  41  61  95 117 157 212 262 311 368
#     4  10  22  39  63  91 124 164 205 255 318 379
#     4  11  21  39  65  86 122 158 211 260 315 367
#     4  11  25  42  60  92 132 166 202 262 319 379
#     4  12  23  41  68  91 127 172 208 262 320 372
#
# _framework density 19.505185000000001
#
# number of rings (size 3 to 8) (size 9 to 14) (size 15 to 20)
#    0.000    0.923    4.615    2.769    2.154    0.000 
#    0.000    3.462    0.000    0.000    0.000    0.000 
#    0.000    0.000    0.000    0.000    0.000    0.000 
#
# Total GULP energy -322155.161798 kJ/mol
# GULP energy per Si atom -12390.583146 kJ/mol
# Density = 1.946079 g / cm^3
# Si number density = 19.505185 Si / 1000 Ang^3
#
#
#
# Elastic Constant Matrix: (Units=GPa)
#
#
# Indices 1 2 3 4 5 6 
#
# 1 127.5543 52.2783 55.1886 0.0000 0.9163 0.0000
# 2 52.2783 135.3528 51.1815 0.0000 18.0842 0.0000
# 3 55.1886 51.1815 96.0421 0.0000 9.5443 0.0000
# 4 0.0000 0.0000 0.0000 6485.6029 0.0000-4770.1116
# 5 0.9163 18.0842 9.5443 0.0000 26.7688 0.0000
# 6 0.0000 0.0000 0.0000-4770.1116 0.0000 3559.1228
#
#
#
# Elastic Compliance Matrix: (Units=1/GPa)
#
#
# Indices 1 2 3 4 5 6 
#
# 1 0.011262 -0.002792 -0.005321 0.000000 0.003398 0.000000
# 2 -0.002792 0.010541 -0.003437 0.000000 -0.005800 0.000000
# 3 -0.005321 -0.003437 0.015606 0.000000 -0.003060 0.000000
# 4 0.000000 0.000000 0.000000 0.010815 0.000000 0.014495
# 5 0.003398 -0.005800 -0.003060 0.000000 0.042250 0.000000
# 6 0.000000 0.000000 0.000000 0.014495 0.000000 0.019708
#
#
# Mechanical properties :
#
#
# Convention : Reuss Voigt Hill
#
# Bulk Modulus (GPa) = 69.88724 75.13843 72.51284
# Shear Modulus (GPa) = 36.21872 2027.65227 1031.93549
#
# Velocity S-wave (km/s) = 4.31382 32.27696 23.02619
# Velocity P-wave (km/s) = 7.79230 37.78459 27.27999
#
# Compressibility (1/GPa) = 0.01430876
#
# Stress axis : x y z
#
# Youngs Moduli (GPa) = 88.79474 94.86948 64.07970
#
# Poissons Ratio (x) = 0.26483 0.34100
# Poissons Ratio (y) = 0.24787 0.22023
# Poissons Ratio (z) = 0.47252 0.32605
#
# Static dielectric constant tensor:
#      x y z
#    x 3.834450 0.000000 -0.240960 
#    y 0.000000 4.805300 0.000000 
#    z -0.240960 0.000000 3.596780 
# 
# 
# High freq. dielectric constant tensor:
#      x y z
#    x 1.772440 0.000000 -0.016330 
#    y 0.000000 1.776200 0.000000 
#    z -0.016330 0.000000 1.755430 
# 
# From -- ./inp_files/75343.got.cif
#   From: 2010.06.25/outbox.cif.g09.slc.cpg/sg12_38_cif.got.tgz:75343.got - 2010.06.28 00:19:55.
