data_PCOD8111398
_publ_section_title
;
Structure prediction by ZEFSAII (Michael W. Deem and Ramdas Pophale) SiO2 
 PCOD8111398
Probable space group: C 2/M
;
_chemical_formula_sum "Si O2"
_cell_formula_units_Z 48
_cell_length_a 9.796462
_cell_length_b 8.955019
_cell_length_c 27.795999
_cell_angle_alpha 90.000000
_cell_angle_beta 69.634543
_cell_angle_gamma 90.000000
_cell_volume 2286.049413
_symmetry_space_group_name_H-M "C 2/M"
_symmetry_group_IT_number 12
_symmetry_cell_setting 'monoclinic'
loop_
_space_group_symop_operation_xyz
x,y,z
-x,y,-z
-x,-y,-z
x,-y,z
1/2+x,1/2+y,z
1/2-x,1/2+y,-z
1/2-x,1/2-y,-z
1/2+x,1/2-y,z
loop_
_atom_site_type_symbol
_atom_site_label
_atom_site_fract_x
_atom_site_fract_y
_atom_site_fract_z
Si Si1 0.748432 0.171809 0.051185
Si Si2 0.580362 0.171714 0.888270
Si Si3 0.038039 0.170964 0.722662
Si Si4 0.891460 0.328469 0.384343
Si Si5 0.395078 0.828345 0.555363
Si Si6 0.747785 0.328959 0.783104
O O1 0.592522 0.190219 0.095880
O O2 0.869725 0.245310 0.069774
O O3 0.789040 0.000000 0.038548
O O4 0.750000 0.250000 0.000000
O O5 0.650630 0.239770 0.832390
O O6 0.627130 0.000000 0.886998
O O7 0.081220 0.228420 0.665281
O O8 0.179930 0.186266 0.738496
O O9 0.909866 0.265765 0.762151
O O10 0.986838 0.000000 0.724812
O O11 0.872939 0.500000 0.370861
O O12 0.746839 0.274495 0.429196
O O13 0.027505 0.309175 0.402901
O O14 0.500000 0.772702 0.500000
O O15 0.349476 0.000000 0.552313
O O16 0.754712 0.500000 0.799339
#
# Coordination Sequence:
#
# PCOD8111398 Si02
#       6
#     8   8   8   8   8   8
#     4  11  24  41  63  91 123 160 202 248 297 352
#     4  11  24  41  62  90 122 157 199 245 296 354
#     4  11  24  41  62  88 120 158 197 242 297 353
#     4  11  23  38  60  89 118 153 198 244 293 352
#     4  10  22  40  60  85 119 156 196 244 296 352
#     4  11  24  41  62  89 119 154 198 244 293 351
#
# _framework density 20.996922000000001
#
# number of rings (size 3 to 8) (size 9 to 14) (size 15 to 20)
#    0.000    1.167    0.000    5.500    0.000   15.667 
#    0.000    0.000    0.000    0.000    0.000    0.000 
#    0.000    0.000    0.000    0.000    0.000    0.000 
#
# Total GULP energy -297809.363040 kJ/mol
# GULP energy per Si atom -12408.723460 kJ/mol
# Density = 2.094913 g / cm^3
# Si number density = 20.996922 Si / 1000 Ang^3
#
#
#
# Elastic Constant Matrix: (Units=GPa)
#
#
# Indices 1 2 3 4 5 6 
#
# 1 51.9188 36.2290 -12.4301 0.0000 -6.5890 0.0000
# 2 36.2290 119.3234 24.0724 0.0000 -0.6778 0.0000
# 3 -12.4301 24.0724 82.5994 0.0000 -3.0858 0.0000
# 4 0.0000 0.0000 0.0000 40.1028 0.0000 -3.1638
# 5 -6.5890 -0.6778 -3.0858 0.0000 36.7161 0.0000
# 6 0.0000 0.0000 0.0000 -3.1638 0.0000 35.3624
#
#
#
# Elastic Compliance Matrix: (Units=1/GPa)
#
#
# Indices 1 2 3 4 5 6 
#
# 1 0.028971 -0.010291 0.007570 0.000000 0.005645 0.000000
# 2 -0.010291 0.012560 -0.005286 0.000000 -0.002059 0.000000
# 3 0.007570 -0.005286 0.014880 0.000000 0.002511 0.000000
# 4 0.000000 0.000000 0.000000 0.025113 0.000000 0.002247
# 5 0.005645 -0.002059 0.002511 0.000000 0.028422 0.000000
# 6 0.000000 0.000000 0.000000 0.002247 0.000000 0.028480
#
#
# Mechanical properties :
#
#
# Convention : Reuss Voigt Hill
#
# Bulk Modulus (GPa) = 24.75487 38.84270 31.79879
# Shear Modulus (GPa) = 29.77857 36.16762 32.97310
#
# Velocity S-wave (km/s) = 3.77003 4.15483 3.96710
# Velocity P-wave (km/s) = 5.54673 6.44641 6.01342
#
# Compressibility (1/GPa) = 0.04039609
#
# Stress axis : x y z
#
# Youngs Moduli (GPa) = 34.51749 79.61833 67.20365
#
# Poissons Ratio (x) = 0.81937 -0.50872
# Poissons Ratio (y) = 0.35523 0.35524
# Poissons Ratio (z) = -0.26129 0.42086
#
# Static dielectric constant tensor:
#      x y z
#    x 3.929710 0.000000 0.085130 
#    y 0.000000 3.976740 0.000000 
#    z 0.085130 0.000000 5.710850 
# 
# 
# High freq. dielectric constant tensor:
#      x y z
#    x 1.830730 0.000000 -0.000680 
#    y 0.000000 1.835040 0.000000 
#    z -0.000680 0.000000 1.836340 
# 
# From -- ./inp_files/334620.got.cif
#   From: 2010.06.25/outbox.cif.g09.slc.cpg/sg12_168_cif.got.tgz:334620.got - 2010.06.28 00:19:55.
