data_PCOD8111711
_publ_section_title
;
Structure prediction by ZEFSAII (Michael W. Deem and Ramdas Pophale) SiO2 
 PCOD8111711
Probable space group: C 2/M
;
_chemical_formula_sum "Si O2"
_cell_formula_units_Z 56
_cell_length_a 18.988190
_cell_length_b 14.952071
_cell_length_c 20.735893
_cell_angle_alpha 90.000000
_cell_angle_beta 152.524501
_cell_angle_gamma 90.000000
_cell_volume 2716.166084
_symmetry_space_group_name_H-M "C 2/M"
_symmetry_group_IT_number 12
_symmetry_cell_setting 'monoclinic'
loop_
_space_group_symop_operation_xyz
x,y,z
-x,y,-z
-x,-y,-z
x,-y,z
1/2+x,1/2+y,z
1/2-x,1/2+y,-z
1/2-x,1/2-y,-z
1/2+x,1/2-y,z
loop_
_atom_site_type_symbol
_atom_site_label
_atom_site_fract_x
_atom_site_fract_y
_atom_site_fract_z
Si Si1 0.874809 0.602243 0.528519
Si Si2 0.777035 0.899504 0.460860
Si Si3 0.860626 0.831304 0.075643
Si Si4 0.880113 0.899231 0.233303
Si Si5 0.828886 0.267369 0.856827
Si Si6 0.278539 0.899629 0.161565
Si Si7 0.686020 0.740107 0.300632
O O1 0.866857 0.500000 0.497092
O O2 0.764577 0.618015 0.499093
O O3 0.815081 0.667911 0.424417
O O4 0.044808 0.628954 0.688047
O O5 0.688996 0.829377 0.345489
O O6 0.957364 0.886092 0.600498
O O7 0.727596 0.000000 0.400214
O O8 0.895939 0.883504 0.169840
O O9 0.017217 0.800423 0.168966
O O10 0.750000 0.750000 0.000000
O O11 0.771828 0.895555 0.953949
O O12 0.767424 0.830403 0.174899
O O13 0.820577 0.000000 0.196013
O O14 0.822447 0.165939 0.877164
O O15 0.771837 0.269784 0.737278
O O16 0.000000 0.303279 0.000000
O O17 0.253443 0.000000 0.166781
#
# Coordination Sequence:
#
# PCOD8111711 Si02
#       7
#     8   8   8   8   8   8   8
#     4  10  22  40  66 101 132 163 218 281 334 388
#     4  10  22  40  66 102 131 165 220 278 334 387
#     4  12  22  41  69  98 130 171 229 273 327 389
#     4  11  24  43  70  98 133 175 224 278 328 389
#     4  12  26  46  60  96 137 178 224 267 332 399
#     4  11  24  42  66  95 134 174 216 273 332 394
#     4  12  24  40  70  93 131 181 216 274 331 393
#
# _framework density 20.617296
#
# number of rings (size 3 to 8) (size 9 to 14) (size 15 to 20)
#    0.000    0.857    4.286    2.571    0.000    4.571 
#    0.000    6.429    0.000    0.000    0.000    0.000 
#    0.000    0.000    0.000    0.000    0.000    0.000 
#
# Total GULP energy -347338.224300 kJ/mol
# GULP energy per Si atom -12404.936582 kJ/mol
# Density = 2.057037 g / cm^3
# Si number density = 20.617296 Si / 1000 Ang^3
#
#
#
# Elastic Constant Matrix: (Units=GPa)
#
#
# Indices 1 2 3 4 5 6 
#
# 1 69.4513 17.4509 20.2664 0.0029 -6.3910 0.0049
# 2 17.4509 87.2006 31.2895 -0.0037 -7.9911 0.0160
# 3 20.2664 31.2895 98.5775 -0.0262 -5.5719 0.0051
# 4 0.0029 -0.0037 -0.0262 19.8604 -0.0044 1.8136
# 5 -6.3910 -7.9911 -5.5719 -0.0044 35.3129 0.0095
# 6 0.0049 0.0160 0.0051 1.8136 0.0095 15.0737
#
#
#
# Elastic Compliance Matrix: (Units=1/GPa)
#
#
# Indices 1 2 3 4 5 6 
#
# 1 0.015832 -0.002096 -0.002476 -0.000005 0.002000 -0.000003
# 2 -0.002096 0.013407 -0.003708 0.000000 0.002070 -0.000014
# 3 -0.002476 -0.003708 0.011863 0.000016 0.000585 -0.000001
# 4 -0.000005 0.000000 0.000016 0.050911 0.000009 -0.006125
# 5 0.002000 0.002070 0.000585 0.000009 0.029241 -0.000023
# 6 -0.000003 -0.000014 -0.000001 -0.006125 -0.000023 0.067078
#
#
# Mechanical properties :
#
#
# Convention : Reuss Voigt Hill
#
# Bulk Modulus (GPa) = 40.74694 43.69367 42.22030
# Shear Modulus (GPa) = 23.46604 26.46425 24.96514
#
# Velocity S-wave (km/s) = 3.37734 3.58662 3.48355
# Velocity P-wave (km/s) = 5.91734 6.19600 6.05828
#
# Compressibility (1/GPa) = 0.02454172
#
# Stress axis : x y z
#
# Youngs Moduli (GPa) = 63.16303 74.58563 84.29348
#
# Poissons Ratio (x) = 0.15637 0.20874
# Poissons Ratio (y) = 0.13242 0.31253
# Poissons Ratio (z) = 0.15642 0.27654
#
# Static dielectric constant tensor:
#      x y z
#    x 3.640430 0.000000 -0.052120 
#    y 0.000000 3.817380 -0.000010 
#    z -0.052120 -0.000010 3.898870 
# 
# 
# High freq. dielectric constant tensor:
#      x y z
#    x 1.798420 0.000000 0.001740 
#    y 0.000000 1.815020 0.000000 
#    z 0.001740 0.000000 1.818760 
# 
# From -- ./inp_files/96967.got.cif
#   From: 2010.06.25/outbox.cif.g09.slc.cpg/sg12_49_cif.got.tgz:96967.got - 2010.06.28 00:19:55.
