data_PCOD8111381
_publ_section_title
;
Structure prediction by ZEFSAII (Michael W. Deem and Ramdas Pophale) SiO2 
 PCOD8111381
Probable space group: C 2/M
;
_chemical_formula_sum "Si O2"
_cell_formula_units_Z 40
_cell_length_a 10.000751
_cell_length_b 9.070768
_cell_length_c 22.135396
_cell_angle_alpha 90.000000
_cell_angle_beta 96.919212
_cell_angle_gamma 90.000000
_cell_volume 1993.376939
_symmetry_space_group_name_H-M "C 2/M"
_symmetry_group_IT_number 12
_symmetry_cell_setting 'monoclinic'
loop_
_space_group_symop_operation_xyz
x,y,z
-x,y,-z
-x,-y,-z
x,-y,z
1/2+x,1/2+y,z
1/2-x,1/2+y,-z
1/2-x,1/2-y,-z
1/2+x,1/2-y,z
loop_
_atom_site_type_symbol
_atom_site_label
_atom_site_fract_x
_atom_site_fract_y
_atom_site_fract_z
Si Si1 0.529926 0.829520 0.268254
Si Si2 0.180259 0.828125 0.663595
Si Si3 0.232812 0.170492 0.062153
Si Si4 0.645532 0.831036 0.536806
Si Si5 0.480334 0.169265 0.870053
O O1 0.664463 0.797381 0.313158
O O2 0.410890 0.728143 0.286512
O O3 0.555340 0.786593 0.200247
O O4 0.486386 0.000000 0.271465
O O5 0.139821 0.741552 0.601748
O O6 0.153117 0.000000 0.651957
O O7 0.362056 0.198232 0.111126
O O8 0.102424 0.230051 0.089071
O O9 0.209796 0.000000 0.047383
O O10 0.250000 0.250000 0.000000
O O11 0.500000 0.817503 0.500000
O O12 0.750000 0.750000 0.500000
O O13 0.690415 0.000000 0.545977
O O14 0.442240 0.000000 0.881142
#
# Coordination Sequence:
#
# PCOD8111381 Si02
#       5
#     8   8   8   8   8
#     4  10  22  40  60  85 118 152 189 236 286 338
#     4  11  23  38  60  89 117 150 192 235 284 341
#     4  11  23  38  59  86 115 151 193 236 286 341
#     4  11  24  41  61  86 117 153 193 237 285 338
#     4  10  22  40  60  84 116 152 191 236 285 339
#
# _framework density 20.066451000000001
#
# number of rings (size 3 to 8) (size 9 to 14) (size 15 to 20)
#    0.000    1.400    0.000    4.800    0.000   12.800 
#    0.000    0.000    0.000    0.000    0.000    0.000 
#    0.000    0.000    0.000    0.000    0.000    0.000 
#
# Total GULP energy -248147.579252 kJ/mol
# GULP energy per Si atom -12407.378963 kJ/mol
# Density = 2.002078 g / cm^3
# Si number density = 20.066451 Si / 1000 Ang^3
#
#
#
# Elastic Constant Matrix: (Units=GPa)
#
#
# Indices 1 2 3 4 5 6 
#
# 1 70.8660 52.3404 12.3689 0.0000 -17.0490 0.0000
# 2 52.3404 123.7705 49.6240 0.0000 -8.3603 0.0000
# 3 12.3689 49.6240 100.9258 0.0000 -3.2124 0.0000
# 4 0.0000 0.0000 0.0000 37.8221 0.0000 -8.4315
# 5 -17.0490 -8.3603 -3.2124 0.0000 37.0425 0.0000
# 6 0.0000 0.0000 0.0000 -8.4315 0.0000 38.3012
#
#
#
# Elastic Compliance Matrix: (Units=1/GPa)
#
#
# Indices 1 2 3 4 5 6 
#
# 1 0.023353 -0.010282 0.002468 0.000000 0.008642 0.000000
# 2 -0.010282 0.014718 -0.006038 0.000000 -0.001934 0.000000
# 3 0.002468 -0.006038 0.012602 0.000000 0.000866 0.000000
# 4 0.000000 0.000000 0.000000 0.027804 0.000000 0.006121
# 5 0.008642 -0.001934 0.000866 0.000000 0.030612 0.000000
# 6 0.000000 0.000000 0.000000 0.006121 0.000000 0.027456
#
#
# Mechanical properties :
#
#
# Convention : Reuss Voigt Hill
#
# Bulk Modulus (GPa) = 43.53402 58.24766 50.89084
# Shear Modulus (GPa) = 29.08591 34.71509 31.90050
#
# Velocity S-wave (km/s) = 3.81133 4.16385 3.99148
# Velocity P-wave (km/s) = 6.41174 7.22546 6.83072
#
# Compressibility (1/GPa) = 0.02297054
#
# Stress axis : x y z
#
# Youngs Moduli (GPa) = 42.82065 67.94596 79.35169
#
# Poissons Ratio (x) = 0.69859 -0.19587
# Poissons Ratio (y) = 0.44026 0.47912
# Poissons Ratio (z) = -0.10570 0.41026
#
# Static dielectric constant tensor:
#      x y z
#    x 3.734360 0.000000 0.044890 
#    y 0.000000 3.802210 0.000000 
#    z 0.044890 0.000000 3.963060 
# 
# 
# High freq. dielectric constant tensor:
#      x y z
#    x 1.793560 0.000000 0.002420 
#    y 0.000000 1.791440 0.000000 
#    z 0.002420 0.000000 1.800220 
# 
# From -- ./inp_files/331749.got.cif
#   From: 2010.06.25/outbox.cif.g09.slc.cpg/sg12_166_cif.got.tgz:331749.got - 2010.06.28 00:19:55.
