data_PCOD8111028
_publ_section_title
;
Structure prediction by ZEFSAII (Michael W. Deem and Ramdas Pophale) SiO2 
 PCOD8111028
Probable space group: C 2/M
;
_chemical_formula_sum "Si O2"
_cell_formula_units_Z 64
_cell_length_a 30.578219
_cell_length_b 8.712860
_cell_length_c 22.969578
_cell_angle_alpha 90.000000
_cell_angle_beta 148.630168
_cell_angle_gamma 90.000000
_cell_volume 3185.641118
_symmetry_space_group_name_H-M "C 2/M"
_symmetry_group_IT_number 12
_symmetry_cell_setting 'monoclinic'
loop_
_space_group_symop_operation_xyz
x,y,z
-x,y,-z
-x,-y,-z
x,-y,z
1/2+x,1/2+y,z
1/2-x,1/2+y,-z
1/2-x,1/2-y,-z
1/2+x,1/2-y,z
loop_
_atom_site_type_symbol
_atom_site_label
_atom_site_fract_x
_atom_site_fract_y
_atom_site_fract_z
Si Si1 0.028298 0.682644 0.661740
Si Si2 0.126320 0.818280 0.996757
Si Si3 0.493751 0.182426 0.231767
Si Si4 0.185225 0.682399 0.768418
Si Si5 0.298926 0.677318 0.707293
Si Si6 0.364767 0.180319 0.414006
Si Si7 0.910446 0.327042 0.927317
Si Si8 0.330556 0.820265 0.622398
O O1 0.024703 0.500000 0.656869
O O2 0.015058 0.740796 0.712205
O O3 0.116727 0.743348 0.736952
O O4 0.953696 0.749015 0.536138
O O5 0.082600 0.762775 0.888344
O O6 0.119099 0.000000 0.994956
O O7 0.223183 0.762132 0.106819
O O8 0.078139 0.738009 0.995101
O O9 0.583533 0.240153 0.309245
O O10 0.485023 0.000000 0.215764
O O11 0.183126 0.500000 0.763096
O O12 0.163639 0.752726 0.680105
O O13 0.311729 0.500000 0.705416
O O14 0.201842 0.714606 0.610405
O O15 0.348968 0.714984 0.822741
O O16 0.331891 0.779837 0.691944
O O17 0.373078 0.000000 0.413764
O O18 0.874033 0.500000 0.887141
O O19 0.000000 0.325342 0.000000
O O20 0.250000 0.750000 0.500000
O O21 0.324526 0.000000 0.607317
#
# Coordination Sequence:
#
# PCOD8111028 Si02
#       8
#     8   8   8   8   8   8   8   8
#     4   9  17  31  55  82 111 149 190 234 287 339
#     4  11  22  37  57  84 116 150 188 237 288 341
#     4  10  22  39  56  81 115 153 196 239 282 340
#     4   9  17  31  53  85 116 143 186 239 286 338
#     4  11  21  35  57  86 117 148 187 233 285 342
#     4   9  16  30  53  84 117 145 180 234 289 340
#     4  11  23  38  56  80 110 147 190 234 282 339
#     4  11  23  39  58  83 117 154 197 242 286 338
#
# _framework density 20.090146000000001
#
# number of rings (size 3 to 8) (size 9 to 14) (size 15 to 20)
#    0.000    1.875    1.250    3.375    0.000    9.000 
#    0.000    0.000    0.000    0.750    0.000    0.875 
#    0.000    0.000    0.000    0.000    0.000    0.000 
#
# Total GULP energy -396853.357710 kJ/mol
# GULP energy per Si atom -12401.667428 kJ/mol
# Density = 2.004442 g / cm^3
# Si number density = 20.090146 Si / 1000 Ang^3
#
#
#
# Elastic Constant Matrix: (Units=GPa)
#
#
# Indices 1 2 3 4 5 6 
#
# 1 141.8491 27.4909 71.3669 0.0000 1.3222 0.0000
# 2 27.4909 35.0018 28.1351 0.0000 9.7431 0.0000
# 3 71.3669 28.1351 155.5438 0.0000 1.7680 0.0000
# 4 0.0000 0.0000 0.0000 29.5596 0.0000 -6.3429
# 5 1.3222 9.7431 1.7680 0.0000 30.6978 0.0000
# 6 0.0000 0.0000 0.0000 -6.3429 0.0000 19.8433
#
#
#
# Elastic Compliance Matrix: (Units=1/GPa)
#
#
# Indices 1 2 3 4 5 6 
#
# 1 0.009862 -0.005266 -0.003589 0.000000 0.001453 0.000000
# 2 -0.005266 0.039824 -0.004649 0.000000 -0.012145 0.000000
# 3 -0.003589 -0.004649 0.008904 0.000000 0.001117 0.000000
# 4 0.000000 0.000000 0.000000 0.036321 0.000000 0.011610
# 5 0.001453 -0.012145 0.001117 0.000000 0.036303 0.000000
# 6 0.000000 0.000000 0.000000 0.011610 0.000000 0.054106
#
#
# Mechanical properties :
#
#
# Convention : Reuss Voigt Hill
#
# Bulk Modulus (GPa) = 31.66367 65.15338 48.40852
# Shear Modulus (GPa) = 22.43599 29.71360 26.07480
#
# Velocity S-wave (km/s) = 3.34543 3.84997 3.60653
# Velocity P-wave (km/s) = 5.54234 7.22938 6.44133
#
# Compressibility (1/GPa) = 0.03158194
#
# Stress axis : x y z
#
# Youngs Moduli (GPa) = 101.39434 25.11075 112.30730
#
# Poissons Ratio (x) = 0.13222 0.40309
# Poissons Ratio (y) = 0.53390 0.52216
# Poissons Ratio (z) = 0.36392 0.11675
#
# Static dielectric constant tensor:
#      x y z
#    x 3.857640 0.000000 0.098960 
#    y 0.000000 3.321480 0.000000 
#    z 0.098960 0.000000 3.874850 
# 
# 
# High freq. dielectric constant tensor:
#      x y z
#    x 1.794920 0.000000 0.002190 
#    y 0.000000 1.744840 0.000000 
#    z 0.002190 0.000000 1.796800 
# 
# From -- ./inp_files/353488.got.cif
#   From: 2010.06.25/outbox.cif.g09.slc.cpg/sg12_177_cif.got.tgz:353488.got - 2010.06.28 00:19:55.
