data_PCOD8111090
_publ_section_title
;
Structure prediction by ZEFSAII (Michael W. Deem and Ramdas Pophale) SiO2 
 PCOD8111090
Probable space group: C 2/M
;
_chemical_formula_sum "Si O2"
_cell_formula_units_Z 56
_cell_length_a 17.873755
_cell_length_b 8.519425
_cell_length_c 25.220543
_cell_angle_alpha 90.000000
_cell_angle_beta 45.119261
_cell_angle_gamma 90.000000
_cell_volume 2721.244869
_symmetry_space_group_name_H-M "C 2/M"
_symmetry_group_IT_number 12
_symmetry_cell_setting 'monoclinic'
loop_
_space_group_symop_operation_xyz
x,y,z
-x,y,-z
-x,-y,-z
x,-y,z
1/2+x,1/2+y,z
1/2-x,1/2+y,-z
1/2-x,1/2-y,-z
1/2+x,1/2-y,z
loop_
_atom_site_type_symbol
_atom_site_label
_atom_site_fract_x
_atom_site_fract_y
_atom_site_fract_z
Si Si1 0.301769 0.684195 0.274714
Si Si2 0.407765 0.684384 0.429041
Si Si3 0.459951 0.319502 0.873973
Si Si4 0.180796 0.319295 0.144659
Si Si5 0.863916 0.182855 0.721477
Si Si6 0.402553 0.818221 0.012556
Si Si7 0.247214 0.184799 0.584073
O O1 0.277015 0.500000 0.281406
O O2 0.423873 0.721865 0.204434
O O3 0.236283 0.779451 0.264284
O O4 0.271129 0.751688 0.347870
O O5 0.391441 0.500000 0.442544
O O6 0.530078 0.730347 0.363012
O O7 0.361879 0.763480 0.505235
O O8 0.344004 0.749377 0.409649
O O9 0.451188 0.500000 0.896185
O O10 0.378448 0.290052 0.867546
O O11 0.430435 0.209154 0.937538
O O12 0.158913 0.500000 0.142018
O O13 0.138477 0.283218 0.224125
O O14 0.304957 0.286316 0.079892
O O15 0.864267 0.000000 0.736529
O O16 0.374644 0.000000 0.035365
O O17 0.500000 0.765085 0.000000
O O18 0.239607 0.000000 0.591088
#
# Coordination Sequence:
#
# PCOD8111090 Si02
#       7
#     8   8   8   8   8   8   8
#     4  10  22  39  59  85 118 155 194 239 292 346
#     4   9  19  36  57  82 112 149 192 238 291 345
#     4  11  23  41  64  88 119 156 195 240 289 342
#     4  12  25  41  63  89 118 153 196 241 288 345
#     4  11  23  39  59  84 118 155 193 241 294 347
#     4  11  24  42  64  91 123 156 193 237 286 341
#     4   9  18  35  58  82 111 149 193 239 287 343
#
# _framework density 20.578817000000001
#
# number of rings (size 3 to 8) (size 9 to 14) (size 15 to 20)
#    0.000    1.571    0.000    4.714    0.000    9.143 
#    0.000    5.714    0.000    0.000    0.000    0.000 
#    0.000    0.000    0.000    0.000    0.000    0.000 
#
# Total GULP energy -347378.684833 kJ/mol
# GULP energy per Si atom -12406.381601 kJ/mol
# Density = 2.053198 g / cm^3
# Si number density = 20.578817 Si / 1000 Ang^3
#
#
#
# Elastic Constant Matrix: (Units=GPa)
#
#
# Indices 1 2 3 4 5 6 
#
# 1 75.1581 11.4503 10.2851 -0.0003 -17.9583 -0.0003
# 2 11.4503 42.8177 20.9233 -0.0006 -5.5506 -0.0004
# 3 10.2851 20.9233 85.6706 -0.0001 -13.9382 0.0000
# 4 -0.0003 -0.0006 -0.0001 31.0956 0.0000 2.1387
# 5 -17.9583 -5.5506 -13.9382 0.0000 32.4241 -0.0002
# 6 -0.0003 -0.0004 0.0000 2.1387 -0.0002 21.9117
#
#
#
# Elastic Compliance Matrix: (Units=1/GPa)
#
#
# Indices 1 2 3 4 5 6 
#
# 1 0.015744 -0.003261 0.000252 0.000000 0.008270 0.000000
# 2 -0.003261 0.027303 -0.006247 0.000000 0.000182 0.000000
# 3 0.000252 -0.006247 0.013996 0.000000 0.005086 0.000000
# 4 0.000000 0.000000 0.000000 0.032376 0.000000 -0.003160
# 5 0.008270 0.000182 0.005086 0.000000 0.037639 0.000000
# 6 0.000000 0.000000 0.000000 -0.003160 0.000000 0.045946
#
#
# Mechanical properties :
#
#
# Convention : Reuss Voigt Hill
#
# Bulk Modulus (GPa) = 25.95403 32.10708 29.03056
# Shear Modulus (GPa) = 24.46660 27.81879 26.14270
#
# Velocity S-wave (km/s) = 3.45182 3.68069 3.56809
# Velocity P-wave (km/s) = 5.34098 5.80510 5.57787
#
# Compressibility (1/GPa) = 0.03852966
#
# Stress axis : x y z
#
# Youngs Moduli (GPa) = 63.51778 36.62565 71.45083
#
# Poissons Ratio (x) = 0.11944 -0.01799
# Poissons Ratio (y) = 0.20714 0.44636
# Poissons Ratio (z) = -0.01600 0.22880
#
# Static dielectric constant tensor:
#      x y z
#    x 3.789010 0.000010 0.022530 
#    y 0.000010 5.909420 0.000000 
#    z 0.022530 0.000000 3.884770 
# 
# 
# High freq. dielectric constant tensor:
#      x y z
#    x 1.807670 0.000000 -0.000020 
#    y 0.000000 1.798600 0.000000 
#    z -0.000020 0.000000 1.820110 
# 
# From -- ./inp_files/362959.got.cif
#   From: 2010.06.25/outbox.cif.g09.slc.cpg/sg12_182_cif.got.tgz:362959.got - 2010.06.28 00:19:55.
