data_PCOD8111645
_publ_section_title
;
Structure prediction by ZEFSAII (Michael W. Deem and Ramdas Pophale) SiO2 
 PCOD8111645
Probable space group: C 2/M
;
_chemical_formula_sum "Si O2"
_cell_formula_units_Z 64
_cell_length_a 30.502482
_cell_length_b 8.577147
_cell_length_c 18.985799
_cell_angle_alpha 90.000000
_cell_angle_beta 141.822688
_cell_angle_gamma 90.000000
_cell_volume 3070.178753
_symmetry_space_group_name_H-M "C 2/M"
_symmetry_group_IT_number 12
_symmetry_cell_setting 'monoclinic'
loop_
_space_group_symop_operation_xyz
x,y,z
-x,y,-z
-x,-y,-z
x,-y,z
1/2+x,1/2+y,z
1/2-x,1/2+y,-z
1/2-x,1/2-y,-z
1/2+x,1/2-y,z
loop_
_atom_site_type_symbol
_atom_site_label
_atom_site_fract_x
_atom_site_fract_y
_atom_site_fract_z
Si Si1 0.666240 0.178418 0.998812
Si Si2 0.327012 0.178451 0.748492
Si Si3 0.682662 0.819320 0.605271
Si Si4 0.055847 0.820905 0.361542
Si Si5 0.917269 0.820734 0.982999
Si Si6 0.055534 0.320819 0.209257
Si Si7 0.809390 0.318719 0.222380
Si Si8 0.919055 0.322121 0.246612
O O1 0.620395 0.290648 0.990243
O O2 0.748850 0.217981 0.108604
O O3 0.653460 0.000000 0.005388
O O4 0.641185 0.208083 0.887746
O O5 0.259199 0.289882 0.667258
O O6 0.382390 0.212435 0.880348
O O7 0.366177 0.209149 0.723518
O O8 0.301825 0.000000 0.723159
O O9 0.625098 0.714681 0.494111
O O10 0.683968 0.768310 0.688271
O O11 0.662711 0.000000 0.571571
O O12 0.055220 0.717233 0.291000
O O13 0.986732 0.787330 0.321330
O O14 0.056358 0.000000 0.339248
O O15 0.907366 0.000000 0.948870
O O16 0.000309 0.783289 0.095534
O O17 0.032796 0.500000 0.171466
O O18 0.788849 0.500000 0.189801
O O19 0.883808 0.283656 0.277570
O O20 0.945984 0.500000 0.278136
#
# Coordination Sequence:
#
# PCOD8111645 Si02
#       8
#     8   8   8   8   8   8   8   8
#     4  11  21  35  62  93 128 169 204 251 311 368
#     4  11  24  42  66  95 127 163 206 256 311 372
#     4  11  24  43  66  90 124 166 209 261 313 367
#     4  12  26  43  65  91 122 163 213 263 311 370
#     4  12  23  37  62  95 131 167 205 250 306 373
#     4  11  24  43  66  93 126 164 206 256 315 372
#     4  10  22  40  64  94 126 165 210 256 309 370
#     4  10  22  41  64  92 128 167 207 254 313 372
#
# _framework density 20.845690999999999
#
# number of rings (size 3 to 8) (size 9 to 14) (size 15 to 20)
#    0.000    1.000    2.500    4.500    0.000    6.000 
#    0.000    2.500    0.000    0.000    0.000    0.000 
#    0.000    0.000    0.000    0.000    0.000    0.000 
#
# Total GULP energy -397034.616273 kJ/mol
# GULP energy per Si atom -12407.331759 kJ/mol
# Density = 2.079825 g / cm^3
# Si number density = 20.845691 Si / 1000 Ang^3
#
#
#
# Elastic Constant Matrix: (Units=GPa)
#
#
# Indices 1 2 3 4 5 6 
#
# 1 107.4031 25.0060 25.8949 0.0000 17.6742 0.0000
# 2 25.0060 62.8352 12.7174 0.0000 4.5656 0.0000
# 3 25.8949 12.7174 90.5831 0.0000 19.3051 0.0000
# 4 0.0000 0.0000 0.0000 33.5153 0.0000 5.1174
# 5 17.6742 4.5656 19.3051 0.0000 14.2153 0.0000
# 6 0.0000 0.0000 0.0000 5.1174 0.0000 28.5533
#
#
#
# Elastic Compliance Matrix: (Units=1/GPa)
#
#
# Indices 1 2 3 4 5 6 
#
# 1 0.012604 -0.003973 0.000032 0.000000 -0.014438 0.000000
# 2 -0.003973 0.017725 -0.001678 0.000000 0.001526 0.000000
# 3 0.000032 -0.001678 0.015705 0.000000 -0.020829 0.000000
# 4 0.000000 0.000000 0.000000 0.030677 0.000000 -0.005498
# 5 -0.014438 0.001526 -0.020829 0.000000 0.116094 0.000000
# 6 0.000000 0.000000 0.000000 -0.005498 0.000000 0.036008
#
#
# Mechanical properties :
#
#
# Convention : Reuss Voigt Hill
#
# Bulk Modulus (GPa) = 28.73981 43.11756 35.92869
# Shear Modulus (GPa) = 19.86897 28.40366 24.13631
#
# Velocity S-wave (km/s) = 3.09065 3.69530 3.40642
# Velocity P-wave (km/s) = 5.15297 6.23988 5.72229
#
# Compressibility (1/GPa) = 0.03479494
#
# Stress axis : x y z
#
# Youngs Moduli (GPa) = 79.33989 56.41885 63.67347
#
# Poissons Ratio (x) = 0.22417 -0.00202
# Poissons Ratio (y) = 0.31524 0.10683
# Poissons Ratio (z) = -0.00251 0.09466
#
# Static dielectric constant tensor:
#      x y z
#    x 3.909880 0.000000 -0.002280 
#    y 0.000000 4.116890 0.000000 
#    z -0.002280 0.000000 3.623010 
# 
# 
# High freq. dielectric constant tensor:
#      x y z
#    x 1.828350 0.000000 0.002470 
#    y 0.000000 1.817780 0.000000 
#    z 0.002470 0.000000 1.807750 
# 
# From -- ./inp_files/295856.got.cif
#   From: 2010.06.25/outbox.cif.g09.slc.cpg/sg12_148_cif.got.tgz:295856.got - 2010.06.28 00:19:55.
