data_PCOD8111195
_publ_section_title
;
Structure prediction by ZEFSAII (Michael W. Deem and Ramdas Pophale) SiO2 
 PCOD8111195
Probable space group: C 2/M
;
_chemical_formula_sum "Si O2"
_cell_formula_units_Z 64
_cell_length_a 17.771005
_cell_length_b 15.079255
_cell_length_c 23.220327
_cell_angle_alpha 90.000000
_cell_angle_beta 29.297341
_cell_angle_gamma 90.000000
_cell_volume 3044.897522
_symmetry_space_group_name_H-M "C 2/M"
_symmetry_group_IT_number 12
_symmetry_cell_setting 'monoclinic'
loop_
_space_group_symop_operation_xyz
x,y,z
-x,y,-z
-x,-y,-z
x,-y,z
1/2+x,1/2+y,z
1/2-x,1/2+y,-z
1/2-x,1/2-y,-z
1/2+x,1/2-y,z
loop_
_atom_site_type_symbol
_atom_site_label
_atom_site_fract_x
_atom_site_fract_y
_atom_site_fract_z
Si Si1 0.464447 0.308395 0.759638
Si Si2 0.763521 0.821151 0.286607
Si Si3 0.270025 0.102795 0.566290
Si Si4 0.378778 0.402579 0.531086
Si Si5 0.068670 0.333103 0.772601
Si Si6 0.477894 0.399443 0.951507
Si Si7 0.002675 0.743213 0.615464
Si Si8 0.268131 0.397062 0.987615
O O1 0.592151 0.385466 0.667245
O O2 0.544312 0.220559 0.730382
O O3 0.406723 0.276028 0.735492
O O4 0.330500 0.341726 0.891383
O O5 0.706634 0.861112 0.384620
O O6 0.881259 0.738320 0.212562
O O7 0.614073 0.788956 0.354268
O O8 0.856701 0.896238 0.190008
O O9 0.380325 0.161154 0.450957
O O10 0.317122 0.000000 0.529939
O O11 0.500000 0.383006 0.500000
O O12 0.407445 0.500000 0.484777
O O13 0.206815 0.402229 0.671787
O O14 0.396288 0.326962 0.471985
O O15 0.914571 0.385573 0.891876
O O16 0.429013 0.500000 0.995967
O O17 0.345703 0.360565 0.995823
O O18 0.500000 0.352175 0.000000
O O19 0.311700 0.500000 0.950427
#
# Coordination Sequence:
#
# PCOD8111195 Si02
#       8
#     8   8   8   8   8   8   8   8
#     4  11  24  40  65  90 133 173 218 261 334 399
#     4  11  22  38  66  89 132 168 220 266 334 392
#     4  11  22  41  68  97 134 178 222 273 336 399
#     4  11  22  41  66  90 124 171 219 270 324 379
#     4  11  22  40  65  92 118 167 216 273 316 390
#     4  10  22  39  61  93 128 168 216 268 326 393
#     4  12  24  42  61  99 133 171 218 275 327 398
#     4  11  23  42  65  91 127 171 221 272 331 396
#
# _framework density 21.018768999999999
#
# number of rings (size 3 to 8) (size 9 to 14) (size 15 to 20)
#    0.000    1.000    6.250    2.250    1.750    2.500 
#    0.000    0.625    0.000    0.750    0.000    0.000 
#    0.000    0.000    0.000    0.000    0.000    0.000 
#
# Total GULP energy -396621.627535 kJ/mol
# GULP energy per Si atom -12394.425860 kJ/mol
# Density = 2.097093 g / cm^3
# Si number density = 21.018769 Si / 1000 Ang^3
#
#
#
# Elastic Constant Matrix: (Units=GPa)
#
#
# Indices 1 2 3 4 5 6 
#
# 1 59.4916 19.4259 42.3200 -0.0141 3.8727 0.0006
# 2 19.4259 86.6898 16.6294 -0.0312 -3.1986 0.0024
# 3 42.3200 16.6294 104.7700 -0.0429 -9.2064 0.0022
# 4 -0.0141 -0.0312 -0.0429 29.1882 0.0043 -2.7239
# 5 3.8727 -3.1986 -9.2064 0.0043 32.1125 -0.0014
# 6 0.0006 0.0024 0.0022 -2.7239 -0.0014 17.6290
#
#
#
# Elastic Compliance Matrix: (Units=1/GPa)
#
#
# Indices 1 2 3 4 5 6 
#
# 1 0.025972 -0.004062 -0.010420 -0.000006 -0.006524 -0.000001
# 2 -0.004062 0.012547 -0.000203 0.000011 0.001681 0.000000
# 3 -0.010420 -0.000203 0.014253 0.000015 0.005323 0.000001
# 4 -0.000006 0.000011 0.000015 0.034762 0.000002 0.005371
# 5 -0.006524 0.001681 0.005323 0.000002 0.033621 0.000002
# 6 -0.000001 0.000000 0.000001 0.005371 0.000002 0.057555
#
#
# Mechanical properties :
#
#
# Convention : Reuss Voigt Hill
#
# Bulk Modulus (GPa) = 42.72893 45.30022 44.01458
# Shear Modulus (GPa) = 23.16107 27.29101 25.22604
#
# Velocity S-wave (km/s) = 3.32312 3.60726 3.46810
# Velocity P-wave (km/s) = 5.92430 6.24090 6.08466
#
# Compressibility (1/GPa) = 0.02340335
#
# Stress axis : x y z
#
# Youngs Moduli (GPa) = 38.50259 79.70297 70.15838
#
# Poissons Ratio (x) = 0.32375 0.73102
# Poissons Ratio (y) = 0.15640 0.01424
# Poissons Ratio (z) = 0.40118 0.01617
#
# Static dielectric constant tensor:
#      x y z
#    x 3.868760 0.000000 -0.074350 
#    y 0.000000 3.793880 0.000010 
#    z -0.074350 0.000010 3.731220 
# 
# 
# High freq. dielectric constant tensor:
#      x y z
#    x 1.817800 0.000000 -0.006840 
#    y 0.000000 1.819490 0.000000 
#    z -0.006840 0.000000 1.817050 
# 
# From -- ./inp_files/343991.got.cif
#   From: 2010.06.25/outbox.cif.g09.slc.cpg/sg12_172_cif.got.tgz:343991.got - 2010.06.28 00:19:55.
