data_PCOD8111092
_publ_section_title
;
Structure prediction by ZEFSAII (Michael W. Deem and Ramdas Pophale) SiO2 
 PCOD8111092
Probable space group: C 2/M
;
_chemical_formula_sum "Si O2"
_cell_formula_units_Z 56
_cell_length_a 19.002334
_cell_length_b 8.577323
_cell_length_c 19.644157
_cell_angle_alpha 90.000000
_cell_angle_beta 64.946185
_cell_angle_gamma 90.000000
_cell_volume 2900.530088
_symmetry_space_group_name_H-M "C 2/M"
_symmetry_group_IT_number 12
_symmetry_cell_setting 'monoclinic'
loop_
_space_group_symop_operation_xyz
x,y,z
-x,y,-z
-x,-y,-z
x,-y,z
1/2+x,1/2+y,z
1/2-x,1/2+y,-z
1/2-x,1/2-y,-z
1/2+x,1/2-y,z
loop_
_atom_site_type_symbol
_atom_site_label
_atom_site_fract_x
_atom_site_fract_y
_atom_site_fract_z
Si Si1 0.708731 0.176462 0.580635
Si Si2 0.630984 0.818142 0.236423
Si Si3 0.749020 0.183908 0.714235
Si Si4 0.595350 0.323311 0.807740
Si Si5 0.533429 0.820764 0.057284
Si Si6 0.952361 0.322644 0.303666
Si Si7 0.323382 0.317649 0.929660
O O1 0.750000 0.250000 0.500000
O O2 0.741547 0.244946 0.639262
O O3 0.614400 0.192336 0.610726
O O4 0.735155 0.000000 0.569084
O O5 0.670560 0.730064 0.283336
O O6 0.540221 0.784961 0.288996
O O7 0.660508 0.758718 0.150708
O O8 0.650101 0.000000 0.231708
O O9 0.683104 0.269430 0.786516
O O10 0.735493 0.000000 0.723318
O O11 0.582441 0.500000 0.838809
O O12 0.538085 0.197814 0.863387
O O13 0.575350 0.309627 0.736829
O O14 0.603726 0.711396 0.051215
O O15 0.561565 0.000000 0.043976
O O16 0.500000 0.760914 0.000000
O O17 0.948528 0.500000 0.275454
O O18 0.310890 0.500000 0.922997
O O19 0.250000 0.250000 0.000000
#
# Coordination Sequence:
#
# PCOD8111092 Si02
#       7
#     8   8   8   8   8   8   8
#     4   9  19  37  61  89 119 157 194 240 294 352
#     4  11  22  39  63  88 118 156 201 249 299 357
#     4  10  22  39  59  85 121 157 196 242 297 352
#     4  11  21  35  58  85 112 147 197 245 292 350
#     4  11  24  41  60  82 114 153 197 247 302 353
#     4   9  19  37  60  84 117 154 192 236 295 351
#     4  12  26  43  62  86 120 159 203 251 304 358
#
# _framework density 19.306815
#
# number of rings (size 3 to 8) (size 9 to 14) (size 15 to 20)
#    0.000    1.571    1.429    4.714    2.000    4.571 
#    0.000    0.714    0.000    4.286    0.000    0.000 
#    0.000    0.000    0.000    0.000    0.000    0.000 
#
# Total GULP energy -346988.106618 kJ/mol
# GULP energy per Si atom -12392.432379 kJ/mol
# Density = 1.926287 g / cm^3
# Si number density = 19.306815 Si / 1000 Ang^3
#
#
#
# Elastic Constant Matrix: (Units=GPa)
#
#
# Indices 1 2 3 4 5 6 
#
# 1 134.6658 31.0086 63.2779 0.0000 -7.4308 -0.0001
# 2 31.0086 69.9788 27.7951 -0.0002 -1.1435 -0.0001
# 3 63.2779 27.7951 118.3514 0.0000 -15.6650 0.0000
# 4 0.0000 -0.0002 0.0000 31.4235 0.0000 -2.0561
# 5 -7.4308 -1.1435 -15.6650 0.0000 25.0585 0.0000
# 6 -0.0001 -0.0001 0.0000 -2.0561 0.0000 37.0337
#
#
#
# Elastic Compliance Matrix: (Units=1/GPa)
#
#
# Indices 1 2 3 4 5 6 
#
# 1 0.010339 -0.002626 -0.004929 0.000000 -0.000135 0.000000
# 2 -0.002626 0.016497 -0.002697 0.000000 -0.001712 0.000000
# 3 -0.004929 -0.002697 0.012547 0.000000 0.006259 0.000000
# 4 0.000000 0.000000 0.000000 0.031939 0.000000 0.001773
# 5 -0.000135 -0.001712 0.006259 0.000000 0.043701 0.000000
# 6 0.000000 0.000000 0.000000 0.001773 0.000000 0.027101
#
#
# Mechanical properties :
#
#
# Convention : Reuss Voigt Hill
#
# Bulk Modulus (GPa) = 52.96978 63.01770 57.99374
# Shear Modulus (GPa) = 29.59975 32.09743 30.84859
#
# Velocity S-wave (km/s) = 3.91976 4.08179 4.00160
# Velocity P-wave (km/s) = 6.92686 7.41119 7.17311
#
# Compressibility (1/GPa) = 0.01887869
#
# Stress axis : x y z
#
# Youngs Moduli (GPa) = 96.72019 60.61772 79.70277
#
# Poissons Ratio (x) = 0.15917 0.39287
# Poissons Ratio (y) = 0.25397 0.21496
# Poissons Ratio (z) = 0.47675 0.16349
#
# Static dielectric constant tensor:
#      x y z
#    x 3.694100 0.000000 -0.091310 
#    y 0.000000 3.512110 0.000000 
#    z -0.091310 0.000000 3.610950 
# 
# 
# High freq. dielectric constant tensor:
#      x y z
#    x 1.754460 0.000000 -0.014760 
#    y 0.000000 1.756670 0.000000 
#    z -0.014760 0.000000 1.739170 
# 
# From -- ./inp_files/313687.got.cif
#   From: 2010.06.25/outbox.cif.g09.slc.cpg/sg12_157_cif.got.tgz:313687.got - 2010.06.28 00:19:55.
