data_PCOD8111463
_publ_section_title
;
Structure prediction by ZEFSAII (Michael W. Deem and Ramdas Pophale) SiO2 
 PCOD8111463
Probable space group: C 2/M
;
_chemical_formula_sum "Si O2"
_cell_formula_units_Z 40
_cell_length_a 9.345701
_cell_length_b 17.899321
_cell_length_c 12.286064
_cell_angle_alpha 90.000000
_cell_angle_beta 103.509473
_cell_angle_gamma 90.000000
_cell_volume 1998.368076
_symmetry_space_group_name_H-M "C 2/M"
_symmetry_group_IT_number 12
_symmetry_cell_setting 'monoclinic'
loop_
_space_group_symop_operation_xyz
x,y,z
-x,y,-z
-x,-y,-z
x,-y,z
1/2+x,1/2+y,z
1/2-x,1/2+y,-z
1/2-x,1/2-y,-z
1/2+x,1/2-y,z
loop_
_atom_site_type_symbol
_atom_site_label
_atom_site_fract_x
_atom_site_fract_y
_atom_site_fract_z
Si Si1 0.929620 0.584386 0.234243
Si Si2 0.513535 0.298985 0.700052
Si Si3 0.892252 0.714939 0.077139
Si Si4 0.809618 0.667245 0.628897
Si Si5 0.714896 0.585568 0.394504
O O1 0.922307 0.500000 0.188571
O O2 0.851184 0.638766 0.133710
O O3 0.849309 0.592265 0.335406
O O4 0.099249 0.608457 0.281322
O O5 0.531656 0.274371 0.828507
O O6 0.671437 0.303117 0.672116
O O7 0.412692 0.238243 0.619047
O O8 0.433065 0.378926 0.682326
O O9 0.750000 0.750000 0.000000
O O10 0.000000 0.692551 0.000000
O O11 0.758184 0.628187 0.510733
O O12 0.678868 0.500000 0.415898
#
# Coordination Sequence:
#
# PCOD8111463 Si02
#       5
#     8   8   8   8   8
#     4  10  22  40  61  88 119 153 196 241 289 348
#     4  11  23  39  60  88 118 152 200 245 285 346
#     4  11  22  40  62  83 111 151 199 250 297 337
#     4  11  22  38  61  88 121 157 192 233 286 352
#     4  11  23  39  59  87 125 159 187 230 291 353
#
# _framework density 20.016332999999999
#
# number of rings (size 3 to 8) (size 9 to 14) (size 15 to 20)
#    0.000    1.200    0.000    8.400    0.000    7.600 
#    0.000    1.000    0.000    3.600    0.000    0.000 
#    0.000    0.000    0.000    0.000    0.000    0.000 
#
# Total GULP energy -248083.587922 kJ/mol
# GULP energy per Si atom -12404.179396 kJ/mol
# Density = 1.997078 g / cm^3
# Si number density = 20.016333 Si / 1000 Ang^3
#
#
#
# Elastic Constant Matrix: (Units=GPa)
#
#
# Indices 1 2 3 4 5 6 
#
# 1 97.5069 44.4371 21.1046 0.0000 3.3725 0.0000
# 2 44.4371 124.6553 63.2915 0.0000 13.6030 0.0000
# 3 21.1046 63.2915 107.7409 0.0000 3.9155 0.0000
# 4 0.0000 0.0000 0.0000 28.7976 0.0000 -3.4286
# 5 3.3725 13.6030 3.9155 0.0000 34.3712 0.0000
# 6 0.0000 0.0000 0.0000 -3.4286 0.0000 30.7100
#
#
#
# Elastic Compliance Matrix: (Units=1/GPa)
#
#
# Indices 1 2 3 4 5 6 
#
# 1 0.012260 -0.004565 0.000259 0.000000 0.000574 0.000000
# 2 -0.004565 0.013641 -0.006968 0.000000 -0.004157 0.000000
# 3 0.000259 -0.006968 0.013280 0.000000 0.001219 0.000000
# 4 0.000000 0.000000 0.000000 0.035193 0.000000 0.003929
# 5 0.000574 -0.004157 0.001219 0.000000 0.030544 0.000000
# 6 0.000000 0.000000 0.000000 0.003929 0.000000 0.033001
#
#
# Mechanical properties :
#
#
# Convention : Reuss Voigt Hill
#
# Bulk Modulus (GPa) = 60.11972 65.28551 62.70262
# Shear Modulus (GPa) = 30.11859 32.18042 31.14951
#
# Velocity S-wave (km/s) = 3.88326 4.01397 3.94916
# Velocity P-wave (km/s) = 7.08567 7.36000 7.22414
#
# Compressibility (1/GPa) = 0.01663348
#
# Stress axis : x y z
#
# Youngs Moduli (GPa) = 81.56604 73.30947 75.30267
#
# Poissons Ratio (x) = 0.33463 -0.01951
# Poissons Ratio (y) = 0.37232 0.52471
# Poissons Ratio (z) = -0.02113 0.51082
#
# Static dielectric constant tensor:
#      x y z
#    x 3.813680 0.000000 0.071920 
#    y 0.000000 3.881120 0.000000 
#    z 0.071920 0.000000 3.631670 
# 
# 
# High freq. dielectric constant tensor:
#      x y z
#    x 1.788520 0.000000 0.000720 
#    y 0.000000 1.788340 0.000000 
#    z 0.000720 0.000000 1.778940 
# 
# From -- ./inp_files/118890.got.cif
#   From: 2010.06.25/outbox.cif.g09.slc.cpg/sg12_60_cif.got.tgz:118890.got - 2010.06.28 00:19:55.
