data_PCOD8111427
_publ_section_title
;
Structure prediction by ZEFSAII (Michael W. Deem and Ramdas Pophale) SiO2 
 PCOD8111427
Probable space group: C 2/M
;
_chemical_formula_sum "Si O2"
_cell_formula_units_Z 56
_cell_length_a 20.191541
_cell_length_b 32.732635
_cell_length_c 8.789262
_cell_angle_alpha 90.000000
_cell_angle_beta 150.635914
_cell_angle_gamma 90.000000
_cell_volume 2848.496718
_symmetry_space_group_name_H-M "C 2/M"
_symmetry_group_IT_number 12
_symmetry_cell_setting 'monoclinic'
loop_
_space_group_symop_operation_xyz
x,y,z
-x,y,-z
-x,-y,-z
x,-y,z
1/2+x,1/2+y,z
1/2-x,1/2+y,-z
1/2-x,1/2-y,-z
1/2+x,1/2-y,z
loop_
_atom_site_type_symbol
_atom_site_label
_atom_site_fract_x
_atom_site_fract_y
_atom_site_fract_z
Si Si1 0.912896 0.000000 0.480259
Si Si2 0.002182 0.081973 0.184749
Si Si3 0.995285 0.368383 0.819923
Si Si4 0.252979 0.726771 0.162282
Si Si5 0.730382 0.913522 0.811927
Si Si6 0.340775 0.000000 0.214801
Si Si7 0.223647 0.866753 0.783374
Si Si8 0.475970 0.224752 0.782252
O O1 0.946239 0.960526 0.644984
O O2 0.000000 0.000000 0.500000
O O3 0.751851 0.000000 0.123009
O O4 0.098220 0.118440 0.431990
O O5 0.000000 0.079405 0.000000
O O6 0.853011 0.092761 0.942506
O O7 0.903003 0.394368 0.524631
O O8 0.934362 0.322766 0.700882
O O9 0.000000 0.386481 0.000000
O O10 0.144495 0.371262 0.054025
O O11 0.298521 0.680526 0.219979
O O12 0.355547 0.747957 0.481002
O O13 0.250000 0.750000 0.000000
O O14 0.105610 0.730166 0.937599
O O15 0.699822 0.961138 0.767360
O O16 0.766029 0.893392 0.044106
O O17 0.500000 0.000000 0.500000
O O18 0.500000 0.240751 0.000000
#
# Coordination Sequence:
#
# PCOD8111427 Si02
#       8
#     4   8   8   8   8   4   8   8
#     4  12  21  46  67  89 131 164 205 251 306 369
#     4  12  25  41  64  94 125 165 208 257 308 362
#     4  10  22  41  62  89 124 160 201 255 310 368
#     4  11  23  38  61  91 121 156 211 260 305 366
#     4  12  23  41  65  90 123 162 209 250 304 369
#     4  12  24  40  67  97 120 161 205 244 299 361
#     4  11  23  40  62  90 122 164 205 257 310 366
#     4  10  22  40  61  85 122 165 199 247 318 373
#
# _framework density 19.659493999999999
#
# number of rings (size 3 to 8) (size 9 to 14) (size 15 to 20)
#    0.000    0.857    2.857    4.500    0.000    6.286 
#    0.000    0.357    0.000    0.000    0.000    0.000 
#    0.000    0.000    0.000    0.000    0.000    0.000 
#
# Total GULP energy -347348.291907 kJ/mol
# GULP energy per Si atom -12405.296140 kJ/mol
# Density = 1.961475 g / cm^3
# Si number density = 19.659494 Si / 1000 Ang^3
#
#
#
# Elastic Constant Matrix: (Units=GPa)
#
#
# Indices 1 2 3 4 5 6 
#
# 1 71.4139 -11.2285 -19.5648 0.0000 -34.4298 0.0000
# 2 -11.2285 59.7640 -7.2789 0.0000 -24.7932 0.0000
# 3 -19.5648 -7.2789 46.2250 0.0000 -29.9621 0.0000
# 4 0.0000 0.0000 0.0000 26.8402 0.0000 -9.5031
# 5 -34.4298 -24.7932 -29.9621 0.0000 37.9669 0.0000
# 6 0.0000 0.0000 0.0000 -9.5031 0.0000 9.4462
#
#
#
# Elastic Compliance Matrix: (Units=1/GPa)
#
#
# Indices 1 2 3 4 5 6 
#
# 1 -0.001351 -0.010346 -0.015096 0.000000 -0.019894 0.000000
# 2 -0.010346 0.006552 -0.013623 0.000000 -0.015854 0.000000
# 3 -0.015096 -0.013623 -0.003155 0.000000 -0.025076 0.000000
# 4 0.000000 0.000000 0.000000 0.057871 0.000000 0.058219
# 5 -0.019894 -0.015854 -0.025076 0.000000 -0.021845 0.000000
# 6 0.000000 0.000000 0.000000 0.058219 0.000000 0.164433
#
#
# Mechanical properties :
#
#
# Convention : Reuss Voigt Hill
#
# Bulk Modulus (GPa) = -13.14329 11.25093 -0.94618
# Shear Modulus (GPa) = 19.58683 29.21566 24.40124
#
# Velocity S-wave (km/s) = 3.15985 3.85916 3.52688
# Velocity P-wave (km/s) = 2.57156 5.05893 4.01284
#
# Compressibility (1/GPa) = -0.07608447
#
# Stress axis : x y z
#
# Youngs Moduli (GPa) = -740.18604 152.61844 -316.93535
#
# Poissons Ratio (x) = 1.57895 -4.78449
# Poissons Ratio (y) = -7.65775 -4.31776
# Poissons Ratio (z) = -11.17392 2.07919
#
# Static dielectric constant tensor:
#      x y z
#    x 3.682470 0.000000 0.020220 
#    y 0.000000 3.798320 0.000000 
#    z 0.020220 0.000000 3.775530 
# 
# 
# High freq. dielectric constant tensor:
#      x y z
#    x 1.776200 0.000000 0.001150 
#    y 0.000000 1.777850 0.000000 
#    z 0.001150 0.000000 1.781240 
# 
# From -- ./inp_files/91668.got.cif
#   From: 2010.06.25/outbox.cif.g09.slc.cpg/sg12_46_cif.got.tgz:91668.got - 2010.06.28 00:19:55.
