data_PCOD8111890
_publ_section_title
;
Structure prediction by ZEFSAII (Michael W. Deem and Ramdas Pophale) SiO2 
 PCOD8111890
Probable space group: C 2/M
;
_chemical_formula_sum "Si O2"
_cell_formula_units_Z 64
_cell_length_a 9.922723
_cell_length_b 14.113606
_cell_length_c 23.951301
_cell_angle_alpha 90.000000
_cell_angle_beta 93.380101
_cell_angle_gamma 90.000000
_cell_volume 3348.434393
_symmetry_space_group_name_H-M "C 2/M"
_symmetry_group_IT_number 12
_symmetry_cell_setting 'monoclinic'
loop_
_space_group_symop_operation_xyz
x,y,z
-x,y,-z
-x,-y,-z
x,-y,z
1/2+x,1/2+y,z
1/2-x,1/2+y,-z
1/2-x,1/2-y,-z
1/2+x,1/2-y,z
loop_
_atom_site_type_symbol
_atom_site_label
_atom_site_fract_x
_atom_site_fract_y
_atom_site_fract_z
Si Si1 0.083697 0.754387 0.778095
Si Si2 0.702075 0.390793 0.868463
Si Si3 0.175476 0.767166 0.295610
Si Si4 0.519700 0.889541 0.872515
Si Si5 0.617881 0.743817 0.960718
Si Si6 0.280220 0.890197 0.391360
Si Si7 0.145226 0.387695 0.490826
Si Si8 0.908210 0.609059 0.629307
O O1 0.941962 0.793108 0.750957
O O2 0.063001 0.663028 0.816930
O O3 0.153232 0.841981 0.810693
O O4 0.180112 0.723304 0.730164
O O5 0.660719 0.500000 0.865364
O O6 0.861351 0.376595 0.878847
O O7 0.625436 0.343299 0.918217
O O8 0.175188 0.836609 0.348876
O O9 0.147214 0.662072 0.317741
O O10 0.595389 0.842520 0.927099
O O11 0.560672 0.000000 0.869390
O O12 0.500000 0.719896 0.000000
O O13 0.750000 0.750000 0.000000
O O14 0.255193 0.856050 0.455846
O O15 0.434882 0.868756 0.378309
O O16 0.246495 0.000000 0.383850
O O17 0.131002 0.500000 0.494827
O O18 0.182920 0.361284 0.427670
O O19 0.000000 0.341900 0.500000
O O20 0.887403 0.500000 0.643151
#
# Coordination Sequence:
#
# PCOD8111890 Si02
#       8
#     8   8   8   8   8   8   8   8
#     4  11  24  40  57  84 117 150 192 252 290 323
#     4  10  22  41  64  88 118 161 201 232 281 338
#     4  12  22  36  57  84 113 145 191 243 295 343
#     4  10  22  41  66  88 114 163 206 228 275 345
#     4  11  22  39  63  98 133 153 183 240 283 322
#     4   9  18  33  54  80 110 145 186 234 289 350
#     4   7  12  27  50  76 106 139 181 231 280 344
#     4   9  18  33  55  80 107 146 190 230 285 358
#
# _framework density 19.113409999999998
#
# number of rings (size 3 to 8) (size 9 to 14) (size 15 to 20)
#    0.000    2.125    3.750    1.500    0.000    3.500 
#    0.000    1.250    0.000    0.000    0.000    2.625 
#    0.000    0.000    0.000    0.000    0.000    0.000 
#
# Total GULP energy -396638.756885 kJ/mol
# GULP energy per Si atom -12394.961153 kJ/mol
# Density = 1.906991 g / cm^3
# Si number density = 19.113410 Si / 1000 Ang^3
#
#
#
# Elastic Constant Matrix: (Units=GPa)
#
#
# Indices 1 2 3 4 5 6 
#
# 1 68.4162 30.4387 32.9491 0.0000 9.7737 0.0000
# 2 30.4387 101.0072 44.1081 0.0000 15.8568 0.0000
# 3 32.9491 44.1081 107.4599 0.0000 21.3898 0.0000
# 4 0.0000 0.0000 0.0000 25.9119 0.0000 3.6759
# 5 9.7737 15.8568 21.3898 0.0000 35.6243 0.0000
# 6 0.0000 0.0000 0.0000 3.6759 0.0000 19.3036
#
#
#
# Elastic Compliance Matrix: (Units=1/GPa)
#
#
# Indices 1 2 3 4 5 6 
#
# 1 0.018261 -0.003636 -0.003898 0.000000 -0.001051 0.000000
# 2 -0.003636 0.013023 -0.003720 0.000000 -0.002566 0.000000
# 3 -0.003898 -0.003720 0.013044 0.000000 -0.005107 0.000000
# 4 0.000000 0.000000 0.000000 0.039664 0.000000 -0.007553
# 5 -0.001051 -0.002566 -0.005107 0.000000 0.032568 0.000000
# 6 0.000000 0.000000 0.000000 -0.007553 0.000000 0.053242
#
#
# Mechanical properties :
#
#
# Convention : Reuss Voigt Hill
#
# Bulk Modulus (GPa) = 45.82563 54.65282 50.23923
# Shear Modulus (GPa) = 25.05218 27.46044 26.25631
#
# Velocity S-wave (km/s) = 3.62430 3.79451 3.71038
# Velocity P-wave (km/s) = 6.44529 6.91764 6.68564
#
# Compressibility (1/GPa) = 0.02182185
#
# Stress axis : x y z
#
# Youngs Moduli (GPa) = 54.76042 76.78579 76.66189
#
# Poissons Ratio (x) = 0.27920 0.29879
# Poissons Ratio (y) = 0.19911 0.28518
# Poissons Ratio (z) = 0.21343 0.28564
#
# Static dielectric constant tensor:
#      x y z
#    x 3.262840 0.000000 0.123580 
#    y 0.000000 3.334380 0.000000 
#    z 0.123580 0.000000 3.846710 
# 
# 
# High freq. dielectric constant tensor:
#      x y z
#    x 1.720210 0.000000 0.010130 
#    y 0.000000 1.731000 0.000000 
#    z 0.010130 0.000000 1.766640 
# 
# From -- ./inp_files/332917.got.cif
#   From: 2010.06.25/outbox.cif.g09.slc.cpg/sg12_167_cif.got.tgz:332917.got - 2010.06.28 00:19:55.
