data_PCOD8111233
_publ_section_title
;
Structure prediction by ZEFSAII (Michael W. Deem and Ramdas Pophale) SiO2 
 PCOD8111233
Probable space group: C 2/M
;
_chemical_formula_sum "Si O2"
_cell_formula_units_Z 64
_cell_length_a 30.546491
_cell_length_b 17.479972
_cell_length_c 5.326890
_cell_angle_alpha 90.000000
_cell_angle_beta 91.631145
_cell_angle_gamma 90.000000
_cell_volume 2843.150002
_symmetry_space_group_name_H-M "C 2/M"
_symmetry_group_IT_number 12
_symmetry_cell_setting 'monoclinic'
loop_
_space_group_symop_operation_xyz
x,y,z
-x,y,-z
-x,-y,-z
x,-y,z
1/2+x,1/2+y,z
1/2-x,1/2+y,-z
1/2-x,1/2-y,-z
1/2+x,1/2-y,z
loop_
_atom_site_type_symbol
_atom_site_label
_atom_site_fract_x
_atom_site_fract_y
_atom_site_fract_z
Si Si1 0.458530 0.710768 0.165175
Si Si2 0.879370 0.814410 0.834150
Si Si3 0.752216 0.698870 0.747432
Si Si4 0.174653 0.088422 0.834953
Si Si5 0.121765 0.414828 0.840272
Si Si6 0.847222 0.338156 0.657681
Si Si7 0.582615 0.585624 0.538715
Si Si8 0.525481 0.123188 0.742049
O O1 0.454214 0.634212 0.326637
O O2 0.466918 0.787461 0.324939
O O3 0.500000 0.695274 0.000000
O O4 0.410669 0.728357 0.037457
O O5 0.861523 0.751052 0.637578
O O6 0.913032 0.877240 0.732457
O O7 0.837215 0.861089 0.923733
O O8 0.750000 0.750000 0.500000
O O9 0.715381 0.632797 0.719345
O O10 0.797757 0.653724 0.745967
O O11 0.750000 0.750000 0.000000
O O12 0.131580 0.089870 0.657077
O O13 0.187094 0.000000 0.902557
O O14 0.141474 0.500000 0.854000
O O15 0.147364 0.371129 0.621083
O O16 0.070890 0.420854 0.765115
O O17 0.125093 0.378417 0.118132
O O18 0.564884 0.500000 0.518354
O O19 0.500000 0.087357 0.500000
O O20 0.500000 0.112919 0.000000
#
# Coordination Sequence:
#
# PCOD8111233 Si02
#       8
#     8   8   8   8   8   8   8   8
#     4  10  23  37  61  94 127 173 224 286 331 415
#     4  11  21  40  68  93 129 176 229 277 340 408
#     4  12  25  45  72 105 138 182 234 285 339 414
#     4  10  23  42  65 100 134 174 226 288 342 398
#     4  12  27  47  69 103 143 183 228 286 358 423
#     4  12  25  44  73 101 139 186 232 284 350 418
#     4  10  22  39  62  92 133 177 224 278 348 405
#     4  11  24  42  70 101 131 177 236 289 343 411
#
# _framework density 22.510242000000002
#
# number of rings (size 3 to 8) (size 9 to 14) (size 15 to 20)
#    0.000    1.000    2.500    3.750    7.000    2.250 
#    0.000    0.625    0.000    0.000    0.000    0.000 
#    0.000    0.000    0.000    0.000    0.000    0.000 
#
# Total GULP energy -396638.140405 kJ/mol
# GULP energy per Si atom -12394.941888 kJ/mol
# Density = 2.245901 g / cm^3
# Si number density = 22.510242 Si / 1000 Ang^3
#
#
#
# Elastic Constant Matrix: (Units=GPa)
#
#
# Indices 1 2 3 4 5 6 
#
# 1 84.9404 15.1695 -0.4422 0.0000 -16.1403 0.0000
# 2 15.1695 119.7227 23.4109 0.0000 -16.0484 0.0000
# 3 -0.4422 23.4109 88.1670 0.0000 -5.9027 0.0000
# 4 0.0000 0.0000 0.0000 20.7213 0.0000 -4.7927
# 5 -16.1403 -16.0484 -5.9027 0.0000 33.6795 0.0000
# 6 0.0000 0.0000 0.0000 -4.7927 0.0000 31.0468
#
#
#
# Elastic Compliance Matrix: (Units=1/GPa)
#
#
# Indices 1 2 3 4 5 6 
#
# 1 0.013081 -0.001007 0.000729 0.000000 0.005917 0.000000
# 2 -0.001007 0.009405 -0.002261 0.000000 0.003603 0.000000
# 3 0.000729 -0.002261 0.012039 0.000000 0.001382 0.000000
# 4 0.000000 0.000000 0.000000 0.050046 0.000000 0.007726
# 5 0.005917 0.003603 0.001382 0.000000 0.034486 0.000000
# 6 0.000000 0.000000 0.000000 0.007726 0.000000 0.033402
#
#
# Mechanical properties :
#
#
# Convention : Reuss Voigt Hill
#
# Bulk Modulus (GPa) = 33.95944 41.01182 37.48563
# Shear Modulus (GPa) = 29.87694 34.06899 31.97297
#
# Velocity S-wave (km/s) = 3.64711 3.89458 3.77287
# Velocity P-wave (km/s) = 5.73186 6.20342 5.97229
#
# Compressibility (1/GPa) = 0.02944689
#
# Stress axis : x y z
#
# Youngs Moduli (GPa) = 76.44748 106.32275 83.06547
#
# Poissons Ratio (x) = 0.10705 -0.06056
# Poissons Ratio (y) = 0.07697 0.18783
# Poissons Ratio (z) = -0.05574 0.24042
#
# Static dielectric constant tensor:
#      x y z
#    x 4.152070 0.000000 -0.027850 
#    y 0.000000 4.145760 0.000000 
#    z -0.027850 0.000000 4.018040 
# 
# 
# High freq. dielectric constant tensor:
#      x y z
#    x 1.891800 0.000000 -0.005570 
#    y 0.000000 1.893340 0.000000 
#    z -0.005570 0.000000 1.883510 
# 
# From -- ./inp_files/32051.got.cif
#   From: 2010.06.25/outbox.cif.g09.slc.cpg/sg12_17_cif.got.tgz:32051.got - 2010.06.28 00:19:55.
