data_PCOD8111017
_publ_section_title
;
Structure prediction by ZEFSAII (Michael W. Deem and Ramdas Pophale) SiO2 
 PCOD8111017
Probable space group: C 2/M
;
_chemical_formula_sum "Si O2"
_cell_formula_units_Z 48
_cell_length_a 31.260323
_cell_length_b 13.950739
_cell_length_c 9.411014
_cell_angle_alpha 90.000000
_cell_angle_beta 145.115930
_cell_angle_gamma 90.000000
_cell_volume 2347.257448
_symmetry_space_group_name_H-M "C 2/M"
_symmetry_group_IT_number 12
_symmetry_cell_setting 'monoclinic'
loop_
_space_group_symop_operation_xyz
x,y,z
-x,y,-z
-x,-y,-z
x,-y,z
1/2+x,1/2+y,z
1/2-x,1/2+y,-z
1/2-x,1/2-y,-z
1/2+x,1/2-y,z
loop_
_atom_site_type_symbol
_atom_site_label
_atom_site_fract_x
_atom_site_fract_y
_atom_site_fract_z
Si Si1 0.772000 0.387955 0.468588
Si Si2 0.147220 0.111877 0.915815
Si Si3 0.322579 0.609245 0.537331
Si Si4 0.959343 0.893192 0.118149
Si Si5 0.580798 0.110425 0.283148
Si Si6 0.110222 0.213061 0.529785
O O1 0.754026 0.500000 0.436930
O O2 0.742717 0.344329 0.539518
O O3 0.859290 0.366367 0.679517
O O4 0.723432 0.354997 0.200584
O O5 0.077577 0.128757 0.830451
O O6 0.137305 0.185738 0.759731
O O7 0.150105 0.000000 0.873860
O O8 0.305076 0.500000 0.446519
O O9 0.328124 0.671482 0.410702
O O10 0.400256 0.618144 0.831934
O O11 0.027963 0.825187 0.273264
O O12 0.992429 0.000000 0.210244
O O13 0.601980 0.172630 0.480076
O O14 0.586086 0.000000 0.345068
O O15 0.500000 0.135959 0.000000
#
# Coordination Sequence:
#
# PCOD8111017 Si02
#       6
#     8   8   8   8   8   8
#     4   8  17  36  55  73 104 140 171 205 253 315
#     4   9  18  32  53  82 114 142 159 187 255 334
#     4   9  17  29  49  79 110 136 164 205 256 310
#     4   9  17  30  48  75 114 148 165 188 244 323
#     4  10  22  39  56  71  93 135 188 231 260 288
#     4  12  20  28  50  82 109 133 171 214 251 297
#
# _framework density 20.449397000000001
#
# number of rings (size 3 to 8) (size 9 to 14) (size 15 to 20)
#    0.000    2.500    0.000    5.500    0.000    4.000 
#    0.000    0.000    0.000    4.000    0.000    8.167 
#    0.000    0.000    0.000    0.000    0.000    0.000 
#
# Total GULP energy -297509.367390 kJ/mol
# GULP energy per Si atom -12396.223641 kJ/mol
# Density = 2.040285 g / cm^3
# Si number density = 20.449397 Si / 1000 Ang^3
#
#
#
# Elastic Constant Matrix: (Units=GPa)
#
#
# Indices 1 2 3 4 5 6 
#
# 1 104.2769 38.4653 32.1057 0.0000 3.6985 0.0000
# 2 38.4653 69.6132 14.1825 0.0000 -3.7252 0.0000
# 3 32.1057 14.1825 32.5678 0.0000 8.0802 0.0000
# 4 0.0000 0.0000 0.0000 13.0316 0.0000 -2.3649
# 5 3.6985 -3.7252 8.0802 0.0000 39.8234 0.0000
# 6 0.0000 0.0000 0.0000 -2.3649 0.0000 15.3784
#
#
#
# Elastic Compliance Matrix: (Units=1/GPa)
#
#
# Indices 1 2 3 4 5 6 
#
# 1 0.015843 -0.006043 -0.013143 0.000000 0.000630 0.000000
# 2 -0.006043 0.018421 -0.002771 0.000000 0.002847 0.000000
# 3 -0.013143 -0.002771 0.046996 0.000000 -0.008574 0.000000
# 4 0.000000 0.000000 0.000000 0.078940 0.000000 0.012139
# 5 0.000630 0.002847 -0.008574 0.000000 0.027058 0.000000
# 6 0.000000 0.000000 0.000000 0.012139 0.000000 0.066893
#
#
# Mechanical properties :
#
#
# Convention : Reuss Voigt Hill
#
# Bulk Modulus (GPa) = 26.77672 41.77388 34.27530
# Shear Modulus (GPa) = 16.10232 21.76030 18.93131
#
# Velocity S-wave (km/s) = 2.80915 3.26560 3.04594
# Velocity P-wave (km/s) = 4.86254 5.88992 5.40072
#
# Compressibility (1/GPa) = 0.03734588
#
# Stress axis : x y z
#
# Youngs Moduli (GPa) = 63.11840 54.28580 21.27842
#
# Poissons Ratio (x) = 0.32804 0.27967
# Poissons Ratio (y) = 0.38142 0.05896
# Poissons Ratio (z) = 0.82958 0.15043
#
# Static dielectric constant tensor:
#      x y z
#    x 3.887830 0.000000 0.125410 
#    y 0.000000 3.659030 0.000000 
#    z 0.125410 0.000000 3.383710 
# 
# 
# High freq. dielectric constant tensor:
#      x y z
#    x 1.809140 0.000000 0.013380 
#    y 0.000000 1.791830 0.000000 
#    z 0.013380 0.000000 1.771520 
# 
# From -- ./inp_files/111478.got.cif
#   From: 2010.06.25/outbox.cif.g09.slc.cpg/sg12_56_cif.got.tgz:111478.got - 2010.06.28 00:19:55.
