data_PCOD8111844
_publ_section_title
;
Structure prediction by ZEFSAII (Michael W. Deem and Ramdas Pophale) SiO2 
 PCOD8111844
Probable space group: C 2/M
;
_chemical_formula_sum "Si O2"
_cell_formula_units_Z 32
_cell_length_a 20.558556
_cell_length_b 8.764535
_cell_length_c 13.490304
_cell_angle_alpha 90.000000
_cell_angle_beta 139.008035
_cell_angle_gamma 90.000000
_cell_volume 1594.468956
_symmetry_space_group_name_H-M "C 2/M"
_symmetry_group_IT_number 12
_symmetry_cell_setting 'monoclinic'
loop_
_space_group_symop_operation_xyz
x,y,z
-x,y,-z
-x,-y,-z
x,-y,z
1/2+x,1/2+y,z
1/2-x,1/2+y,-z
1/2-x,1/2-y,-z
1/2+x,1/2-y,z
loop_
_atom_site_type_symbol
_atom_site_label
_atom_site_fract_x
_atom_site_fract_y
_atom_site_fract_z
Si Si1 0.389062 0.675296 0.901033
Si Si2 0.525713 0.178424 0.416963
Si Si3 0.353752 0.322399 0.090744
Si Si4 0.228612 0.821324 0.580985
O O1 0.367058 0.500000 0.847101
O O2 0.316209 0.783432 0.757165
O O3 0.500000 0.721574 0.000000
O O4 0.373222 0.704316 0.998067
O O5 0.500000 0.216767 0.500000
O O6 0.438793 0.237592 0.247896
O O7 0.626642 0.261551 0.507429
O O8 0.540027 0.000000 0.415686
O O9 0.353932 0.500000 0.118810
O O10 0.250000 0.250000 0.000000
O O11 0.250000 0.750000 0.500000
O O12 0.220249 0.000000 0.557290
#
# Coordination Sequence:
#
# PCOD8111844 Si02
#       4
#     8   8   8   8
#     4  10  22  41  63  88 120 158 202 252 304 357
#     4  11  24  42  64  91 125 163 205 255 308 362
#     4  11  23  39  62  91 124 162 203 251 305 362
#     4  12  25  41  64  92 124 162 205 253 305 365
#
# _framework density 20.069376999999999
#
# number of rings (size 3 to 8) (size 9 to 14) (size 15 to 20)
#    0.000    1.000    0.000    6.750    0.000   12.500 
#    0.000    0.000    0.000    0.000    0.000    0.000 
#    0.000    0.000    0.000    0.000    0.000    0.000 
#
# Total GULP energy -198515.117749 kJ/mol
# GULP energy per Si atom -12407.194859 kJ/mol
# Density = 2.002370 g / cm^3
# Si number density = 20.069377 Si / 1000 Ang^3
#
#
#
# Elastic Constant Matrix: (Units=GPa)
#
#
# Indices 1 2 3 4 5 6 
#
# 1 140.7803 89.9074 77.5762 0.0000 27.0304 0.0000
# 2 89.9074 132.0871 68.0092 0.0000 6.1530 0.0000
# 3 77.5762 68.0092 147.0476 0.0000 14.2533 0.0000
# 4 0.0000 0.0000 0.0000 43.0066 0.0000 -0.4556
# 5 27.0304 6.1530 14.2533 0.0000 36.1108 0.0000
# 6 0.0000 0.0000 0.0000 -0.4556 0.0000 31.3716
#
#
#
# Elastic Compliance Matrix: (Units=1/GPa)
#
#
# Indices 1 2 3 4 5 6 
#
# 1 0.016773 -0.009047 -0.003740 0.000000 -0.009538 0.000000
# 2 -0.009047 0.014817 -0.002591 0.000000 0.005270 0.000000
# 3 -0.003740 -0.002591 0.010042 0.000000 -0.000723 0.000000
# 4 0.000000 0.000000 0.000000 0.023256 0.000000 0.000338
# 5 -0.009538 0.005270 -0.000723 0.000000 0.034219 0.000000
# 6 0.000000 0.000000 0.000000 0.000338 0.000000 0.031881
#
#
# Mechanical properties :
#
#
# Convention : Reuss Voigt Hill
#
# Bulk Modulus (GPa) = 91.94279 98.98895 95.46587
# Shear Modulus (GPa) = 30.23523 34.39263 32.31393
#
# Velocity S-wave (km/s) = 3.88562 4.14416 4.01697
# Velocity P-wave (km/s) = 8.12666 8.50466 8.31781
#
# Compressibility (1/GPa) = 0.01087633
#
# Stress axis : x y z
#
# Youngs Moduli (GPa) = 59.61876 67.48872 99.58137
#
# Poissons Ratio (x) = 0.61057 0.37245
# Poissons Ratio (y) = 0.53937 0.25801
# Poissons Ratio (z) = 0.22298 0.17486
#
# Static dielectric constant tensor:
#      x y z
#    x 3.929660 0.000000 0.006870 
#    y 0.000000 3.867880 0.000000 
#    z 0.006870 0.000000 3.832530 
# 
# 
# High freq. dielectric constant tensor:
#      x y z
#    x 1.808330 0.000000 0.001780 
#    y 0.000000 1.795380 0.000000 
#    z 0.001780 0.000000 1.803020 
# 
# From -- ./inp_files/138646.got.cif
#   From: 2010.06.25/outbox.cif.g09.slc.cpg/sg12_70_cif.got.tgz:138646.got - 2010.06.28 00:19:55.
