data_PCOD8111211
_publ_section_title
;
Structure prediction by ZEFSAII (Michael W. Deem and Ramdas Pophale) SiO2 
 PCOD8111211
Probable space group: C 2/M
;
_chemical_formula_sum "Si O2"
_cell_formula_units_Z 48
_cell_length_a 24.043724
_cell_length_b 12.445526
_cell_length_c 8.957717
_cell_angle_alpha 90.000000
_cell_angle_beta 61.254061
_cell_angle_gamma 90.000000
_cell_volume 2350.138595
_symmetry_space_group_name_H-M "C 2/M"
_symmetry_group_IT_number 12
_symmetry_cell_setting 'monoclinic'
loop_
_space_group_symop_operation_xyz
x,y,z
-x,y,-z
-x,-y,-z
x,-y,z
1/2+x,1/2+y,z
1/2-x,1/2+y,-z
1/2-x,1/2-y,-z
1/2+x,1/2-y,z
loop_
_atom_site_type_symbol
_atom_site_label
_atom_site_fract_x
_atom_site_fract_y
_atom_site_fract_z
Si Si1 0.151713 0.121575 0.820202
Si Si2 0.453593 0.683897 0.444848
Si Si3 0.961280 0.734289 0.909919
Si Si4 0.908874 0.621884 0.691691
Si Si5 0.680500 0.379322 0.453119
Si Si6 0.770279 0.299344 0.820883
O O1 0.173748 0.163972 0.629950
O O2 0.214010 0.122521 0.842770
O O3 0.126245 0.000000 0.841668
O O4 0.096239 0.194171 0.956947
O O5 0.500000 0.622548 0.500000
O O6 0.486737 0.691250 0.240704
O O7 0.442062 0.804080 0.525093
O O8 0.389827 0.615928 0.525135
O O9 0.931277 0.649653 0.832136
O O10 0.000000 0.680990 0.000000
O O11 0.928422 0.500000 0.633071
O O12 0.833589 0.633143 0.766731
O O13 0.709658 0.500000 0.408135
O O14 0.723751 0.297119 0.306606
O O15 0.750000 0.250000 0.000000
#
# Coordination Sequence:
#
# PCOD8111211 Si02
#       6
#     8   8   8   8   8   8
#     4  11  23  40  63  91 123 162 198 240 304 366
#     4   9  20  37  58  86 122 158 195 245 296 349
#     4  11  21  38  62  89 124 157 197 249 292 354
#     4  10  22  41  63  86 117 163 204 246 303 353
#     4  10  22  39  62  89 121 159 199 245 300 362
#     4  11  22  42  63  90 122 155 200 260 298 352
#
# _framework density 20.424326000000001
#
# number of rings (size 3 to 8) (size 9 to 14) (size 15 to 20)
#    0.000    1.667    3.333    1.000    0.000    6.000 
#    0.000    0.000    0.000    0.000    0.000    0.000 
#    0.000    0.000    0.000    0.000    0.000    0.000 
#
# Total GULP energy -297511.078163 kJ/mol
# GULP energy per Si atom -12396.294923 kJ/mol
# Density = 2.037784 g / cm^3
# Si number density = 20.424326 Si / 1000 Ang^3
#
#
#
# Elastic Constant Matrix: (Units=GPa)
#
#
# Indices 1 2 3 4 5 6 
#
# 1 109.6561 8.8341 22.3956 0.0000 9.6536 0.0000
# 2 8.8341 75.7800 33.4734 0.0000 -1.5119 0.0000
# 3 22.3956 33.4734 123.9690 0.0000 6.4923 0.0000
# 4 0.0000 0.0000 0.0000 21.1499 0.0000 6.5577
# 5 9.6536 -1.5119 6.4923 0.0000 36.3203 0.0000
# 6 0.0000 0.0000 0.0000 6.5577 0.0000 13.1770
#
#
#
# Elastic Compliance Matrix: (Units=1/GPa)
#
#
# Indices 1 2 3 4 5 6 
#
# 1 0.009669 -0.000518 -0.001485 0.000000 -0.002326 0.000000
# 2 -0.000518 0.015078 -0.004056 0.000000 0.001490 0.000000
# 3 -0.001485 -0.004056 0.009507 0.000000 -0.001473 0.000000
# 4 0.000000 0.000000 0.000000 0.055909 0.000000 -0.027824
# 5 -0.002326 0.001490 -0.001473 0.000000 0.028476 0.000000
# 6 0.000000 0.000000 0.000000 -0.027824 0.000000 0.089737
#
#
# Mechanical properties :
#
#
# Convention : Reuss Voigt Hill
#
# Bulk Modulus (GPa) = 45.17327 48.75680 46.96504
# Shear Modulus (GPa) = 21.94218 30.44290 26.19254
#
# Velocity S-wave (km/s) = 3.28123 3.86492 3.58497
# Velocity P-wave (km/s) = 6.04324 6.62122 6.33882
#
# Compressibility (1/GPa) = 0.02213698
#
# Stress axis : x y z
#
# Youngs Moduli (GPa) = 103.42094 66.32331 105.18429
#
# Poissons Ratio (x) = 0.03433 0.15622
# Poissons Ratio (y) = 0.05353 0.42660
# Poissons Ratio (z) = 0.15360 0.26899
#
# Static dielectric constant tensor:
#      x y z
#    x 3.790370 0.000000 0.163930 
#    y 0.000000 3.322040 0.000000 
#    z 0.163930 0.000000 3.798920 
# 
# 
# High freq. dielectric constant tensor:
#      x y z
#    x 1.818990 0.000000 0.003510 
#    y 0.000000 1.770530 0.000000 
#    z 0.003510 0.000000 1.807610 
# 
# From -- ./inp_files/94492.got.cif
#   From: 2010.06.25/outbox.cif.g09.slc.cpg/sg12_48_cif.got.tgz:94492.got - 2010.06.28 00:19:55.
