data_PCOD8111482
_publ_section_title
;
Structure prediction by ZEFSAII (Michael W. Deem and Ramdas Pophale) SiO2 
 PCOD8111482
Probable space group: C 2/M
;
_chemical_formula_sum "Si O2"
_cell_formula_units_Z 56
_cell_length_a 29.133260
_cell_length_b 8.869628
_cell_length_c 11.027988
_cell_angle_alpha 90.000000
_cell_angle_beta 69.658934
_cell_angle_gamma 90.000000
_cell_volume 2671.941320
_symmetry_space_group_name_H-M "C 2/M"
_symmetry_group_IT_number 12
_symmetry_cell_setting 'monoclinic'
loop_
_space_group_symop_operation_xyz
x,y,z
-x,y,-z
-x,-y,-z
x,-y,z
1/2+x,1/2+y,z
1/2-x,1/2+y,-z
1/2-x,1/2-y,-z
1/2+x,1/2-y,z
loop_
_atom_site_type_symbol
_atom_site_label
_atom_site_fract_x
_atom_site_fract_y
_atom_site_fract_z
Si Si1 0.480225 0.321243 0.389143
Si Si2 0.869672 0.175969 0.475209
Si Si3 0.706145 0.824834 0.611077
Si Si4 0.531077 0.321286 0.091799
Si Si5 0.781010 0.826948 0.153040
Si Si6 0.368005 0.172581 0.951906
Si Si7 0.329226 0.167400 0.737113
O O1 0.500000 0.255533 0.500000
O O2 0.484100 0.500000 0.389057
O O3 0.424763 0.265019 0.432993
O O4 0.507074 0.264098 0.241142
O O5 0.845818 0.262548 0.385419
O O6 0.840510 0.209160 0.625518
O O7 0.867209 0.000000 0.450819
O O8 0.750000 0.750000 0.500000
O O9 0.710580 0.787622 0.746138
O O10 0.709135 0.000000 0.584241
O O11 0.538549 0.500000 0.087599
O O12 0.500000 0.275402 0.000000
O O13 0.583697 0.242099 0.031821
O O14 0.820568 0.775128 0.019227
O O15 0.725264 0.806473 0.157570
O O16 0.790966 0.000000 0.181447
O O17 0.361671 0.000000 0.003190
O O18 0.370448 0.178294 0.803464
O O19 0.331125 0.000000 0.675996
#
# Coordination Sequence:
#
# PCOD8111482 Si02
#       7
#     8   8   8   8   8   8   8
#     4   9  19  37  61  91 123 157 206 260 309 370
#     4  11  22  36  63  94 123 163 207 254 311 368
#     4  12  24  40  60  89 126 165 207 254 308 368
#     4  10  22  41  64  89 119 162 212 263 317 378
#     4  11  23  40  63  89 122 166 210 251 303 369
#     4  11  24  41  62  91 125 161 204 257 316 372
#     4  10  22  40  61  89 127 164 202 252 305 371
#
# _framework density 20.958544
#
# number of rings (size 3 to 8) (size 9 to 14) (size 15 to 20)
#    0.000    1.429    1.429    3.857    2.000    3.143 
#    0.000    1.429    0.000    3.857    0.000    0.000 
#    0.000    0.000    0.000    0.000    0.000    0.000 
#
# Total GULP energy -347145.478608 kJ/mol
# GULP energy per Si atom -12398.052807 kJ/mol
# Density = 2.091084 g / cm^3
# Si number density = 20.958544 Si / 1000 Ang^3
#
#
#
# Elastic Constant Matrix: (Units=GPa)
#
#
# Indices 1 2 3 4 5 6 
#
# 1 142.2307 46.8534 34.3622 0.0000 9.8541 0.0000
# 2 46.8534 88.4596 15.5612 0.0000 0.5054 0.0000
# 3 34.3622 15.5612 84.8557 0.0000 4.9350 0.0000
# 4 0.0000 0.0000 0.0000 25.0407 0.0000 -0.6038
# 5 9.8541 0.5054 4.9350 0.0000 39.4264 0.0000
# 6 0.0000 0.0000 0.0000 -0.6038 0.0000 31.0525
#
#
#
# Elastic Compliance Matrix: (Units=1/GPa)
#
#
# Indices 1 2 3 4 5 6 
#
# 1 0.009306 -0.004417 -0.002847 0.000000 -0.001913 0.000000
# 2 -0.004417 0.013779 -0.000798 0.000000 0.001027 0.000000
# 3 -0.002847 -0.000798 0.013138 0.000000 -0.000923 0.000000
# 4 0.000000 0.000000 0.000000 0.039954 0.000000 0.000777
# 5 -0.001913 0.001027 -0.000923 0.000000 0.025944 0.000000
# 6 0.000000 0.000000 0.000000 0.000777 0.000000 0.032219
#
#
# Mechanical properties :
#
#
# Convention : Reuss Voigt Hill
#
# Bulk Modulus (GPa) = 49.75617 56.56662 53.16139
# Shear Modulus (GPa) = 31.81395 33.68851 32.75123
#
# Velocity S-wave (km/s) = 3.90031 4.01357 3.95735
# Velocity P-wave (km/s) = 6.63890 6.96611 6.80448
#
# Compressibility (1/GPa) = 0.02009801
#
# Stress axis : x y z
#
# Youngs Moduli (GPa) = 107.45237 72.57527 76.11706
#
# Poissons Ratio (x) = 0.32060 0.21673
# Poissons Ratio (y) = 0.47466 0.06072
# Poissons Ratio (z) = 0.30595 0.05789
#
# Static dielectric constant tensor:
#      x y z
#    x 4.069270 0.000000 0.262550 
#    y 0.000000 3.612840 0.000000 
#    z 0.262550 0.000000 4.166190 
# 
# 
# High freq. dielectric constant tensor:
#      x y z
#    x 1.835110 0.000000 0.005920 
#    y 0.000000 1.808050 0.000000 
#    z 0.005920 0.000000 1.818020 
# 
# From -- ./inp_files/180630.got.cif
#   From: 2010.06.25/outbox.cif.g09.slc.cpg/sg12_91_cif.got.tgz:180630.got - 2010.06.28 00:19:55.
