data_PCOD8111450
_publ_section_title
;
Structure prediction by ZEFSAII (Michael W. Deem and Ramdas Pophale) SiO2 
 PCOD8111450
Probable space group: C 2/M
;
_chemical_formula_sum "Si O2"
_cell_formula_units_Z 40
_cell_length_a 10.247262
_cell_length_b 8.640167
_cell_length_c 22.244228
_cell_angle_alpha 90.000000
_cell_angle_beta 96.587830
_cell_angle_gamma 90.000000
_cell_volume 1956.456641
_symmetry_space_group_name_H-M "C 2/M"
_symmetry_group_IT_number 12
_symmetry_cell_setting 'monoclinic'
loop_
_space_group_symop_operation_xyz
x,y,z
-x,y,-z
-x,-y,-z
x,-y,z
1/2+x,1/2+y,z
1/2-x,1/2+y,-z
1/2-x,1/2-y,-z
1/2+x,1/2-y,z
loop_
_atom_site_type_symbol
_atom_site_label
_atom_site_fract_x
_atom_site_fract_y
_atom_site_fract_z
Si Si1 0.205784 0.820647 0.361998
Si Si2 0.542119 0.679866 0.568899
Si Si3 0.618841 0.681557 0.966835
Si Si4 0.304583 0.820488 0.767152
Si Si5 0.915398 0.320645 0.163828
O O1 0.333144 0.783420 0.408161
O O2 0.076386 0.780262 0.392730
O O3 0.205680 0.713999 0.303553
O O4 0.208176 0.000000 0.343311
O O5 0.500000 0.727277 0.500000
O O6 0.581207 0.500000 0.574481
O O7 0.626296 0.500000 0.974599
O O8 0.599881 0.721333 0.896619
O O9 0.500000 0.750682 0.000000
O O10 0.750000 0.750000 0.000000
O O11 0.201123 0.716414 0.796842
O O12 0.448759 0.775335 0.797463
O O13 0.272736 0.000000 0.776814
O O14 0.910299 0.500000 0.146091
#
# Coordination Sequence:
#
# PCOD8111450 Si02
#       5
#     8   8   8   8   8
#     4  11  23  38  60  89 119 155 199 245 294 351
#     4  10  22  40  61  87 120 157 197 243 296 353
#     4  11  24  41  63  91 123 160 200 244 295 351
#     4  11  24  41  62  88 120 158 198 244 298 354
#     4  11  24  41  63  91 121 156 200 247 296 352
#
# _framework density 20.445125000000001
#
# number of rings (size 3 to 8) (size 9 to 14) (size 15 to 20)
#    0.000    1.200    0.000    5.400    0.000   13.200 
#    0.000    0.000    0.000    0.000    0.000    0.000 
#    0.000    0.000    0.000    0.000    0.000    0.000 
#
# Total GULP energy -248159.117467 kJ/mol
# GULP energy per Si atom -12407.955873 kJ/mol
# Density = 2.039859 g / cm^3
# Si number density = 20.445125 Si / 1000 Ang^3
#
#
#
# Elastic Constant Matrix: (Units=GPa)
#
#
# Indices 1 2 3 4 5 6 
#
# 1 103.2239 30.8792 13.1287 0.0000 10.9447 0.0000
# 2 30.8792 48.5085 9.7414 0.0000 5.3056 0.0000
# 3 13.1287 9.7414 103.4944 0.0000 5.1379 0.0000
# 4 0.0000 0.0000 0.0000 37.0843 0.0000 -4.8351
# 5 10.9447 5.3056 5.1379 0.0000 43.2044 0.0000
# 6 0.0000 0.0000 0.0000 -4.8351 0.0000 4.0113
#
#
#
# Elastic Compliance Matrix: (Units=1/GPa)
#
#
# Indices 1 2 3 4 5 6 
#
# 1 0.012219 -0.007398 -0.000749 0.000000 -0.002098 0.000000
# 2 -0.007398 0.025733 -0.001428 0.000000 -0.001116 0.000000
# 3 -0.000749 -0.001428 0.009932 0.000000 -0.000816 0.000000
# 4 0.000000 0.000000 0.000000 0.031994 0.000000 0.038565
# 5 -0.002098 -0.001116 -0.000816 0.000000 0.023911 0.000000
# 6 0.000000 0.000000 0.000000 0.038565 0.000000 0.295782
#
#
# Mechanical properties :
#
#
# Convention : Reuss Voigt Hill
#
# Bulk Modulus (GPa) = 34.80371 40.30280 37.55325
# Shear Modulus (GPa) = 11.67407 30.29185 20.98296
#
# Velocity S-wave (km/s) = 2.39214 3.85335 3.20708
# Velocity P-wave (km/s) = 4.96888 6.28914 5.66758
#
# Compressibility (1/GPa) = 0.02873257
#
# Stress axis : x y z
#
# Youngs Moduli (GPa) = 81.84301 38.86022 100.68092
#
# Poissons Ratio (x) = 0.28749 0.07546
# Poissons Ratio (y) = 0.60548 0.14380
# Poissons Ratio (z) = 0.06134 0.05550
#
# Static dielectric constant tensor:
#      x y z
#    x 3.973030 0.000000 -0.036850 
#    y 0.000000 3.590010 0.000000 
#    z -0.036850 0.000000 3.704940 
# 
# 
# High freq. dielectric constant tensor:
#      x y z
#    x 1.818360 0.000000 0.000200 
#    y 0.000000 1.803990 0.000000 
#    z 0.000200 0.000000 1.815720 
# 
# From -- ./inp_files/261023.got.cif
#   From: 2010.06.25/outbox.cif.g09.slc.cpg/sg12_131_cif.got.tgz:261023.got - 2010.06.28 00:19:55.
