data_PCOD8111421
_publ_section_title
;
Structure prediction by ZEFSAII (Michael W. Deem and Ramdas Pophale) SiO2 
 PCOD8111421
Probable space group: C 2/M
;
_chemical_formula_sum "Si O2"
_cell_formula_units_Z 64
_cell_length_a 17.889528
_cell_length_b 24.744174
_cell_length_c 15.694811
_cell_angle_alpha 90.000000
_cell_angle_beta 152.956634
_cell_angle_gamma 90.000000
_cell_volume 3158.778855
_symmetry_space_group_name_H-M "C 2/M"
_symmetry_group_IT_number 12
_symmetry_cell_setting 'monoclinic'
loop_
_space_group_symop_operation_xyz
x,y,z
-x,y,-z
-x,-y,-z
x,-y,z
1/2+x,1/2+y,z
1/2-x,1/2+y,-z
1/2-x,1/2-y,-z
1/2+x,1/2-y,z
loop_
_atom_site_type_symbol
_atom_site_label
_atom_site_fract_x
_atom_site_fract_y
_atom_site_fract_z
Si Si1 0.549341 0.938457 0.764509
Si Si2 0.877409 0.641076 0.306526
Si Si3 0.584505 0.327883 0.676233
Si Si4 0.301293 0.740820 0.956696
Si Si5 0.683571 0.557057 0.213547
Si Si6 0.699863 0.587110 0.422945
Si Si7 0.122125 0.061506 0.797286
Si Si8 0.388786 0.706130 0.645798
O O1 0.529763 0.899358 0.663398
O O2 0.378866 0.929742 0.645388
O O3 0.565204 0.000000 0.750159
O O4 0.715446 0.923091 0.983841
O O5 0.794337 0.689001 0.172663
O O6 0.746556 0.607589 0.225995
O O7 0.000000 0.666781 0.500000
O O8 0.500000 0.317571 0.500000
O O9 0.756838 0.293957 0.854770
O O10 0.614352 0.392462 0.716325
O O11 0.474754 0.303293 0.641350
O O12 0.250000 0.750000 0.000000
O O13 0.493851 0.726681 0.157774
O O14 0.773873 0.500000 0.281592
O O15 0.693745 0.561843 0.324573
O O16 0.500000 0.551141 0.000000
O O17 0.545667 0.564082 0.319211
O O18 0.694272 0.651215 0.409008
O O19 0.138840 0.000000 0.777208
O O20 0.250000 0.750000 0.500000
#
# Coordination Sequence:
#
# PCOD8111421 Si02
#       8
#     8   8   8   8   8   8   8   8
#     4  11  22  36  60  87 121 168 210 253 302 366
#     4  12  23  35  55  84 121 160 204 249 306 369
#     4  10  22  41  66  92 123 156 199 260 322 365
#     4  10  22  40  61  84 118 159 203 250 305 365
#     4  11  22  35  53  80 121 162 199 250 305 357
#     4  11  22  37  59  87 123 158 211 252 303 363
#     4  10  22  41  64  91 121 161 210 254 307 376
#     4  10  23  39  64  91 117 163 204 254 303 373
#
# _framework density 20.260994
#
# number of rings (size 3 to 8) (size 9 to 14) (size 15 to 20)
#    0.000    1.375    1.250    5.625    5.250    3.750 
#    0.000    1.875    0.000    0.000    0.000    4.375 
#    0.000    0.000    0.000    0.000    0.000    0.000 
#
# Total GULP energy -396533.940500 kJ/mol
# GULP energy per Si atom -12391.685641 kJ/mol
# Density = 2.021488 g / cm^3
# Si number density = 20.260994 Si / 1000 Ang^3
#
#
#
# Elastic Constant Matrix: (Units=GPa)
#
#
# Indices 1 2 3 4 5 6 
#
# 1 46.4379 26.2560 41.7793 0.0000 -0.7123 0.0000
# 2 26.2560 154.1138 62.8329 0.0000 -8.3369 0.0000
# 3 41.7793 62.8329 151.8087 0.0000 1.2405 0.0000
# 4 0.0000 0.0000 0.0000 37.5088 0.0000 10.0695
# 5 -0.7123 -8.3369 1.2405 0.0000 31.7587 0.0000
# 6 0.0000 0.0000 0.0000 10.0695 0.0000 6.2849
#
#
#
# Elastic Compliance Matrix: (Units=1/GPa)
#
#
# Indices 1 2 3 4 5 6 
#
# 1 0.029149 -0.002011 -0.007193 0.000000 0.000407 0.000000
# 2 -0.002011 0.008098 -0.002816 0.000000 0.002191 0.000000
# 3 -0.007193 -0.002816 0.009743 0.000000 -0.001281 0.000000
# 4 0.000000 0.000000 0.000000 0.046782 0.000000 -0.074953
# 5 0.000407 0.002191 -0.001281 0.000000 0.032122 0.000000
# 6 0.000000 0.000000 0.000000 -0.074953 0.000000 0.279201
#
#
# Mechanical properties :
#
#
# Convention : Reuss Voigt Hill
#
# Bulk Modulus (GPa) = 43.57490 68.23298 55.90394
# Shear Modulus (GPa) = 11.44729 29.87662 20.66195
#
# Velocity S-wave (km/s) = 2.37953 3.84420 3.19688
# Velocity P-wave (km/s) = 5.39472 7.31122 6.42484
#
# Compressibility (1/GPa) = 0.02294899
#
# Stress axis : x y z
#
# Youngs Moduli (GPa) = 34.30651 123.48694 102.63972
#
# Poissons Ratio (x) = 0.24839 0.73828
# Poissons Ratio (y) = 0.06901 0.28904
# Poissons Ratio (z) = 0.24676 0.34775
#
# Static dielectric constant tensor:
#      x y z
#    x 3.463190 0.000000 0.353340 
#    y 0.000000 4.184980 0.000000 
#    z 0.353340 0.000000 4.298900 
# 
# 
# High freq. dielectric constant tensor:
#      x y z
#    x 1.750640 0.000000 0.012230 
#    y 0.000000 1.815680 0.000000 
#    z 0.012230 0.000000 1.807800 
# 
# From -- ./inp_files/228174.got.cif
#   From: 2010.06.25/outbox.cif.g09.slc.cpg/sg12_115_cif.got.tgz:228174.got - 2010.06.28 00:19:55.
