data_PCOD8111126
_publ_section_title
;
Structure prediction by ZEFSAII (Michael W. Deem and Ramdas Pophale) SiO2 
 PCOD8111126
Probable space group: C 2/M
;
_chemical_formula_sum "Si O2"
_cell_formula_units_Z 48
_cell_length_a 15.806885
_cell_length_b 9.035949
_cell_length_c 29.388963
_cell_angle_alpha 90.000000
_cell_angle_beta 144.585737
_cell_angle_gamma 90.000000
_cell_volume 2432.460676
_symmetry_space_group_name_H-M "C 2/M"
_symmetry_group_IT_number 12
_symmetry_cell_setting 'monoclinic'
loop_
_space_group_symop_operation_xyz
x,y,z
-x,y,-z
-x,-y,-z
x,-y,z
1/2+x,1/2+y,z
1/2-x,1/2+y,-z
1/2-x,1/2-y,-z
1/2+x,1/2-y,z
loop_
_atom_site_type_symbol
_atom_site_label
_atom_site_fract_x
_atom_site_fract_y
_atom_site_fract_z
Si Si1 0.811890 0.163974 0.159368
Si Si2 0.161986 0.824756 0.698337
Si Si3 0.370953 0.327961 0.854406
Si Si4 0.351062 0.674769 0.411943
Si Si5 0.921732 0.166135 0.667337
Si Si6 0.163821 0.330515 0.000264
O O1 0.748337 0.301656 0.159214
O O2 0.984850 0.169875 0.244748
O O3 0.754369 0.000000 0.150512
O O4 0.771399 0.186730 0.089799
O O5 0.310196 0.746994 0.781664
O O6 0.145492 0.770557 0.639045
O O7 0.020791 0.778746 0.667469
O O8 0.184153 0.000000 0.711468
O O9 0.401221 0.500000 0.858805
O O10 0.510931 0.250772 0.938158
O O11 0.500000 0.731208 0.500000
O O12 0.338311 0.500000 0.407735
O O13 0.219183 0.734422 0.385233
O O14 0.867773 0.000000 0.633337
O O15 0.133683 0.500000 0.975024
O O16 0.250000 0.250000 0.000000
#
# Coordination Sequence:
#
# PCOD8111126 Si02
#       6
#     8   8   8   8   8   8
#     4   9  20  39  59  79 111 152 189 234 291 342
#     4   9  20  40  61  83 116 159 193 234 297 356
#     4  11  22  36  57  84 112 147 195 243 282 337
#     4  10  22  39  60  88 119 150 188 237 294 354
#     4   9  19  37  60  85 115 152 194 235 286 350
#     4  11  23  37  54  81 116 154 192 236 287 338
#
# _framework density 19.733103
#
# number of rings (size 3 to 8) (size 9 to 14) (size 15 to 20)
#    0.000    2.167    0.000    3.500    2.333    7.667 
#    0.000    0.000    0.000    0.000    0.000    0.000 
#    0.000    0.000    0.000    0.000    0.000    0.000 
#
# Total GULP energy -297407.709325 kJ/mol
# GULP energy per Si atom -12391.987889 kJ/mol
# Density = 1.968819 g / cm^3
# Si number density = 19.733103 Si / 1000 Ang^3
#
#
#
# Elastic Constant Matrix: (Units=GPa)
#
#
# Indices 1 2 3 4 5 6 
#
# 1 63.1177 15.6072 17.6875 0.0000 -1.2202 0.0000
# 2 15.6072 69.7356 23.8456 0.0000 -0.9236 0.0000
# 3 17.6875 23.8456 79.5785 0.0000 -1.5810 0.0000
# 4 0.0000 0.0000 0.0000 25.4123 0.0000 7.4269
# 5 -1.2202 -0.9236 -1.5810 0.0000 32.2400 0.0000
# 6 0.0000 0.0000 0.0000 7.4269 0.0000 33.3762
#
#
#
# Elastic Compliance Matrix: (Units=1/GPa)
#
#
# Indices 1 2 3 4 5 6 
#
# 1 0.017401 -0.002862 -0.003001 0.000000 0.000429 0.000000
# 2 -0.002862 0.016449 -0.004290 0.000000 0.000153 0.000000
# 3 -0.003001 -0.004290 0.014528 0.000000 0.000476 0.000000
# 4 0.000000 0.000000 0.000000 0.042088 0.000000 -0.009365
# 5 0.000429 0.000153 0.000476 0.000000 0.031061 0.000000
# 6 0.000000 0.000000 0.000000 -0.009365 0.000000 0.032045
#
#
# Mechanical properties :
#
#
# Convention : Reuss Voigt Hill
#
# Bulk Modulus (GPa) = 35.62374 36.30138 35.96256
# Shear Modulus (GPa) = 27.28707 28.55848 27.92278
#
# Velocity S-wave (km/s) = 3.72265 3.80838 3.76576
# Velocity P-wave (km/s) = 6.04727 6.14610 6.09688
#
# Compressibility (1/GPa) = 0.02807117
#
# Stress axis : x y z
#
# Youngs Moduli (GPa) = 57.46945 60.79253 68.83175
#
# Poissons Ratio (x) = 0.17401 0.20658
# Poissons Ratio (y) = 0.16450 0.29527
# Poissons Ratio (z) = 0.17248 0.26079
#
# Static dielectric constant tensor:
#      x y z
#    x 3.419110 0.000000 -0.227790 
#    y 0.000000 3.532130 0.000000 
#    z -0.227790 0.000000 3.122410 
# 
# 
# High freq. dielectric constant tensor:
#      x y z
#    x 1.759600 0.000000 -0.002740 
#    y 0.000000 1.761110 0.000000 
#    z -0.002740 0.000000 1.776940 
# 
# From -- ./inp_files/274594.got.cif
#   From: 2010.06.25/outbox.cif.g09.slc.cpg/sg12_138_cif.got.tgz:274594.got - 2010.06.28 00:19:55.
