data_PCOD8111751
_publ_section_title
;
Structure prediction by ZEFSAII (Michael W. Deem and Ramdas Pophale) SiO2 
 PCOD8111751
Probable space group: C 2/M
;
_chemical_formula_sum "Si O2"
_cell_formula_units_Z 56
_cell_length_a 17.556594
_cell_length_b 25.715014
_cell_length_c 8.872890
_cell_angle_alpha 90.000000
_cell_angle_beta 40.044165
_cell_angle_gamma 90.000000
_cell_volume 2577.260221
_symmetry_space_group_name_H-M "C 2/M"
_symmetry_group_IT_number 12
_symmetry_cell_setting 'monoclinic'
loop_
_space_group_symop_operation_xyz
x,y,z
-x,y,-z
-x,-y,-z
x,-y,z
1/2+x,1/2+y,z
1/2-x,1/2+y,-z
1/2-x,1/2-y,-z
1/2+x,1/2-y,z
loop_
_atom_site_type_symbol
_atom_site_label
_atom_site_fract_x
_atom_site_fract_y
_atom_site_fract_z
Si Si1 0.669514 0.251582 0.975429
Si Si2 0.606923 0.362121 0.949299
Si Si3 0.010163 0.669718 0.308169
Si Si4 0.273069 0.146436 0.195693
Si Si5 0.569631 0.000000 0.616448
Si Si6 0.189546 0.500000 0.109684
Si Si7 0.611839 0.415580 0.246994
Si Si8 0.819944 0.604088 0.446891
O O1 0.666368 0.307485 0.904725
O O2 0.725852 0.208970 0.773245
O O3 0.750000 0.250000 0.000000
O O4 0.538913 0.230403 0.225005
O O5 0.699648 0.399171 0.724272
O O6 0.500000 0.349968 0.000000
O O7 0.564368 0.393108 0.160725
O O8 0.891851 0.653163 0.402231
O O9 0.000000 0.658934 0.500000
O O10 0.118059 0.633876 0.083688
O O11 0.151576 0.131543 0.295755
O O12 0.288488 0.112996 0.321652
O O13 0.607284 0.050850 0.651998
O O14 0.640568 0.000000 0.352652
O O15 0.426955 0.000000 0.818946
O O16 0.273632 0.451219 0.949279
O O17 0.500000 0.443387 0.500000
#
# Coordination Sequence:
#
# PCOD8111751 Si02
#       8
#     8   8   8   8   4   4   8   8
#     4  10  22  43  67 101 142 192 236 285 354 429
#     4  12  26  45  68 103 143 190 245 285 357 437
#     4  10  22  40  69  95 139 186 228 299 354 418
#     4  10  24  42  67 104 143 181 235 288 359 420
#     4  11  26  43  83 105 140 181 246 306 368 427
#     4  11  25  47  75 111 128 189 249 294 371 431
#     4  12  24  47  71 101 148 186 233 298 359 435
#     4  12  24  46  69 106 142 183 235 308 360 422
#
# _framework density 21.728501000000001
#
# number of rings (size 3 to 8) (size 9 to 14) (size 15 to 20)
#    0.857    0.143    2.857    4.071    4.000    1.714 
#    5.143    5.000    0.000    0.000    0.000    0.000 
#    0.000    0.000    0.000    0.000    0.000    0.000 
#
# Total GULP energy -347021.477802 kJ/mol
# GULP energy per Si atom -12393.624207 kJ/mol
# Density = 2.167905 g / cm^3
# Si number density = 21.728501 Si / 1000 Ang^3
#
#
#
# Elastic Constant Matrix: (Units=GPa)
#
#
# Indices 1 2 3 4 5 6 
#
# 1 129.4151 41.8864 39.0222 0.0000 11.1915 0.0000
# 2 41.8864 108.5221 29.2540 0.0000 1.9372 0.0000
# 3 39.0222 29.2540 121.9699 0.0000 5.8850 0.0000
# 4 0.0000 0.0000 0.0000 30.6257 0.0000 -6.4545
# 5 11.1915 1.9372 5.8850 0.0000 38.2017 0.0000
# 6 0.0000 0.0000 0.0000 -6.4545 0.0000 24.9948
#
#
#
# Elastic Compliance Matrix: (Units=1/GPa)
#
#
# Indices 1 2 3 4 5 6 
#
# 1 0.009587 -0.003060 -0.002222 0.000000 -0.002311 0.000000
# 2 -0.003060 0.010829 -0.001647 0.000000 0.000601 0.000000
# 3 -0.002222 -0.001647 0.009339 0.000000 -0.000704 0.000000
# 4 0.000000 0.000000 0.000000 0.034532 0.000000 0.008917
# 5 -0.002311 0.000601 -0.000704 0.000000 0.026932 0.000000
# 6 0.000000 0.000000 0.000000 0.008917 0.000000 0.042311
#
#
# Mechanical properties :
#
#
# Convention : Reuss Voigt Hill
#
# Bulk Modulus (GPa) = 62.90678 64.47025 63.68851
# Shear Modulus (GPa) = 32.74663 35.41406 34.08034
#
# Velocity S-wave (km/s) = 3.88633 4.04151 3.96468
# Velocity P-wave (km/s) = 7.01086 7.17730 7.09457
#
# Compressibility (1/GPa) = 0.01589654
#
# Stress axis : x y z
#
# Youngs Moduli (GPa) = 104.30401 92.34285 107.08197
#
# Poissons Ratio (x) = 0.28259 0.23791
# Poissons Ratio (y) = 0.31920 0.17639
# Poissons Ratio (z) = 0.23174 0.15211
#
# Static dielectric constant tensor:
#      x y z
#    x 3.873090 0.000000 -0.042830 
#    y 0.000000 3.842980 0.000000 
#    z -0.042830 0.000000 4.001460 
# 
# 
# High freq. dielectric constant tensor:
#      x y z
#    x 1.858580 0.000000 -0.002520 
#    y 0.000000 1.843690 0.000000 
#    z -0.002520 0.000000 1.855740 
# 
# From -- ./inp_files/80063.got.cif
#   From: 2010.06.25/outbox.cif.g09.slc.cpg/sg12_41_cif.got.tgz:80063.got - 2010.06.28 00:19:55.
