data_PCOD8111114
_publ_section_title
;
Structure prediction by ZEFSAII (Michael W. Deem and Ramdas Pophale) SiO2 
 PCOD8111114
Probable space group: C 2/M
;
_chemical_formula_sum "Si O2"
_cell_formula_units_Z 64
_cell_length_a 14.661977
_cell_length_b 8.815851
_cell_length_c 30.006326
_cell_angle_alpha 90.000000
_cell_angle_beta 60.361927
_cell_angle_gamma 90.000000
_cell_volume 3371.107366
_symmetry_space_group_name_H-M "C 2/M"
_symmetry_group_IT_number 12
_symmetry_cell_setting 'monoclinic'
loop_
_space_group_symop_operation_xyz
x,y,z
-x,y,-z
-x,-y,-z
x,-y,z
1/2+x,1/2+y,z
1/2-x,1/2+y,-z
1/2-x,1/2-y,-z
1/2+x,1/2-y,z
loop_
_atom_site_type_symbol
_atom_site_label
_atom_site_fract_x
_atom_site_fract_y
_atom_site_fract_z
Si Si1 0.419703 0.319654 0.578855
Si Si2 0.149699 0.820663 0.500328
Si Si3 0.443496 0.176055 0.238848
Si Si4 0.486545 0.325515 0.137084
Si Si5 0.219650 0.821631 0.053788
Si Si6 0.792863 0.822627 0.692582
Si Si7 0.703652 0.325006 0.879570
Si Si8 0.359028 0.321127 0.772139
O O1 0.414291 0.500000 0.580365
O O2 0.541726 0.268974 0.550819
O O3 0.360193 0.263456 0.548482
O O4 0.360302 0.249078 0.636108
O O5 0.250000 0.750000 0.500000
O O6 0.162465 0.000000 0.499240
O O7 0.445681 0.219161 0.186391
O O8 0.329052 0.209884 0.286452
O O9 0.520152 0.280499 0.249104
O O10 0.473574 0.000000 0.236394
O O11 0.486307 0.500000 0.153571
O O12 0.601578 0.273582 0.094647
O O13 0.411144 0.302219 0.113224
O O14 0.297288 0.758919 0.072877
O O15 0.232357 0.000000 0.047159
O O16 0.250000 0.750000 0.000000
O O17 0.826903 0.753042 0.731906
O O18 0.816620 0.000000 0.688748
O O19 0.730895 0.500000 0.880413
O O20 0.792111 0.256116 0.826694
O O21 0.340624 0.500000 0.779499
#
# Coordination Sequence:
#
# PCOD8111114 Si02
#       8
#     8   8   8   8   8   8   8   8
#     4   8  16  33  52  75 108 149 187 224 277 340
#     4   9  17  31  56  80 104 143 190 232 279 335
#     4  11  21  34  55  82 108 144 188 227 271 330
#     4  10  22  39  60  83 113 147 181 225 278 328
#     4  11  24  42  62  86 116 150 185 232 283 330
#     4   9  19  34  53  78 112 147 186 231 275 332
#     4  11  22  38  61  86 111 145 185 229 276 332
#     4  11  21  35  54  80 110 146 184 225 277 332
#
# _framework density 18.984860000000001
#
# number of rings (size 3 to 8) (size 9 to 14) (size 15 to 20)
#    0.000    2.000    2.500    2.250    0.000    2.500 
#    0.000    3.750    0.000    4.500    0.000    0.000 
#    0.000    0.000    0.000    0.000    0.000    0.000 
#
# Total GULP energy -396827.437302 kJ/mol
# GULP energy per Si atom -12400.857416 kJ/mol
# Density = 1.894165 g / cm^3
# Si number density = 18.984860 Si / 1000 Ang^3
#
#
#
# Elastic Constant Matrix: (Units=GPa)
#
#
# Indices 1 2 3 4 5 6 
#
# 1 101.3939 19.6415 21.3545 0.0000 2.5193 0.0000
# 2 19.6415 48.2768 23.5096 0.0000 -0.9378 0.0000
# 3 21.3545 23.5096 97.9790 0.0000 5.9238 0.0000
# 4 0.0000 0.0000 0.0000 17.2565 0.0000 -1.9377
# 5 2.5193 -0.9378 5.9238 0.0000 26.9182 0.0000
# 6 0.0000 0.0000 0.0000 -1.9377 0.0000 31.8609
#
#
#
# Elastic Compliance Matrix: (Units=1/GPa)
#
#
# Indices 1 2 3 4 5 6 
#
# 1 0.010912 -0.003762 -0.001425 0.000000 -0.000839 0.000000
# 2 -0.003762 0.024867 -0.005291 0.000000 0.002383 0.000000
# 3 -0.001425 -0.005291 0.011948 0.000000 -0.002680 0.000000
# 4 0.000000 0.000000 0.000000 0.058347 0.000000 0.003549
# 5 -0.000839 0.002383 -0.002680 0.000000 0.037901 0.000000
# 6 0.000000 0.000000 0.000000 0.003549 0.000000 0.031602
#
#
# Mechanical properties :
#
#
# Convention : Reuss Voigt Hill
#
# Bulk Modulus (GPa) = 37.35223 41.85123 39.60173
# Shear Modulus (GPa) = 24.33582 27.41673 25.87628
#
# Velocity S-wave (km/s) = 3.58418 3.80430 3.69588
# Velocity P-wave (km/s) = 6.07009 6.43346 6.25441
#
# Compressibility (1/GPa) = 0.02677217
#
# Stress axis : x y z
#
# Youngs Moduli (GPa) = 91.64024 40.21345 83.69310
#
# Poissons Ratio (x) = 0.15129 0.11926
# Poissons Ratio (y) = 0.34476 0.44281
# Poissons Ratio (z) = 0.13058 0.21277
#
# Static dielectric constant tensor:
#      x y z
#    x 3.700750 0.000000 0.062520 
#    y 0.000000 3.285930 0.000000 
#    z 0.062520 0.000000 3.667130 
# 
# 
# High freq. dielectric constant tensor:
#      x y z
#    x 1.751040 0.000000 0.000240 
#    y 0.000000 1.717680 0.000000 
#    z 0.000240 0.000000 1.737150 
# 
# From -- ./inp_files/375450.got.cif
#   From: 2010.06.25/outbox.cif.g09.slc.cpg/sg12_188_cif.got.tgz:375450.got - 2010.06.28 00:19:55.
