data_PCOD8111488
_publ_section_title
;
Structure prediction by ZEFSAII (Michael W. Deem and Ramdas Pophale) SiO2 
 PCOD8111488
Probable space group: C 2/M
;
_chemical_formula_sum "Si O2"
_cell_formula_units_Z 56
_cell_length_a 26.585458
_cell_length_b 9.054926
_cell_length_c 12.422980
_cell_angle_alpha 90.000000
_cell_angle_beta 68.126866
_cell_angle_gamma 90.000000
_cell_volume 2775.287525
_symmetry_space_group_name_H-M "C 2/M"
_symmetry_group_IT_number 12
_symmetry_cell_setting 'monoclinic'
loop_
_space_group_symop_operation_xyz
x,y,z
-x,y,-z
-x,-y,-z
x,-y,z
1/2+x,1/2+y,z
1/2-x,1/2+y,-z
1/2-x,1/2-y,-z
1/2+x,1/2-y,z
loop_
_atom_site_type_symbol
_atom_site_label
_atom_site_fract_x
_atom_site_fract_y
_atom_site_fract_z
Si Si1 0.633413 0.326765 0.224585
Si Si2 0.905196 0.831954 0.349777
Si Si3 0.557672 0.670627 0.909517
Si Si4 0.437470 0.173282 0.536817
Si Si5 0.716625 0.329750 0.616876
Si Si6 0.754636 0.668619 0.191648
Si Si7 0.864737 0.329471 0.994988
O O1 0.621952 0.500000 0.231205
O O2 0.598237 0.258109 0.347743
O O3 0.696517 0.289371 0.189769
O O4 0.615214 0.258347 0.125748
O O5 0.944845 0.804975 0.217100
O O6 0.919232 0.719132 0.432476
O O7 0.845964 0.797867 0.352412
O O8 0.909845 0.000000 0.389480
O O9 0.570428 0.500000 0.926441
O O10 0.500000 0.721761 0.000000
O O11 0.604181 0.769528 0.925365
O O12 0.500000 0.217427 0.500000
O O13 0.428027 0.000000 0.559420
O O14 0.731029 0.500000 0.599023
O O15 0.750000 0.250000 0.500000
O O16 0.734041 0.274855 0.718984
O O17 0.755031 0.500000 0.232931
O O18 0.800373 0.692744 0.064279
O O19 0.879404 0.500000 0.966760
#
# Coordination Sequence:
#
# PCOD8111488 Si02
#       7
#     8   8   8   8   8   8   8
#     4  11  24  42  65  91 124 166 212 255 302 368
#     4  10  22  41  63  91 124 161 206 251 301 365
#     4  10  22  41  65  94 125 162 209 254 304 368
#     4  11  26  45  64  91 125 161 206 259 315 368
#     4  11  22  36  59  89 124 161 202 251 302 362
#     4  10  22  40  61  91 126 162 204 250 306 369
#     4  11  23  40  64  95 130 164 203 254 314 369
#
# _framework density 20.178089
#
# number of rings (size 3 to 8) (size 9 to 14) (size 15 to 20)
#    0.000    1.429    1.429    3.000    2.000    8.286 
#    0.000    0.000    0.000    0.000    0.000    0.000 
#    0.000    0.000    0.000    0.000    0.000    0.000 
#
# Total GULP energy -347352.952463 kJ/mol
# GULP energy per Si atom -12405.462588 kJ/mol
# Density = 2.013216 g / cm^3
# Si number density = 20.178089 Si / 1000 Ang^3
#
#
#
# Elastic Constant Matrix: (Units=GPa)
#
#
# Indices 1 2 3 4 5 6 
#
# 1 58.0314 46.5827 30.1596 0.0000 -1.0773 0.0000
# 2 46.5827 97.8515 51.3725 0.0000 0.0507 0.0000
# 3 30.1596 51.3725 125.9955 0.0000 -3.3161 0.0000
# 4 0.0000 0.0000 0.0000 37.3883 0.0000 3.5753
# 5 -1.0773 0.0507 -3.3161 0.0000 38.0529 0.0000
# 6 0.0000 0.0000 0.0000 3.5753 0.0000 26.3462
#
#
#
# Elastic Compliance Matrix: (Units=1/GPa)
#
#
# Indices 1 2 3 4 5 6 
#
# 1 0.028165 -0.012569 -0.001599 0.000000 0.000675 0.000000
# 2 -0.012569 0.018621 -0.004604 0.000000 -0.000782 0.000000
# 3 -0.001599 -0.004604 0.010219 0.000000 0.000851 0.000000
# 4 0.000000 0.000000 0.000000 0.027098 0.000000 -0.003677
# 5 0.000675 -0.000782 0.000851 0.000000 0.026374 0.000000
# 6 0.000000 0.000000 0.000000 -0.003677 0.000000 0.038455
#
#
# Mechanical properties :
#
#
# Convention : Reuss Voigt Hill
#
# Bulk Modulus (GPa) = 51.38707 59.78980 55.58843
# Shear Modulus (GPa) = 25.91170 30.60837 28.26004
#
# Velocity S-wave (km/s) = 3.58739 3.89898 3.74643
# Velocity P-wave (km/s) = 6.53309 7.06858 6.80610
#
# Compressibility (1/GPa) = 0.01946015
#
# Stress axis : x y z
#
# Youngs Moduli (GPa) = 35.50520 53.70393 97.85354
#
# Poissons Ratio (x) = 0.67499 0.15651
# Poissons Ratio (y) = 0.44625 0.45054
# Poissons Ratio (z) = 0.05679 0.24727
#
# Static dielectric constant tensor:
#      x y z
#    x 3.670630 0.000000 -0.122500 
#    y 0.000000 3.690110 0.000000 
#    z -0.122500 0.000000 3.623090 
# 
# 
# High freq. dielectric constant tensor:
#      x y z
#    x 1.789930 0.000000 -0.004610 
#    y 0.000000 1.792850 0.000000 
#    z -0.004610 0.000000 1.803690 
# 
# From -- ./inp_files/187230.got.cif
#   From: 2010.06.25/outbox.cif.g09.slc.cpg/sg12_94_cif.got.tgz:187230.got - 2010.06.28 00:19:55.
