data_PCOD8111070
_publ_section_title
;
Structure prediction by ZEFSAII (Michael W. Deem and Ramdas Pophale) SiO2 
 PCOD8111070
Probable space group: C 2/M
;
_chemical_formula_sum "Si O2"
_cell_formula_units_Z 56
_cell_length_a 30.086009
_cell_length_b 22.799937
_cell_length_c 13.147751
_cell_angle_alpha 90.000000
_cell_angle_beta 18.785084
_cell_angle_gamma 90.000000
_cell_volume 2904.233424
_symmetry_space_group_name_H-M "C 2/M"
_symmetry_group_IT_number 12
_symmetry_cell_setting 'monoclinic'
loop_
_space_group_symop_operation_xyz
x,y,z
-x,y,-z
-x,-y,-z
x,-y,z
1/2+x,1/2+y,z
1/2-x,1/2+y,-z
1/2-x,1/2-y,-z
1/2+x,1/2-y,z
loop_
_atom_site_type_symbol
_atom_site_label
_atom_site_fract_x
_atom_site_fract_y
_atom_site_fract_z
Si Si1 0.857844 0.067389 0.366190
Si Si2 0.164047 0.148597 0.392948
Si Si3 0.820263 0.432402 0.641325
Si Si4 0.080539 0.137438 0.222684
Si Si5 0.195944 0.729999 0.227794
Si Si6 0.148328 0.430339 0.649696
Si Si7 0.477465 0.132620 0.662473
O O1 0.855645 0.118723 0.455050
O O2 0.748821 0.090322 0.520532
O O3 0.827572 0.000000 0.472308
O O4 0.000000 0.066461 0.000000
O O5 0.157302 0.219196 0.392593
O O6 0.034670 0.123681 0.611029
O O7 0.313650 0.132017 0.027797
O O8 0.834414 0.500000 0.596469
O O9 0.807913 0.403892 0.555063
O O10 0.960315 0.412910 0.392549
O O11 0.683583 0.418041 0.003153
O O12 0.000000 0.148023 0.500000
O O13 0.183188 0.192325 0.980349
O O14 0.053367 0.694891 0.517099
O O15 0.250000 0.750000 0.000000
O O16 0.147278 0.500000 0.646472
O O17 0.000000 0.404644 0.000000
O O18 0.500000 0.109970 0.500000
#
# Coordination Sequence:
#
# PCOD8111070 Si02
#       7
#     8   8   8   8   8   8   8
#     4  10  22  40  61  89 124 160 203 257 312 368
#     4  12  22  34  64  95 118 155 211 261 303 365
#     4  10  22  39  58  85 124 164 204 248 311 376
#     4  11  22  37  58  86 118 161 203 245 302 369
#     4  11  21  39  62  84 121 159 207 253 297 374
#     4   9  17  34  59  80 107 153 200 244 292 361
#     4  11  22  37  59  91 125 163 206 257 311 370
#
# _framework density 19.282197
#
# number of rings (size 3 to 8) (size 9 to 14) (size 15 to 20)
#    0.000    1.429    2.857    3.429    0.000    4.000 
#    0.000    1.429    0.000   17.143    0.000    0.000 
#    0.000    0.000    0.000    0.000    0.000    0.000 
#
# Total GULP energy -346897.798095 kJ/mol
# GULP energy per Si atom -12389.207075 kJ/mol
# Density = 1.923831 g / cm^3
# Si number density = 19.282197 Si / 1000 Ang^3
#
#
#
# Elastic Constant Matrix: (Units=GPa)
#
#
# Indices 1 2 3 4 5 6 
#
# 1 121.0587 53.8603 31.9453 -0.0001 -15.8308 -0.0002
# 2 53.8603 64.7483 15.3309 -0.0001 7.1222 -0.0001
# 3 31.9453 15.3309 85.9839 0.0034 -22.8819 -0.0005
# 4 -0.0001 -0.0001 0.0034 23.9392 0.0004 3.9067
# 5 -15.8308 7.1222 -22.8819 0.0004 41.3615 0.0002
# 6 -0.0002 -0.0001 -0.0005 3.9067 0.0002 32.9959
#
#
#
# Elastic Compliance Matrix: (Units=1/GPa)
#
#
# Indices 1 2 3 4 5 6 
#
# 1 0.015612 -0.013485 -0.001393 0.000000 0.007527 0.000000
# 2 -0.013485 0.028754 -0.003293 0.000001 -0.011934 0.000000
# 3 -0.001393 -0.003293 0.014944 -0.000002 0.008301 0.000000
# 4 0.000000 0.000001 -0.000002 0.042596 -0.000002 -0.005043
# 5 0.007527 -0.011934 0.008301 -0.000002 0.033705 0.000000
# 6 0.000000 0.000000 0.000000 -0.005043 0.000000 0.030904
#
#
# Mechanical properties :
#
#
# Convention : Reuss Voigt Hill
#
# Bulk Modulus (GPa) = 43.53733 52.67377 48.10555
# Shear Modulus (GPa) = 23.75180 31.03630 27.39405
#
# Velocity S-wave (km/s) = 3.51351 4.01631 3.77329
# Velocity P-wave (km/s) = 6.25202 6.99173 6.63219
#
# Compressibility (1/GPa) = 0.02296879
#
# Stress axis : x y z
#
# Youngs Moduli (GPa) = 64.05449 34.77798 66.91775
#
# Poissons Ratio (x) = 0.46897 0.09321
# Poissons Ratio (y) = 0.86375 0.22034
# Poissons Ratio (z) = 0.08922 0.11452
#
# Static dielectric constant tensor:
#      x y z
#    x 3.905120 -0.000010 -0.225170 
#    y -0.000010 3.553080 -0.000240 
#    z -0.225170 -0.000240 -0.313620 
# 
# 
# High freq. dielectric constant tensor:
#      x y z
#    x 1.755330 0.000000 -0.019560 
#    y 0.000000 1.725550 0.000000 
#    z -0.019560 0.000000 1.767220 
# 
# From -- ./inp_files/185140.got.cif
#   From: 2010.06.25/outbox.cif.g09.slc.cpg/sg12_93_cif.got.tgz:185140.got - 2010.06.28 00:19:55.
