data_PCOD8111572
_publ_section_title
;
Structure prediction by ZEFSAII (Michael W. Deem and Ramdas Pophale) SiO2 
 PCOD8111572
Probable space group: C 2/M
;
_chemical_formula_sum "Si O2"
_cell_formula_units_Z 56
_cell_length_a 19.484567
_cell_length_b 20.176084
_cell_length_c 15.143405
_cell_angle_alpha 90.000000
_cell_angle_beta 26.686866
_cell_angle_gamma 90.000000
_cell_volume 2673.670957
_symmetry_space_group_name_H-M "C 2/M"
_symmetry_group_IT_number 12
_symmetry_cell_setting 'monoclinic'
loop_
_space_group_symop_operation_xyz
x,y,z
-x,y,-z
-x,-y,-z
x,-y,z
1/2+x,1/2+y,z
1/2-x,1/2+y,-z
1/2-x,1/2-y,-z
1/2+x,1/2-y,z
loop_
_atom_site_type_symbol
_atom_site_label
_atom_site_fract_x
_atom_site_fract_y
_atom_site_fract_z
Si Si1 0.211924 0.199632 0.838004
Si Si2 0.665444 0.331826 0.521588
Si Si3 0.135393 0.424562 0.275079
Si Si4 0.647182 0.075260 0.057891
Si Si5 0.400346 0.677155 0.695886
Si Si6 0.133683 0.789995 0.739610
Si Si7 0.905650 0.575732 0.189075
O O1 0.230386 0.127898 0.861597
O O2 0.325413 0.253963 0.749361
O O3 0.235667 0.187131 0.705823
O O4 0.041954 0.226468 0.040280
O O5 0.512411 0.306884 0.648848
O O6 0.800931 0.279191 0.367367
O O7 0.633848 0.345356 0.661643
O O8 0.734334 0.395688 0.393416
O O9 0.192825 0.500000 0.224692
O O10 0.093109 0.413508 0.221039
O O11 0.000000 0.408080 0.500000
O O12 0.494405 0.087110 0.178103
O O13 0.708521 0.000000 0.974695
O O14 0.777621 0.124601 0.872656
O O15 0.500000 0.647532 0.500000
O O16 0.879508 0.500000 0.195014
O O17 0.000000 0.609414 0.000000
#
# Coordination Sequence:
#
# PCOD8111572 Si02
#       7
#     8   8   8   8   8   8   8
#     4  11  23  43  64  90 126 164 209 257 314 374
#     4  11  23  38  60  92 125 161 207 257 312 365
#     4  10  23  42  67  94 124 162 211 265 314 371
#     4  10  23  41  63  92 128 169 211 255 315 377
#     4  12  23  38  65  97 127 164 209 263 315 373
#     4  10  24  40  60  90 124 164 203 257 313 369
#     4  10  22  40  63  90 126 170 209 252 309 380
#
# _framework density 20.944986
#
# number of rings (size 3 to 8) (size 9 to 14) (size 15 to 20)
#    0.000    1.429    1.429    3.000    4.000    4.286 
#    0.000    2.143    0.000    0.000    0.000    0.000 
#    0.000    0.000    0.000    0.000    0.000    0.000 
#
# Total GULP energy -347019.364504 kJ/mol
# GULP energy per Si atom -12393.548732 kJ/mol
# Density = 2.089731 g / cm^3
# Si number density = 20.944986 Si / 1000 Ang^3
#
#
#
# Elastic Constant Matrix: (Units=GPa)
#
#
# Indices 1 2 3 4 5 6 
#
# 1 167.7802 55.5212 46.4850 -0.0105 10.2069 0.0056
# 2 55.5212 86.7350 41.3827 -0.0141 -4.2249 0.0072
# 3 46.4850 41.3827 79.9368 -0.0296 1.7256 0.0154
# 4 -0.0105 -0.0141 -0.0296 25.4478 0.0119 -0.8816
# 5 10.2069 -4.2249 1.7256 0.0119 40.5435 -0.0074
# 6 0.0056 0.0072 0.0154 -0.8816 -0.0074 26.6992
#
#
#
# Elastic Compliance Matrix: (Units=1/GPa)
#
#
# Indices 1 2 3 4 5 6 
#
# 1 0.008183 -0.004128 -0.002570 -0.000001 -0.002381 0.000000
# 2 -0.004128 0.017547 -0.006751 -0.000001 0.003155 0.000001
# 3 -0.002570 -0.006751 0.017517 0.000016 -0.000802 -0.000007
# 4 -0.000001 -0.000001 0.000016 0.039341 -0.000012 0.001299
# 5 -0.002381 0.003155 -0.000802 -0.000012 0.025627 0.000007
# 6 0.000000 0.000001 -0.000007 0.001299 0.000007 0.037497
#
#
# Mechanical properties :
#
#
# Convention : Reuss Voigt Hill
#
# Bulk Modulus (GPa) = 61.17098 69.02552 65.09825
# Shear Modulus (GPa) = 28.08029 31.27562 29.67795
#
# Velocity S-wave (km/s) = 3.66549 3.86842 3.76832
# Velocity P-wave (km/s) = 6.86901 7.27874 7.07684
#
# Compressibility (1/GPa) = 0.01634762
#
# Stress axis : x y z
#
# Youngs Moduli (GPa) = 122.20283 56.99102 57.08717
#
# Poissons Ratio (x) = 0.23525 0.14673
# Poissons Ratio (y) = 0.50444 0.38542
# Poissons Ratio (z) = 0.31410 0.38477
#
# Static dielectric constant tensor:
#      x y z
#    x 4.151090 -0.000040 0.361660 
#    y -0.000040 3.685090 0.000030 
#    z 0.361660 0.000030 3.956360 
# 
# 
# High freq. dielectric constant tensor:
#      x y z
#    x 1.841020 0.000000 0.014110 
#    y 0.000000 1.804790 0.000000 
#    z 0.014110 0.000000 1.819860 
# 
# From -- ./inp_files/227585.got.cif
#   From: 2010.06.25/outbox.cif.g09.slc.cpg/sg12_114_cif.got.tgz:227585.got - 2010.06.28 00:19:55.
