data_PCOD8111107
_publ_section_title
;
Structure prediction by ZEFSAII (Michael W. Deem and Ramdas Pophale) SiO2 
 PCOD8111107
Probable space group: C 2/M
;
_chemical_formula_sum "Si O2"
_cell_formula_units_Z 48
_cell_length_a 18.835753
_cell_length_b 25.979566
_cell_length_c 8.965468
_cell_angle_alpha 90.000000
_cell_angle_beta 31.644274
_cell_angle_gamma 90.000000
_cell_volume 2301.719900
_symmetry_space_group_name_H-M "C 2/M"
_symmetry_group_IT_number 12
_symmetry_cell_setting 'monoclinic'
loop_
_space_group_symop_operation_xyz
x,y,z
-x,y,-z
-x,-y,-z
x,-y,z
1/2+x,1/2+y,z
1/2-x,1/2+y,-z
1/2-x,1/2-y,-z
1/2+x,1/2-y,z
loop_
_atom_site_type_symbol
_atom_site_label
_atom_site_fract_x
_atom_site_fract_y
_atom_site_fract_z
Si Si1 0.000000 0.082901 0.500000
Si Si2 0.180766 0.750936 0.385059
Si Si3 0.761740 0.357317 0.102505
Si Si4 0.353334 0.312195 0.264445
Si Si5 0.156532 0.396435 0.734037
Si Si6 0.000000 0.683691 0.500000
Si Si7 0.779991 0.000000 0.409249
Si Si8 0.022080 0.000000 0.207577
O O1 0.868459 0.118493 0.742284
O O2 0.990906 0.050039 0.666704
O O3 0.228643 0.798620 0.201604
O O4 0.312056 0.714606 0.181589
O O5 0.128829 0.769049 0.639496
O O6 0.061813 0.719795 0.517726
O O7 0.800474 0.394226 0.170502
O O8 0.886894 0.354986 0.765759
O O9 0.238826 0.353623 0.498728
O O10 0.500000 0.340179 0.000000
O O11 0.185327 0.451026 0.606795
O O12 0.000000 0.382720 0.000000
O O13 0.901375 0.000000 0.307630
O O14 0.836930 0.000000 0.137458
#
# Coordination Sequence:
#
# PCOD8111107 Si02
#       8
#     4   8   8   8   8   4   4   4
#     4  11  23  46  65  98 136 164 205 265 337 370
#     4  10  22  39  59  91 129 169 214 267 311 369
#     4  11  24  39  63  91 126 174 210 260 320 384
#     4  10  22  39  64  90 124 169 218 263 317 374
#     4  11  24  42  64  93 130 164 209 269 327 376
#     4  12  23  38  59  89 128 167 217 256 313 388
#     4  11  23  44  71  99 121 160 223 261 322 389
#     4  10  24  42  73  97 126 163 210 276 315 388
#
# _framework density 20.85397
#
# number of rings (size 3 to 8) (size 9 to 14) (size 15 to 20)
#    0.000    1.333    1.667    3.250    2.333   10.000 
#    0.000    0.000    0.000    2.500    0.000    0.000 
#    0.000    0.000    0.000    0.000    0.000    0.000 
#
# Total GULP energy -297636.166795 kJ/mol
# GULP energy per Si atom -12401.506950 kJ/mol
# Density = 2.080651 g / cm^3
# Si number density = 20.853970 Si / 1000 Ang^3
#
#
#
# Elastic Constant Matrix: (Units=GPa)
#
#
# Indices 1 2 3 4 5 6 
#
# 1 94.3014 47.6079 52.9516 0.0000 -13.4295 0.0000
# 2 47.6079 119.3259 68.7305 0.0000 -7.6305 0.0000
# 3 52.9516 68.7305 158.6954 0.0000 -19.6418 0.0000
# 4 0.0000 0.0000 0.0000 34.0051 0.0000 -8.8098
# 5 -13.4295 -7.6305 -19.6418 0.0000 41.6466 0.0000
# 6 0.0000 0.0000 0.0000 -8.8098 0.0000 20.8069
#
#
#
# Elastic Compliance Matrix: (Units=1/GPa)
#
#
# Indices 1 2 3 4 5 6 
#
# 1 0.014589 -0.004045 -0.002788 0.000000 0.002648 0.000000
# 2 -0.004045 0.012290 -0.004095 0.000000 -0.000984 0.000000
# 3 -0.002788 -0.004095 0.009347 0.000000 0.002759 0.000000
# 4 0.000000 0.000000 0.000000 0.033031 0.000000 0.013985
# 5 0.002648 -0.000984 0.002759 0.000000 0.025986 0.000000
# 6 0.000000 0.000000 0.000000 0.013985 0.000000 0.053983
#
#
# Mechanical properties :
#
#
# Convention : Reuss Voigt Hill
#
# Bulk Modulus (GPa) = 69.59272 78.98918 74.29095
# Shear Modulus (GPa) = 28.42976 32.82724 30.62850
#
# Velocity S-wave (km/s) = 3.69627 3.97186 3.83654
# Velocity P-wave (km/s) = 7.18752 7.68074 7.43822
#
# Compressibility (1/GPa) = 0.01436932
#
# Stress axis : x y z
#
# Youngs Moduli (GPa) = 68.54291 81.36668 106.99127
#
# Poissons Ratio (x) = 0.32917 0.29831
# Poissons Ratio (y) = 0.27729 0.43810
# Poissons Ratio (z) = 0.19111 0.33317
#
# Static dielectric constant tensor:
#      x y z
#    x 3.891970 0.000000 -0.027630 
#    y 0.000000 3.731200 0.000000 
#    z -0.027630 0.000000 3.822220 
# 
# 
# High freq. dielectric constant tensor:
#      x y z
#    x 1.825220 0.000000 -0.006690 
#    y 0.000000 1.811740 0.000000 
#    z -0.006690 0.000000 1.822090 
# 
# From -- ./inp_files/80679.got.cif
#   From: 2010.06.25/outbox.cif.g09.slc.cpg/sg12_41_cif.got.tgz:80679.got - 2010.06.28 00:19:55.
