data_PCOD8111120
_publ_section_title
;
Structure prediction by ZEFSAII (Michael W. Deem and Ramdas Pophale) SiO2 
 PCOD8111120
Probable space group: C 2/M
;
_chemical_formula_sum "Si O2"
_cell_formula_units_Z 40
_cell_length_a 30.642231
_cell_length_b 9.036069
_cell_length_c 15.194811
_cell_angle_alpha 90.000000
_cell_angle_beta 150.628579
_cell_angle_gamma 90.000000
_cell_volume 2063.511551
_symmetry_space_group_name_H-M "C 2/M"
_symmetry_group_IT_number 12
_symmetry_cell_setting 'monoclinic'
loop_
_space_group_symop_operation_xyz
x,y,z
-x,y,-z
-x,-y,-z
x,-y,z
1/2+x,1/2+y,z
1/2-x,1/2+y,-z
1/2-x,1/2-y,-z
1/2+x,1/2-y,z
loop_
_atom_site_type_symbol
_atom_site_label
_atom_site_fract_x
_atom_site_fract_y
_atom_site_fract_z
Si Si1 0.757716 0.172175 0.106344
Si Si2 0.900075 0.666876 0.588868
Si Si3 0.520685 0.325268 0.939574
Si Si4 0.794986 0.174124 0.819108
Si Si5 0.926434 0.666027 0.442967
O O1 0.693386 0.243666 0.066680
O O2 0.857643 0.201315 0.312578
O O3 0.735947 0.000000 0.059412
O O4 0.750000 0.250000 0.000000
O O5 0.899617 0.500000 0.624445
O O6 0.946082 0.768627 0.741574
O O7 0.797637 0.718777 0.391711
O O8 0.958209 0.675437 0.600366
O O9 0.513138 0.500000 0.925177
O O10 0.500000 0.261532 0.000000
O O11 0.620818 0.274999 0.091034
O O12 0.795625 0.000000 0.839126
O O13 0.885601 0.500000 0.356043
O O14 0.000000 0.697000 0.500000
#
# Coordination Sequence:
#
# PCOD8111120 Si02
#       5
#     8   8   8   8   8
#     4  11  22  35  54  82 114 150 193 235 282 339
#     4   9  19  36  57  82 115 152 190 233 285 345
#     4  10  22  39  60  86 115 149 192 242 295 345
#     4   9  20  40  59  80 115 155 190 234 294 350
#     4   9  19  36  56  81 115 152 186 229 287 345
#
# _framework density 19.384430999999999
#
# number of rings (size 3 to 8) (size 9 to 14) (size 15 to 20)
#    0.000    2.400    0.000    3.000    2.800    5.600 
#    0.000    0.000    0.000    0.000    0.000    0.000 
#    0.000    0.000    0.000    0.000    0.000    0.000 
#
# Total GULP energy -247860.207423 kJ/mol
# GULP energy per Si atom -12393.010371 kJ/mol
# Density = 1.934031 g / cm^3
# Si number density = 19.384431 Si / 1000 Ang^3
#
#
#
# Elastic Constant Matrix: (Units=GPa)
#
#
# Indices 1 2 3 4 5 6 
#
# 1 187.3931 49.9894 73.2799 0.0000 0.1148 0.0000
# 2 49.9894 62.0970 31.9980 0.0000 -3.3903 0.0000
# 3 73.2799 31.9980 95.3723 0.0000 -6.9840 0.0000
# 4 0.0000 0.0000 0.0000 34.2051 0.0000 -5.8267
# 5 0.1148 -3.3903 -6.9840 0.0000 30.1039 0.0000
# 6 0.0000 0.0000 0.0000 -5.8267 0.0000 24.5991
#
#
#
# Elastic Compliance Matrix: (Units=1/GPa)
#
#
# Indices 1 2 3 4 5 6 
#
# 1 0.008525 -0.004252 -0.005250 0.000000 -0.001729 0.000000
# 2 -0.004252 0.021604 -0.003868 0.000000 0.001552 0.000000
# 3 -0.005250 -0.003868 0.016059 0.000000 0.003310 0.000000
# 4 0.000000 0.000000 0.000000 0.030465 0.000000 0.007216
# 5 -0.001729 0.001552 0.003310 0.000000 0.034168 0.000000
# 6 0.000000 0.000000 0.000000 0.007216 0.000000 0.042361
#
#
# Mechanical properties :
#
#
# Convention : Reuss Voigt Hill
#
# Bulk Modulus (GPa) = 51.41702 72.82189 62.11945
# Shear Modulus (GPa) = 26.82342 30.42128 28.62235
#
# Velocity S-wave (km/s) = 3.72393 3.96582 3.84678
# Velocity P-wave (km/s) = 6.71362 7.65631 7.20041
#
# Compressibility (1/GPa) = 0.01944881
#
# Stress axis : x y z
#
# Youngs Moduli (GPa) = 117.30637 46.28701 62.26896
#
# Poissons Ratio (x) = 0.19679 0.32692
# Poissons Ratio (y) = 0.49874 0.24086
# Poissons Ratio (z) = 0.61588 0.17904
#
# Static dielectric constant tensor:
#      x y z
#    x 4.079120 0.000000 -0.132870 
#    y 0.000000 16.416300 0.000000 
#    z -0.132870 0.000000 3.647880 
# 
# 
# High freq. dielectric constant tensor:
#      x y z
#    x 1.765830 0.000000 -0.001790 
#    y 0.000000 1.742460 0.000000 
#    z -0.001790 0.000000 1.741740 
# 
# From -- ./inp_files/211449.got.cif
#   From: 2010.06.25/outbox.cif.g09.slc.cpg/sg12_106_cif.got.tgz:211449.got - 2010.06.28 00:19:55.
