data_PCOD8111835
_publ_section_title
;
Structure prediction by ZEFSAII (Michael W. Deem and Ramdas Pophale) SiO2 
 PCOD8111835
Probable space group: C 2/M
;
_chemical_formula_sum "Si O2"
_cell_formula_units_Z 36
_cell_length_a 8.006688
_cell_length_b 21.451801
_cell_length_c 11.244707
_cell_angle_alpha 90.000000
_cell_angle_beta 116.425396
_cell_angle_gamma 90.000000
_cell_volume 1729.567336
_symmetry_space_group_name_H-M "C 2/M"
_symmetry_group_IT_number 12
_symmetry_cell_setting 'monoclinic'
loop_
_space_group_symop_operation_xyz
x,y,z
-x,y,-z
-x,-y,-z
x,-y,z
1/2+x,1/2+y,z
1/2-x,1/2+y,-z
1/2-x,1/2-y,-z
1/2+x,1/2-y,z
loop_
_atom_site_type_symbol
_atom_site_label
_atom_site_fract_x
_atom_site_fract_y
_atom_site_fract_z
Si Si1 0.875766 0.338993 0.718531
Si Si2 0.063194 0.216131 0.785544
Si Si3 0.322344 0.926538 0.226490
Si Si4 0.000000 0.147843 0.000000
Si Si5 0.703130 0.158298 0.564419
O O1 0.734885 0.317478 0.775497
O O2 0.752161 0.350707 0.560778
O O3 0.056103 0.291122 0.769245
O O4 0.983988 0.404121 0.775249
O O5 0.859799 0.201187 0.669362
O O6 0.083290 0.194309 0.927458
O O7 0.316065 0.904949 0.363554
O O8 0.311305 0.000000 0.218288
O O9 0.150989 0.898401 0.101056
O O10 0.500000 0.192829 0.500000
#
# Coordination Sequence:
#
# PCOD8111835 Si02
#       5
#     8   8   8   4   8
#     4  11  22  36  60  89 121 155 192 246 299 350
#     4  11  22  38  60  90 122 153 197 244 299 354
#     4  10  22  41  63  86 117 159 201 241 289 349
#     4  10  23  42  64  86 115 158 200 246 296 348
#     4   9  19  36  60  88 116 152 190 238 297 349
#
# _framework density 20.814454999999999
#
# number of rings (size 3 to 8) (size 9 to 14) (size 15 to 20)
#    0.000    1.778    0.000    5.667    0.000   10.222 
#    0.000    6.667    0.000   10.667    0.000    0.000 
#    0.000    0.000    0.000    0.000    0.000    0.000 
#
# Total GULP energy -223013.621876 kJ/mol
# GULP energy per Si atom -12389.645660 kJ/mol
# Density = 2.076708 g / cm^3
# Si number density = 20.814455 Si / 1000 Ang^3
#
#
#
# Elastic Constant Matrix: (Units=GPa)
#
#
# Indices 1 2 3 4 5 6 
#
# 1 96.2496 20.4349 47.1288 0.0000 -13.3013 0.0000
# 2 20.4349 111.6450 47.5034 0.0000 -0.0393 0.0000
# 3 47.1288 47.5034 114.5106 0.0000 -24.7378 0.0000
# 4 0.0000 0.0000 0.0000 19.4833 0.0000 -2.0370
# 5 -13.3013 -0.0393 -24.7378 0.0000 21.9758 0.0000
# 6 0.0000 0.0000 0.0000 -2.0370 0.0000 20.6281
#
#
#
# Elastic Compliance Matrix: (Units=1/GPa)
#
#
# Indices 1 2 3 4 5 6 
#
# 1 0.013127 -0.000429 -0.004636 0.000000 0.002727 0.000000
# 2 -0.000429 0.011689 -0.006242 0.000000 -0.007265 0.000000
# 3 -0.004636 -0.006242 0.016677 0.000000 0.015956 0.000000
# 4 0.000000 0.000000 0.000000 0.051861 0.000000 0.005121
# 5 0.002727 -0.007265 0.015956 0.000000 0.065103 0.000000
# 6 0.000000 0.000000 0.000000 0.005121 0.000000 0.048983
#
#
# Mechanical properties :
#
#
# Convention : Reuss Voigt Hill
#
# Bulk Modulus (GPa) = 52.96709 61.39327 57.18018
# Shear Modulus (GPa) = 21.15522 26.23999 23.69760
#
# Velocity S-wave (km/s) = 3.19152 3.55443 3.37785
# Velocity P-wave (km/s) = 6.25168 6.81211 6.53790
#
# Compressibility (1/GPa) = 0.01887965
#
# Stress axis : x y z
#
# Youngs Moduli (GPa) = 76.17598 85.55225 59.96277
#
# Poissons Ratio (x) = 0.03674 0.27797
# Poissons Ratio (y) = 0.03271 0.37427
# Poissons Ratio (z) = 0.35313 0.53399
#
# Static dielectric constant tensor:
#      x y z
#    x 3.759160 0.000000 -0.020880 
#    y 0.000000 3.507550 0.000000 
#    z -0.020880 0.000000 4.193640 
# 
# 
# High freq. dielectric constant tensor:
#      x y z
#    x 1.814910 0.000000 0.009010 
#    y 0.000000 1.785780 0.000000 
#    z 0.009010 0.000000 1.838720 
# 
# From -- ./inp_files/120464.got.cif
#   From: 2010.06.25/outbox.cif.g09.slc.cpg/sg12_61_cif.got.tgz:120464.got - 2010.06.28 00:19:55.
