data_PCOD8111088
_publ_section_title
;
Structure prediction by ZEFSAII (Michael W. Deem and Ramdas Pophale) SiO2 
 PCOD8111088
Probable space group: C 2/M
;
_chemical_formula_sum "Si O2"
_cell_formula_units_Z 56
_cell_length_a 30.902721
_cell_length_b 8.793192
_cell_length_c 11.716651
_cell_angle_alpha 90.000000
_cell_angle_beta 63.338567
_cell_angle_gamma 90.000000
_cell_volume 2845.284613
_symmetry_space_group_name_H-M "C 2/M"
_symmetry_group_IT_number 12
_symmetry_cell_setting 'monoclinic'
loop_
_space_group_symop_operation_xyz
x,y,z
-x,y,-z
-x,-y,-z
x,-y,z
1/2+x,1/2+y,z
1/2-x,1/2+y,-z
1/2-x,1/2-y,-z
1/2+x,1/2-y,z
loop_
_atom_site_type_symbol
_atom_site_label
_atom_site_fract_x
_atom_site_fract_y
_atom_site_fract_z
Si Si1 0.542159 0.675506 0.794097
Si Si2 0.660580 0.678156 0.295310
Si Si3 0.203830 0.821388 0.613766
Si Si4 0.645626 0.825564 0.079484
Si Si5 0.433573 0.324362 0.977955
Si Si6 0.728393 0.175249 0.812402
Si Si7 0.379083 0.821768 0.435263
O O1 0.553841 0.500000 0.754874
O O2 0.484932 0.704925 0.856453
O O3 0.566566 0.779490 0.667901
O O4 0.562937 0.720363 0.893515
O O5 0.654682 0.500000 0.322933
O O6 0.639351 0.720706 0.197387
O O7 0.716552 0.729350 0.235551
O O8 0.629724 0.766482 0.425982
O O9 0.250000 0.750000 0.500000
O O10 0.202799 0.778239 0.747547
O O11 0.155853 0.762280 0.611177
O O12 0.206292 0.000000 0.595638
O O13 0.605803 0.782826 0.033118
O O14 0.638450 0.000000 0.123832
O O15 0.699112 0.800031 0.963955
O O16 0.418277 0.500000 0.983043
O O17 0.726498 0.000000 0.775101
O O18 0.370168 0.000000 0.439510
#
# Coordination Sequence:
#
# PCOD8111088 Si02
#       7
#     8   8   8   8   8   8   8
#     4   9  19  38  64  91 118 150 190 238 289 347
#     4  11  23  40  60  80 113 159 202 241 285 344
#     4  12  23  36  57  84 117 154 192 237 286 338
#     4  11  23  38  58  86 119 152 194 244 291 342
#     4   9  19  38  63  90 118 150 192 237 288 347
#     4  10  22  39  59  85 116 154 197 241 291 346
#     4  12  24  38  58  87 121 155 193 238 293 349
#
# _framework density 19.681687
#
# number of rings (size 3 to 8) (size 9 to 14) (size 15 to 20)
#    0.000    1.429    1.429    5.571    0.000    5.143 
#    0.000    2.143    0.000    4.286    0.000    0.000 
#    0.000    0.000    0.000    0.000    0.000    0.000 
#
# Total GULP energy -347357.854945 kJ/mol
# GULP energy per Si atom -12405.637677 kJ/mol
# Density = 1.963689 g / cm^3
# Si number density = 19.681687 Si / 1000 Ang^3
#
#
#
# Elastic Constant Matrix: (Units=GPa)
#
#
# Indices 1 2 3 4 5 6 
#
# 1 50.5561 19.8824 30.8341 0.0000 -0.5214 0.0000
# 2 19.8824 106.6558 47.6091 0.0000 -1.9450 0.0000
# 3 30.8341 47.6091 114.4541 0.0000 -7.4439 0.0000
# 4 0.0000 0.0000 0.0000 30.8255 0.0000 0.7828
# 5 -0.5214 -1.9450 -7.4439 0.0000 28.8197 0.0000
# 6 0.0000 0.0000 0.0000 0.7828 0.0000 31.0375
#
#
#
# Elastic Compliance Matrix: (Units=1/GPa)
#
#
# Indices 1 2 3 4 5 6 
#
# 1 0.024034 -0.001937 -0.005746 0.000000 -0.001180 0.000000
# 2 -0.001937 0.011676 -0.004359 0.000000 -0.000373 0.000000
# 3 -0.005746 -0.004359 0.012279 0.000000 0.002773 0.000000
# 4 0.000000 0.000000 0.000000 0.032461 0.000000 -0.000819
# 5 -0.001180 -0.000373 0.002773 0.000000 0.035368 0.000000
# 6 0.000000 0.000000 0.000000 -0.000819 0.000000 0.032240
#
#
# Mechanical properties :
#
#
# Convention : Reuss Voigt Hill
#
# Bulk Modulus (GPa) = 41.83293 52.03523 46.93408
# Shear Modulus (GPa) = 27.76068 29.69257 28.72662
#
# Velocity S-wave (km/s) = 3.75971 3.88833 3.82456
# Velocity P-wave (km/s) = 6.33626 6.83042 6.58797
#
# Compressibility (1/GPa) = 0.02390462
#
# Stress axis : x y z
#
# Youngs Moduli (GPa) = 41.60778 85.64464 81.44154
#
# Poissons Ratio (x) = 0.16590 0.46794
# Poissons Ratio (y) = 0.08060 0.35503
# Poissons Ratio (z) = 0.23907 0.37335
#
# Static dielectric constant tensor:
#      x y z
#    x 3.548500 0.000000 -0.172340 
#    y 0.000000 3.620600 0.000000 
#    z -0.172340 0.000000 3.716750 
# 
# 
# High freq. dielectric constant tensor:
#      x y z
#    x 1.755350 0.000000 -0.006350 
#    y 0.000000 1.769420 0.000000 
#    z -0.006350 0.000000 1.775700 
# 
# From -- ./inp_files/187241.got.cif
#   From: 2010.06.25/outbox.cif.g09.slc.cpg/sg12_94_cif.got.tgz:187241.got - 2010.06.28 00:19:55.
