data_PCOD8111976
_publ_section_title
;
Structure prediction by ZEFSAII (Michael W. Deem and Ramdas Pophale) SiO2 
 PCOD8111976
Probable space group: C 2/M
;
_chemical_formula_sum "Si O2"
_cell_formula_units_Z 48
_cell_length_a 19.726368
_cell_length_b 8.523545
_cell_length_c 30.471982
_cell_angle_alpha 90.000000
_cell_angle_beta 152.921149
_cell_angle_gamma 90.000000
_cell_volume 2332.307875
_symmetry_space_group_name_H-M "C 2/M"
_symmetry_group_IT_number 12
_symmetry_cell_setting 'monoclinic'
loop_
_space_group_symop_operation_xyz
x,y,z
-x,y,-z
-x,-y,-z
x,-y,z
1/2+x,1/2+y,z
1/2-x,1/2+y,-z
1/2-x,1/2-y,-z
1/2+x,1/2-y,z
loop_
_atom_site_type_symbol
_atom_site_label
_atom_site_fract_x
_atom_site_fract_y
_atom_site_fract_z
Si Si1 0.887057 0.681255 0.235607
Si Si2 0.471540 0.181809 0.123272
Si Si3 0.269911 0.819200 0.261839
Si Si4 0.705230 0.316788 0.427437
Si Si5 0.786636 0.817854 0.090543
Si Si6 0.470551 0.317405 0.532990
O O1 0.935704 0.500000 0.264688
O O2 0.788811 0.722701 0.221543
O O3 0.788459 0.718110 0.136168
O O4 0.032876 0.788625 0.318169
O O5 0.640797 0.213326 0.207801
O O6 0.429272 0.278846 0.142407
O O7 0.450341 0.000000 0.122321
O O8 0.363930 0.232157 0.021343
O O9 0.423737 0.783637 0.374857
O O10 0.227110 0.000000 0.243653
O O11 0.740267 0.500000 0.446152
O O12 0.750000 0.250000 0.500000
O O13 0.800790 0.228312 0.445460
O O14 0.788659 0.000000 0.103824
O O15 0.500000 0.272257 0.500000
O O16 0.498876 0.500000 0.558438
#
# Coordination Sequence:
#
# PCOD8111976 Si02
#       6
#     8   8   8   8   8   8
#     4  11  24  41  63  92 125 163 207 254 306 365
#     4  10  22  41  65  91 125 162 203 256 309 366
#     4  11  24  41  63  91 125 163 206 255 307 365
#     4  12  24  41  65  91 125 165 206 254 305 363
#     4  10  22  41  65  93 122 161 207 253 309 368
#     4  11  25  43  64  91 125 164 207 255 308 364
#
# _framework density 20.580473999999999
#
# number of rings (size 3 to 8) (size 9 to 14) (size 15 to 20)
#    0.000    1.167    1.667    4.000    2.333    6.000 
#    0.000    3.333    0.000    0.000    0.000    0.000 
#    0.000    0.000    0.000    0.000    0.000    0.000 
#
# Total GULP energy -297801.772030 kJ/mol
# GULP energy per Si atom -12408.407168 kJ/mol
# Density = 2.053363 g / cm^3
# Si number density = 20.580474 Si / 1000 Ang^3
#
#
#
# Elastic Constant Matrix: (Units=GPa)
#
#
# Indices 1 2 3 4 5 6 
#
# 1 102.7010 38.1185 7.8439 -0.0001 -6.4195 0.0001
# 2 38.1185 56.3891 12.4532 -0.0002 -8.0248 -0.0006
# 3 7.8439 12.4532 42.3650 -0.0013 -1.8371 0.0003
# 4 -0.0001 -0.0002 -0.0013 34.1011 0.0001 1.2832
# 5 -6.4195 -8.0248 -1.8371 0.0001 39.3513 0.0001
# 6 0.0001 -0.0006 0.0003 1.2832 0.0001 30.0721
#
#
#
# Elastic Compliance Matrix: (Units=1/GPa)
#
#
# Indices 1 2 3 4 5 6 
#
# 1 0.013004 -0.008784 0.000189 0.000000 0.000339 0.000000
# 2 -0.008784 0.025426 -0.005696 0.000000 0.003486 0.000001
# 3 0.000189 -0.005696 0.025246 0.000001 0.000048 0.000000
# 4 0.000000 0.000000 0.000001 0.029372 0.000000 -0.001253
# 5 0.000339 0.003486 0.000048 0.000000 0.026181 0.000000
# 6 0.000000 0.000001 0.000000 -0.001253 0.000000 0.033307
#
#
# Mechanical properties :
#
#
# Convention : Reuss Voigt Hill
#
# Bulk Modulus (GPa) = 28.49568 35.36516 31.93042
# Shear Modulus (GPa) = 25.93145 30.24086 28.08615
#
# Velocity S-wave (km/s) = 3.55350 3.83743 3.69819
# Velocity P-wave (km/s) = 5.54189 6.07088 5.81241
#
# Compressibility (1/GPa) = 0.03509304
#
# Stress axis : x y z
#
# Youngs Moduli (GPa) = 76.89893 39.32964 39.61033
#
# Poissons Ratio (x) = 0.34548 -0.00749
# Poissons Ratio (y) = 0.67549 0.22564
# Poissons Ratio (z) = -0.01454 0.22404
#
# Static dielectric constant tensor:
#      x y z
#    x 3.824080 0.000000 -0.028200 
#    y 0.000000 3.702300 0.000000 
#    z -0.028200 0.000000 3.717890 
# 
# 
# High freq. dielectric constant tensor:
#      x y z
#    x 1.814800 0.000000 -0.001890 
#    y 0.000000 1.815700 0.000000 
#    z -0.001890 0.000000 1.801170 
# 
# From -- ./inp_files/244724.got.cif
#   From: 2010.06.25/outbox.cif.g09.slc.cpg/sg12_123_cif.got.tgz:244724.got - 2010.06.28 00:19:55.
