data_PCOD8111218
_publ_section_title
;
Structure prediction by ZEFSAII (Michael W. Deem and Ramdas Pophale) SiO2 
 PCOD8111218
Probable space group: C 2/M
;
_chemical_formula_sum "Si O2"
_cell_formula_units_Z 56
_cell_length_a 8.648043
_cell_length_b 26.432131
_cell_length_c 13.148352
_cell_angle_alpha 90.000000
_cell_angle_beta 109.408993
_cell_angle_gamma 90.000000
_cell_volume 2834.729051
_symmetry_space_group_name_H-M "C 2/M"
_symmetry_group_IT_number 12
_symmetry_cell_setting 'monoclinic'
loop_
_space_group_symop_operation_xyz
x,y,z
-x,y,-z
-x,-y,-z
x,-y,z
1/2+x,1/2+y,z
1/2-x,1/2+y,-z
1/2-x,1/2-y,-z
1/2+x,1/2-y,z
loop_
_atom_site_type_symbol
_atom_site_label
_atom_site_fract_x
_atom_site_fract_y
_atom_site_fract_z
Si Si1 0.626517 0.600763 0.618350
Si Si2 0.957517 0.942927 0.197014
Si Si3 0.007443 0.795379 0.381913
Si Si4 0.701010 0.099287 0.772874
Si Si5 0.062229 0.443539 0.405417
Si Si6 0.829518 0.441319 0.017555
Si Si7 0.126141 0.306899 0.620201
O O1 0.500000 0.591832 0.500000
O O2 0.604415 0.558642 0.700274
O O3 0.600703 0.655024 0.668555
O O4 0.805547 0.595921 0.608750
O O5 0.109705 0.905671 0.215679
O O6 0.011519 0.000000 0.183294
O O7 0.813455 0.925612 0.090822
O O8 0.925101 0.743153 0.325922
O O9 0.000000 0.789808 0.500000
O O10 0.192704 0.800723 0.385581
O O11 0.593364 0.053493 0.703573
O O12 0.683296 0.096875 0.890479
O O13 0.626319 0.149714 0.705912
O O14 0.137473 0.500000 0.432601
O O15 0.000000 0.422782 0.500000
O O16 0.812045 0.500000 0.047640
O O17 0.000000 0.431620 0.000000
O O18 0.000000 0.318892 0.500000
#
# Coordination Sequence:
#
# PCOD8111218 Si02
#       7
#     8   8   8   8   8   8   8
#     4  11  23  38  59  91 123 161 207 253 308 373
#     4  11  22  39  62  89 125 163 202 253 306 366
#     4  10  22  39  62  90 124 164 207 259 309 370
#     4  12  23  37  62  91 120 160 208 256 308 371
#     4  11  24  37  54  85 128 168 201 244 305 377
#     4  10  22  42  64  89 121 163 215 259 303 362
#     4  11  23  40  64  95 127 165 206 261 318 374
#
# _framework density 19.754975000000002
#
# number of rings (size 3 to 8) (size 9 to 14) (size 15 to 20)
#    0.000    1.143    1.429    6.000    8.000    4.571 
#    0.000    0.000    0.000    0.857    0.000    0.000 
#    0.000    0.000    0.000    0.000    0.000    0.000 
#
# Total GULP energy -347149.459788 kJ/mol
# GULP energy per Si atom -12398.194992 kJ/mol
# Density = 1.971001 g / cm^3
# Si number density = 19.754975 Si / 1000 Ang^3
#
#
#
# Elastic Constant Matrix: (Units=GPa)
#
#
# Indices 1 2 3 4 5 6 
#
# 1 157.9907 54.6812 55.3912 0.0000 4.5083 0.0000
# 2 54.6812 97.9898 42.2085 0.0000 4.5876 0.0000
# 3 55.3912 42.2085 130.2212 0.0000 0.7005 0.0000
# 4 0.0000 0.0000 0.0000 34.4895 0.0000 -4.9428
# 5 4.5083 4.5876 0.7005 0.0000 35.7590 0.0000
# 6 0.0000 0.0000 0.0000 -4.9428 0.0000 38.2743
#
#
#
# Elastic Compliance Matrix: (Units=1/GPa)
#
#
# Indices 1 2 3 4 5 6 
#
# 1 0.008455 -0.003655 -0.002409 0.000000 -0.000550 0.000000
# 2 -0.003655 0.013516 -0.002820 0.000000 -0.001218 0.000000
# 3 -0.002409 -0.002820 0.009615 0.000000 0.000477 0.000000
# 4 0.000000 0.000000 0.000000 0.029541 0.000000 0.003815
# 5 -0.000550 -0.001218 0.000477 0.000000 0.028181 0.000000
# 6 0.000000 0.000000 0.000000 0.003815 0.000000 0.026620
#
#
# Mechanical properties :
#
#
# Convention : Reuss Voigt Hill
#
# Bulk Modulus (GPa) = 72.36129 76.75150 74.55640
# Shear Modulus (GPa) = 36.15300 37.29929 36.72614
#
# Velocity S-wave (km/s) = 4.28257 4.34994 4.31639
# Velocity P-wave (km/s) = 7.82067 8.01033 7.91607
#
# Compressibility (1/GPa) = 0.01381954
#
# Stress axis : x y z
#
# Youngs Moduli (GPa) = 118.27960 73.98526 104.00120
#
# Poissons Ratio (x) = 0.27039 0.25051
# Poissons Ratio (y) = 0.43226 0.29327
# Poissons Ratio (z) = 0.28490 0.20863
#
# Static dielectric constant tensor:
#      x y z
#    x 3.662900 0.000000 0.007290 
#    y 0.000000 4.068120 0.000000 
#    z 0.007290 0.000000 3.355840 
# 
# 
# High freq. dielectric constant tensor:
#      x y z
#    x 1.789450 0.000000 0.003280 
#    y 0.000000 1.763410 0.000000 
#    z 0.003280 0.000000 1.749000 
# 
# From -- ./inp_files/125842.got.cif
#   From: 2010.06.25/outbox.cif.g09.slc.cpg/sg12_63_cif.got.tgz:125842.got - 2010.06.28 00:19:55.
