data_PCOD8111879
_publ_section_title
;
Structure prediction by ZEFSAII (Michael W. Deem and Ramdas Pophale) SiO2 
 PCOD8111879
Probable space group: C 2/M
;
_chemical_formula_sum "Si O2"
_cell_formula_units_Z 40
_cell_length_a 8.462783
_cell_length_b 18.799728
_cell_length_c 18.818774
_cell_angle_alpha 90.000000
_cell_angle_beta 41.316707
_cell_angle_gamma 90.000000
_cell_volume 1976.720362
_symmetry_space_group_name_H-M "C 2/M"
_symmetry_group_IT_number 12
_symmetry_cell_setting 'monoclinic'
loop_
_space_group_symop_operation_xyz
x,y,z
-x,y,-z
-x,-y,-z
x,-y,z
1/2+x,1/2+y,z
1/2-x,1/2+y,-z
1/2-x,1/2-y,-z
1/2+x,1/2-y,z
loop_
_atom_site_type_symbol
_atom_site_label
_atom_site_fract_x
_atom_site_fract_y
_atom_site_fract_z
Si Si1 0.535034 0.805250 0.567611
Si Si2 0.046853 0.697192 0.902856
Si Si3 0.272856 0.918249 0.913645
Si Si4 0.955846 0.807174 0.213131
Si Si5 0.120097 0.581808 0.281697
O O1 0.500000 0.835319 0.500000
O O2 0.750000 0.750000 0.500000
O O3 0.279572 0.768340 0.674143
O O4 0.578154 0.871977 0.607431
O O5 0.956159 0.762344 0.885110
O O6 0.335522 0.688896 0.798579
O O7 0.914421 0.625107 0.925433
O O8 0.000000 0.715129 0.000000
O O9 0.412215 0.908097 0.791821
O O10 0.273680 0.000000 0.937610
O O11 0.000000 0.890900 0.000000
O O12 0.883597 0.887407 0.213518
O O13 0.102043 0.500000 0.310594
#
# Coordination Sequence:
#
# PCOD8111879 Si02
#       5
#     8   8   8   8   8
#     4  10  22  41  65  89 120 165 205 266 319 377
#     4  12  23  37  61  94 129 167 212 262 310 380
#     4  10  22  41  63  90 132 177 208 253 315 380
#     4  10  23  37  60  92 127 161 211 259 323 367
#     4   9  21  40  64  91 124 164 211 259 316 382
#
# _framework density 20.235537999999998
#
# number of rings (size 3 to 8) (size 9 to 14) (size 15 to 20)
#    1.200    0.600    0.000    4.200    2.800    3.200 
#    0.000    0.000    0.000    0.600    0.000    0.000 
#    0.000    0.000    0.000    0.000    0.000    0.000 
#
# Total GULP energy -247844.423128 kJ/mol
# GULP energy per Si atom -12392.221156 kJ/mol
# Density = 2.018948 g / cm^3
# Si number density = 20.235538 Si / 1000 Ang^3
#
#
#
# Elastic Constant Matrix: (Units=GPa)
#
#
# Indices 1 2 3 4 5 6 
#
# 1 110.0134 51.5816 49.4934 0.0005 -12.6888 0.0008
# 2 51.5816 119.0704 51.3055 0.0005 -3.5290 0.0000
# 3 49.4934 51.3055 105.8967 0.0005 3.3556 0.0000
# 4 0.0005 0.0005 0.0005 32.9894 -0.0008 -1.1952
# 5 -12.6888 -3.5290 3.3556 -0.0008 43.9636 -0.0001
# 6 0.0008 0.0000 0.0000 -1.1952 -0.0001 37.4264
#
#
#
# Elastic Compliance Matrix: (Units=1/GPa)
#
#
# Indices 1 2 3 4 5 6 
#
# 1 0.013322 -0.003690 -0.004562 0.000000 0.003897 0.000000
# 2 -0.003690 0.011705 -0.003952 0.000000 0.000176 0.000000
# 3 -0.004562 -0.003952 0.013575 0.000000 -0.002670 0.000000
# 4 0.000000 0.000000 0.000000 0.030348 0.000001 0.000969
# 5 0.003897 0.000176 -0.002670 0.000001 0.024089 0.000000
# 6 0.000000 0.000000 0.000000 0.000969 0.000000 0.026750
#
#
# Mechanical properties :
#
#
# Convention : Reuss Voigt Hill
#
# Bulk Modulus (GPa) = 70.45405 71.08240 70.76823
# Shear Modulus (GPa) = 33.57361 35.04923 34.31142
#
# Velocity S-wave (km/s) = 4.07767 4.16632 4.12224
# Velocity P-wave (km/s) = 7.55397 7.63859 7.59640
#
# Compressibility (1/GPa) = 0.01419365
#
# Stress axis : x y z
#
# Youngs Moduli (GPa) = 75.06558 85.43463 73.66697
#
# Poissons Ratio (x) = 0.31524 0.33607
# Poissons Ratio (y) = 0.27698 0.29113
# Poissons Ratio (z) = 0.34245 0.33763
#
# Static dielectric constant tensor:
#      x y z
#    x 3.765710 0.000000 -0.013530 
#    y 0.000000 3.440860 0.000000 
#    z -0.013530 0.000000 3.802770 
# 
# 
# High freq. dielectric constant tensor:
#      x y z
#    x 1.787070 0.000000 0.009560 
#    y 0.000000 1.773260 0.000000 
#    z 0.009560 0.000000 1.793380 
# 
# From -- ./inp_files/301341.got.cif
#   From: 2010.06.25/outbox.cif.g09.slc.cpg/sg12_151_cif.got.tgz:301341.got - 2010.06.28 00:19:55.
