data_PCOD8111080
_publ_section_title
;
Structure prediction by ZEFSAII (Michael W. Deem and Ramdas Pophale) SiO2 
 PCOD8111080
Probable space group: C 2/M
;
_chemical_formula_sum "Si O2"
_cell_formula_units_Z 56
_cell_length_a 30.101808
_cell_length_b 9.020417
_cell_length_c 10.910592
_cell_angle_alpha 90.000000
_cell_angle_beta 114.199452
_cell_angle_gamma 90.000000
_cell_volume 2702.224408
_symmetry_space_group_name_H-M "C 2/M"
_symmetry_group_IT_number 12
_symmetry_cell_setting 'monoclinic'
loop_
_space_group_symop_operation_xyz
x,y,z
-x,y,-z
-x,-y,-z
x,-y,z
1/2+x,1/2+y,z
1/2-x,1/2+y,-z
1/2-x,1/2-y,-z
1/2+x,1/2-y,z
loop_
_atom_site_type_symbol
_atom_site_label
_atom_site_fract_x
_atom_site_fract_y
_atom_site_fract_z
Si Si1 0.821316 0.669275 0.390833
Si Si2 0.976039 0.176057 0.347341
Si Si3 0.726443 0.166415 0.322149
Si Si4 0.026546 0.175966 0.154468
Si Si5 0.374208 0.169429 0.687377
Si Si6 0.634676 0.675438 0.788805
Si Si7 0.292674 0.165266 0.982776
O O1 0.811832 0.500000 0.340174
O O2 0.772810 0.729737 0.406422
O O3 0.868046 0.679165 0.533338
O O4 0.832601 0.770177 0.287250
O O5 0.920514 0.230267 0.285971
O O6 0.000000 0.239458 0.500000
O O7 0.000987 0.237313 0.250334
O O8 0.979865 0.000000 0.351626
O O9 0.676116 0.233931 0.315592
O O10 0.734698 0.000000 0.384832
O O11 0.720335 0.159766 0.171635
O O12 0.081692 0.232134 0.214493
O O13 0.026838 0.000000 0.156258
O O14 0.000000 0.233051 0.000000
O O15 0.382774 0.000000 0.739784
O O16 0.638275 0.500000 0.800766
O O17 0.656666 0.747387 0.936739
O O18 0.297488 0.000000 0.042638
O O19 0.250000 0.250000 0.000000
#
# Coordination Sequence:
#
# PCOD8111080 Si02
#       7
#     8   8   8   8   8   8   8
#     4  11  22  37  59  88 121 152 193 243 288 346
#     4   9  19  37  60  86 116 152 196 245 297 353
#     4  10  22  39  59  83 117 157 197 235 287 354
#     4  10  22  40  62  89 117 151 201 254 296 347
#     4  10  23  41  60  86 118 155 195 239 294 353
#     4  11  22  36  60  87 117 156 195 238 296 354
#     4  11  22  37  57  84 118 155 195 242 290 348
#
# _framework density 20.723666999999999
#
# number of rings (size 3 to 8) (size 9 to 14) (size 15 to 20)
#    0.000    1.714    1.429    2.571    2.000    3.714 
#    0.000    1.429    0.000    3.857    0.000    0.000 
#    0.000    0.000    0.000    0.000    0.000    0.000 
#
# Total GULP energy -347173.401565 kJ/mol
# GULP energy per Si atom -12399.050056 kJ/mol
# Density = 2.067650 g / cm^3
# Si number density = 20.723667 Si / 1000 Ang^3
#
#
#
# Elastic Constant Matrix: (Units=GPa)
#
#
# Indices 1 2 3 4 5 6 
#
# 1 114.5274 30.9897 43.6348 0.0000 15.5324 0.0000
# 2 30.9897 72.4372 29.7021 0.0000 14.2818 0.0000
# 3 43.6348 29.7021 108.1501 0.0000 20.1206 0.0000
# 4 0.0000 0.0000 0.0000 27.8253 0.0000 7.6428
# 5 15.5324 14.2818 20.1206 0.0000 40.5921 0.0000
# 6 0.0000 0.0000 0.0000 7.6428 0.0000 27.7927
#
#
#
# Elastic Compliance Matrix: (Units=1/GPa)
#
#
# Indices 1 2 3 4 5 6 
#
# 1 0.011031 -0.003058 -0.003333 0.000000 -0.001493 0.000000
# 2 -0.003058 0.016925 -0.002781 0.000000 -0.003406 0.000000
# 3 -0.003333 -0.002781 0.012046 0.000000 -0.003717 0.000000
# 4 0.000000 0.000000 0.000000 0.038875 0.000000 -0.010690
# 5 -0.001493 -0.003406 -0.003717 0.000000 0.028248 0.000000
# 6 0.000000 0.000000 0.000000 -0.010690 0.000000 0.038920
#
#
# Mechanical properties :
#
#
# Convention : Reuss Voigt Hill
#
# Bulk Modulus (GPa) = 46.17029 55.97420 51.07225
# Shear Modulus (GPa) = 29.13581 31.96124 30.54852
#
# Velocity S-wave (km/s) = 3.75363 3.93142 3.84355
# Velocity P-wave (km/s) = 6.41199 6.90482 6.66296
#
# Compressibility (1/GPa) = 0.02165895
#
# Stress axis : x y z
#
# Youngs Moduli (GPa) = 90.64967 59.08337 83.01179
#
# Poissons Ratio (x) = 0.18070 0.27669
# Poissons Ratio (y) = 0.27724 0.23083
# Poissons Ratio (z) = 0.30215 0.16429
#
# Static dielectric constant tensor:
#      x y z
#    x 3.671510 0.000000 0.107560 
#    y 0.000000 3.342270 0.000000 
#    z 0.107560 0.000000 4.458900 
# 
# 
# High freq. dielectric constant tensor:
#      x y z
#    x 1.811700 0.000000 0.001050 
#    y 0.000000 1.791200 0.000000 
#    z 0.001050 0.000000 1.828830 
# 
# From -- ./inp_files/187150.got.cif
#   From: 2010.06.25/outbox.cif.g09.slc.cpg/sg12_94_cif.got.tgz:187150.got - 2010.06.28 00:19:55.
