data_PCOD8111143
_publ_section_title
;
Structure prediction by ZEFSAII (Michael W. Deem and Ramdas Pophale) SiO2 
 PCOD8111143
Probable space group: C 2/M
;
_chemical_formula_sum "Si O2"
_cell_formula_units_Z 64
_cell_length_a 29.583919
_cell_length_b 16.214185
_cell_length_c 10.890965
_cell_angle_alpha 90.000000
_cell_angle_beta 34.392914
_cell_angle_gamma 90.000000
_cell_volume 2950.949800
_symmetry_space_group_name_H-M "C 2/M"
_symmetry_group_IT_number 12
_symmetry_cell_setting 'monoclinic'
loop_
_space_group_symop_operation_xyz
x,y,z
-x,y,-z
-x,-y,-z
x,-y,z
1/2+x,1/2+y,z
1/2-x,1/2+y,-z
1/2-x,1/2-y,-z
1/2+x,1/2-y,z
loop_
_atom_site_type_symbol
_atom_site_label
_atom_site_fract_x
_atom_site_fract_y
_atom_site_fract_z
Si Si1 0.715927 0.334074 0.519116
Si Si2 0.352220 0.902980 0.053101
Si Si3 0.187194 0.095492 0.830469
Si Si4 0.498354 0.907730 0.137737
Si Si5 0.978242 0.902683 0.684950
Si Si6 0.729867 0.159822 0.991367
Si Si7 0.341237 0.141766 0.609529
Si Si8 0.623046 0.675546 0.482065
O O1 0.750000 0.250000 0.500000
O O2 0.788293 0.388284 0.303786
O O3 0.670838 0.386895 0.724623
O O4 0.647917 0.322325 0.568669
O O5 0.334016 0.844503 0.976655
O O6 0.353053 0.000000 0.013982
O O7 0.437700 0.868964 0.911208
O O8 0.265121 0.149375 0.690472
O O9 0.206107 0.000000 0.811820
O O10 0.111918 0.124588 0.080828
O O11 0.410190 0.912873 0.394178
O O12 0.529851 0.000000 0.044218
O O13 0.500000 0.862281 0.000000
O O14 0.000000 0.870474 0.500000
O O15 0.036536 0.863789 0.656393
O O16 0.987733 0.000000 0.673394
O O17 0.812861 0.125287 0.746783
O O18 0.750000 0.250000 0.000000
O O19 0.693816 0.104543 0.183326
O O20 0.380174 0.229726 0.552488
#
# Coordination Sequence:
#
# PCOD8111143 Si02
#       8
#     8   8   8   8   8   8   8   8
#     4  11  22  40  64  92 131 168 214 268 321 390
#     4  10  22  40  63  92 128 172 214 264 326 386
#     4  11  23  39  65  95 127 169 215 268 321 386
#     4  10  22  39  60  90 129 167 211 261 311 377
#     4  10  23  44  66  94 130 169 215 267 327 388
#     4   9  21  40  63  88 127 159 212 266 321 384
#     4  11  21  40  62  92 125 167 216 261 322 381
#     4  10  22  41  62  94 124 167 211 264 325 381
#
# _framework density 21.687933000000001
#
# number of rings (size 3 to 8) (size 9 to 14) (size 15 to 20)
#    0.000    1.750    1.250    2.250    0.000    6.500 
#    4.500    2.500    0.000    0.000    0.000    0.000 
#    0.000    0.000    0.000    0.000    0.000    0.000 
#
# Total GULP energy -396638.242505 kJ/mol
# GULP energy per Si atom -12394.945078 kJ/mol
# Density = 2.163857 g / cm^3
# Si number density = 21.687933 Si / 1000 Ang^3
#
#
#
# Elastic Constant Matrix: (Units=GPa)
#
#
# Indices 1 2 3 4 5 6 
#
# 1 152.4878 37.2958 63.2092 0.0000 -3.7606 0.0000
# 2 37.2958 47.4724 26.6390 0.0000 -5.8239 0.0000
# 3 63.2092 26.6390 125.6799 0.0000 5.0627 0.0000
# 4 0.0000 0.0000 0.0000 25.4085 0.0000 -3.1114
# 5 -3.7606 -5.8239 5.0627 0.0000 48.1588 0.0000
# 6 0.0000 0.0000 0.0000 -3.1114 0.0000 32.2541
#
#
#
# Elastic Compliance Matrix: (Units=1/GPa)
#
#
# Indices 1 2 3 4 5 6 
#
# 1 0.009352 -0.005266 -0.003607 0.000000 0.000473 0.000000
# 2 -0.005266 0.027454 -0.003302 0.000000 0.003256 0.000000
# 3 -0.003607 -0.003302 0.010543 0.000000 -0.001789 0.000000
# 4 0.000000 0.000000 0.000000 0.039827 0.000000 0.003842
# 5 0.000473 0.003256 -0.001789 0.000000 0.021383 0.000000
# 6 0.000000 0.000000 0.000000 0.003842 0.000000 0.031374
#
#
# Mechanical properties :
#
#
# Convention : Reuss Voigt Hill
#
# Bulk Modulus (GPa) = 43.47733 64.43647 53.95690
# Shear Modulus (GPa) = 29.07822 34.39736 31.73779
#
# Velocity S-wave (km/s) = 3.66561 3.98680 3.82957
# Velocity P-wave (km/s) = 6.16489 7.13919 6.66985
#
# Compressibility (1/GPa) = 0.02300049
#
# Stress axis : x y z
#
# Youngs Moduli (GPa) = 106.92337 36.42435 94.85335
#
# Poissons Ratio (x) = 0.19180 0.34210
# Poissons Ratio (y) = 0.56303 0.31320
# Poissons Ratio (z) = 0.38563 0.12027
#
# Static dielectric constant tensor:
#      x y z
#    x 4.119700 0.000000 0.223040 
#    y 0.000000 3.568720 0.000000 
#    z 0.223040 0.000000 4.113880 
# 
# 
# High freq. dielectric constant tensor:
#      x y z
#    x 1.862390 0.000000 0.007900 
#    y 0.000000 1.826370 0.000000 
#    z 0.007900 0.000000 1.855630 
# 
# From -- ./inp_files/190023.got.cif
#   From: 2010.06.25/outbox.cif.g09.slc.cpg/sg12_96_cif.got.tgz:190023.got - 2010.06.28 00:19:55.
