data_PCOD8111001
_publ_section_title
;
Structure prediction by ZEFSAII (Michael W. Deem and Ramdas Pophale) SiO2 
 PCOD8111001
Probable space group: C 2/M
;
_chemical_formula_sum "Si O2"
_cell_formula_units_Z 56
_cell_length_a 12.366945
_cell_length_b 17.585108
_cell_length_c 14.426457
_cell_angle_alpha 90.000000
_cell_angle_beta 58.388527
_cell_angle_gamma 90.000000
_cell_volume 2671.862001
_symmetry_space_group_name_H-M "C 2/M"
_symmetry_group_IT_number 12
_symmetry_cell_setting 'monoclinic'
loop_
_space_group_symop_operation_xyz
x,y,z
-x,y,-z
-x,-y,-z
x,-y,z
1/2+x,1/2+y,z
1/2-x,1/2+y,-z
1/2-x,1/2-y,-z
1/2+x,1/2-y,z
loop_
_atom_site_type_symbol
_atom_site_label
_atom_site_fract_x
_atom_site_fract_y
_atom_site_fract_z
Si Si1 0.084343 0.823544 0.375372
Si Si2 0.451389 0.087980 0.923730
Si Si3 0.029272 0.648732 0.385305
Si Si4 0.299118 0.333900 0.000994
Si Si5 0.368988 0.825038 0.293378
Si Si6 0.534951 0.657608 0.763336
Si Si7 0.722666 0.414381 0.803294
O O1 0.087834 0.732970 0.364964
O O2 0.228716 0.851401 0.326638
O O3 0.028044 0.861947 0.307680
O O4 0.000000 0.850445 0.500000
O O5 0.301827 0.103774 0.987794
O O6 0.523354 0.135576 0.814853
O O7 0.479843 0.000000 0.894671
O O8 0.500000 0.117057 0.000000
O O9 0.129768 0.595255 0.288640
O O10 0.000000 0.615898 0.500000
O O11 0.897072 0.650969 0.387280
O O12 0.319309 0.350997 0.101471
O O13 0.250000 0.250000 0.000000
O O14 0.429264 0.344046 0.889612
O O15 0.386858 0.735398 0.275780
O O16 0.638059 0.595210 0.748421
O O17 0.704862 0.500000 0.850046
#
# Coordination Sequence:
#
# PCOD8111001 Si02
#       7
#     8   8   8   8   8   8   8
#     4  10  22  40  68 102 130 167 225 287 333 388
#     4  11  24  39  62  93 130 170 211 266 331 393
#     4  10  22  38  66  99 129 170 223 278 336 391
#     4  12  23  40  66  96 130 171 218 272 319 398
#     4  11  21  40  67  97 132 168 220 281 331 392
#     4  11  24  39  65  96 130 176 221 264 337 400
#     4  12  26  44  64  96 140 176 221 273 335 402
#
# _framework density 20.959166
#
# number of rings (size 3 to 8) (size 9 to 14) (size 15 to 20)
#    0.000    1.000    4.286    2.571    4.000    3.714 
#    0.000    0.714    0.000    0.857    0.000    0.000 
#    0.000    0.000    0.000    0.000    0.000    0.000 
#
# Total GULP energy -347234.592619 kJ/mol
# GULP energy per Si atom -12401.235451 kJ/mol
# Density = 2.091146 g / cm^3
# Si number density = 20.959166 Si / 1000 Ang^3
#
#
#
# Elastic Constant Matrix: (Units=GPa)
#
#
# Indices 1 2 3 4 5 6 
#
# 1 162.3095 20.6673 49.0662 0.0000 12.1883 0.0000
# 2 20.6673 63.1773 21.4867 0.0000 11.7124 0.0000
# 3 49.0662 21.4867 103.1254 0.0000 17.8685 0.0000
# 4 0.0000 0.0000 0.0000 4.0908 0.0000 -3.0041
# 5 12.1883 11.7124 17.8685 0.0000 39.7393 0.0000
# 6 0.0000 0.0000 0.0000 -3.0041 0.0000 21.6852
#
#
#
# Elastic Compliance Matrix: (Units=1/GPa)
#
#
# Indices 1 2 3 4 5 6 
#
# 1 0.007301 -0.001236 -0.003136 0.000000 -0.000465 0.000000
# 2 -0.001236 0.017766 -0.002464 0.000000 -0.003749 0.000000
# 3 -0.003136 -0.002464 0.012374 0.000000 -0.003876 0.000000
# 4 0.000000 0.000000 0.000000 0.272137 0.000000 0.037700
# 5 -0.000465 -0.003749 -0.003876 0.000000 0.028154 0.000000
# 6 0.000000 0.000000 0.000000 0.037700 0.000000 0.051337
#
#
# Mechanical properties :
#
#
# Convention : Reuss Voigt Hill
#
# Bulk Modulus (GPa) = 42.07019 56.78363 49.42691
# Shear Modulus (GPa) = 12.17542 28.92920 20.55231
#
# Velocity S-wave (km/s) = 2.41283 3.71922 3.13483
# Velocity P-wave (km/s) = 5.27999 6.75239 6.06107
#
# Compressibility (1/GPa) = 0.02376980
#
# Stress axis : x y z
#
# Youngs Moduli (GPa) = 136.96169 56.28793 80.81535
#
# Poissons Ratio (x) = 0.06956 0.25342
# Poissons Ratio (y) = 0.16925 0.19913
# Poissons Ratio (z) = 0.42949 0.13869
#
# Static dielectric constant tensor:
#      x y z
#    x 3.958120 0.000000 0.305700 
#    y 0.000000 3.629060 0.000000 
#    z 0.305700 0.000000 3.754050 
# 
# 
# High freq. dielectric constant tensor:
#      x y z
#    x 1.844160 0.000000 0.008390 
#    y 0.000000 1.788960 0.000000 
#    z 0.008390 0.000000 1.822030 
# 
# From -- ./inp_files/206551.got.cif
#   From: 2010.06.25/outbox.cif.g09.slc.cpg/sg12_104_cif.got.tgz:206551.got - 2010.06.28 00:19:55.
