data_PCOD8111636
_publ_section_title
;
Structure prediction by ZEFSAII (Michael W. Deem and Ramdas Pophale) SiO2 
 PCOD8111636
Probable space group: C 2/M
;
_chemical_formula_sum "Si O2"
_cell_formula_units_Z 48
_cell_length_a 14.022430
_cell_length_b 25.909225
_cell_length_c 9.300608
_cell_angle_alpha 90.000000
_cell_angle_beta 45.809032
_cell_angle_gamma 90.000000
_cell_volume 2422.817016
_symmetry_space_group_name_H-M "C 2/M"
_symmetry_group_IT_number 12
_symmetry_cell_setting 'monoclinic'
loop_
_space_group_symop_operation_xyz
x,y,z
-x,y,-z
-x,-y,-z
x,-y,z
1/2+x,1/2+y,z
1/2-x,1/2+y,-z
1/2-x,1/2-y,-z
1/2+x,1/2-y,z
loop_
_atom_site_type_symbol
_atom_site_label
_atom_site_fract_x
_atom_site_fract_y
_atom_site_fract_z
Si Si1 0.480883 0.865665 0.684025
Si Si2 0.259210 0.439993 0.102304
Si Si3 0.486261 0.560157 0.347848
Si Si4 0.775229 0.887966 0.379274
Si Si5 0.647940 0.273299 0.716350
Si Si6 0.120991 0.733461 0.050127
O O1 0.500000 0.844674 0.500000
O O2 0.375929 0.911785 0.799581
O O3 0.621916 0.887247 0.592047
O O4 0.427847 0.822181 0.846667
O O5 0.229955 0.500000 0.117851
O O6 0.299863 0.427110 0.222562
O O7 0.378761 0.422658 0.873031
O O8 0.500000 0.573198 0.500000
O O9 0.456188 0.500000 0.352658
O O10 0.363299 0.593771 0.420053
O O11 0.815743 0.831399 0.279323
O O12 0.750000 0.250000 0.500000
O O13 0.501203 0.273381 0.798599
O O14 0.654729 0.234826 0.845646
O O15 0.250000 0.750000 0.000000
#
# Coordination Sequence:
#
# PCOD8111636 Si02
#       6
#     8   8   8   8   8   8
#     4  10  22  40  64  93 125 160 209 256 309 370
#     4  10  22  40  67  96 123 158 207 257 309 371
#     4  10  23  42  62  91 126 160 205 254 309 373
#     4  11  22  40  65  91 124 164 202 259 308 365
#     4  11  25  43  60  92 129 160 212 255 303 373
#     4  11  24  40  64  87 121 170 202 259 303 364
#
# _framework density 19.811647000000001
#
# number of rings (size 3 to 8) (size 9 to 14) (size 15 to 20)
#    0.000    1.500    1.667    3.000    7.000    6.333 
#    0.000    0.000    0.000    3.000    0.000    0.000 
#    0.000    0.000    0.000    0.000    0.000    0.000 
#
# Total GULP energy -297639.090111 kJ/mol
# GULP energy per Si atom -12401.628755 kJ/mol
# Density = 1.976655 g / cm^3
# Si number density = 19.811647 Si / 1000 Ang^3
#
#
#
# Elastic Constant Matrix: (Units=GPa)
#
#
# Indices 1 2 3 4 5 6 
#
# 1 156.2501 58.3534 85.8619 0.0000 -20.3977 0.0000
# 2 58.3534 81.7024 51.0641 0.0000 -2.6247 0.0000
# 3 85.8619 51.0641 151.1774 0.0000 -9.2781 0.0000
# 4 0.0000 0.0000 0.0000 36.0635 0.0000 -0.0479
# 5 -20.3977 -2.6247 -9.2781 0.0000 31.6992 0.0000
# 6 0.0000 0.0000 0.0000 -0.0479 0.0000 37.2988
#
#
#
# Elastic Compliance Matrix: (Units=1/GPa)
#
#
# Indices 1 2 3 4 5 6 
#
# 1 0.011556 -0.005307 -0.004420 0.000000 0.005702 0.000000
# 2 -0.005307 0.017954 -0.003227 0.000000 -0.002873 0.000000
# 3 -0.004420 -0.003227 0.010208 0.000000 -0.000124 0.000000
# 4 0.000000 0.000000 0.000000 0.027729 0.000000 0.000036
# 5 0.005702 -0.002873 -0.000124 0.000000 0.034942 0.000000
# 6 0.000000 0.000000 0.000000 0.000036 0.000000 0.026811
#
#
# Mechanical properties :
#
#
# Convention : Reuss Voigt Hill
#
# Bulk Modulus (GPa) = 72.41621 86.63208 79.52414
# Shear Modulus (GPa) = 31.30667 33.93566 32.62117
#
# Velocity S-wave (km/s) = 3.97950 4.14323 4.06219
# Velocity P-wave (km/s) = 7.59914 8.16769 7.88854
#
# Compressibility (1/GPa) = 0.01380906
#
# Stress axis : x y z
#
# Youngs Moduli (GPa) = 86.53851 55.69663 97.96622
#
# Poissons Ratio (x) = 0.29560 0.43305
# Poissons Ratio (y) = 0.45928 0.31610
# Poissons Ratio (z) = 0.38253 0.17971
#
# Static dielectric constant tensor:
#      x y z
#    x 3.817190 0.000000 -0.157710 
#    y 0.000000 3.672190 0.000000 
#    z -0.157710 0.000000 3.776960 
# 
# 
# High freq. dielectric constant tensor:
#      x y z
#    x 1.780530 0.000000 -0.015550 
#    y 0.000000 1.767540 0.000000 
#    z -0.015550 0.000000 1.783860 
# 
# From -- ./inp_files/67307.got.cif
#   From: 2010.06.25/outbox.cif.g09.slc.cpg/sg12_34_cif.got.tgz:67307.got - 2010.06.28 00:19:55.
