data_PCOD8111140
_publ_section_title
;
Structure prediction by ZEFSAII (Michael W. Deem and Ramdas Pophale) SiO2 
 PCOD8111140
Probable space group: C 2/M
;
_chemical_formula_sum "Si O2"
_cell_formula_units_Z 48
_cell_length_a 28.722910
_cell_length_b 13.903682
_cell_length_c 5.195970
_cell_angle_alpha 90.000000
_cell_angle_beta 97.155064
_cell_angle_gamma 90.000000
_cell_volume 2058.873562
_symmetry_space_group_name_H-M "C 2/M"
_symmetry_group_IT_number 12
_symmetry_cell_setting 'monoclinic'
loop_
_space_group_symop_operation_xyz
x,y,z
-x,y,-z
-x,-y,-z
x,-y,z
1/2+x,1/2+y,z
1/2-x,1/2+y,-z
1/2-x,1/2-y,-z
1/2+x,1/2-y,z
loop_
_atom_site_type_symbol
_atom_site_label
_atom_site_fract_x
_atom_site_fract_y
_atom_site_fract_z
Si Si1 0.266326 0.386731 0.618698
Si Si2 0.833741 0.391348 0.623362
Si Si3 0.972690 0.241641 0.720717
Si Si4 0.321226 0.613564 0.158455
Si Si5 0.390709 0.249124 0.976349
Si Si6 0.072172 0.607020 0.614014
O O1 0.263585 0.500000 0.601343
O O2 0.213835 0.347221 0.532910
O O3 0.284803 0.354649 0.909796
O O4 0.301387 0.350493 0.418270
O O5 0.825678 0.500000 0.727936
O O6 0.873957 0.394181 0.437991
O O7 0.848357 0.321003 0.864189
O O8 0.963721 0.353810 0.629938
O O9 0.000000 0.188598 0.500000
O O10 0.919325 0.204489 0.751656
O O11 0.000000 0.226637 0.000000
O O12 0.330732 0.500000 0.159134
O O13 0.370597 0.666587 0.141762
O O14 0.429841 0.184233 0.154597
O O15 0.056870 0.500000 0.688596
#
# Coordination Sequence:
#
# PCOD8111140 Si02
#       6
#     8   8   8   8   8   8
#     4   9  20  38  58  84 121 162 202 245 288 339
#     4   9  20  36  56  86 127 165 198 239 288 344
#     4  11  23  43  62  89 118 157 190 239 296 360
#     4  10  23  40  61  87 118 157 203 250 296 343
#     4  11  23  38  64  87 122 154 201 243 303 348
#     4  10  22  39  60  90 124 161 199 235 287 349
#
# _framework density 23.313718000000001
#
# number of rings (size 3 to 8) (size 9 to 14) (size 15 to 20)
#    0.000    2.000    1.667    0.500    7.000    2.667 
#    0.000    0.000    0.000    1.000    0.000    0.000 
#    0.000    0.000    0.000    0.000    0.000    0.000 
#
# Total GULP energy -297378.229575 kJ/mol
# GULP energy per Si atom -12390.759566 kJ/mol
# Density = 2.326065 g / cm^3
# Si number density = 23.313718 Si / 1000 Ang^3
#
#
#
# Elastic Constant Matrix: (Units=GPa)
#
#
# Indices 1 2 3 4 5 6 
#
# 1 24.7054 -12.1562 -2.2792 0.0000 -11.2954 0.0000
# 2 -12.1562 35.1561 2.1135 0.0000 2.9321 0.0000
# 3 -2.2792 2.1135 73.6920 0.0000 4.2426 0.0000
# 4 0.0000 0.0000 0.0000 20.5765 0.0000 -4.9168
# 5 -11.2954 2.9321 4.2426 0.0000 38.6504 0.0000
# 6 0.0000 0.0000 0.0000 -4.9168 0.0000 19.8446
#
#
#
# Elastic Compliance Matrix: (Units=1/GPa)
#
#
# Indices 1 2 3 4 5 6 
#
# 1 0.056348 0.018208 0.000354 0.000000 0.015047 0.000000
# 2 0.018208 0.034545 -0.000587 0.000000 0.002765 0.000000
# 3 0.000354 -0.000587 0.013676 0.000000 -0.001353 0.000000
# 4 0.000000 0.000000 0.000000 0.051657 0.000000 0.012799
# 5 0.015047 0.002765 -0.001353 0.000000 0.030209 0.000000
# 6 0.000000 0.000000 0.000000 0.012799 0.000000 0.053563
#
#
# Mechanical properties :
#
#
# Convention : Reuss Voigt Hill
#
# Bulk Modulus (GPa) = 7.11645 12.10109 9.60877
# Shear Modulus (GPa) = 19.92921 25.53933 22.73427
#
# Velocity S-wave (km/s) = 2.92692 3.31337 3.12612
# Velocity P-wave (km/s) = 3.80546 4.45418 4.14254
#
# Compressibility (1/GPa) = 0.14051940
#
# Stress axis : x y z
#
# Youngs Moduli (GPa) = 17.74673 28.94776 73.12252
#
# Poissons Ratio (x) = -0.52707 -0.02591
# Poissons Ratio (y) = -0.32313 0.04291
# Poissons Ratio (z) = -0.00629 0.01699
#
# Static dielectric constant tensor:
#      x y z
#    x 4.595450 0.000000 -0.160980 
#    y 0.000000 3.865850 0.000000 
#    z -0.160980 0.000000 4.297630 
# 
# 
# High freq. dielectric constant tensor:
#      x y z
#    x 1.937350 0.000000 -0.007110 
#    y 0.000000 1.878690 0.000000 
#    z -0.007110 0.000000 1.922740 
# 
# From -- ./inp_files/31234.got.cif
#   From: 2010.06.25/outbox.cif.g09.slc.cpg/sg12_16_cif.got.tgz:31234.got - 2010.06.28 00:19:55.
