data_PCOD8111336
_publ_section_title
;
Structure prediction by ZEFSAII (Michael W. Deem and Ramdas Pophale) SiO2 
 PCOD8111336
Probable space group: C 2/M
;
_chemical_formula_sum "Si O2"
_cell_formula_units_Z 64
_cell_length_a 26.404153
_cell_length_b 22.685262
_cell_length_c 17.760964
_cell_angle_alpha 90.000000
_cell_angle_beta 19.268494
_cell_angle_gamma 90.000000
_cell_volume 3510.673253
_symmetry_space_group_name_H-M "C 2/M"
_symmetry_group_IT_number 12
_symmetry_cell_setting 'monoclinic'
loop_
_space_group_symop_operation_xyz
x,y,z
-x,y,-z
-x,-y,-z
x,-y,z
1/2+x,1/2+y,z
1/2-x,1/2+y,-z
1/2-x,1/2-y,-z
1/2+x,1/2-y,z
loop_
_atom_site_type_symbol
_atom_site_label
_atom_site_fract_x
_atom_site_fract_y
_atom_site_fract_z
Si Si1 0.445556 0.673693 0.857232
Si Si2 0.371454 0.643488 0.742379
Si Si3 0.623861 0.937120 0.888972
Si Si4 0.878731 0.277651 0.737002
Si Si5 0.576805 0.782826 0.594680
Si Si6 0.964018 0.929432 0.362975
Si Si7 0.583468 0.155691 0.056821
Si Si8 0.894038 0.233495 0.077094
O O1 0.555237 0.715289 0.652258
O O2 0.492652 0.605769 0.774709
O O3 0.270219 0.686674 0.079619
O O4 0.467798 0.685508 0.915934
O O5 0.500000 0.643139 0.500000
O O6 0.342724 0.710124 0.811968
O O7 0.417940 0.596794 0.741110
O O8 0.214149 0.624813 0.923572
O O9 0.788466 0.912627 0.629791
O O10 0.657723 0.000000 0.880786
O O11 0.500000 0.947343 0.000000
O O12 0.530883 0.894569 0.074535
O O13 0.000000 0.279843 0.500000
O O14 0.950479 0.305309 0.711856
O O15 0.560461 0.824207 0.691018
O O16 0.740271 0.792447 0.327947
O O17 0.987195 0.000000 0.320193
O O18 0.647032 0.210331 0.917584
O O19 0.000000 0.249583 0.000000
#
# Coordination Sequence:
#
# PCOD8111336 Si02
#       8
#     8   8   8   8   8   8   8   8
#     4  11  21  36  58  81 112 146 184 228 276 338
#     4  11  18  32  57  83 117 144 174 221 279 338
#     4  10  22  40  57  77 112 155 191 225 271 326
#     4  11  18  34  58  83 111 147 179 215 280 340
#     4  11  20  33  55  83 109 145 181 220 278 338
#     4  11  23  36  58  85 112 147 187 233 277 327
#     4  11  21  34  55  83 112 145 180 226 277 332
#     4  11  23  37  53  82 116 147 183 231 282 325
#
# _framework density 18.230121
#
# number of rings (size 3 to 8) (size 9 to 14) (size 15 to 20)
#    0.000    1.125    6.250    3.000    0.000    3.750 
#    0.000    0.000    0.000    1.500    0.000    0.000 
#    0.000    0.000    0.000    0.000    0.000    0.000 
#
# Total GULP energy -396555.465927 kJ/mol
# GULP energy per Si atom -12392.358310 kJ/mol
# Density = 1.818863 g / cm^3
# Si number density = 18.230121 Si / 1000 Ang^3
#
#
#
# Elastic Constant Matrix: (Units=GPa)
#
#
# Indices 1 2 3 4 5 6 
#
# 1 88.2259 34.2954 31.1938 0.0008 8.2950 -0.0019
# 2 34.2954 101.0795 32.1857 0.0017 14.9639 -0.0001
# 3 31.1938 32.1857 61.9625 0.0019 12.5847 0.0090
# 4 0.0008 0.0017 0.0019 25.6567 0.0025 2.9794
# 5 8.2950 14.9639 12.5847 0.0025 24.9828 -0.0034
# 6 -0.0019 -0.0001 0.0090 2.9794 -0.0034 25.4721
#
#
#
# Elastic Compliance Matrix: (Units=1/GPa)
#
#
# Indices 1 2 3 4 5 6 
#
# 1 0.014569 -0.003114 -0.005696 0.000000 -0.000103 0.000003
# 2 -0.003114 0.012982 -0.004240 0.000000 -0.004606 0.000001
# 3 -0.005696 -0.004240 0.022623 0.000001 -0.006965 -0.000009
# 4 0.000000 0.000000 0.000001 0.039513 -0.000005 -0.004622
# 5 -0.000103 -0.004606 -0.006965 -0.000005 0.046329 0.000009
# 6 0.000003 0.000001 -0.000009 -0.004622 0.000009 0.039799
#
#
# Mechanical properties :
#
#
# Convention : Reuss Voigt Hill
#
# Bulk Modulus (GPa) = 41.53897 49.62420 45.58158
# Shear Modulus (GPa) = 23.81639 25.46184 24.63911
#
# Velocity S-wave (km/s) = 3.61838 3.74129 3.68035
# Velocity P-wave (km/s) = 6.34762 6.77813 6.56640
#
# Compressibility (1/GPa) = 0.02407378
#
# Stress axis : x y z
#
# Youngs Moduli (GPa) = 68.64089 77.03108 44.20213
#
# Poissons Ratio (x) = 0.23988 0.25177
# Poissons Ratio (y) = 0.21376 0.18742
# Poissons Ratio (z) = 0.39096 0.32661
#
# Static dielectric constant tensor:
#      x y z
#    x 3.628120 0.000000 0.086230 
#    y 0.000000 3.231080 0.000020 
#    z 0.086230 0.000020 3.338490 
# 
# 
# High freq. dielectric constant tensor:
#      x y z
#    x 1.716060 0.000000 0.003690 
#    y 0.000000 1.669670 0.000000 
#    z 0.003690 0.000000 1.706410 
# 
# From -- ./inp_files/294272.got.cif
#   From: 2010.06.25/outbox.cif.g09.slc.cpg/sg12_148_cif.got.tgz:294272.got - 2010.06.28 00:19:55.
