data_PCOD8111635
_publ_section_title
;
Structure prediction by ZEFSAII (Michael W. Deem and Ramdas Pophale) SiO2 
 PCOD8111635
Probable space group: C 2/M
;
_chemical_formula_sum "Si O2"
_cell_formula_units_Z 48
_cell_length_a 16.885975
_cell_length_b 26.099009
_cell_length_c 9.288853
_cell_angle_alpha 90.000000
_cell_angle_beta 36.120322
_cell_angle_gamma 90.000000
_cell_volume 2413.145246
_symmetry_space_group_name_H-M "C 2/M"
_symmetry_group_IT_number 12
_symmetry_cell_setting 'monoclinic'
loop_
_space_group_symop_operation_xyz
x,y,z
-x,y,-z
-x,-y,-z
x,-y,z
1/2+x,1/2+y,z
1/2-x,1/2+y,-z
1/2-x,1/2-y,-z
1/2+x,1/2-y,z
loop_
_atom_site_type_symbol
_atom_site_label
_atom_site_fract_x
_atom_site_fract_y
_atom_site_fract_z
Si Si1 0.250810 0.145084 0.283230
Si Si2 0.859938 0.559169 0.624335
Si Si3 0.742497 0.350547 0.960496
Si Si4 0.520641 0.287283 0.713469
Si Si5 0.000000 0.711420 0.500000
Si Si6 0.500000 0.215065 0.000000
Si Si7 0.637261 0.056935 0.711887
O O1 0.124128 0.166885 0.553063
O O2 0.382798 0.179420 0.110168
O O3 0.260421 0.091200 0.349671
O O4 0.218241 0.136551 0.163267
O O5 0.811921 0.500000 0.708718
O O6 0.747715 0.596543 0.860499
O O7 0.882264 0.575440 0.424762
O O8 0.000000 0.567062 0.500000
O O9 0.884921 0.323212 0.736544
O O10 0.629014 0.311303 0.070468
O O11 0.560180 0.248790 0.529374
O O12 0.553352 0.253682 0.803129
O O13 0.697269 0.000000 0.622822
O O14 0.500000 0.059352 0.000000
#
# Coordination Sequence:
#
# PCOD8111635 Si02
#       7
#     8   8   8   8   4   4   8
#     4  12  24  42  64  94 126 165 209 255 312 366
#     4  10  22  40  64  94 123 159 207 257 309 369
#     4  12  24  41  67  92 123 169 209 256 308 364
#     4  12  26  43  61  90 131 167 209 254 305 370
#     4  12  22  42  63  88 123 168 210 254 298 362
#     4  12  26  40  61  96 123 170 208 258 306 362
#     4  10  22  40  64  93 125 159 203 260 313 365
#
# _framework density 19.891052999999999
#
# number of rings (size 3 to 8) (size 9 to 14) (size 15 to 20)
#    0.000    0.667    5.000    3.000    4.667    2.000 
#    0.000    0.833    0.000    4.000    0.000    0.000 
#    0.000    0.000    0.000    0.000    0.000    0.000 
#
# Total GULP energy -297583.322079 kJ/mol
# GULP energy per Si atom -12399.305087 kJ/mol
# Density = 1.984578 g / cm^3
# Si number density = 19.891053 Si / 1000 Ang^3
#
#
#
# Elastic Constant Matrix: (Units=GPa)
#
#
# Indices 1 2 3 4 5 6 
#
# 1 60.0104 32.0500 20.6147 0.0000 25.6448 0.0000
# 2 32.0500 107.8104 28.5568 0.0000 12.2217 0.0000
# 3 20.6147 28.5568 65.3400 0.0000 7.9348 0.0000
# 4 0.0000 0.0000 0.0000 26.4363 0.0000 12.6434
# 5 25.6448 12.2217 7.9348 0.0000 41.8773 0.0000
# 6 0.0000 0.0000 0.0000 12.6434 0.0000 29.2095
#
#
#
# Elastic Compliance Matrix: (Units=1/GPa)
#
#
# Indices 1 2 3 4 5 6 
#
# 1 0.027088 -0.005243 -0.004530 0.000000 -0.014200 0.000000
# 2 -0.005243 0.011715 -0.003522 0.000000 0.000459 0.000000
# 3 -0.004530 -0.003522 0.018231 0.000000 0.000348 0.000000
# 4 0.000000 0.000000 0.000000 0.047702 0.000000 -0.020648
# 5 -0.014200 0.000459 0.000348 0.000000 0.032375 0.000000
# 6 0.000000 0.000000 0.000000 -0.020648 0.000000 0.043173
#
#
# Mechanical properties :
#
#
# Convention : Reuss Voigt Hill
#
# Bulk Modulus (GPa) = 32.84737 43.95599 38.40168
# Shear Modulus (GPa) = 23.03911 29.63392 26.33652
#
# Velocity S-wave (km/s) = 3.40702 3.86399 3.64268
# Velocity P-wave (km/s) = 5.65920 6.48488 6.08606
#
# Compressibility (1/GPa) = 0.03044384
#
# Stress axis : x y z
#
# Youngs Moduli (GPa) = 36.91622 85.36089 54.85231
#
# Poissons Ratio (x) = 0.44756 0.24851
# Poissons Ratio (y) = 0.19356 0.19317
# Poissons Ratio (z) = 0.16725 0.30060
#
# Static dielectric constant tensor:
#      x y z
#    x 3.715240 0.000000 0.188730 
#    y 0.000000 4.027080 0.000000 
#    z 0.188730 0.000000 3.514530 
# 
# 
# High freq. dielectric constant tensor:
#      x y z
#    x 1.777360 0.000000 0.022350 
#    y 0.000000 1.790820 0.000000 
#    z 0.022350 0.000000 1.769550 
# 
# From -- ./inp_files/67368.got.cif
#   From: 2010.06.25/outbox.cif.g09.slc.cpg/sg12_34_cif.got.tgz:67368.got - 2010.06.28 00:19:55.
