data_PCOD8111920
_publ_section_title
;
Structure prediction by ZEFSAII (Michael W. Deem and Ramdas Pophale) SiO2 
 PCOD8111920
Probable space group: C 2/M
;
_chemical_formula_sum "Si O2"
_cell_formula_units_Z 56
_cell_length_a 17.605665
_cell_length_b 8.439025
_cell_length_c 18.457633
_cell_angle_alpha 90.000000
_cell_angle_beta 75.869449
_cell_angle_gamma 90.000000
_cell_volume 2659.358637
_symmetry_space_group_name_H-M "C 2/M"
_symmetry_group_IT_number 12
_symmetry_cell_setting 'monoclinic'
loop_
_space_group_symop_operation_xyz
x,y,z
-x,y,-z
-x,-y,-z
x,-y,z
1/2+x,1/2+y,z
1/2-x,1/2+y,-z
1/2-x,1/2-y,-z
1/2+x,1/2-y,z
loop_
_atom_site_type_symbol
_atom_site_label
_atom_site_fract_x
_atom_site_fract_y
_atom_site_fract_z
Si Si1 0.556465 0.182103 0.922842
Si Si2 0.084916 0.816744 0.507231
Si Si3 0.265377 0.182934 0.075183
Si Si4 0.803267 0.317317 0.635799
Si Si5 0.018571 0.819116 0.779776
Si Si6 0.353167 0.183736 0.784651
Si Si7 0.138716 0.680868 0.643323
O O1 0.644300 0.206312 0.928151
O O2 0.540310 0.290049 0.857657
O O3 0.538403 0.000000 0.906822
O O4 0.500000 0.240447 0.000000
O O5 0.147826 0.792124 0.429543
O O6 0.107158 0.711779 0.570561
O O7 0.000000 0.760722 0.500000
O O8 0.083879 0.000000 0.530504
O O9 0.216576 0.283441 0.143839
O O10 0.240218 0.000000 0.085112
O O11 0.250000 0.250000 0.000000
O O12 0.824171 0.500000 0.616491
O O13 0.824364 0.265718 0.712009
O O14 0.711329 0.293474 0.644445
O O15 0.069430 0.707915 0.716246
O O16 0.927474 0.787099 0.788771
O O17 0.036972 0.000000 0.755646
O O18 0.376089 0.000000 0.782759
O O19 0.166656 0.500000 0.642468
#
# Coordination Sequence:
#
# PCOD8111920 Si02
#       7
#     8   8   8   8   8   8   8
#     4  10  22  41  64  91 125 164 205 250 304 365
#     4  11  24  42  65  93 126 163 205 254 306 363
#     4  11  23  39  63  93 126 164 206 254 306 364
#     4  11  24  42  65  93 125 162 206 254 305 363
#     4  12  25  41  64  93 125 160 204 256 308 366
#     4  11  24  42  64  90 124 164 206 254 307 365
#     4  12  25  42  65  91 125 165 205 252 306 365
#
# _framework density 21.057708999999999
#
# number of rings (size 3 to 8) (size 9 to 14) (size 15 to 20)
#    0.000    0.857    0.000    7.286    0.000   10.571 
#    0.000    0.000    0.000    0.000    0.000    0.000 
#    0.000    0.000    0.000    0.000    0.000    0.000 
#
# Total GULP energy -347474.345507 kJ/mol
# GULP energy per Si atom -12409.798054 kJ/mol
# Density = 2.100978 g / cm^3
# Si number density = 21.057709 Si / 1000 Ang^3
#
#
#
# Elastic Constant Matrix: (Units=GPa)
#
#
# Indices 1 2 3 4 5 6 
#
# 1 109.5033 25.0882 45.9863 0.0000 6.9100 0.0000
# 2 25.0882 73.5486 25.0736 0.0000 11.5315 0.0000
# 3 45.9863 25.0736 150.4963 0.0000 4.2496 0.0000
# 4 0.0000 0.0000 0.0000 22.9728 0.0000 -4.3796
# 5 6.9100 11.5315 4.2496 0.0000 44.4173 0.0000
# 6 0.0000 0.0000 0.0000 -4.3796 0.0000 21.9391
#
#
#
# Elastic Compliance Matrix: (Units=1/GPa)
#
#
# Indices 1 2 3 4 5 6 
#
# 1 0.011004 -0.002648 -0.002900 0.000000 -0.000747 0.000000
# 2 -0.002648 0.015624 -0.001696 0.000000 -0.003482 0.000000
# 3 -0.002900 -0.001696 0.007809 0.000000 0.000144 0.000000
# 4 0.000000 0.000000 0.000000 0.045252 0.000000 0.009034
# 5 -0.000747 -0.003482 0.000144 0.000000 0.023520 0.000000
# 6 0.000000 0.000000 0.000000 0.009034 0.000000 0.047384
#
#
# Mechanical properties :
#
#
# Convention : Reuss Voigt Hill
#
# Bulk Modulus (GPa) = 50.12592 58.42716 54.27654
# Shear Modulus (GPa) = 29.11550 33.69250 31.40400
#
# Velocity S-wave (km/s) = 3.72244 4.00435 3.86596
# Velocity P-wave (km/s) = 6.50624 7.01329 6.76452
#
# Compressibility (1/GPa) = 0.01994976
#
# Stress axis : x y z
#
# Youngs Moduli (GPa) = 90.87738 64.00570 128.05246
#
# Poissons Ratio (x) = 0.16947 0.37137
# Poissons Ratio (y) = 0.24062 0.21713
# Poissons Ratio (z) = 0.26356 0.10853
#
# Static dielectric constant tensor:
#      x y z
#    x 3.886170 0.000000 0.027160 
#    y 0.000000 3.579280 0.000000 
#    z 0.027160 0.000000 3.879560 
# 
# 
# High freq. dielectric constant tensor:
#      x y z
#    x 1.840990 0.000000 0.000810 
#    y 0.000000 1.830540 0.000000 
#    z 0.000810 0.000000 1.841580 
# 
# From -- ./inp_files/275304.got.cif
#   From: 2010.06.25/outbox.cif.g09.slc.cpg/sg12_138_cif.got.tgz:275304.got - 2010.06.28 00:19:55.
