data_PCOD8111441
_publ_section_title
;
Structure prediction by ZEFSAII (Michael W. Deem and Ramdas Pophale) SiO2 
 PCOD8111441
Probable space group: C 2/M
;
_chemical_formula_sum "Si O2"
_cell_formula_units_Z 48
_cell_length_a 9.482444
_cell_length_b 13.959139
_cell_length_c 29.156158
_cell_angle_alpha 90.000000
_cell_angle_beta 143.395241
_cell_angle_gamma 90.000000
_cell_volume 2301.271570
_symmetry_space_group_name_H-M "C 2/M"
_symmetry_group_IT_number 12
_symmetry_cell_setting 'monoclinic'
loop_
_space_group_symop_operation_xyz
x,y,z
-x,y,-z
-x,-y,-z
x,-y,z
1/2+x,1/2+y,z
1/2-x,1/2+y,-z
1/2-x,1/2-y,-z
1/2+x,1/2-y,z
loop_
_atom_site_type_symbol
_atom_site_label
_atom_site_fract_x
_atom_site_fract_y
_atom_site_fract_z
Si Si1 0.715022 0.111907 0.652981
Si Si2 0.514536 0.612176 0.367314
Si Si3 0.591092 0.725620 0.124397
Si Si4 0.401764 0.241910 0.770522
Si Si5 0.680670 0.386002 0.508805
Si Si6 0.360236 0.889498 0.010108
O O1 0.881399 0.165739 0.732441
O O2 0.445950 0.147617 0.590079
O O3 0.793046 0.135915 0.621459
O O4 0.743045 0.000000 0.670535
O O5 0.470172 0.500000 0.359949
O O6 0.261895 0.657090 0.290284
O O7 0.609915 0.654714 0.440356
O O8 0.672305 0.727310 0.198136
O O9 0.413069 0.638540 0.068120
O O10 0.827584 0.706333 0.157071
O O11 0.473613 0.827054 0.080254
O O12 0.500000 0.346086 0.500000
O O13 0.673563 0.500000 0.505346
O O14 0.377285 0.000000 0.029004
O O15 0.500000 0.867898 0.000000
#
# Coordination Sequence:
#
# PCOD8111441 Si02
#       6
#     8   8   8   8   8   8
#     4  10  22  40  62  86 119 168 212 249 305 366
#     4  10  22  40  61  86 121 166 210 253 306 362
#     4  11  24  42  63  95 129 156 195 255 300 358
#     4  12  24  40  61  93 131 159 197 254 310 358
#     4   9  19  36  59  88 121 158 210 266 302 349
#     4  10  22  43  71  94 119 163 204 238 296 368
#
# _framework density 20.858034
#
# number of rings (size 3 to 8) (size 9 to 14) (size 15 to 20)
#    0.000    1.667    3.333    0.500    2.333    5.333 
#    0.000    0.833    0.000    0.000    0.000    0.000 
#    0.000    0.000    0.000    0.000    0.000    0.000 
#
# Total GULP energy -297730.052965 kJ/mol
# GULP energy per Si atom -12405.418874 kJ/mol
# Density = 2.081056 g / cm^3
# Si number density = 20.858034 Si / 1000 Ang^3
#
#
#
# Elastic Constant Matrix: (Units=GPa)
#
#
# Indices 1 2 3 4 5 6 
#
# 1 105.7120 35.6344 37.2890 0.0000 6.5413 0.0000
# 2 35.6344 58.7697 21.8718 0.0000 0.2106 0.0000
# 3 37.2890 21.8718 95.8832 0.0001 6.6232 0.0000
# 4 0.0000 0.0000 0.0001 26.7271 0.0000 0.5287
# 5 6.5413 0.2106 6.6232 0.0000 52.7785 0.0000
# 6 0.0000 0.0000 0.0000 0.5287 0.0000 26.0145
#
#
#
# Elastic Compliance Matrix: (Units=1/GPa)
#
#
# Indices 1 2 3 4 5 6 
#
# 1 0.012967 -0.006569 -0.003465 0.000000 -0.001146 0.000000
# 2 -0.006569 0.021933 -0.002521 0.000000 0.001043 0.000000
# 3 -0.003465 -0.002521 0.012429 0.000000 -0.001120 0.000000
# 4 0.000000 0.000000 0.000000 0.037430 0.000000 -0.000761
# 5 -0.001146 0.001043 -0.001120 0.000000 0.019226 0.000000
# 6 0.000000 0.000000 0.000000 -0.000761 0.000000 0.038456
#
#
# Mechanical properties :
#
#
# Convention : Reuss Voigt Hill
#
# Bulk Modulus (GPa) = 45.00439 49.99503 47.49971
# Shear Modulus (GPa) = 28.57846 32.14199 30.36023
#
# Velocity S-wave (km/s) = 3.70556 3.92980 3.81933
# Velocity P-wave (km/s) = 6.31914 6.67925 6.50169
#
# Compressibility (1/GPa) = 0.02222006
#
# Stress axis : x y z
#
# Youngs Moduli (GPa) = 77.11740 45.59382 80.45459
#
# Poissons Ratio (x) = 0.29950 0.27881
# Poissons Ratio (y) = 0.50657 0.20279
# Poissons Ratio (z) = 0.26724 0.11492
#
# Static dielectric constant tensor:
#      x y z
#    x 3.910140 0.000000 0.014760 
#    y 0.000000 3.565240 0.000000 
#    z 0.014760 0.000000 3.771430 
# 
# 
# High freq. dielectric constant tensor:
#      x y z
#    x 1.826660 0.000000 0.002740 
#    y 0.000000 1.810050 0.000000 
#    z 0.002740 0.000000 1.821110 
# 
# From -- ./inp_files/356289.got.cif
#   From: 2010.06.25/outbox.cif.g09.slc.cpg/sg12_179_cif.got.tgz:356289.got - 2010.06.28 00:19:55.
