data_PCOD8111309
_publ_section_title
;
Structure prediction by ZEFSAII (Michael W. Deem and Ramdas Pophale) SiO2 
 PCOD8111309
Probable space group: C 2/M
;
_chemical_formula_sum "Si O2"
_cell_formula_units_Z 64
_cell_length_a 14.718053
_cell_length_b 16.295527
_cell_length_c 19.501662
_cell_angle_alpha 90.000000
_cell_angle_beta 39.325224
_cell_angle_gamma 90.000000
_cell_volume 2964.072561
_symmetry_space_group_name_H-M "C 2/M"
_symmetry_group_IT_number 12
_symmetry_cell_setting 'monoclinic'
loop_
_space_group_symop_operation_xyz
x,y,z
-x,y,-z
-x,-y,-z
x,-y,z
1/2+x,1/2+y,z
1/2-x,1/2+y,-z
1/2-x,1/2-y,-z
1/2+x,1/2-y,z
loop_
_atom_site_type_symbol
_atom_site_label
_atom_site_fract_x
_atom_site_fract_y
_atom_site_fract_z
Si Si1 0.661072 0.097352 0.430018
Si Si2 0.335443 0.410557 0.603514
Si Si3 0.717096 0.594793 0.995245
Si Si4 0.160961 0.410475 0.931199
Si Si5 0.752953 0.713465 0.229227
Si Si6 0.403336 0.803649 0.786545
Si Si7 0.058560 0.818277 0.796289
Si Si8 0.850536 0.594397 0.411080
O O1 0.500000 0.121104 0.500000
O O2 0.787883 0.142031 0.313897
O O3 0.675139 0.132931 0.499077
O O4 0.686590 0.000000 0.408586
O O5 0.500000 0.423496 0.500000
O O6 0.266982 0.500000 0.665303
O O7 0.304125 0.338479 0.674175
O O8 0.285564 0.385751 0.556604
O O9 0.725132 0.500000 0.966060
O O10 0.769470 0.658167 0.906591
O O11 0.823118 0.610510 0.997815
O O12 0.551533 0.613947 0.110715
O O13 0.232200 0.500000 0.876732
O O14 0.240185 0.342662 0.841715
O O15 0.000000 0.412638 0.000000
O O16 0.643852 0.781391 0.263831
O O17 0.903221 0.754123 0.164934
O O18 0.479483 0.727620 0.780269
O O19 0.515623 0.875394 0.710765
O O20 0.878854 0.500000 0.408069
#
# Coordination Sequence:
#
# PCOD8111309 Si02
#       8
#     8   8   8   8   8   8   8   8
#     4  10  23  45  70  97 134 182 235 277 327 402
#     4  10  23  42  65  96 131 171 220 270 330 402
#     4  11  25  47  70  96 134 180 232 278 332 405
#     4  10  22  39  65  94 125 172 218 265 329 404
#     4  12  25  40  64  94 135 170 210 276 334 395
#     4  12  25  42  65 100 138 174 215 277 341 403
#     4  12  25  43  67 103 135 174 222 285 342 395
#     4  10  22  43  69  95 130 177 220 270 330 398
#
# _framework density 21.591913999999999
#
# number of rings (size 3 to 8) (size 9 to 14) (size 15 to 20)
#    0.000    1.125    2.500    3.000    3.500    2.000 
#    0.000    2.500    0.000    0.000    0.000    0.000 
#    0.000    0.000    0.000    0.000    0.000    0.000 
#
# Total GULP energy -396647.911385 kJ/mol
# GULP energy per Si atom -12395.247231 kJ/mol
# Density = 2.154277 g / cm^3
# Si number density = 21.591914 Si / 1000 Ang^3
#
#
#
# Elastic Constant Matrix: (Units=GPa)
#
#
# Indices 1 2 3 4 5 6 
#
# 1 148.6446 50.4722 37.6302 0.0000 1.4379 0.0001
# 2 50.4722 80.3583 44.1880 0.0002 5.7533 -0.0001
# 3 37.6302 44.1880 91.8240 0.0006 -12.8875 -0.0002
# 4 0.0000 0.0002 0.0006 42.9684 -0.0004 9.8621
# 5 1.4379 5.7533 -12.8875 -0.0004 33.4999 0.0001
# 6 0.0001 -0.0001 -0.0002 9.8621 0.0001 36.2095
#
#
#
# Elastic Compliance Matrix: (Units=1/GPa)
#
#
# Indices 1 2 3 4 5 6 
#
# 1 0.008658 -0.004731 -0.001278 0.000000 -0.000051 0.000000
# 2 -0.004731 0.020906 -0.009088 0.000000 -0.006883 0.000000
# 3 -0.001278 -0.009088 0.016928 0.000000 0.008128 0.000000
# 4 0.000000 0.000000 0.000000 0.024825 0.000000 -0.006761
# 5 -0.000051 -0.006883 0.008128 0.000000 0.034162 0.000000
# 6 0.000000 0.000000 0.000000 -0.006761 0.000000 0.029459
#
#
# Mechanical properties :
#
#
# Convention : Reuss Voigt Hill
#
# Bulk Modulus (GPa) = 61.35927 65.04533 63.20230
# Shear Modulus (GPa) = 29.31430 35.10466 32.20948
#
# Velocity S-wave (km/s) = 3.68863 4.03653 3.86649
# Velocity P-wave (km/s) = 6.82794 7.20520 7.01911
#
# Compressibility (1/GPa) = 0.01629746
#
# Stress axis : x y z
#
# Youngs Moduli (GPa) = 115.49812 47.83317 59.07290
#
# Poissons Ratio (x) = 0.22632 0.07552
# Poissons Ratio (y) = 0.54647 0.53683
# Poissons Ratio (z) = 0.14766 0.43469
#
# Static dielectric constant tensor:
#      x y z
#    x 4.183190 0.000000 0.082160 
#    y 0.000000 4.242480 0.000000 
#    z 0.082160 0.000000 3.706990 
# 
# 
# High freq. dielectric constant tensor:
#      x y z
#    x 1.866180 0.000000 0.001800 
#    y 0.000000 1.858800 0.000000 
#    z 0.001800 0.000000 1.831020 
# 
# From -- ./inp_files/271684.got.cif
#   From: 2010.06.25/outbox.cif.g09.slc.cpg/sg12_136_cif.got.tgz:271684.got - 2010.06.28 00:19:55.
