data_PCOD8111484
_publ_section_title
;
Structure prediction by ZEFSAII (Michael W. Deem and Ramdas Pophale) SiO2 
 PCOD8111484
Probable space group: C 2/M
;
_chemical_formula_sum "Si O2"
_cell_formula_units_Z 56
_cell_length_a 23.834323
_cell_length_b 15.217083
_cell_length_c 8.778828
_cell_angle_alpha 90.000000
_cell_angle_beta 59.377610
_cell_angle_gamma 90.000000
_cell_volume 2739.954594
_symmetry_space_group_name_H-M "C 2/M"
_symmetry_group_IT_number 12
_symmetry_cell_setting 'monoclinic'
loop_
_space_group_symop_operation_xyz
x,y,z
-x,y,-z
-x,-y,-z
x,-y,z
1/2+x,1/2+y,z
1/2-x,1/2+y,-z
1/2-x,1/2-y,-z
1/2+x,1/2-y,z
loop_
_atom_site_type_symbol
_atom_site_label
_atom_site_fract_x
_atom_site_fract_y
_atom_site_fract_z
Si Si1 0.000745 0.900466 0.179639
Si Si2 0.560114 0.761236 0.580946
Si Si3 0.027721 0.398056 0.128537
Si Si4 0.160127 0.698763 0.928059
Si Si5 0.324471 0.275160 0.402727
Si Si6 0.207882 0.098443 0.318556
Si Si7 0.389215 0.323847 0.772787
O O1 0.070746 0.877009 0.155890
O O2 0.950341 0.829540 0.312179
O O3 0.981730 0.000000 0.254967
O O4 0.000000 0.892010 0.000000
O O5 0.509615 0.838322 0.694213
O O6 0.633684 0.786382 0.536364
O O7 0.561274 0.736908 0.398740
O O8 0.018745 0.500000 0.186720
O O9 0.103843 0.374509 0.020593
O O10 0.000000 0.378318 0.000000
O O11 0.144702 0.763917 0.807057
O O12 0.229770 0.654684 0.815325
O O13 0.161066 0.758082 0.076911
O O14 0.250000 0.250000 0.500000
O O15 0.322454 0.373638 0.475925
O O16 0.151526 0.108073 0.270689
O O17 0.231921 0.000000 0.297059
#
# Coordination Sequence:
#
# PCOD8111484 Si02
#       7
#     8   8   8   8   8   8   8
#     4  11  23  38  61  91 119 159 211 259 310 372
#     4  11  21  39  59  89 128 163 203 254 316 370
#     4  11  22  37  64  96 126 166 211 258 309 367
#     4  11  20  39  63  90 120 167 211 251 308 371
#     4   9  20  37  62  84 115 157 206 253 307 367
#     4  10  22  40  61  90 122 160 210 261 311 371
#     4  11  23  38  63  86 126 168 204 253 316 375
#
# _framework density 20.438296000000001
#
# number of rings (size 3 to 8) (size 9 to 14) (size 15 to 20)
#    0.000    1.429    2.857    3.000    0.000    3.429 
#    0.000    3.571    0.000    0.000    0.000    0.000 
#    0.000    0.000    0.000    0.000    0.000    0.000 
#
# Total GULP energy -346983.655798 kJ/mol
# GULP energy per Si atom -12392.273421 kJ/mol
# Density = 2.039178 g / cm^3
# Si number density = 20.438296 Si / 1000 Ang^3
#
#
#
# Elastic Constant Matrix: (Units=GPa)
#
#
# Indices 1 2 3 4 5 6 
#
# 1 98.3059 33.0479 23.7044 0.0000 1.2650 0.0000
# 2 33.0479 128.0578 64.8777 0.0000 7.7722 0.0000
# 3 23.7044 64.8777 107.0806 0.0000 9.6375 0.0000
# 4 0.0000 0.0000 0.0000 23.4732 0.0000 -0.5273
# 5 1.2650 7.7722 9.6375 0.0000 36.3887 0.0000
# 6 0.0000 0.0000 0.0000 -0.5273 0.0000 22.2940
#
#
#
# Elastic Compliance Matrix: (Units=1/GPa)
#
#
# Indices 1 2 3 4 5 6 
#
# 1 0.011226 -0.002372 -0.001084 0.000000 0.000404 0.000000
# 2 -0.002372 0.011782 -0.006551 0.000000 -0.000699 0.000000
# 3 -0.001084 -0.006551 0.013746 0.000000 -0.002204 0.000000
# 4 0.000000 0.000000 0.000000 0.042624 0.000000 0.001008
# 5 0.000404 -0.000699 -0.002204 0.000000 0.028200 0.000000
# 6 0.000000 0.000000 0.000000 0.001008 0.000000 0.044879
#
#
# Mechanical properties :
#
#
# Convention : Reuss Voigt Hill
#
# Bulk Modulus (GPa) = 59.73596 64.07825 61.90711
# Shear Modulus (GPa) = 28.08171 30.55214 29.31693
#
# Velocity S-wave (km/s) = 3.71074 3.87052 3.79147
# Velocity P-wave (km/s) = 6.90292 7.16901 7.03722
#
# Compressibility (1/GPa) = 0.01674033
#
# Stress axis : x y z
#
# Youngs Moduli (GPa) = 89.07830 84.87270 72.74891
#
# Poissons Ratio (x) = 0.20135 0.07886
# Poissons Ratio (y) = 0.21133 0.47655
# Poissons Ratio (z) = 0.09657 0.55596
#
# Static dielectric constant tensor:
#      x y z
#    x 3.914430 0.000000 0.109270 
#    y 0.000000 3.618590 0.000000 
#    z 0.109270 0.000000 3.873700 
# 
# 
# High freq. dielectric constant tensor:
#      x y z
#    x 1.823090 0.000000 -0.002190 
#    y 0.000000 1.776910 0.000000 
#    z -0.002190 0.000000 1.802370 
# 
# From -- ./inp_files/96758.got.cif
#   From: 2010.06.25/outbox.cif.g09.slc.cpg/sg12_49_cif.got.tgz:96758.got - 2010.06.28 00:19:55.
