data_PCOD8111004
_publ_section_title
;
Structure prediction by ZEFSAII (Michael W. Deem and Ramdas Pophale) SiO2 
 PCOD8111004
Probable space group: C 2/M
;
_chemical_formula_sum "Si O2"
_cell_formula_units_Z 36
_cell_length_a 8.497418
_cell_length_b 29.141534
_cell_length_c 13.432945
_cell_angle_alpha 90.000000
_cell_angle_beta 149.026336
_cell_angle_gamma 90.000000
_cell_volume 1711.896728
_symmetry_space_group_name_H-M "C 2/M"
_symmetry_group_IT_number 12
_symmetry_cell_setting 'monoclinic'
loop_
_space_group_symop_operation_xyz
x,y,z
-x,y,-z
-x,-y,-z
x,-y,z
1/2+x,1/2+y,z
1/2-x,1/2+y,-z
1/2-x,1/2-y,-z
1/2+x,1/2-y,z
loop_
_atom_site_type_symbol
_atom_site_label
_atom_site_fract_x
_atom_site_fract_y
_atom_site_fract_z
Si Si1 0.936572 0.814900 0.143526
Si Si2 0.666029 0.886929 0.857545
Si Si3 0.711072 0.052055 0.209654
Si Si4 0.280405 0.886196 0.461338
Si Si5 0.500000 0.744005 0.000000
O O1 0.156611 0.841791 0.336598
O O2 0.116225 0.789244 0.151947
O O3 0.688203 0.848809 0.956683
O O4 0.780680 0.775776 0.123683
O O5 0.481171 0.930216 0.800283
O O6 0.477857 0.867784 0.661350
O O7 0.000000 0.902672 0.000000
O O8 0.016551 0.080835 0.357329
O O9 0.808546 0.000000 0.284736
O O10 0.500000 0.056043 0.000000
O O11 0.500000 0.912415 0.500000
#
# Coordination Sequence:
#
# PCOD8111004 Si02
#       5
#     8   8   8   8   4
#     4  11  21  43  61  97 126 169 214 269 315 396
#     4  12  23  43  70  92 132 176 216 263 320 386
#     4  11  24  43  67 100 133 168 215 268 320 379
#     4  12  23  42  70  94 130 178 215 260 323 386
#     4  10  22  38  68  88 136 162 208 280 324 360
#
# _framework density 21.029305000000001
#
# number of rings (size 3 to 8) (size 9 to 14) (size 15 to 20)
#    0.000    0.667    5.556    2.000    0.000    2.667 
#    0.000   12.222    0.000    0.000    0.000    0.000 
#    0.000    0.000    0.000    0.000    0.000    0.000 
#
# Total GULP energy -223173.846285 kJ/mol
# GULP energy per Si atom -12398.547016 kJ/mol
# Density = 2.098144 g / cm^3
# Si number density = 21.029305 Si / 1000 Ang^3
#
#
#
# Elastic Constant Matrix: (Units=GPa)
#
#
# Indices 1 2 3 4 5 6 
#
# 1 137.4079 77.3568 65.9555 0.0000 4.2642 0.0000
# 2 77.3568 124.7335 63.1638 0.0000 6.0392 0.0000
# 3 65.9555 63.1638 148.9615 0.0000 -14.7732 0.0000
# 4 0.0000 0.0000 0.0000 23.1192 0.0000 -21.9220
# 5 4.2642 6.0392 -14.7732 0.0000 46.1565 0.0000
# 6 0.0000 0.0000 0.0000 -21.9220 0.0000 27.9201
#
#
#
# Elastic Compliance Matrix: (Units=1/GPa)
#
#
# Indices 1 2 3 4 5 6 
#
# 1 0.012076 -0.005927 -0.002961 0.000000 -0.001288 0.000000
# 2 -0.005927 0.013484 -0.003319 0.000000 -0.002279 0.000000
# 3 -0.002961 -0.003319 0.009813 0.000000 0.003849 0.000000
# 4 0.000000 0.000000 0.000000 0.169302 0.000000 0.132931
# 5 -0.001288 -0.002279 0.003849 0.000000 0.023314 0.000000
# 6 0.000000 0.000000 0.000000 0.132931 0.000000 0.140190
#
#
# Mechanical properties :
#
#
# Convention : Reuss Voigt Hill
#
# Bulk Modulus (GPa) = 91.25773 91.56167 91.40970
# Shear Modulus (GPa) = 12.61833 33.08093 22.84963
#
# Velocity S-wave (km/s) = 2.45222 3.97052 3.29988
# Velocity P-wave (km/s) = 7.17688 8.04081 7.62109
#
# Compressibility (1/GPa) = 0.01095798
#
# Stress axis : x y z
#
# Youngs Moduli (GPa) = 82.81006 74.16054 101.90086
#
# Poissons Ratio (x) = 0.43957 0.30175
# Poissons Ratio (y) = 0.49084 0.33824
# Poissons Ratio (z) = 0.24522 0.24616
#
# Static dielectric constant tensor:
#      x y z
#    x 4.395900 0.000000 -0.076170 
#    y 0.000000 3.859170 0.000000 
#    z -0.076170 0.000000 3.925240 
# 
# 
# High freq. dielectric constant tensor:
#      x y z
#    x 1.849320 0.000000 -0.008390 
#    y 0.000000 1.814950 0.000000 
#    z -0.008390 0.000000 1.823190 
# 
# From -- ./inp_files/67482.got.cif
#   From: 2010.06.25/outbox.cif.g09.slc.cpg/sg12_34_cif.got.tgz:67482.got - 2010.06.28 00:19:55.
