data_PCOD8111637
_publ_section_title
;
Structure prediction by ZEFSAII (Michael W. Deem and Ramdas Pophale) SiO2 
 PCOD8111637
Probable space group: C 2/M
;
_chemical_formula_sum "Si O2"
_cell_formula_units_Z 40
_cell_length_a 19.711146
_cell_length_b 8.756665
_cell_length_c 11.347965
_cell_angle_alpha 90.000000
_cell_angle_beta 90.124867
_cell_angle_gamma 90.000000
_cell_volume 1958.698391
_symmetry_space_group_name_H-M "C 2/M"
_symmetry_group_IT_number 12
_symmetry_cell_setting 'monoclinic'
loop_
_space_group_symop_operation_xyz
x,y,z
-x,y,-z
-x,-y,-z
x,-y,z
1/2+x,1/2+y,z
1/2-x,1/2+y,-z
1/2-x,1/2-y,-z
1/2+x,1/2-y,z
loop_
_atom_site_type_symbol
_atom_site_label
_atom_site_fract_x
_atom_site_fract_y
_atom_site_fract_z
Si Si1 0.824513 0.678984 0.997191
Si Si2 0.381037 0.824787 0.250315
Si Si3 0.520569 0.823681 0.369417
Si Si4 0.762734 0.820992 0.374322
Si Si5 0.357606 0.679985 0.763527
O O1 0.816637 0.500000 0.976615
O O2 0.869977 0.750108 0.892882
O O3 0.750000 0.750000 0.000000
O O4 0.865974 0.717304 0.115397
O O5 0.459925 0.796695 0.277103
O O6 0.339405 0.714409 0.336418
O O7 0.361037 0.000000 0.277608
O O8 0.500000 0.768648 0.500000
O O9 0.583924 0.724967 0.327272
O O10 0.543146 0.000000 0.373341
O O11 0.750000 0.750000 0.500000
O O12 0.714348 0.743582 0.278833
O O13 0.749340 0.000000 0.379079
O O14 0.352965 0.500000 0.772737
#
# Coordination Sequence:
#
# PCOD8111637 Si02
#       5
#     8   8   8   8   8
#     4  11  22  39  64  93 128 167 212 266 320 376
#     4  10  22  40  64  93 126 164 210 263 319 380
#     4  10  22  42  66  92 126 167 209 260 324 386
#     4  12  24  39  63  92 125 163 210 263 316 378
#     4  12  25  41  63  92 128 168 214 263 315 376
#
# _framework density 20.421724999999999
#
# number of rings (size 3 to 8) (size 9 to 14) (size 15 to 20)
#    0.000    1.000    2.000    5.400    0.000    4.400 
#    0.000    4.000    0.000    0.000    0.000    0.000 
#    0.000    0.000    0.000    0.000    0.000    0.000 
#
# Total GULP energy -248139.354463 kJ/mol
# GULP energy per Si atom -12406.967723 kJ/mol
# Density = 2.037524 g / cm^3
# Si number density = 20.421725 Si / 1000 Ang^3
#
#
#
# Elastic Constant Matrix: (Units=GPa)
#
#
# Indices 1 2 3 4 5 6 
#
# 1 57.4083 17.8869 11.8759 0.0000 -2.0707 0.0000
# 2 17.8869 119.0797 40.5404 0.0000 -7.4718 0.0000
# 3 11.8759 40.5404 111.0697 0.0000 -3.9583 0.0000
# 4 0.0000 0.0000 0.0000 34.6264 0.0000 -7.8268
# 5 -2.0707 -7.4718 -3.9583 0.0000 40.0127 0.0000
# 6 0.0000 0.0000 0.0000 -7.8268 0.0000 34.3297
#
#
#
# Elastic Compliance Matrix: (Units=1/GPa)
#
#
# Indices 1 2 3 4 5 6 
#
# 1 0.018396 -0.002367 -0.001089 0.000000 0.000402 0.000000
# 2 -0.002367 0.009979 -0.003339 0.000000 0.001411 0.000000
# 3 -0.001089 -0.003339 0.010351 0.000000 0.000344 0.000000
# 4 0.000000 0.000000 0.000000 0.030449 0.000000 0.006942
# 5 0.000402 0.001411 0.000344 0.000000 0.025310 0.000000
# 6 0.000000 0.000000 0.000000 0.006942 0.000000 0.030712
#
#
# Mechanical properties :
#
#
# Convention : Reuss Voigt Hill
#
# Bulk Modulus (GPa) = 39.78348 47.57379 43.67863
# Shear Modulus (GPa) = 33.97549 36.27741 35.12645
#
# Velocity S-wave (km/s) = 4.08326 4.21932 4.15185
# Velocity P-wave (km/s) = 6.46173 6.86172 6.66473
#
# Compressibility (1/GPa) = 0.02513606
#
# Stress axis : x y z
#
# Youngs Moduli (GPa) = 54.35842 100.21521 96.61233
#
# Poissons Ratio (x) = 0.23726 0.10517
# Poissons Ratio (y) = 0.12869 0.32256
# Poissons Ratio (z) = 0.05917 0.33459
#
# Static dielectric constant tensor:
#      x y z
#    x 3.696090 0.000000 0.116660 
#    y 0.000000 3.713900 0.000000 
#    z 0.116660 0.000000 3.977060 
# 
# 
# High freq. dielectric constant tensor:
#      x y z
#    x 1.794590 0.000000 0.001440 
#    y 0.000000 1.800110 0.000000 
#    z 0.001440 0.000000 1.817070 
# 
# From -- ./inp_files/151686.got.cif
#   From: 2010.06.25/outbox.cif.g09.slc.cpg/sg12_76_cif.got.tgz:151686.got - 2010.06.28 00:19:55.
