data_PCOD8111997
_publ_section_title
;
Structure prediction by ZEFSAII (Michael W. Deem and Ramdas Pophale) SiO2 
 PCOD8111997
Probable space group: C 2/M
;
_chemical_formula_sum "Si O2"
_cell_formula_units_Z 64
_cell_length_a 30.085612
_cell_length_b 8.536222
_cell_length_c 16.149853
_cell_angle_alpha 90.000000
_cell_angle_beta 46.996291
_cell_angle_gamma 90.000000
_cell_volume 3033.153370
_symmetry_space_group_name_H-M "C 2/M"
_symmetry_group_IT_number 12
_symmetry_cell_setting 'monoclinic'
loop_
_space_group_symop_operation_xyz
x,y,z
-x,y,-z
-x,-y,-z
x,-y,z
1/2+x,1/2+y,z
1/2-x,1/2+y,-z
1/2-x,1/2-y,-z
1/2+x,1/2-y,z
loop_
_atom_site_type_symbol
_atom_site_label
_atom_site_fract_x
_atom_site_fract_y
_atom_site_fract_z
Si Si1 0.509434 0.684544 0.736844
Si Si2 0.332708 0.181226 0.734682
Si Si3 0.268463 0.316844 0.563958
Si Si4 0.201716 0.681555 0.923664
Si Si5 0.882791 0.682241 0.493692
Si Si6 0.378294 0.318326 0.838470
Si Si7 0.666920 0.316513 0.802549
Si Si8 0.544681 0.685557 0.873076
O O1 0.521287 0.500000 0.716221
O O2 0.548807 0.770506 0.616502
O O3 0.439482 0.726900 0.809359
O O4 0.527352 0.751899 0.804763
O O5 0.271772 0.282921 0.816129
O O6 0.370615 0.225379 0.604625
O O7 0.375900 0.220052 0.757024
O O8 0.313895 0.000000 0.758712
O O9 0.254395 0.500000 0.585882
O O10 0.250000 0.250000 0.500000
O O11 0.339155 0.283598 0.489610
O O12 0.231420 0.226237 0.681470
O O13 0.193482 0.500000 0.953543
O O14 0.160081 0.728327 0.898296
O O15 0.179630 0.777799 0.031380
O O16 0.871447 0.500000 0.491108
O O17 0.376214 0.500000 0.817928
O O18 0.663775 0.500000 0.825076
O O19 0.613268 0.263716 0.808812
O O20 0.537755 0.500000 0.879895
O O21 0.500000 0.755509 0.000000
#
# Coordination Sequence:
#
# PCOD8111997 Si02
#       8
#     8   8   8   8   8   8   8   8
#     4  10  22  41  65  93 126 169 216 264 319 381
#     4  11  24  43  66  92 126 166 212 265 327 390
#     4  12  24  39  61  89 124 164 210 260 314 377
#     4  12  24  40  64  94 129 167 210 265 325 387
#     4  11  24  42  65  91 126 168 211 265 323 381
#     4  11  24  42  66  94 126 166 214 267 323 385
#     4  11  21  36  61  92 125 162 207 259 317 377
#     4   9  18  35  60  89 122 163 209 254 306 369
#
# _framework density 21.100152000000001
#
# number of rings (size 3 to 8) (size 9 to 14) (size 15 to 20)
#    0.000    1.125    1.250    5.625    0.000    6.000 
#    0.000    3.125    0.000    2.625    0.000    0.000 
#    0.000    0.000    0.000    0.000    0.000    0.000 
#
# Total GULP energy -397023.781929 kJ/mol
# GULP energy per Si atom -12406.993185 kJ/mol
# Density = 2.105213 g / cm^3
# Si number density = 21.100152 Si / 1000 Ang^3
#
#
#
# Elastic Constant Matrix: (Units=GPa)
#
#
# Indices 1 2 3 4 5 6 
#
# 1 108.6151 26.9412 36.7438 0.0000 14.3074 -0.0002
# 2 26.9412 53.5670 22.8495 -0.0040 0.9921 0.0028
# 3 36.7438 22.8495 128.6025 -0.0008 8.1984 0.0005
# 4 0.0000 -0.0040 -0.0008 31.9966 0.0003 3.2741
# 5 14.3074 0.9921 8.1984 0.0003 39.8806 -0.0002
# 6 -0.0002 0.0028 0.0005 3.2741 -0.0002 32.4571
#
#
#
# Elastic Compliance Matrix: (Units=1/GPa)
#
#
# Indices 1 2 3 4 5 6 
#
# 1 0.011635 -0.004831 -0.002237 -0.000001 -0.003594 0.000001
# 2 -0.004831 0.022207 -0.002676 0.000003 0.001731 -0.000002
# 3 -0.002237 -0.002676 0.008952 0.000000 -0.000971 0.000000
# 4 -0.000001 0.000003 0.000000 0.031579 0.000000 -0.003186
# 5 -0.003594 0.001731 -0.000971 0.000000 0.026521 0.000000
# 6 0.000001 -0.000002 0.000000 -0.003186 0.000000 0.031131
#
#
# Mechanical properties :
#
#
# Convention : Reuss Voigt Hill
#
# Bulk Modulus (GPa) = 42.90473 51.53929 47.22201
# Shear Modulus (GPa) = 31.39068 34.48356 32.93712
#
# Velocity S-wave (km/s) = 3.86126 4.04701 3.95522
# Velocity P-wave (km/s) = 6.34484 6.80564 6.57928
#
# Compressibility (1/GPa) = 0.02330745
#
# Stress axis : x y z
#
# Youngs Moduli (GPa) = 85.94515 45.03027 111.70271
#
# Poissons Ratio (x) = 0.21755 0.24987
# Poissons Ratio (y) = 0.41522 0.29888
# Poissons Ratio (z) = 0.19225 0.12049
#
# Static dielectric constant tensor:
#      x y z
#    x 3.892710 0.000000 0.106380 
#    y 0.000000 3.698020 0.000000 
#    z 0.106380 0.000000 3.916840 
# 
# 
# High freq. dielectric constant tensor:
#      x y z
#    x 1.834700 0.000000 0.006840 
#    y 0.000000 1.816280 0.000000 
#    z 0.006840 0.000000 1.834990 
# 
# From -- ./inp_files/249855.got.cif
#   From: 2010.06.25/outbox.cif.g09.slc.cpg/sg12_125_cif.got.tgz:249855.got - 2010.06.28 00:19:55.
