data_PCOD8111536
_publ_section_title
;
Structure prediction by ZEFSAII (Michael W. Deem and Ramdas Pophale) SiO2 
 PCOD8111536
Probable space group: C 2/M
;
_chemical_formula_sum "Si O2"
_cell_formula_units_Z 32
_cell_length_a 7.194863
_cell_length_b 25.607838
_cell_length_c 13.118560
_cell_angle_alpha 90.000000
_cell_angle_beta 138.785221
_cell_angle_gamma 90.000000
_cell_volume 1592.539643
_symmetry_space_group_name_H-M "C 2/M"
_symmetry_group_IT_number 12
_symmetry_cell_setting 'monoclinic'
loop_
_space_group_symop_operation_xyz
x,y,z
-x,y,-z
-x,-y,-z
x,-y,z
1/2+x,1/2+y,z
1/2-x,1/2+y,-z
1/2-x,1/2-y,-z
1/2+x,1/2-y,z
loop_
_atom_site_type_symbol
_atom_site_label
_atom_site_fract_x
_atom_site_fract_y
_atom_site_fract_z
Si Si1 0.252183 0.309879 0.030365
Si Si2 0.899584 0.940088 0.347722
Si Si3 0.303251 0.902946 0.142587
Si Si4 0.267583 0.632028 0.670297
O O1 0.542095 0.320624 0.210652
O O2 0.250000 0.250000 0.000000
O O3 0.222307 0.345126 0.917379
O O4 0.000000 0.324799 0.000000
O O5 0.560022 0.934510 0.198104
O O6 0.000000 0.920253 0.500000
O O7 0.047842 0.906523 0.322223
O O8 0.984968 0.000000 0.365768
O O9 0.357381 0.899877 0.285626
O O10 0.000000 0.931706 0.000000
O O11 0.000000 0.655550 0.500000
#
# Coordination Sequence:
#
# PCOD8111536 Si02
#       4
#     8   8   8   8
#     4  11  22  42  66  92 127 165 207 261 321 372
#     4  11  23  40  64  94 130 170 210 263 319 369
#     4  10  22  40  62  92 129 166 208 268 312 369
#     4  11  22  40  65  93 129 166 212 261 309 372
#
# _framework density 20.093691
#
# number of rings (size 3 to 8) (size 9 to 14) (size 15 to 20)
#    0.000    1.250    5.000    2.250    0.000    2.000 
#    0.000   15.000    0.000    0.000    0.000    0.000 
#    0.000    0.000    0.000    0.000    0.000    0.000 
#
# Total GULP energy -198386.033555 kJ/mol
# GULP energy per Si atom -12399.127097 kJ/mol
# Density = 2.004796 g / cm^3
# Si number density = 20.093691 Si / 1000 Ang^3
#
#
#
# Elastic Constant Matrix: (Units=GPa)
#
#
# Indices 1 2 3 4 5 6 
#
# 1 133.4580 34.2346 50.3683 0.0000 0.3985 0.0000
# 2 34.2346 81.9010 34.5252 0.0000 -4.3948 0.0000
# 3 50.3683 34.5252 136.2475 0.0000 4.5504 0.0000
# 4 0.0000 0.0000 0.0000 22.0437 0.0000 0.3645
# 5 0.3985 -4.3948 4.5504 0.0000 42.1459 0.0000
# 6 0.0000 0.0000 0.0000 0.3645 0.0000 15.2137
#
#
#
# Elastic Compliance Matrix: (Units=1/GPa)
#
#
# Indices 1 2 3 4 5 6 
#
# 1 0.009214 -0.002710 -0.002717 0.000000 -0.000076 0.000000
# 2 -0.002710 0.014606 -0.002761 0.000000 0.001847 0.000000
# 3 -0.002717 -0.002761 0.009085 0.000000 -0.001243 0.000000
# 4 0.000000 0.000000 0.000000 0.045382 0.000000 -0.001087
# 5 -0.000076 0.001847 -0.001243 0.000000 0.024055 0.000000
# 6 0.000000 0.000000 0.000000 -0.001087 0.000000 0.065756
#
#
# Mechanical properties :
#
#
# Convention : Reuss Voigt Hill
#
# Bulk Modulus (GPa) = 60.50071 65.54032 63.02051
# Shear Modulus (GPa) = 26.31814 31.37923 28.84869
#
# Velocity S-wave (km/s) = 3.62300 3.95605 3.79319
# Velocity P-wave (km/s) = 6.90480 7.31815 7.11448
#
# Compressibility (1/GPa) = 0.01652873
#
# Stress axis : x y z
#
# Youngs Moduli (GPa) = 108.53277 68.46666 110.07057
#
# Poissons Ratio (x) = 0.18556 0.29905
# Poissons Ratio (y) = 0.29414 0.30389
# Poissons Ratio (z) = 0.29487 0.18903
#
# Static dielectric constant tensor:
#      x y z
#    x 4.127840 0.000000 0.158880 
#    y 0.000000 3.212440 0.000000 
#    z 0.158880 0.000000 3.957630 
# 
# 
# High freq. dielectric constant tensor:
#      x y z
#    x 1.815750 0.000000 0.004570 
#    y 0.000000 1.749920 0.000000 
#    z 0.004570 0.000000 1.794130 
# 
# From -- ./inp_files/115998.got.cif
#   From: 2010.06.25/outbox.cif.g09.slc.cpg/sg12_58_cif.got.tgz:115998.got - 2010.06.28 00:19:55.
