data_PCOD8111138
_publ_section_title
;
Structure prediction by ZEFSAII (Michael W. Deem and Ramdas Pophale) SiO2 
 PCOD8111138
Probable space group: C 2/M
;
_chemical_formula_sum "Si O2"
_cell_formula_units_Z 64
_cell_length_a 30.939893
_cell_length_b 8.987864
_cell_length_c 14.152501
_cell_angle_alpha 90.000000
_cell_angle_beta 123.040631
_cell_angle_gamma 90.000000
_cell_volume 3299.132347
_symmetry_space_group_name_H-M "C 2/M"
_symmetry_group_IT_number 12
_symmetry_cell_setting 'monoclinic'
loop_
_space_group_symop_operation_xyz
x,y,z
-x,y,-z
-x,-y,-z
x,-y,z
1/2+x,1/2+y,z
1/2-x,1/2+y,-z
1/2-x,1/2-y,-z
1/2+x,1/2-y,z
loop_
_atom_site_type_symbol
_atom_site_label
_atom_site_fract_x
_atom_site_fract_y
_atom_site_fract_z
Si Si1 0.158988 0.326566 0.492799
Si Si2 0.559109 0.824150 0.060734
Si Si3 0.221471 0.323569 0.052861
Si Si4 0.241190 0.172961 0.266930
Si Si5 0.045449 0.829630 0.682702
Si Si6 0.144426 0.175179 0.277979
Si Si7 0.571012 0.671270 0.500789
Si Si8 0.604380 0.175513 0.918316
O O1 0.154587 0.500000 0.463802
O O2 0.211463 0.288013 0.609099
O O3 0.160195 0.234897 0.398412
O O4 0.111077 0.280867 0.500313
O O5 0.590673 0.747506 0.182422
O O6 0.566406 0.000000 0.078968
O O7 0.500000 0.776399 0.000000
O O8 0.579412 0.762255 0.984768
O O9 0.225881 0.500000 0.050682
O O10 0.247839 0.270208 0.180945
O O11 0.250000 0.250000 0.000000
O O12 0.162669 0.266352 0.980226
O O13 0.188694 0.219751 0.256622
O O14 0.240949 0.000000 0.238677
O O15 0.069635 0.791517 0.610016
O O16 0.071723 0.726430 0.790467
O O17 0.984645 0.798049 0.610952
O O18 0.056546 0.000000 0.721884
O O19 0.137301 0.000000 0.276745
O O20 0.587085 0.500000 0.503524
O O21 0.603158 0.000000 0.918943
#
# Coordination Sequence:
#
# PCOD8111138 Si02
#       8
#     8   8   8   8   8   8   8   8
#     4  11  24  39  61  89 119 154 196 247 299 353
#     4  10  22  41  63  89 124 161 200 247 300 359
#     4  11  24  41  63  90 124 162 202 249 299 356
#     4  10  23  43  63  88 120 155 199 247 297 355
#     4   9  20  38  61  84 119 159 195 243 295 351
#     4  11  23  41  64  89 119 155 198 247 296 356
#     4   9  20  40  59  86 120 155 198 244 295 351
#     4  10  22  39  60  90 123 158 200 246 298 358
#
# _framework density 19.399039999999999
#
# number of rings (size 3 to 8) (size 9 to 14) (size 15 to 20)
#    0.000    1.875    1.250    2.250    3.500    4.250 
#    0.000    1.250    0.000    0.000    0.000    0.000 
#    0.000    0.000    0.000    0.000    0.000    0.000 
#
# Total GULP energy -396964.624717 kJ/mol
# GULP energy per Si atom -12405.144522 kJ/mol
# Density = 1.935489 g / cm^3
# Si number density = 19.399040 Si / 1000 Ang^3
#
#
#
# Elastic Constant Matrix: (Units=GPa)
#
#
# Indices 1 2 3 4 5 6 
#
# 1 134.6497 50.2905 61.1517 0.0000 3.9042 0.0000
# 2 50.2905 46.6812 42.9926 0.0000 2.9490 0.0000
# 3 61.1517 42.9926 132.6160 0.0000 1.2485 0.0000
# 4 0.0000 0.0000 0.0000 40.5641 0.0000 -2.4932
# 5 3.9042 2.9490 1.2485 0.0000 22.6266 0.0000
# 6 0.0000 0.0000 0.0000 -2.4932 0.0000 30.8759
#
#
#
# Elastic Compliance Matrix: (Units=1/GPa)
#
#
# Indices 1 2 3 4 5 6 
#
# 1 0.012810 -0.011876 -0.002052 0.000000 -0.000549 0.000000
# 2 -0.011876 0.041820 -0.008053 0.000000 -0.002957 0.000000
# 3 -0.002052 -0.008053 0.011090 0.000000 0.000792 0.000000
# 4 0.000000 0.000000 0.000000 0.024775 0.000000 0.002001
# 5 -0.000549 -0.002957 0.000792 0.000000 0.044632 0.000000
# 6 0.000000 0.000000 0.000000 0.002001 0.000000 0.032549
#
#
# Mechanical properties :
#
#
# Convention : Reuss Voigt Hill
#
# Bulk Modulus (GPa) = 45.96089 69.20182 57.58136
# Shear Modulus (GPa) = 22.84229 29.44747 26.14488
#
# Velocity S-wave (km/s) = 3.43519 3.90036 3.67514
# Velocity P-wave (km/s) = 6.28314 7.48559 6.91056
#
# Compressibility (1/GPa) = 0.02175763
#
# Stress axis : x y z
#
# Youngs Moduli (GPa) = 78.06377 23.91186 90.17134
#
# Poissons Ratio (x) = 0.28398 0.18500
# Poissons Ratio (y) = 0.92710 0.72619
# Poissons Ratio (z) = 0.16016 0.19257
#
# Static dielectric constant tensor:
#      x y z
#    x 3.684360 0.000000 0.017850 
#    y 0.000000 3.436830 0.000000 
#    z 0.017850 0.000000 3.572010 
# 
# 
# High freq. dielectric constant tensor:
#      x y z
#    x 1.765790 0.000000 -0.000140 
#    y 0.000000 1.751760 0.000000 
#    z -0.000140 0.000000 1.767520 
# 
# From -- ./inp_files/249908.got.cif
#   From: 2010.06.25/outbox.cif.g09.slc.cpg/sg12_125_cif.got.tgz:249908.got - 2010.06.28 00:19:55.
