data_PCOD8111560
_publ_section_title
;
Structure prediction by ZEFSAII (Michael W. Deem and Ramdas Pophale) SiO2 
 PCOD8111560
Probable space group: C 2/M
;
_chemical_formula_sum "Si O2"
_cell_formula_units_Z 40
_cell_length_a 24.309181
_cell_length_b 10.766303
_cell_length_c 14.021774
_cell_angle_alpha 90.000000
_cell_angle_beta 30.887075
_cell_angle_gamma 90.000000
_cell_volume 1883.872413
_symmetry_space_group_name_H-M "C 2/M"
_symmetry_group_IT_number 12
_symmetry_cell_setting 'monoclinic'
loop_
_space_group_symop_operation_xyz
x,y,z
-x,y,-z
-x,-y,-z
x,-y,z
1/2+x,1/2+y,z
1/2-x,1/2+y,-z
1/2-x,1/2-y,-z
1/2+x,1/2-y,z
loop_
_atom_site_type_symbol
_atom_site_label
_atom_site_fract_x
_atom_site_fract_y
_atom_site_fract_z
Si Si1 0.805188 0.746228 0.652258
Si Si2 0.168532 0.860659 0.184990
Si Si3 0.999890 0.140886 0.713504
Si Si4 0.419864 0.646522 0.034119
Si Si5 0.845569 0.500000 0.825005
Si Si6 0.585599 0.000000 0.495457
O O1 0.808277 0.770944 0.760825
O O2 0.872608 0.851670 0.496537
O O3 0.868226 0.623015 0.526226
O O4 0.684762 0.731733 0.793911
O O5 0.070825 0.800584 0.268156
O O6 0.137586 0.000000 0.268900
O O7 0.276337 0.876405 0.958489
O O8 0.972885 0.195891 0.857468
O O9 0.961544 0.000000 0.774604
O O10 0.389649 0.500000 0.075996
O O11 0.500000 0.676092 0.000000
O O12 0.871225 0.500000 0.676373
O O13 0.959807 0.500000 0.706481
#
# Coordination Sequence:
#
# PCOD8111560 Si02
#       6
#     8   8   8   8   4   4
#     4  12  23  37  63  90 125 151 203 248 299 358
#     4   9  21  39  60  85 124 166 193 227 294 366
#     4  10  22  40  63  89 120 163 202 240 293 360
#     4  10  23  44  64  85 116 159 207 253 302 352
#     4   9  22  38  51  80 132 164 201 222 298 354
#     4  11  24  34  49  94 120 160 197 248 291 349
#
# _framework density 21.232859999999999
#
# number of rings (size 3 to 8) (size 9 to 14) (size 15 to 20)
#    0.600    1.200    1.000    2.400    8.400    4.000 
#    0.000    0.000    0.000    2.400    0.000    0.000 
#    0.000    0.000    0.000    0.000    0.000    0.000 
#
# Total GULP energy -247885.946859 kJ/mol
# GULP energy per Si atom -12394.297343 kJ/mol
# Density = 2.118453 g / cm^3
# Si number density = 21.232860 Si / 1000 Ang^3
#
#
#
# Elastic Constant Matrix: (Units=GPa)
#
#
# Indices 1 2 3 4 5 6 
#
# 1 125.4708 23.6281 55.9024 0.0000 -27.5597 0.0000
# 2 23.6281 29.5304 17.1513 0.0000 -8.0728 0.0000
# 3 55.9024 17.1513 159.6971 0.0000 -24.4912 0.0000
# 4 0.0000 0.0000 0.0000 36.3123 0.0000 -7.6722
# 5 -27.5597 -8.0728 -24.4912 0.0000 26.2547 0.0000
# 6 0.0000 0.0000 0.0000 -7.6722 0.0000 23.6484
#
#
#
# Elastic Compliance Matrix: (Units=1/GPa)
#
#
# Indices 1 2 3 4 5 6 
#
# 1 0.011985 -0.005922 -0.002228 0.000000 0.008681 0.000000
# 2 -0.005922 0.040846 -0.001565 0.000000 0.004883 0.000000
# 3 -0.002228 -0.001565 0.007909 0.000000 0.004558 0.000000
# 4 0.000000 0.000000 0.000000 0.029566 0.000000 0.009592
# 5 0.008681 0.004883 0.004558 0.000000 0.052954 0.000000
# 6 0.000000 0.000000 0.000000 0.009592 0.000000 0.045398
#
#
# Mechanical properties :
#
#
# Convention : Reuss Voigt Hill
#
# Bulk Modulus (GPa) = 24.20758 56.45133 40.32946
# Shear Modulus (GPa) = 22.53711 31.77750 27.15730
#
# Velocity S-wave (km/s) = 3.26149 3.87281 3.58022
# Velocity P-wave (km/s) = 5.06052 6.82955 6.01047
#
# Compressibility (1/GPa) = 0.04130937
#
# Stress axis : x y z
#
# Youngs Moduli (GPa) = 83.44009 24.48240 126.44183
#
# Poissons Ratio (x) = 0.14499 0.28170
# Poissons Ratio (y) = 0.49414 0.19787
# Poissons Ratio (z) = 0.18590 0.03831
#
# Static dielectric constant tensor:
#      x y z
#    x 3.490310 0.000000 -0.066030 
#    y 0.000000 3.852620 0.000000 
#    z -0.066030 0.000000 3.843800 
# 
# 
# High freq. dielectric constant tensor:
#      x y z
#    x 1.791680 0.000000 -0.003240 
#    y 0.000000 1.825840 0.000000 
#    z -0.003240 0.000000 1.848800 
# 
# From -- ./inp_files/239883.got.cif
#   From: 2010.06.25/outbox.cif.g09.slc.cpg/sg12_120_cif.got.tgz:239883.got - 2010.06.28 00:19:55.
