data_PCOD8111800
_publ_section_title
;
Structure prediction by ZEFSAII (Michael W. Deem and Ramdas Pophale) SiO2 
 PCOD8111800
Probable space group: C 2/M
;
_chemical_formula_sum "Si O2"
_cell_formula_units_Z 32
_cell_length_a 7.363484
_cell_length_b 13.732933
_cell_length_c 13.959188
_cell_angle_alpha 90.000000
_cell_angle_beta 127.663471
_cell_angle_gamma 90.000000
_cell_volume 1117.428801
_symmetry_space_group_name_H-M "C 2/M"
_symmetry_group_IT_number 12
_symmetry_cell_setting 'monoclinic'
loop_
_space_group_symop_operation_xyz
x,y,z
-x,y,-z
-x,-y,-z
x,-y,z
1/2+x,1/2+y,z
1/2-x,1/2+y,-z
1/2-x,1/2-y,-z
1/2+x,1/2-y,z
loop_
_atom_site_type_symbol
_atom_site_label
_atom_site_fract_x
_atom_site_fract_y
_atom_site_fract_z
Si Si1 0.829582 0.611876 0.300717
Si Si2 0.225067 0.385937 0.258163
Si Si3 0.802452 0.890746 0.521941
Si Si4 0.598564 0.729368 0.859790
O O1 0.831387 0.500000 0.262472
O O2 0.727803 0.612190 0.374469
O O3 0.649176 0.682828 0.185647
O O4 0.091772 0.660065 0.395897
O O5 0.194709 0.500000 0.238002
O O6 0.425510 0.357582 0.401562
O O7 0.273776 0.344881 0.168272
O O8 0.979401 0.336460 0.210922
O O9 0.776280 0.000000 0.476110
O O10 0.750000 0.750000 0.000000
#
# Coordination Sequence:
#
# PCOD8111800 Si02
#       4
#     8   8   8   8
#     4   8  14  28  52  81 111 142 184 237 282 333
#     4  10  22  41  62  85 117 151 189 244 291 333
#     4   7  12  27  53  81 106 139 183 229 287 342
#     4  11  22  35  56  85 115 156 200 228 278 350
#
# _framework density 28.637172
#
# number of rings (size 3 to 8) (size 9 to 14) (size 15 to 20)
#    0.000    3.000    0.000    4.500    0.000    4.000 
#    0.000    2.500    0.000    7.500    0.000   19.250 
#    0.000    0.000    0.000    0.000    0.000    0.000 
#
# Total GULP energy -198246.417128 kJ/mol
# GULP energy per Si atom -12390.401070 kJ/mol
# Density = 2.857199 g / cm^3
# Si number density = 28.637172 Si / 1000 Ang^3
#
#
#
# Elastic Constant Matrix: (Units=GPa)
#
#
# Indices 1 2 3 4 5 6 
#
# 1 135.1448 45.3863 72.8643 0.0000 23.0466 0.0000
# 2 45.3863 163.7965 82.5291 0.0000 1.8983 0.0000
# 3 72.8643 82.5291 273.6880 0.0000 -6.5741 0.0000
# 4 0.0000 0.0000 0.0000 31.2044 0.0000 -5.2640
# 5 23.0466 1.8983 -6.5741 0.0000 52.9729 0.0000
# 6 0.0000 0.0000 0.0000 -5.2640 0.0000 30.3076
#
#
#
# Elastic Compliance Matrix: (Units=1/GPa)
#
#
# Indices 1 2 3 4 5 6 
#
# 1 0.009926 -0.001546 -0.002286 0.000000 -0.004547 0.000000
# 2 -0.001546 0.007455 -0.001832 0.000000 0.000178 0.000000
# 3 -0.002286 -0.001832 0.004855 0.000000 0.001663 0.000000
# 4 0.000000 0.000000 0.000000 0.033014 0.000000 0.005734
# 5 -0.004547 0.000178 0.001663 0.000000 0.021056 0.000000
# 6 0.000000 0.000000 0.000000 0.005734 0.000000 0.033991
#
#
# Mechanical properties :
#
#
# Convention : Reuss Voigt Hill
#
# Bulk Modulus (GPa) = 91.67576 108.24320 99.95948
# Shear Modulus (GPa) = 39.91693 47.68696 43.80195
#
# Velocity S-wave (km/s) = 3.73753 4.08513 3.91519
# Velocity P-wave (km/s) = 7.12094 7.75443 7.44443
#
# Compressibility (1/GPa) = 0.01090801
#
# Stress axis : x y z
#
# Youngs Moduli (GPa) = 100.74065 134.14664 205.98694
#
# Poissons Ratio (x) = 0.20741 0.47083
# Poissons Ratio (y) = 0.15576 0.37736
# Poissons Ratio (z) = 0.23027 0.24575
#
# Static dielectric constant tensor:
#      x y z
#    x 6.846060 0.000000 0.839880 
#    y 0.000000 5.451380 0.000000 
#    z 0.839880 0.000000 5.493030 
# 
# 
# High freq. dielectric constant tensor:
#      x y z
#    x 2.248390 0.000000 0.013350 
#    y 0.000000 2.150280 0.000000 
#    z 0.013350 0.000000 2.161960 
# 
# From -- ./inp_files/117655.got.cif
#   From: 2010.06.25/outbox.cif.g09.slc.cpg/sg12_59_cif.got.tgz:117655.got - 2010.06.28 00:19:55.
