data_PCOD8111852
_publ_section_title
;
Structure prediction by ZEFSAII (Michael W. Deem and Ramdas Pophale) SiO2 
 PCOD8111852
Probable space group: C 2/M
;
_chemical_formula_sum "Si O2"
_cell_formula_units_Z 56
_cell_length_a 27.129838
_cell_length_b 8.765403
_cell_length_c 12.616272
_cell_angle_alpha 90.000000
_cell_angle_beta 67.657930
_cell_angle_gamma 90.000000
_cell_volume 2774.977058
_symmetry_space_group_name_H-M "C 2/M"
_symmetry_group_IT_number 12
_symmetry_cell_setting 'monoclinic'
loop_
_space_group_symop_operation_xyz
x,y,z
-x,y,-z
-x,-y,-z
x,-y,z
1/2+x,1/2+y,z
1/2-x,1/2+y,-z
1/2-x,1/2-y,-z
1/2+x,1/2-y,z
loop_
_atom_site_type_symbol
_atom_site_label
_atom_site_fract_x
_atom_site_fract_y
_atom_site_fract_z
Si Si1 0.105274 0.675754 0.509834
Si Si2 0.657166 0.318599 0.833341
Si Si3 0.107996 0.324419 0.269876
Si Si4 0.461556 0.681061 0.120615
Si Si5 0.697319 0.181689 0.591941
Si Si6 0.807271 0.681160 0.974922
Si Si7 0.495422 0.679962 0.320216
O O1 0.093666 0.500000 0.542207
O O2 0.129359 0.699605 0.372285
O O3 0.147372 0.739341 0.561529
O O4 0.048635 0.761334 0.561027
O O5 0.664171 0.500000 0.830486
O O6 0.597727 0.264886 0.855568
O O7 0.694446 0.247958 0.712556
O O8 0.671342 0.249326 0.934178
O O9 0.094232 0.500000 0.259026
O O10 0.153298 0.266909 0.151982
O O11 0.054460 0.229552 0.300396
O O12 0.465440 0.500000 0.117798
O O13 0.479970 0.747676 0.218017
O O14 0.500000 0.751302 0.000000
O O15 0.750000 0.250000 0.500000
O O16 0.700495 0.000000 0.591361
O O17 0.803169 0.500000 0.985523
O O18 0.750000 0.750000 0.000000
O O19 0.493299 0.500000 0.322758
#
# Coordination Sequence:
#
# PCOD8111852 Si02
#       7
#     8   8   8   8   8   8   8
#     4  10  22  41  63  88 125 168 205 249 313 377
#     4  11  22  41  66  91 128 167 204 256 316 375
#     4  10  23  42  62  87 124 169 208 251 310 375
#     4   9  18  33  56  86 121 160 200 246 303 362
#     4  11  24  41  65  95 126 164 213 263 316 376
#     4  11  25  44  66  93 124 163 214 264 314 374
#     4  11  21  36  60  93 126 159 206 257 306 366
#
# _framework density 20.180347000000001
#
# number of rings (size 3 to 8) (size 9 to 14) (size 15 to 20)
#    0.000    1.571    1.429    3.000    2.000    5.143 
#    0.000    0.000    0.000    3.429    0.000    0.000 
#    0.000    0.000    0.000    0.000    0.000    0.000 
#
# Total GULP energy -347292.014746 kJ/mol
# GULP energy per Si atom -12403.286241 kJ/mol
# Density = 2.013442 g / cm^3
# Si number density = 20.180347 Si / 1000 Ang^3
#
#
#
# Elastic Constant Matrix: (Units=GPa)
#
#
# Indices 1 2 3 4 5 6 
#
# 1 91.3378 37.3691 47.2651 0.0000 -8.1487 0.0000
# 2 37.3691 71.1606 44.6950 0.0000 -4.3993 0.0000
# 3 47.2651 44.6950 164.6316 0.0000 -8.4752 0.0000
# 4 0.0000 0.0000 0.0000 30.8874 0.0000 0.2114
# 5 -8.1487 -4.3993 -8.4752 0.0000 43.1263 0.0000
# 6 0.0000 0.0000 0.0000 0.2114 0.0000 33.3194
#
#
#
# Elastic Compliance Matrix: (Units=1/GPa)
#
#
# Indices 1 2 3 4 5 6 
#
# 1 0.014921 -0.006143 -0.002529 0.000000 0.001696 0.000000
# 2 -0.006143 0.019500 -0.003523 0.000000 0.000136 0.000000
# 3 -0.002529 -0.003523 0.007793 0.000000 0.000694 0.000000
# 4 0.000000 0.000000 0.000000 0.032377 0.000000 -0.000205
# 5 0.001696 0.000136 0.000694 0.000000 0.023658 0.000000
# 6 0.000000 0.000000 0.000000 -0.000205 0.000000 0.030014
#
#
# Mechanical properties :
#
#
# Convention : Reuss Voigt Hill
#
# Bulk Modulus (GPa) = 56.10440 65.08761 60.59601
# Shear Modulus (GPa) = 31.52697 34.65333 33.09015
#
# Velocity S-wave (km/s) = 3.95683 4.14839 4.05374
# Velocity P-wave (km/s) = 6.98121 7.43428 7.21130
#
# Compressibility (1/GPa) = 0.01782391
#
# Stress axis : x y z
#
# Youngs Moduli (GPa) = 67.01762 51.28248 128.32837
#
# Poissons Ratio (x) = 0.31501 0.32454
# Poissons Ratio (y) = 0.41166 0.45215
# Poissons Ratio (z) = 0.16949 0.18069
#
# Static dielectric constant tensor:
#      x y z
#    x 3.824540 0.000000 0.100350 
#    y 0.000000 3.518800 0.000000 
#    z 0.100350 0.000000 4.001490 
# 
# 
# High freq. dielectric constant tensor:
#      x y z
#    x 1.793990 0.000000 0.002150 
#    y 0.000000 1.777630 0.000000 
#    z 0.002150 0.000000 1.809130 
# 
# From -- ./inp_files/180767.got.cif
#   From: 2010.06.25/outbox.cif.g09.slc.cpg/sg12_91_cif.got.tgz:180767.got - 2010.06.28 00:19:55.
