data_PCOD8111733
_publ_section_title
;
Structure prediction by ZEFSAII (Michael W. Deem and Ramdas Pophale) SiO2 
 PCOD8111733
Probable space group: C 2/M
;
_chemical_formula_sum "Si O2"
_cell_formula_units_Z 48
_cell_length_a 27.325336
_cell_length_b 19.028421
_cell_length_c 12.426586
_cell_angle_alpha 90.000000
_cell_angle_beta 19.904544
_cell_angle_gamma 90.000000
_cell_volume 2199.777157
_symmetry_space_group_name_H-M "C 2/M"
_symmetry_group_IT_number 12
_symmetry_cell_setting 'monoclinic'
loop_
_space_group_symop_operation_xyz
x,y,z
-x,y,-z
-x,-y,-z
x,-y,z
1/2+x,1/2+y,z
1/2-x,1/2+y,-z
1/2-x,1/2-y,-z
1/2+x,1/2-y,z
loop_
_atom_site_type_symbol
_atom_site_label
_atom_site_fract_x
_atom_site_fract_y
_atom_site_fract_z
Si Si1 0.640529 0.196413 0.277878
Si Si2 0.168086 0.922566 0.644653
Si Si3 0.262710 0.795861 0.578550
Si Si4 0.976080 0.290551 0.819781
Si Si5 0.340283 0.418766 0.799228
Si Si6 0.713543 0.081524 0.829377
O O1 0.500000 0.182292 0.500000
O O2 0.590841 0.232182 0.491965
O O3 0.750000 0.250000 0.000000
O O4 0.726021 0.122629 0.109931
O O5 0.228530 0.875335 0.615848
O O6 0.202412 0.896000 0.452932
O O7 0.233778 0.000000 0.527051
O O8 0.000000 0.923774 0.000000
O O9 0.250000 0.750000 0.500000
O O10 0.429091 0.795490 0.268810
O O11 0.152312 0.765705 0.897390
O O12 0.922864 0.366857 0.888111
O O13 0.500000 0.392707 0.500000
O O14 0.321055 0.500000 0.868594
O O15 0.312536 0.404897 0.729366
O O16 0.663758 0.000000 0.929367
#
# Coordination Sequence:
#
# PCOD8111733 Si02
#       6
#     8   8   8   8   8   8
#     4  12  25  43  66  98 137 176 227 280 337 399
#     4  10  22  40  66  98 135 177 222 278 334 397
#     4  12  25  43  68  97 135 176 227 277 337 402
#     4  12  26  43  66  99 131 180 223 276 334 396
#     4  10  23  45  73 102 137 178 223 278 340 410
#     4  10  22  42  69  99 134 174 224 275 335 406
#
# _framework density 21.820391000000001
#
# number of rings (size 3 to 8) (size 9 to 14) (size 15 to 20)
#    0.000    1.000    3.333    3.000    0.000    3.000 
#    0.000    3.333    0.000    0.000    0.000    0.000 
#    0.000    0.000    0.000    0.000    0.000    0.000 
#
# Total GULP energy -297555.289327 kJ/mol
# GULP energy per Si atom -12398.137055 kJ/mol
# Density = 2.177073 g / cm^3
# Si number density = 21.820391 Si / 1000 Ang^3
#
#
#
# Elastic Constant Matrix: (Units=GPa)
#
#
# Indices 1 2 3 4 5 6 
#
# 1 107.4742 39.3693 40.4728 0.0005 -18.2167 -0.0003
# 2 39.3693 91.2137 42.2018 0.0002 -7.1608 0.0002
# 3 40.4728 42.2018 116.9727 0.0004 0.0610 0.0005
# 4 0.0005 0.0002 0.0004 31.1296 0.0004 9.7403
# 5 -18.2167 -7.1608 0.0610 0.0004 54.3536 -0.0002
# 6 -0.0003 0.0002 0.0005 9.7403 -0.0002 8.5332
#
#
#
# Elastic Compliance Matrix: (Units=1/GPa)
#
#
# Indices 1 2 3 4 5 6 
#
# 1 0.012393 -0.003692 -0.002958 -0.000001 0.003670 0.000001
# 2 -0.003692 0.014427 -0.003928 0.000000 0.000668 0.000000
# 3 -0.002958 -0.003928 0.010990 0.000000 -0.001521 -0.000001
# 4 -0.000001 0.000000 0.000000 0.049971 -0.000001 -0.057040
# 5 0.003670 0.000668 -0.001521 -0.000001 0.019718 0.000002
# 6 0.000001 0.000000 -0.000001 -0.057040 0.000002 0.182298
#
#
# Mechanical properties :
#
#
# Convention : Reuss Voigt Hill
#
# Bulk Modulus (GPa) = 60.04488 62.19429 61.11959
# Shear Modulus (GPa) = 15.79759 31.71106 23.75433
#
# Velocity S-wave (km/s) = 2.69361 3.81632 3.30302
# Velocity P-wave (km/s) = 6.10341 6.92703 6.52822
#
# Compressibility (1/GPa) = 0.01665421
#
# Stress axis : x y z
#
# Youngs Moduli (GPa) = 80.68982 69.31651 90.98992
#
# Poissons Ratio (x) = 0.25595 0.26913
# Poissons Ratio (y) = 0.29794 0.35737
# Poissons Ratio (z) = 0.23866 0.27225
#
# Static dielectric constant tensor:
#      x y z
#    x 5.846840 0.000010 0.435290 
#    y 0.000010 4.868700 0.000000 
#    z 0.435290 0.000000 3.850320 
# 
# 
# High freq. dielectric constant tensor:
#      x y z
#    x 1.860840 0.000000 0.000400 
#    y 0.000000 1.865360 0.000000 
#    z 0.000400 0.000000 1.863390 
# 
# From -- ./inp_files/184769.got.cif
#   From: 2010.06.25/outbox.cif.g09.slc.cpg/sg12_93_cif.got.tgz:184769.got - 2010.06.28 00:19:55.
