data_PCOD8111590
_publ_section_title
;
Structure prediction by ZEFSAII (Michael W. Deem and Ramdas Pophale) SiO2 
 PCOD8111590
Probable space group: C 2/M
;
_chemical_formula_sum "Si O2"
_cell_formula_units_Z 56
_cell_length_a 18.541570
_cell_length_b 8.794808
_cell_length_c 18.145490
_cell_angle_alpha 90.000000
_cell_angle_beta 68.110534
_cell_angle_gamma 90.000000
_cell_volume 2745.648866
_symmetry_space_group_name_H-M "C 2/M"
_symmetry_group_IT_number 12
_symmetry_cell_setting 'monoclinic'
loop_
_space_group_symop_operation_xyz
x,y,z
-x,y,-z
-x,-y,-z
x,-y,z
1/2+x,1/2+y,z
1/2-x,1/2+y,-z
1/2-x,1/2-y,-z
1/2+x,1/2-y,z
loop_
_atom_site_type_symbol
_atom_site_label
_atom_site_fract_x
_atom_site_fract_y
_atom_site_fract_z
Si Si1 0.442869 0.171502 0.961559
Si Si2 0.075653 0.680207 0.513364
Si Si3 0.270957 0.170858 0.067004
Si Si4 0.775036 0.321745 0.631568
Si Si5 0.970460 0.820875 0.797299
Si Si6 0.329027 0.177488 0.774529
Si Si7 0.109339 0.679594 0.665054
O O1 0.440141 0.271962 0.889233
O O2 0.467962 0.000000 0.929651
O O3 0.500000 0.244639 0.000000
O O4 0.362965 0.167678 0.036342
O O5 0.073368 0.500000 0.506604
O O6 0.155534 0.739414 0.446622
O O7 0.075710 0.731173 0.598465
O O8 0.000000 0.748796 0.500000
O O9 0.239068 0.269796 0.145836
O O10 0.235902 0.000000 0.083796
O O11 0.250000 0.250000 0.000000
O O12 0.759519 0.500000 0.626550
O O13 0.800599 0.283025 0.704266
O O14 0.697485 0.232718 0.640494
O O15 0.909491 0.763312 0.759669
O O16 0.055487 0.753002 0.748502
O O17 0.976470 0.000000 0.791919
O O18 0.345141 0.000000 0.779576
O O19 0.106798 0.500000 0.674806
#
# Coordination Sequence:
#
# PCOD8111590 Si02
#       7
#     8   8   8   8   8   8   8
#     4  10  23  42  63  88 120 160 203 251 305 362
#     4   9  18  37  65  93 122 161 205 247 297 358
#     4  11  22  38  62  90 122 159 202 254 305 360
#     4  10  22  40  63  93 127 161 203 251 299 358
#     4  12  25  41  62  89 122 160 205 256 306 363
#     4  11  23  40  63  89 122 162 205 253 306 364
#     4  11  23  39  63  91 125 165 203 248 305 362
#
# _framework density 20.395909
#
# number of rings (size 3 to 8) (size 9 to 14) (size 15 to 20)
#    0.000    1.429    1.429    3.857    2.000    4.286 
#    0.000    0.714    0.000    3.000    0.000    0.000 
#    0.000    0.000    0.000    0.000    0.000    0.000 
#
# Total GULP energy -347288.106339 kJ/mol
# GULP energy per Si atom -12403.146655 kJ/mol
# Density = 2.034949 g / cm^3
# Si number density = 20.395909 Si / 1000 Ang^3
#
#
#
# Elastic Constant Matrix: (Units=GPa)
#
#
# Indices 1 2 3 4 5 6 
#
# 1 124.9025 44.2314 28.8463 0.0000 -5.6542 0.0000
# 2 44.2314 78.0645 32.9618 0.0001 8.4497 0.0002
# 3 28.8463 32.9618 91.6972 0.0000 -11.8576 0.0000
# 4 0.0000 0.0001 0.0000 21.2542 0.0000 -5.3085
# 5 -5.6542 8.4497 -11.8576 0.0000 37.5213 0.0000
# 6 0.0000 0.0002 0.0000 -5.3085 0.0000 31.2312
#
#
#
# Elastic Compliance Matrix: (Units=1/GPa)
#
#
# Indices 1 2 3 4 5 6 
#
# 1 0.010374 -0.005805 -0.000840 0.000000 0.002605 0.000000
# 2 -0.005805 0.019449 -0.006094 0.000000 -0.007180 0.000000
# 3 -0.000840 -0.006094 0.014097 0.000000 0.005701 0.000000
# 4 0.000000 0.000000 0.000000 0.049136 0.000000 0.008352
# 5 0.002605 -0.007180 0.005701 0.000000 0.030463 0.000000
# 6 0.000000 0.000000 0.000000 0.008352 0.000000 0.033439
#
#
# Mechanical properties :
#
#
# Convention : Reuss Voigt Hill
#
# Bulk Modulus (GPa) = 54.22056 56.30479 55.26267
# Shear Modulus (GPa) = 26.51356 30.57633 28.54494
#
# Velocity S-wave (km/s) = 3.60939 3.87607 3.74510
# Velocity P-wave (km/s) = 6.63415 6.90636 6.77162
#
# Compressibility (1/GPa) = 0.01844319
#
# Stress axis : x y z
#
# Youngs Moduli (GPa) = 96.39545 51.41559 70.93582
#
# Poissons Ratio (x) = 0.29848 0.05957
# Poissons Ratio (y) = 0.55960 0.43226
# Poissons Ratio (z) = 0.08095 0.31331
#
# Static dielectric constant tensor:
#      x y z
#    x 4.558440 0.000000 -0.470580 
#    y 0.000000 3.614390 0.000000 
#    z -0.470580 0.000000 4.055170 
# 
# 
# High freq. dielectric constant tensor:
#      x y z
#    x 1.811380 0.000000 -0.005270 
#    y 0.000000 1.784160 0.000000 
#    z -0.005270 0.000000 1.807280 
# 
# From -- ./inp_files/275307.got.cif
#   From: 2010.06.25/outbox.cif.g09.slc.cpg/sg12_138_cif.got.tgz:275307.got - 2010.06.28 00:19:55.
