data_PCOD8111903
_publ_section_title
;
Structure prediction by ZEFSAII (Michael W. Deem and Ramdas Pophale) SiO2 
 PCOD8111903
Probable space group: C 2/M
;
_chemical_formula_sum "Si O2"
_cell_formula_units_Z 56
_cell_length_a 17.745554
_cell_length_b 8.527191
_cell_length_c 18.359124
_cell_angle_alpha 90.000000
_cell_angle_beta 76.520827
_cell_angle_gamma 90.000000
_cell_volume 2701.574161
_symmetry_space_group_name_H-M "C 2/M"
_symmetry_group_IT_number 12
_symmetry_cell_setting 'monoclinic'
loop_
_space_group_symop_operation_xyz
x,y,z
-x,y,-z
-x,-y,-z
x,-y,z
1/2+x,1/2+y,z
1/2-x,1/2+y,-z
1/2-x,1/2-y,-z
1/2+x,1/2-y,z
loop_
_atom_site_type_symbol
_atom_site_label
_atom_site_fract_x
_atom_site_fract_y
_atom_site_fract_z
Si Si1 0.690711 0.817651 0.070939
Si Si2 0.109996 0.182309 0.360254
Si Si3 0.102980 0.180110 0.785686
Si Si4 0.263704 0.680898 0.787876
Si Si5 0.980993 0.681415 0.920278
Si Si6 0.832235 0.683734 0.503577
Si Si7 0.951213 0.319989 0.348743
O O1 0.718724 0.784145 0.145804
O O2 0.604539 0.750133 0.076975
O O3 0.687794 0.000000 0.057137
O O4 0.750000 0.750000 0.000000
O O5 0.177187 0.227692 0.288776
O O6 0.138903 0.220278 0.433951
O O7 0.036319 0.287983 0.359726
O O8 0.087874 0.000000 0.359917
O O9 0.177783 0.288376 0.778297
O O10 0.064761 0.210239 0.716257
O O11 0.041132 0.216024 0.861831
O O12 0.128302 0.000000 0.785734
O O13 0.271482 0.500000 0.808170
O O14 0.988165 0.500000 0.894825
O O15 0.000000 0.703787 0.000000
O O16 0.827548 0.500000 0.523132
O O17 0.750000 0.750000 0.500000
O O18 0.890238 0.719037 0.424996
O O19 0.945240 0.500000 0.325314
#
# Coordination Sequence:
#
# PCOD8111903 Si02
#       7
#     8   8   8   8   8   8   8
#     4  11  23  39  63  93 124 161 203 248 300 358
#     4  11  24  41  64  93 123 159 203 252 304 358
#     4  12  25  40  63  93 122 157 203 253 304 358
#     4  11  24  42  62  87 123 162 202 250 303 360
#     4  10  22  41  64  90 123 163 202 244 301 363
#     4  11  24  41  63  91 123 162 205 251 304 360
#     4  11  24  42  63  89 124 163 202 247 302 362
#
# _framework density 20.728656000000001
#
# number of rings (size 3 to 8) (size 9 to 14) (size 15 to 20)
#    0.000    1.000    0.000    6.429    0.000   14.571 
#    0.000    0.000    0.000    0.000    0.000    0.000 
#    0.000    0.000    0.000    0.000    0.000    0.000 
#
# Total GULP energy -347433.868704 kJ/mol
# GULP energy per Si atom -12408.352454 kJ/mol
# Density = 2.068148 g / cm^3
# Si number density = 20.728656 Si / 1000 Ang^3
#
#
#
# Elastic Constant Matrix: (Units=GPa)
#
#
# Indices 1 2 3 4 5 6 
#
# 1 142.9395 16.1744 43.9689 0.0000 -10.9203 0.0000
# 2 16.1744 58.1762 37.9806 0.0000 -15.0210 0.0000
# 3 43.9689 37.9806 119.2504 0.0000 -8.8671 0.0000
# 4 0.0000 0.0000 0.0000 32.6136 0.0000 0.7889
# 5 -10.9203 -15.0210 -8.8671 0.0000 46.0661 0.0000
# 6 0.0000 0.0000 0.0000 0.7889 0.0000 35.8578
#
#
#
# Elastic Compliance Matrix: (Units=1/GPa)
#
#
# Indices 1 2 3 4 5 6 
#
# 1 0.007972 -0.000021 -0.002833 0.000000 0.001338 0.000000
# 2 -0.000021 0.023363 -0.006967 0.000000 0.006272 0.000000
# 3 -0.002833 -0.006967 0.011596 0.000000 -0.000711 0.000000
# 4 0.000000 0.000000 0.000000 0.030678 0.000000 -0.000675
# 5 0.001338 0.006272 -0.000711 0.000000 0.023933 0.000000
# 6 0.000000 0.000000 0.000000 -0.000675 0.000000 0.027903
#
#
# Mechanical properties :
#
#
# Convention : Reuss Voigt Hill
#
# Bulk Modulus (GPa) = 42.93932 57.40153 50.17042
# Shear Modulus (GPa) = 32.71165 37.72365 35.21765
#
# Velocity S-wave (km/s) = 3.97683 4.27063 4.12634
# Velocity P-wave (km/s) = 6.46891 7.21594 6.85261
#
# Compressibility (1/GPa) = 0.02328868
#
# Stress axis : x y z
#
# Youngs Moduli (GPa) = 125.43824 42.80318 86.23475
#
# Poissons Ratio (x) = 0.00092 0.24431
# Poissons Ratio (y) = 0.00270 0.60076
# Poissons Ratio (z) = 0.35538 0.29819
#
# Static dielectric constant tensor:
#      x y z
#    x 4.032330 0.000000 -0.078140 
#    y 0.000000 3.715180 0.000000 
#    z -0.078140 0.000000 3.859980 
# 
# 
# High freq. dielectric constant tensor:
#      x y z
#    x 1.830590 0.000000 -0.001820 
#    y 0.000000 1.815870 0.000000 
#    z -0.001820 0.000000 1.828170 
# 
# From -- ./inp_files/274991.got.cif
#   From: 2010.06.25/outbox.cif.g09.slc.cpg/sg12_138_cif.got.tgz:274991.got - 2010.06.28 00:19:55.
