data_PCOD8111425
_publ_section_title
;
Structure prediction by ZEFSAII (Michael W. Deem and Ramdas Pophale) SiO2 
 PCOD8111425
Probable space group: C 2/M
;
_chemical_formula_sum "Si O2"
_cell_formula_units_Z 24
_cell_length_a 7.524281
_cell_length_b 16.855080
_cell_length_c 8.367915
_cell_angle_alpha 90.000000
_cell_angle_beta 102.169869
_cell_angle_gamma 90.000000
_cell_volume 1037.389381
_symmetry_space_group_name_H-M "C 2/M"
_symmetry_group_IT_number 12
_symmetry_cell_setting 'monoclinic'
loop_
_space_group_symop_operation_xyz
x,y,z
-x,y,-z
-x,-y,-z
x,-y,z
1/2+x,1/2+y,z
1/2-x,1/2+y,-z
1/2-x,1/2-y,-z
1/2+x,1/2-y,z
loop_
_atom_site_type_symbol
_atom_site_label
_atom_site_fract_x
_atom_site_fract_y
_atom_site_fract_z
Si Si1 0.226829 0.160252 0.193951
Si Si2 0.500000 0.789372 0.000000
Si Si3 0.213764 0.500000 0.383106
Si Si4 0.500000 0.870752 0.500000
Si Si5 0.945835 0.000000 0.744224
O O1 0.352577 0.156074 0.059847
O O2 0.341573 0.177646 0.379188
O O3 0.112649 0.078682 0.171705
O O4 0.090262 0.234121 0.154074
O O5 0.084318 0.423174 0.370610
O O6 0.344693 0.500000 0.558544
O O7 0.335665 0.500000 0.245543
#
# Coordination Sequence:
#
# PCOD8111425 Si02
#       5
#     8   4   4   4   4
#     4  10  22  40  61  85 119 158 196 241 293 346
#     4  10  24  42  54  84 132 158 186 242 296 348
#     4   8  16  32  59  96 120 132 190 268 293 321
#     4   9  18  36  64  90 112 151 198 242 292 345
#     4   9  18  36  63  89 114 153 198 241 291 347
#
# _framework density 23.134996999999998
#
# number of rings (size 3 to 8) (size 9 to 14) (size 15 to 20)
#    0.000    2.667    0.000    1.000    0.000    8.000 
#    0.000    3.333    0.000    0.000    0.000    0.000 
#    0.000    1.333    0.000    0.000    0.000    0.000 
#
# Total GULP energy -148753.023871 kJ/mol
# GULP energy per Si atom -12396.085323 kJ/mol
# Density = 2.308234 g / cm^3
# Si number density = 23.134997 Si / 1000 Ang^3
#
#
#
# Elastic Constant Matrix: (Units=GPa)
#
#
# Indices 1 2 3 4 5 6 
#
# 1 146.2445 54.9145 39.8274 0.0000 -27.8285 0.0000
# 2 54.9145 89.9760 44.7364 0.0000 -21.5069 0.0000
# 3 39.8274 44.7364 80.0104 0.0000 9.3514 0.0000
# 4 0.0000 0.0000 0.0000 -40.6791 0.0000 68.3802
# 5 -27.8285 -21.5069 9.3514 0.0000 53.6823 0.0000
# 6 0.0000 0.0000 0.0000 68.3802 0.0000 -74.4118
#
#
#
# Elastic Compliance Matrix: (Units=1/GPa)
#
#
# Indices 1 2 3 4 5 6 
#
# 1 0.009873 -0.003100 -0.003709 0.000000 0.004522 0.000000
# 2 -0.003100 0.020440 -0.010876 0.000000 0.008476 0.000000
# 3 -0.003709 -0.010876 0.021600 0.000000 -0.010043 0.000000
# 4 0.000000 0.000000 0.000000 0.045129 0.000000 0.041471
# 5 0.004522 0.008476 -0.010043 0.000000 0.026118 0.000000
# 6 0.000000 0.000000 0.000000 0.041471 0.000000 0.024671
#
#
# Mechanical properties :
#
#
# Convention : Reuss Voigt Hill
#
# Bulk Modulus (GPa) = 60.45646 66.13194 63.29420
# Shear Modulus (GPa) = 26.49481 -0.49821 12.99830
#
# Velocity S-wave (km/s) = 3.38779 -0.46456 2.37290
# Velocity P-wave (km/s) = 6.44140 5.32537 5.90979
#
# Compressibility (1/GPa) = 0.01654083
#
# Stress axis : x y z
#
# Youngs Moduli (GPa) = 101.28916 48.92365 46.29662
#
# Poissons Ratio (x) = 0.15168 0.17174
# Poissons Ratio (y) = 0.31403 0.50353
# Poissons Ratio (z) = 0.37573 0.53210
#
# Static dielectric constant tensor:
#      x y z
#    x 4.807280 0.000000 -0.015790 
#    y 0.000000 3.871280 0.000000 
#    z -0.015790 0.000000 3.824830 
# 
# 
# High freq. dielectric constant tensor:
#      x y z
#    x 1.934920 0.000000 0.006810 
#    y 0.000000 1.886920 0.000000 
#    z 0.006810 0.000000 1.894450 
# 
# From -- ./inp_files/35937.got.cif
#   From: 2010.06.25/outbox.cif.g09.slc.cpg/sg12_18_cif.got.tgz:35937.got - 2010.06.28 00:19:55.
