data_PCOD8111055
_publ_section_title
;
Structure prediction by ZEFSAII (Michael W. Deem and Ramdas Pophale) SiO2 
 PCOD8111055
Probable space group: C 2/M
;
_chemical_formula_sum "Si O2"
_cell_formula_units_Z 56
_cell_length_a 23.228152
_cell_length_b 9.000566
_cell_length_c 14.772125
_cell_angle_alpha 90.000000
_cell_angle_beta 108.996688
_cell_angle_gamma 90.000000
_cell_volume 2920.156740
_symmetry_space_group_name_H-M "C 2/M"
_symmetry_group_IT_number 12
_symmetry_cell_setting 'monoclinic'
loop_
_space_group_symop_operation_xyz
x,y,z
-x,y,-z
-x,-y,-z
x,-y,z
1/2+x,1/2+y,z
1/2-x,1/2+y,-z
1/2-x,1/2-y,-z
1/2+x,1/2-y,z
loop_
_atom_site_type_symbol
_atom_site_label
_atom_site_fract_x
_atom_site_fract_y
_atom_site_fract_z
Si Si1 0.571156 0.327942 0.190395
Si Si2 0.064191 0.827916 0.830161
Si Si3 0.755856 0.670422 0.907925
Si Si4 0.104881 0.330141 0.031748
Si Si5 0.652645 0.826462 0.746286
Si Si6 0.173069 0.174866 0.378920
Si Si7 0.189202 0.328487 0.566741
O O1 0.582115 0.500000 0.171359
O O2 0.508081 0.305068 0.211048
O O3 0.566630 0.237338 0.094865
O O4 0.624997 0.263501 0.280951
O O5 0.092389 0.745691 0.757808
O O6 0.082195 0.000000 0.835813
O O7 0.092857 0.761106 0.935200
O O8 0.735244 0.500000 0.908173
O O9 0.824315 0.682090 0.906462
O O10 0.713567 0.751902 0.814530
O O11 0.750000 0.750000 0.000000
O O12 0.084822 0.500000 0.005981
O O13 0.650907 0.799195 0.637854
O O14 0.654736 0.000000 0.771639
O O15 0.157111 0.239833 0.469367
O O16 0.240799 0.224574 0.383807
O O17 0.165652 0.000000 0.381537
O O18 0.189183 0.500000 0.539474
#
# Coordination Sequence:
#
# PCOD8111055 Si02
#       7
#     8   8   8   8   8   8   8
#     4  10  22  39  58  81 109 147 191 231 278 330
#     4  11  23  38  56  78 110 151 192 232 274 330
#     4  11  22  35  54  81 113 147 182 225 275 328
#     4  11  23  37  56  83 112 146 187 231 280 330
#     4  11  22  37  57  82 114 150 187 229 280 333
#     4   9  18  36  60  84 110 139 177 228 277 330
#     4   9  19  35  58  86 112 140 175 224 283 336
#
# _framework density 19.177053000000001
#
# number of rings (size 3 to 8) (size 9 to 14) (size 15 to 20)
#    0.000    1.714    1.429    3.000    0.000    7.429 
#    0.000    3.571    0.000    4.286    0.000    0.000 
#    0.000    0.000    0.000    0.000    0.000    0.000 
#
# Total GULP energy -347320.396231 kJ/mol
# GULP energy per Si atom -12404.299865 kJ/mol
# Density = 1.913341 g / cm^3
# Si number density = 19.177053 Si / 1000 Ang^3
#
#
#
# Elastic Constant Matrix: (Units=GPa)
#
#
# Indices 1 2 3 4 5 6 
#
# 1 89.2870 42.3228 36.7943 0.0000 -14.2078 0.0000
# 2 42.3228 100.6117 37.4764 0.0000 -14.1940 0.0000
# 3 36.7943 37.4764 79.8881 0.0000 -17.6535 0.0000
# 4 0.0000 0.0000 0.0000 32.0518 0.0000 -4.6941
# 5 -14.2078 -14.1940 -17.6535 0.0000 28.3567 0.0000
# 6 0.0000 0.0000 0.0000 -4.6941 0.0000 32.1423
#
#
#
# Elastic Compliance Matrix: (Units=1/GPa)
#
#
# Indices 1 2 3 4 5 6 
#
# 1 0.015623 -0.004517 -0.004460 0.000000 0.002790 0.000000
# 2 -0.004517 0.013561 -0.003805 0.000000 0.002156 0.000000
# 3 -0.004460 -0.003805 0.017905 0.000000 0.007008 0.000000
# 4 0.000000 0.000000 0.000000 0.031881 0.000000 0.004656
# 5 0.002790 0.002156 0.007008 0.000000 0.042105 0.000000
# 6 0.000000 0.000000 0.000000 0.004656 0.000000 0.031792
#
#
# Mechanical properties :
#
#
# Convention : Reuss Voigt Hill
#
# Bulk Modulus (GPa) = 46.45670 55.88598 51.17134
# Shear Modulus (GPa) = 26.93902 28.72304 27.83103
#
# Velocity S-wave (km/s) = 3.75207 3.87432 3.81368
# Velocity P-wave (km/s) = 6.56113 7.01564 6.79219
#
# Compressibility (1/GPa) = 0.02152542
#
# Stress axis : x y z
#
# Youngs Moduli (GPa) = 64.00916 73.74307 55.85034
#
# Poissons Ratio (x) = 0.33309 0.24909
# Poissons Ratio (y) = 0.28912 0.21249
# Poissons Ratio (z) = 0.28548 0.28056
#
# Static dielectric constant tensor:
#      x y z
#    x 3.576570 0.000000 -0.011780 
#    y 0.000000 3.673800 0.000000 
#    z -0.011780 0.000000 3.402410 
# 
# 
# High freq. dielectric constant tensor:
#      x y z
#    x 1.747250 0.000000 -0.005740 
#    y 0.000000 1.752320 0.000000 
#    z -0.005740 0.000000 1.737190 
# 
# From -- ./inp_files/237335.got.cif
#   From: 2010.06.25/outbox.cif.g09.slc.cpg/sg12_119_cif.got.tgz:237335.got - 2010.06.28 00:19:55.
