data_PCOD8111331
_publ_section_title
;
Structure prediction by ZEFSAII (Michael W. Deem and Ramdas Pophale) SiO2 
 PCOD8111331
Probable space group: C 2/M
;
_chemical_formula_sum "Si O2"
_cell_formula_units_Z 52
_cell_length_a 10.172114
_cell_length_b 27.195887
_cell_length_c 17.465355
_cell_angle_alpha 90.000000
_cell_angle_beta 30.729572
_cell_angle_gamma 90.000000
_cell_volume 2468.888140
_symmetry_space_group_name_H-M "C 2/M"
_symmetry_group_IT_number 12
_symmetry_cell_setting 'monoclinic'
loop_
_space_group_symop_operation_xyz
x,y,z
-x,y,-z
-x,-y,-z
x,-y,z
1/2+x,1/2+y,z
1/2-x,1/2+y,-z
1/2-x,1/2-y,-z
1/2+x,1/2-y,z
loop_
_atom_site_type_symbol
_atom_site_label
_atom_site_fract_x
_atom_site_fract_y
_atom_site_fract_z
Si Si1 0.166709 0.632214 0.588753
Si Si2 0.315228 0.302405 0.152464
Si Si3 0.000000 0.209128 0.500000
Si Si4 0.204828 0.874381 0.635874
Si Si5 0.091099 0.444455 0.194132
Si Si6 0.016547 0.055452 0.863431
Si Si7 0.526994 0.727517 0.769845
O O1 0.364780 0.675525 0.505032
O O2 0.286359 0.603829 0.455387
O O3 0.888490 0.658557 0.711412
O O4 0.139799 0.594315 0.674091
O O5 0.511330 0.283682 0.120585
O O6 0.189895 0.258030 0.165962
O O7 0.500000 0.331155 0.000000
O O8 0.206401 0.243387 0.356670
O O9 0.500000 0.861663 0.500000
O O10 0.076397 0.911909 0.759474
O O11 0.047485 0.823702 0.714382
O O12 0.986063 0.500000 0.235815
O O13 0.257836 0.441891 0.187900
O O14 0.251274 0.428536 0.038528
O O15 0.987958 0.000000 0.847424
#
# Coordination Sequence:
#
# PCOD8111331 Si02
#       7
#     8   8   4   8   8   8   8
#     4  11  22  35  59  81 110 148 186 229 274 332
#     4  11  23  36  55  81 115 147 192 232 279 329
#     4  10  22  40  55  76 111 152 190 224 272 328
#     4  12  20  32  56  84 111 142 183 223 280 327
#     4   9  18  34  54  80 111 144 178 223 279 334
#     4   9  19  33  53  82 115 141 174 226 284 334
#     4  11  21  38  55  79 114 154 187 230 278 329
#
# _framework density 21.062113
#
# number of rings (size 3 to 8) (size 9 to 14) (size 15 to 20)
#    0.000    1.538    3.846    2.308    4.308    3.385 
#    0.000    0.385    0.000    0.000    0.000    2.154 
#    0.000    0.000    0.000    0.000    0.000    0.000 
#
# Total GULP energy -322108.140909 kJ/mol
# GULP energy per Si atom -12388.774650 kJ/mol
# Density = 2.101417 g / cm^3
# Si number density = 21.062113 Si / 1000 Ang^3
#
#
#
# Elastic Constant Matrix: (Units=GPa)
#
#
# Indices 1 2 3 4 5 6 
#
# 1 44.4693 12.8177 32.2273 0.0038 18.5784 0.0006
# 2 12.8177 110.0839 57.1238 0.0013 18.7626 0.0011
# 3 32.2273 57.1238 129.6680 0.0202 44.8904 0.0046
# 4 0.0038 0.0013 0.0202 33.8449 -0.0079 13.3372
# 5 18.5784 18.7626 44.8904 -0.0079 32.7491 -0.0012
# 6 0.0006 0.0011 0.0046 13.3372 -0.0012 15.7176
#
#
#
# Elastic Compliance Matrix: (Units=1/GPa)
#
#
# Indices 1 2 3 4 5 6 
#
# 1 0.030077 0.000334 -0.003139 -0.000006 -0.012951 0.000004
# 2 0.000334 0.011788 -0.005467 0.000004 0.000550 -0.000003
# 3 -0.003139 -0.005467 0.017508 -0.000018 -0.019086 0.000009
# 4 -0.000006 0.000004 -0.000018 0.044390 0.000035 -0.037667
# 5 -0.012951 0.000550 -0.019086 0.000035 0.063729 -0.000019
# 6 0.000004 -0.000003 0.000009 -0.037667 -0.000019 0.095585
#
#
# Mechanical properties :
#
#
# Convention : Reuss Voigt Hill
#
# Bulk Modulus (GPa) = 23.34796 54.28432 38.81614
# Shear Modulus (GPa) = 17.01284 28.59916 22.80600
#
# Velocity S-wave (km/s) = 2.84517 3.68890 3.29416
# Velocity P-wave (km/s) = 4.68003 6.63124 5.73917
#
# Compressibility (1/GPa) = 0.04283030
#
# Stress axis : x y z
#
# Youngs Moduli (GPa) = 33.24849 84.83222 57.11721
#
# Poissons Ratio (x) = -0.02834 0.17927
# Poissons Ratio (y) = -0.01111 0.31223
# Poissons Ratio (z) = 0.10435 0.46374
#
# Static dielectric constant tensor:
#      x y z
#    x 3.482200 0.000000 0.274520 
#    y 0.000000 4.037390 0.000010 
#    z 0.274520 0.000010 4.099510 
# 
# 
# High freq. dielectric constant tensor:
#      x y z
#    x 1.786320 0.000000 0.025730 
#    y 0.000000 1.827370 0.000000 
#    z 0.025730 0.000000 1.833670 
# 
# From -- ./inp_files/265940.got.cif
#   From: 2010.06.25/outbox.cif.g09.slc.cpg/sg12_133_cif.got.tgz:265940.got - 2010.06.28 00:19:55.
