data_PCOD8111671
_publ_section_title
;
Structure prediction by ZEFSAII (Michael W. Deem and Ramdas Pophale) SiO2 
 PCOD8111671
Probable space group: C 2/M
;
_chemical_formula_sum "Si O2"
_cell_formula_units_Z 56
_cell_length_a 19.785881
_cell_length_b 8.814040
_cell_length_c 25.906171
_cell_angle_alpha 90.000000
_cell_angle_beta 141.091676
_cell_angle_gamma 90.000000
_cell_volume 2837.565634
_symmetry_space_group_name_H-M "C 2/M"
_symmetry_group_IT_number 12
_symmetry_cell_setting 'monoclinic'
loop_
_space_group_symop_operation_xyz
x,y,z
-x,y,-z
-x,-y,-z
x,-y,z
1/2+x,1/2+y,z
1/2-x,1/2+y,-z
1/2-x,1/2-y,-z
1/2+x,1/2-y,z
loop_
_atom_site_type_symbol
_atom_site_label
_atom_site_fract_x
_atom_site_fract_y
_atom_site_fract_z
Si Si1 0.983100 0.822074 0.239144
Si Si2 0.659090 0.674309 0.480429
Si Si3 0.366225 0.321801 0.066864
Si Si4 0.803135 0.327290 0.658841
Si Si5 0.735131 0.821660 0.246816
Si Si6 0.560723 0.179024 0.682511
Si Si7 0.529481 0.322777 0.076182
O O1 0.933323 0.763510 0.155917
O O2 0.921831 0.740281 0.249313
O O3 0.108480 0.779566 0.315229
O O4 0.969061 0.000000 0.237949
O O5 0.645465 0.500000 0.455268
O O6 0.750000 0.750000 0.500000
O O7 0.693464 0.687140 0.560903
O O8 0.546576 0.757721 0.407366
O O9 0.351256 0.500000 0.059825
O O10 0.429513 0.272513 0.052780
O O11 0.250000 0.250000 0.000000
O O12 0.846133 0.500000 0.683141
O O13 0.783412 0.273330 0.705190
O O14 0.838647 0.729616 0.291138
O O15 0.633302 0.774749 0.152148
O O16 0.756186 0.000000 0.253335
O O17 0.553125 0.000000 0.679660
O O18 0.556043 0.500000 0.100062
O O19 0.500000 0.285538 0.000000
#
# Coordination Sequence:
#
# PCOD8111671 Si02
#       7
#     8   8   8   8   8   8   8
#     4  11  22  39  64  92 124 162 210 260 304 365
#     4  11  22  39  63  94 127 162 207 257 311 367
#     4  10  23  40  61  93 127 162 204 253 306 365
#     4  10  22  40  65  92 123 164 204 251 311 372
#     4  11  24  43  65  92 125 164 209 257 311 370
#     4  12  26  42  62  91 127 167 210 258 314 368
#     4  10  22  42  64  90 125 166 206 251 310 370
#
# _framework density 19.735226000000001
#
# number of rings (size 3 to 8) (size 9 to 14) (size 15 to 20)
#    0.000    1.286    2.857    2.571    2.000    3.714 
#    0.000    2.857    0.000    0.000    0.000    0.000 
#    0.000    0.000    0.000    0.000    0.000    0.000 
#
# Total GULP energy -347352.364091 kJ/mol
# GULP energy per Si atom -12405.441575 kJ/mol
# Density = 1.969031 g / cm^3
# Si number density = 19.735226 Si / 1000 Ang^3
#
#
#
# Elastic Constant Matrix: (Units=GPa)
#
#
# Indices 1 2 3 4 5 6 
#
# 1 82.0711 31.7649 39.2983 0.0000 8.4057 0.0000
# 2 31.7649 93.3678 33.8619 0.0000 3.9116 0.0002
# 3 39.2983 33.8619 107.4249 0.0000 3.1005 0.0000
# 4 0.0000 0.0000 0.0000 34.9641 0.0000 6.9177
# 5 8.4057 3.9116 3.1005 0.0000 38.3539 0.0000
# 6 0.0000 0.0002 0.0000 6.9177 0.0000 33.5448
#
#
#
# Elastic Compliance Matrix: (Units=1/GPa)
#
#
# Indices 1 2 3 4 5 6 
#
# 1 0.016124 -0.003680 -0.004658 0.000000 -0.002782 0.000000
# 2 -0.003680 0.012965 -0.002732 0.000000 -0.000295 0.000000
# 3 -0.004658 -0.002732 0.011864 0.000000 0.000340 0.000000
# 4 0.000000 0.000000 0.000000 0.029817 0.000000 -0.006149
# 5 -0.002782 -0.000295 0.000340 0.000000 0.026685 0.000000
# 6 0.000000 0.000000 0.000000 -0.006149 0.000000 0.031079
#
#
# Mechanical properties :
#
#
# Convention : Reuss Voigt Hill
#
# Bulk Modulus (GPa) = 53.15357 54.74601 53.94979
# Shear Modulus (GPa) = 31.85775 33.23512 32.54644
#
# Velocity S-wave (km/s) = 4.02214 4.10817 4.06538
# Velocity P-wave (km/s) = 6.96864 7.09248 7.03083
#
# Compressibility (1/GPa) = 0.01881341
#
# Stress axis : x y z
#
# Youngs Moduli (GPa) = 62.01829 77.12785 84.28566
#
# Poissons Ratio (x) = 0.28380 0.39264
# Poissons Ratio (y) = 0.22821 0.23029
# Poissons Ratio (z) = 0.28891 0.21074
#
# Static dielectric constant tensor:
#      x y z
#    x 3.708010 0.000000 -0.173370 
#    y 0.000000 3.442780 0.000000 
#    z -0.173370 0.000000 3.760040 
# 
# 
# High freq. dielectric constant tensor:
#      x y z
#    x 1.776120 0.000000 -0.008490 
#    y 0.000000 1.773290 0.000000 
#    z -0.008490 0.000000 1.779790 
# 
# From -- ./inp_files/363128.got.cif
#   From: 2010.06.25/outbox.cif.g09.slc.cpg/sg12_182_cif.got.tgz:363128.got - 2010.06.28 00:19:55.
