data_PCOD8111194
_publ_section_title
;
Structure prediction by ZEFSAII (Michael W. Deem and Ramdas Pophale) SiO2 
 PCOD8111194
Probable space group: C 2/M
;
_chemical_formula_sum "Si O2"
_cell_formula_units_Z 56
_cell_length_a 21.118317
_cell_length_b 18.323962
_cell_length_c 14.172029
_cell_angle_alpha 90.000000
_cell_angle_beta 150.816453
_cell_angle_gamma 90.000000
_cell_volume 2674.129328
_symmetry_space_group_name_H-M "C 2/M"
_symmetry_group_IT_number 12
_symmetry_cell_setting 'monoclinic'
loop_
_space_group_symop_operation_xyz
x,y,z
-x,y,-z
-x,-y,-z
x,-y,z
1/2+x,1/2+y,z
1/2-x,1/2+y,-z
1/2-x,1/2-y,-z
1/2+x,1/2-y,z
loop_
_atom_site_type_symbol
_atom_site_label
_atom_site_fract_x
_atom_site_fract_y
_atom_site_fract_z
Si Si1 0.438222 0.417043 0.777439
Si Si2 0.623449 0.199939 0.104429
Si Si3 0.418971 0.415622 0.307186
Si Si4 0.953774 0.686164 0.543044
Si Si5 0.679597 0.183601 0.963216
Si Si6 0.626844 0.662499 0.476872
Si Si7 0.324144 0.635626 0.814373
O O1 0.432647 0.500000 0.731330
O O2 0.353388 0.357118 0.607406
O O3 0.365697 0.416364 0.783414
O O4 0.589984 0.390953 0.984332
O O5 0.744164 0.148805 0.293441
O O6 0.644047 0.280999 0.171027
O O7 0.500000 0.167044 0.000000
O O8 0.614142 0.205306 0.978570
O O9 0.500000 0.382181 0.500000
O O10 0.391026 0.500000 0.283581
O O11 0.513402 0.398090 0.343610
O O12 0.281058 0.378658 0.117823
O O13 0.924892 0.756857 0.569481
O O14 0.831576 0.631560 0.370566
O O15 0.000000 0.711958 0.500000
O O16 0.070809 0.648170 0.752864
O O17 0.750000 0.250000 0.000000
#
# Coordination Sequence:
#
# PCOD8111194 Si02
#       7
#     8   8   8   8   8   8   8
#     4  11  23  42  65  89 125 174 216 258 312 392
#     4  11  23  38  64  98 134 160 209 274 336 383
#     4  11  23  42  64  91 127 169 216 262 315 387
#     4  11  24  38  65  97 131 160 207 276 330 378
#     4  12  23  40  68  95 131 172 216 273 326 386
#     4  11  22  38  64  95 127 159 215 260 329 376
#     4  10  22  39  61  93 125 163 213 261 324 372
#
# _framework density 20.941395
#
# number of rings (size 3 to 8) (size 9 to 14) (size 15 to 20)
#    0.000    1.000    4.286    4.286    4.000    1.143 
#    0.000    1.429    0.000    4.286    0.000    0.000 
#    0.000    0.000    0.000    0.000    0.000    0.000 
#
# Total GULP energy -346997.410807 kJ/mol
# GULP energy per Si atom -12392.764672 kJ/mol
# Density = 2.089373 g / cm^3
# Si number density = 20.941395 Si / 1000 Ang^3
#
#
#
# Elastic Constant Matrix: (Units=GPa)
#
#
# Indices 1 2 3 4 5 6 
#
# 1 97.1219 20.8502 46.1544 0.0000 -1.9815 0.0000
# 2 20.8502 77.3615 42.9139 0.0000 -0.8409 0.0000
# 3 46.1544 42.9139 159.3312 0.0000 -2.3006 0.0000
# 4 0.0000 0.0000 0.0000 28.0141 0.0000 -2.2787
# 5 -1.9815 -0.8409 -2.3006 0.0000 41.2221 0.0000
# 6 0.0000 0.0000 0.0000 -2.2787 0.0000 23.4881
#
#
#
# Elastic Compliance Matrix: (Units=1/GPa)
#
#
# Indices 1 2 3 4 5 6 
#
# 1 0.012101 -0.001547 -0.003083 0.000000 0.000378 0.000000
# 2 -0.001547 0.015395 -0.003698 0.000000 0.000033 0.000000
# 3 -0.003083 -0.003698 0.008169 0.000000 0.000232 0.000000
# 4 0.000000 0.000000 0.000000 0.035980 0.000000 0.003491
# 5 0.000378 0.000033 0.000232 0.000000 0.024291 0.000000
# 6 0.000000 0.000000 0.000000 0.003491 0.000000 0.042913
#
#
# Mechanical properties :
#
#
# Convention : Reuss Voigt Hill
#
# Bulk Modulus (GPa) = 52.60760 61.51684 57.06222
# Shear Modulus (GPa) = 30.89435 33.47127 32.18281
#
# Velocity S-wave (km/s) = 3.84510 4.00225 3.92446
# Velocity P-wave (km/s) = 6.69992 7.12719 6.91685
#
# Compressibility (1/GPa) = 0.01900866
#
# Stress axis : x y z
#
# Youngs Moduli (GPa) = 82.63468 64.95661 122.41811
#
# Poissons Ratio (x) = 0.10049 0.37746
# Poissons Ratio (y) = 0.12784 0.45268
# Poissons Ratio (z) = 0.25479 0.24020
#
# Static dielectric constant tensor:
#      x y z
#    x 4.011980 0.000000 -0.078700 
#    y 0.000000 3.307260 0.000000 
#    z -0.078700 0.000000 4.397400 
# 
# 
# High freq. dielectric constant tensor:
#      x y z
#    x 1.826710 0.000000 -0.008860 
#    y 0.000000 1.780400 0.000000 
#    z -0.008860 0.000000 1.835330 
# 
# From -- ./inp_files/234711.got.cif
#   From: 2010.06.25/outbox.cif.g09.slc.cpg/sg12_118_cif.got.tgz:234711.got - 2010.06.28 00:19:55.
