data_PCOD8111167
_publ_section_title
;
Structure prediction by ZEFSAII (Michael W. Deem and Ramdas Pophale) SiO2 
 PCOD8111167
Probable space group: C 2/M
;
_chemical_formula_sum "Si O2"
_cell_formula_units_Z 48
_cell_length_a 14.492811
_cell_length_b 16.186293
_cell_length_c 18.841751
_cell_angle_alpha 90.000000
_cell_angle_beta 32.189844
_cell_angle_gamma 90.000000
_cell_volume 2354.644807
_symmetry_space_group_name_H-M "C 2/M"
_symmetry_group_IT_number 12
_symmetry_cell_setting 'monoclinic'
loop_
_space_group_symop_operation_xyz
x,y,z
-x,y,-z
-x,-y,-z
x,-y,z
1/2+x,1/2+y,z
1/2-x,1/2+y,-z
1/2-x,1/2-y,-z
1/2+x,1/2-y,z
loop_
_atom_site_type_symbol
_atom_site_label
_atom_site_fract_x
_atom_site_fract_y
_atom_site_fract_z
Si Si1 0.473602 0.904779 0.917193
Si Si2 0.643860 0.195931 0.125620
Si Si3 0.617303 0.694120 0.630258
Si Si4 0.194998 0.597330 0.371254
Si Si5 0.705008 0.402072 0.207432
Si Si6 0.697256 0.408025 0.854321
O O1 0.430675 0.885293 0.864451
O O2 0.670011 0.875769 0.808188
O O3 0.468021 0.000000 0.937951
O O4 0.316521 0.868327 0.067485
O O5 0.477310 0.246437 0.254410
O O6 0.737920 0.162784 0.134485
O O7 0.750000 0.250000 0.000000
O O8 0.750000 0.750000 0.500000
O O9 0.711905 0.628892 0.618825
O O10 0.478068 0.646521 0.670430
O O11 0.204027 0.500000 0.371183
O O12 0.279869 0.625472 0.241113
O O13 0.000000 0.631021 0.500000
O O14 0.664781 0.500000 0.231564
O O15 0.786277 0.500000 0.804639
O O16 0.500000 0.420596 0.000000
#
# Coordination Sequence:
#
# PCOD8111167 Si02
#       6
#     8   8   8   8   8   8
#     4   9  19  38  64  89 117 158 211 261 303 359
#     4  12  23  37  58  92 127 161 200 257 320 368
#     4  12  25  39  60  94 130 163 200 252 320 382
#     4  10  22  43  65  85 117 168 215 250 299 368
#     4   9  19  39  64  88 116 161 212 254 301 367
#     4  10  22  39  61  88 119 158 208 258 302 358
#
# _framework density 20.385238999999999
#
# number of rings (size 3 to 8) (size 9 to 14) (size 15 to 20)
#    0.000    1.667    1.667    4.000    0.000    4.000 
#    0.000    2.500    0.000    2.000    0.000    0.000 
#    0.000    0.000    0.000    0.000    0.000    0.000 
#
# Total GULP energy -297361.787392 kJ/mol
# GULP energy per Si atom -12390.074475 kJ/mol
# Density = 2.033884 g / cm^3
# Si number density = 20.385239 Si / 1000 Ang^3
#
#
#
# Elastic Constant Matrix: (Units=GPa)
#
#
# Indices 1 2 3 4 5 6 
#
# 1 117.5267 33.1142 43.8448 0.0056 -5.2193 0.0013
# 2 33.1142 49.9562 33.7547 0.0095 -2.8364 -0.0001
# 3 43.8448 33.7547 131.3921 0.0314 -5.4619 0.0018
# 4 0.0056 0.0095 0.0314 37.0228 -0.0052 -2.1080
# 5 -5.2193 -2.8364 -5.4619 -0.0052 35.5566 -0.0032
# 6 0.0013 -0.0001 0.0018 -2.1080 -0.0032 38.9108
#
#
#
# Elastic Compliance Matrix: (Units=1/GPa)
#
#
# Indices 1 2 3 4 5 6 
#
# 1 0.010973 -0.005779 -0.002143 0.000002 0.000821 0.000000
# 2 -0.005779 0.027300 -0.005062 -0.000002 0.000552 0.000000
# 3 -0.002143 -0.005062 0.009658 -0.000006 0.000765 -0.000001
# 4 0.000002 -0.000002 -0.000006 0.027094 0.000003 0.001468
# 5 0.000821 0.000552 0.000765 0.000003 0.028406 0.000002
# 6 0.000000 0.000000 -0.000001 0.001468 0.000002 0.025779
#
#
# Mechanical properties :
#
#
# Convention : Reuss Voigt Hill
#
# Bulk Modulus (GPa) = 45.53085 57.81138 51.67112
# Shear Modulus (GPa) = 30.76940 34.84213 32.80577
#
# Velocity S-wave (km/s) = 3.88931 4.13871 4.01595
# Velocity P-wave (km/s) = 6.52324 7.15958 6.84881
#
# Compressibility (1/GPa) = 0.02196313
#
# Stress axis : x y z
#
# Youngs Moduli (GPa) = 91.13408 36.63016 103.54003
#
# Poissons Ratio (x) = 0.21169 0.22187
# Poissons Ratio (y) = 0.52667 0.52412
# Poissons Ratio (z) = 0.19528 0.18542
#
# Static dielectric constant tensor:
#      x y z
#    x 3.629910 0.000020 0.067570 
#    y 0.000020 3.782130 -0.000030 
#    z 0.067570 -0.000030 3.582650 
# 
# 
# High freq. dielectric constant tensor:
#      x y z
#    x 1.801980 0.000000 -0.006410 
#    y 0.000000 1.801210 0.000000 
#    z -0.006410 0.000000 1.785340 
# 
# From -- ./inp_files/271621.got.cif
#   From: 2010.06.25/outbox.cif.g09.slc.cpg/sg12_136_cif.got.tgz:271621.got - 2010.06.28 00:19:55.
