data_PCOD8111805
_publ_section_title
;
Structure prediction by ZEFSAII (Michael W. Deem and Ramdas Pophale) SiO2 
 PCOD8111805
Probable space group: C 2/M
;
_chemical_formula_sum "Si O2"
_cell_formula_units_Z 64
_cell_length_a 9.228945
_cell_length_b 14.547117
_cell_length_c 32.259427
_cell_angle_alpha 90.000000
_cell_angle_beta 135.376836
_cell_angle_gamma 90.000000
_cell_volume 3042.253533
_symmetry_space_group_name_H-M "C 2/M"
_symmetry_group_IT_number 12
_symmetry_cell_setting 'monoclinic'
loop_
_space_group_symop_operation_xyz
x,y,z
-x,y,-z
-x,-y,-z
x,-y,z
1/2+x,1/2+y,z
1/2-x,1/2+y,-z
1/2-x,1/2-y,-z
1/2+x,1/2-y,z
loop_
_atom_site_type_symbol
_atom_site_label
_atom_site_fract_x
_atom_site_fract_y
_atom_site_fract_z
Si Si1 0.486569 0.607780 0.825953
Si Si2 0.657494 0.106894 0.829258
Si Si3 0.274289 0.609309 0.944400
Si Si4 0.061263 0.607600 0.557765
Si Si5 0.943112 0.390530 0.942931
Si Si6 0.731585 0.606248 0.560194
Si Si7 0.634284 0.248652 0.265716
Si Si8 0.590667 0.257468 0.348793
O O1 0.484045 0.500000 0.814840
O O2 0.344310 0.630003 0.836422
O O3 0.715804 0.643233 0.883562
O O4 0.404154 0.659166 0.768458
O O5 0.718380 0.142090 0.887067
O O6 0.449908 0.159810 0.775163
O O7 0.602444 0.000000 0.817768
O O8 0.279220 0.500000 0.948150
O O9 0.108033 0.648182 0.943350
O O10 0.500000 0.650056 0.000000
O O11 0.104813 0.500000 0.565497
O O12 0.274224 0.653245 0.614657
O O13 0.000000 0.644867 0.500000
O O14 0.877695 0.633005 0.551618
O O15 0.947874 0.500000 0.944874
O O16 0.000000 0.351658 0.000000
O O17 0.500000 0.629769 0.500000
O O18 0.756109 0.500000 0.577778
O O19 0.790594 0.665656 0.612373
O O20 0.521504 0.254931 0.286826
O O21 0.872211 0.235430 0.327358
#
# Coordination Sequence:
#
# PCOD8111805 Si02
#       8
#     8   8   8   8   8   8   8   8
#     4  10  22  41  63  85 120 165 204 252 310 367
#     4  10  22  41  62  86 121 162 204 255 310 363
#     4   9  17  31  56  88 119 153 199 255 312 369
#     4  10  23  43  67  97 129 160 200 252 306 357
#     4   9  17  31  56  88 118 154 201 251 311 375
#     4  10  23  43  68  96 127 163 202 247 304 365
#     4  12  26  42  61  91 124 164 214 252 296 361
#     4  12  25  42  65  91 125 167 206 253 298 357
#
# _framework density 21.037036000000001
#
# number of rings (size 3 to 8) (size 9 to 14) (size 15 to 20)
#    0.000    1.750    2.500    1.125    3.500    6.000 
#    0.000    0.625    0.000    3.000    0.000    0.000 
#    0.000    0.000    0.000    0.000    0.000    0.000 
#
# Total GULP energy -396931.724317 kJ/mol
# GULP energy per Si atom -12404.116385 kJ/mol
# Density = 2.098915 g / cm^3
# Si number density = 21.037036 Si / 1000 Ang^3
#
#
#
# Elastic Constant Matrix: (Units=GPa)
#
#
# Indices 1 2 3 4 5 6 
#
# 1 111.1812 41.4569 57.6991 0.0000 1.4231 0.0000
# 2 41.4569 60.6743 49.9240 0.0000 0.3806 0.0000
# 3 57.6991 49.9240 144.0422 0.0000 -0.3385 0.0000
# 4 0.0000 0.0000 0.0000 1.4186 0.0000 4.9065
# 5 1.4231 0.3806 -0.3385 0.0000 53.5884 0.0000
# 6 0.0000 0.0000 0.0000 4.9065 0.0000 23.4049
#
#
#
# Elastic Compliance Matrix: (Units=1/GPa)
#
#
# Indices 1 2 3 4 5 6 
#
# 1 0.012917 -0.006387 -0.002961 0.000000 -0.000316 0.000000
# 2 -0.006387 0.026218 -0.006528 0.000001 -0.000058 0.000000
# 3 -0.002961 -0.006528 0.010392 -0.000001 0.000191 0.000000
# 4 0.000000 0.000001 -0.000001 2.564282 0.000000 -0.537569
# 5 -0.000316 -0.000058 0.000191 0.000000 0.018671 0.000000
# 6 0.000000 0.000000 0.000000 -0.537569 0.000000 0.155420
#
#
# Mechanical properties :
#
#
# Convention : Reuss Voigt Hill
#
# Bulk Modulus (GPa) = 56.26615 68.22863 62.24739
# Shear Modulus (GPa) = 1.76955 26.80357 14.28656
#
# Velocity S-wave (km/s) = 0.91814 3.57335 2.60881
# Velocity P-wave (km/s) = 5.28472 7.03762 6.22320
#
# Compressibility (1/GPa) = 0.01777268
#
# Stress axis : x y z
#
# Youngs Moduli (GPa) = 77.41934 38.14214 96.23074
#
# Poissons Ratio (x) = 0.24362 0.28494
# Poissons Ratio (y) = 0.49449 0.62824
# Poissons Ratio (z) = 0.22924 0.24901
#
# Static dielectric constant tensor:
#      x y z
#    x 3.985950 0.000000 -0.076390 
#    y 0.000000 3.548280 0.000000 
#    z -0.076390 0.000000 3.851010 
# 
# 
# High freq. dielectric constant tensor:
#      x y z
#    x 1.836180 0.000000 0.000080 
#    y 0.000000 1.815320 0.000000 
#    z 0.000080 0.000000 1.830160 
# 
# From -- ./inp_files/372579.got.cif
#   From: 2010.06.25/outbox.cif.g09.slc.cpg/sg12_187_cif.got.tgz:372579.got - 2010.06.28 00:19:55.
