data_PCOD8111765
_publ_section_title
;
Structure prediction by ZEFSAII (Michael W. Deem and Ramdas Pophale) SiO2 
 PCOD8111765
Probable space group: C 2/M
;
_chemical_formula_sum "Si O2"
_cell_formula_units_Z 64
_cell_length_a 15.123533
_cell_length_b 13.582337
_cell_length_c 25.309396
_cell_angle_alpha 90.000000
_cell_angle_beta 141.068828
_cell_angle_gamma 90.000000
_cell_volume 3266.903440
_symmetry_space_group_name_H-M "C 2/M"
_symmetry_group_IT_number 12
_symmetry_cell_setting 'monoclinic'
loop_
_space_group_symop_operation_xyz
x,y,z
-x,y,-z
-x,-y,-z
x,-y,z
1/2+x,1/2+y,z
1/2-x,1/2+y,-z
1/2-x,1/2-y,-z
1/2+x,1/2-y,z
loop_
_atom_site_type_symbol
_atom_site_label
_atom_site_fract_x
_atom_site_fract_y
_atom_site_fract_z
Si Si1 0.117026 0.112743 0.725622
Si Si2 0.530183 0.810792 0.570355
Si Si3 0.435010 0.391752 0.544561
Si Si4 0.776067 0.111772 0.912828
Si Si5 0.390106 0.887166 0.603644
Si Si6 0.196053 0.758806 0.255719
Si Si7 0.964327 0.111763 0.898523
Si Si8 0.022677 0.271245 0.758296
O O1 0.240878 0.169479 0.750398
O O2 0.079330 0.165075 0.763980
O O3 0.972928 0.113094 0.624604
O O4 0.166794 0.000000 0.759721
O O5 0.500000 0.863642 0.500000
O O6 0.525002 0.692434 0.557611
O O7 0.408928 0.843434 0.553892
O O8 0.681414 0.833476 0.667010
O O9 0.478332 0.500000 0.542838
O O10 0.271905 0.371817 0.457848
O O11 0.848326 0.119854 0.889738
O O12 0.641368 0.181584 0.850751
O O13 0.728179 0.000000 0.901303
O O14 0.884327 0.146140 0.008679
O O15 0.494320 0.834454 0.692672
O O16 0.435134 0.000000 0.624417
O O17 0.079136 0.818189 0.169226
O O18 0.119224 0.725180 0.273542
O O19 0.974588 0.000000 0.882689
#
# Coordination Sequence:
#
# PCOD8111765 Si02
#       8
#     8   8   8   8   8   8   8   8
#     4  10  22  41  58  82 124 165 200 243 302 363
#     4  11  22  36  55  82 121 153 190 245 300 356
#     4   9  19  36  57  77 106 154 200 237 287 352
#     4   9  18  35  63  91 117 149 188 245 304 353
#     4  11  22  37  58  83 114 152 198 255 302 347
#     4  11  23  37  60  90 115 162 203 249 293 358
#     4   9  18  37  63  90 118 149 190 241 302 361
#     4  12  22  37  63  88 117 158 204 248 299 360
#
# _framework density 19.590416999999999
#
# number of rings (size 3 to 8) (size 9 to 14) (size 15 to 20)
#    0.000    1.750    3.750    2.250    1.750    4.000 
#    0.000    2.500    0.000    1.500    0.000    0.000 
#    0.000    0.000    0.000    0.000    0.000    0.000 
#
# Total GULP energy -396657.030328 kJ/mol
# GULP energy per Si atom -12395.532198 kJ/mol
# Density = 1.954583 g / cm^3
# Si number density = 19.590417 Si / 1000 Ang^3
#
#
#
# Elastic Constant Matrix: (Units=GPa)
#
#
# Indices 1 2 3 4 5 6 
#
# 1 77.7832 25.9336 18.2981 0.0000 -1.4772 0.0000
# 2 25.9336 80.6225 36.4864 0.0000 -3.4133 0.0000
# 3 18.2981 36.4864 107.6902 0.0000 -3.4426 0.0000
# 4 0.0000 0.0000 0.0000 27.2551 0.0000 8.7877
# 5 -1.4772 -3.4133 -3.4426 0.0000 24.2399 0.0000
# 6 0.0000 0.0000 0.0000 8.7877 0.0000 8.4112
#
#
#
# Elastic Compliance Matrix: (Units=1/GPa)
#
#
# Indices 1 2 3 4 5 6 
#
# 1 0.014500 -0.004187 -0.001040 0.000000 0.000146 0.000000
# 2 -0.004187 0.015904 -0.004635 0.000000 0.001326 0.000000
# 3 -0.001040 -0.004635 0.011060 0.000000 0.000855 0.000000
# 4 0.000000 0.000000 0.000000 0.055328 0.000000 -0.057805
# 5 0.000146 0.001326 0.000855 0.000000 0.041571 0.000000
# 6 0.000000 0.000000 0.000000 -0.057805 0.000000 0.179281
#
#
# Mechanical properties :
#
#
# Convention : Reuss Voigt Hill
#
# Bulk Modulus (GPa) = 45.99853 47.50356 46.75105
# Shear Modulus (GPa) = 14.50892 24.33974 19.42433
#
# Velocity S-wave (km/s) = 2.72437 3.52864 3.15226
# Velocity P-wave (km/s) = 5.78164 6.39552 6.09631
#
# Compressibility (1/GPa) = 0.02173983
#
# Stress axis : x y z
#
# Youngs Moduli (GPa) = 68.96656 62.87780 90.41407
#
# Poissons Ratio (x) = 0.26327 0.09407
# Poissons Ratio (y) = 0.28877 0.41903
# Poissons Ratio (z) = 0.07176 0.29141
#
# Static dielectric constant tensor:
#      x y z
#    x 3.285810 0.000000 -0.002470 
#    y 0.000000 3.649830 0.000000 
#    z -0.002470 0.000000 3.662650 
# 
# 
# High freq. dielectric constant tensor:
#      x y z
#    x 1.745130 0.000000 0.000360 
#    y 0.000000 1.754610 0.000000 
#    z 0.000360 0.000000 1.766280 
# 
# From -- ./inp_files/340188.got.cif
#   From: 2010.06.25/outbox.cif.g09.slc.cpg/sg12_171_cif.got.tgz:340188.got - 2010.06.28 00:19:55.
