data_PCOD8111917
_publ_section_title
;
Structure prediction by ZEFSAII (Michael W. Deem and Ramdas Pophale) SiO2 
 PCOD8111917
Probable space group: C 2/M
;
_chemical_formula_sum "Si O2"
_cell_formula_units_Z 32
_cell_length_a 4.928273
_cell_length_b 35.091099
_cell_length_c 9.140460
_cell_angle_alpha 90.000000
_cell_angle_beta 115.905245
_cell_angle_gamma 90.000000
_cell_volume 1421.901578
_symmetry_space_group_name_H-M "C 2/M"
_symmetry_group_IT_number 12
_symmetry_cell_setting 'monoclinic'
loop_
_space_group_symop_operation_xyz
x,y,z
-x,y,-z
-x,-y,-z
x,-y,z
1/2+x,1/2+y,z
1/2-x,1/2+y,-z
1/2-x,1/2-y,-z
1/2+x,1/2-y,z
loop_
_atom_site_type_symbol
_atom_site_label
_atom_site_fract_x
_atom_site_fract_y
_atom_site_fract_z
Si Si1 0.914532 0.581040 0.813640
Si Si2 0.669404 0.152342 0.389136
Si Si3 0.167923 0.724940 0.185311
Si Si4 0.770292 0.956102 0.669242
O O1 0.990875 0.620072 0.746100
O O2 0.569087 0.568279 0.710921
O O3 0.143917 0.549261 0.803845
O O4 0.000000 0.587551 0.000000
O O5 0.500000 0.159978 0.500000
O O6 0.691964 0.191290 0.305461
O O7 0.000000 0.136960 0.500000
O O8 0.499675 0.738964 0.218264
O O9 0.000000 0.710184 0.000000
O O10 0.500000 0.941331 0.500000
O O11 0.849030 0.000000 0.657633
#
# Coordination Sequence:
#
# PCOD8111917 Si02
#       4
#     8   8   8   8
#     4  12  25  42  65  93 128 167 212 262 314 375
#     4  12  25  41  64  91 125 165 209 259 309 369
#     4  10  22  41  64  91 125 162 202 252 311 371
#     4  11  24  43  67  94 127 166 208 259 319 379
#
# _framework density 22.505071999999998
#
# number of rings (size 3 to 8) (size 9 to 14) (size 15 to 20)
#    0.000    0.750    0.000    8.250    0.000    8.000 
#    0.000    7.500    0.000    0.000    0.000    0.000 
#    0.000    0.000    0.000    0.000    0.000    0.000 
#
# Total GULP energy -198483.281675 kJ/mol
# GULP energy per Si atom -12405.205105 kJ/mol
# Density = 2.245385 g / cm^3
# Si number density = 22.505072 Si / 1000 Ang^3
#
#
#
# Elastic Constant Matrix: (Units=GPa)
#
#
# Indices 1 2 3 4 5 6 
#
# 1 109.0198 16.0398 23.5208 0.0000 -18.1371 0.0000
# 2 16.0398 82.1760 54.1368 0.0000 -6.0970 0.0000
# 3 23.5208 54.1368 117.6736 0.0000 -25.6032 0.0000
# 4 0.0000 0.0000 0.0000 33.8230 0.0000 -10.8725
# 5 -18.1371 -6.0970 -25.6032 0.0000 41.2340 0.0000
# 6 0.0000 0.0000 0.0000 -10.8725 0.0000 25.5076
#
#
#
# Elastic Compliance Matrix: (Units=1/GPa)
#
#
# Indices 1 2 3 4 5 6 
#
# 1 0.010140 -0.001312 -0.000572 0.000000 0.003911 0.000000
# 2 -0.001312 0.017911 -0.008703 0.000000 -0.003333 0.000000
# 3 -0.000572 -0.008703 0.014200 0.000000 0.007279 0.000000
# 4 0.000000 0.000000 0.000000 0.034260 0.000000 0.014603
# 5 0.003911 -0.003333 0.007279 0.000000 0.029999 0.000000
# 6 0.000000 0.000000 0.000000 0.014603 0.000000 0.045429
#
#
# Mechanical properties :
#
#
# Convention : Reuss Voigt Hill
#
# Bulk Modulus (GPa) = 47.44649 55.14045 51.29347
# Shear Modulus (GPa) = 27.75642 34.45773 31.10707
#
# Velocity S-wave (km/s) = 3.51570 3.91718 3.72186
# Velocity P-wave (km/s) = 6.13258 6.70922 6.42737
#
# Compressibility (1/GPa) = 0.02107637
#
# Stress axis : x y z
#
# Youngs Moduli (GPa) = 98.62176 55.83045 70.42213
#
# Poissons Ratio (x) = 0.07325 0.04030
# Poissons Ratio (y) = 0.12939 0.61289
# Poissons Ratio (z) = 0.05644 0.48590
#
# Static dielectric constant tensor:
#      x y z
#    x 4.160230 0.000000 -0.105370 
#    y 0.000000 3.831670 0.000000 
#    z -0.105370 0.000000 4.117580 
# 
# 
# High freq. dielectric constant tensor:
#      x y z
#    x 1.901240 0.000000 -0.013660 
#    y 0.000000 1.888320 0.000000 
#    z -0.013660 0.000000 1.894370 
# 
# From -- ./inp_files/34648.got.cif
#   From: 2010.06.25/outbox.cif.g09.slc.cpg/sg12_18_cif.got.tgz:34648.got - 2010.06.28 00:19:55.
