data_PCOD8111732
_publ_section_title
;
Structure prediction by ZEFSAII (Michael W. Deem and Ramdas Pophale) SiO2 
 PCOD8111732
Probable space group: C 2/M
;
_chemical_formula_sum "Si O2"
_cell_formula_units_Z 40
_cell_length_a 13.908446
_cell_length_b 24.164358
_cell_length_c 9.525974
_cell_angle_alpha 90.000000
_cell_angle_beta 145.121629
_cell_angle_gamma 90.000000
_cell_volume 1830.774807
_symmetry_space_group_name_H-M "C 2/M"
_symmetry_group_IT_number 12
_symmetry_cell_setting 'monoclinic'
loop_
_space_group_symop_operation_xyz
x,y,z
-x,y,-z
-x,-y,-z
x,-y,z
1/2+x,1/2+y,z
1/2-x,1/2+y,-z
1/2-x,1/2-y,-z
1/2+x,1/2-y,z
loop_
_atom_site_type_symbol
_atom_site_label
_atom_site_fract_x
_atom_site_fract_y
_atom_site_fract_z
Si Si1 0.126632 0.145440 0.034495
Si Si2 0.195857 0.249906 0.271557
Si Si3 0.876532 0.562311 0.723788
Si Si4 0.398757 0.647417 0.510908
Si Si5 0.888675 0.560437 0.234358
O O1 0.755758 0.192387 0.750285
O O2 0.015392 0.171560 0.775599
O O3 0.231744 0.097958 0.085635
O O4 0.000000 0.120118 0.000000
O O5 0.250000 0.250000 0.500000
O O6 0.291467 0.301845 0.317969
O O7 0.000000 0.258075 0.000000
O O8 0.815603 0.500000 0.612051
O O9 0.714714 0.599367 0.558660
O O10 0.988728 0.588717 0.733275
O O11 0.000000 0.560916 0.000000
O O12 0.500000 0.622147 0.500000
O O13 0.823519 0.500000 0.101348
O O14 0.000000 0.549639 0.500000
#
# Coordination Sequence:
#
# PCOD8111732 Si02
#       5
#     8   8   8   8   8
#     4  11  23  42  67  96 136 177 225 284 336 401
#     4  11  23  46  70  94 134 182 224 277 340 406
#     4  10  22  43  68  96 135 180 221 271 335 408
#     4  12  25  42  66 102 135 174 231 282 341 399
#     4  10  22  40  66  98 131 175 224 270 341 408
#
# _framework density 21.848671
#
# number of rings (size 3 to 8) (size 9 to 14) (size 15 to 20)
#    0.000    1.200    4.000    3.000    0.000    3.200 
#    0.000    0.000    0.000    0.000    0.000    0.000 
#    0.000    0.000    0.000    0.000    0.000    0.000 
#
# Total GULP energy -247854.244031 kJ/mol
# GULP energy per Si atom -12392.712202 kJ/mol
# Density = 2.179894 g / cm^3
# Si number density = 21.848671 Si / 1000 Ang^3
#
#
#
# Elastic Constant Matrix: (Units=GPa)
#
#
# Indices 1 2 3 4 5 6 
#
# 1 184.4019 63.3681 48.0938 0.0000 15.5112 0.0000
# 2 63.3681 124.6742 46.2670 0.0000 23.0082 0.0000
# 3 48.0938 46.2670 101.1245 0.0000 -8.4058 0.0000
# 4 0.0000 0.0000 0.0000 21.1680 0.0000 -5.3713
# 5 15.5112 23.0082 -8.4058 0.0000 43.4307 0.0000
# 6 0.0000 0.0000 0.0000 -5.3713 0.0000 25.1063
#
#
#
# Elastic Compliance Matrix: (Units=1/GPa)
#
#
# Indices 1 2 3 4 5 6 
#
# 1 0.007001 -0.002352 -0.002396 0.000000 -0.001718 0.000000
# 2 -0.002352 0.012333 -0.005079 0.000000 -0.006677 0.000000
# 3 -0.002396 -0.005079 0.013870 0.000000 0.006231 0.000000
# 4 0.000000 0.000000 0.000000 0.049953 0.000000 0.010687
# 5 -0.001718 -0.006677 0.006231 0.000000 0.028382 0.000000
# 6 0.000000 0.000000 0.000000 0.010687 0.000000 0.042117
#
#
# Mechanical properties :
#
#
# Convention : Reuss Voigt Hill
#
# Bulk Modulus (GPa) = 73.80339 80.62873 77.21606
# Shear Modulus (GPa) = 28.11708 34.77245 31.44477
#
# Velocity S-wave (km/s) = 3.59123 3.99371 3.79780
# Velocity P-wave (km/s) = 7.14483 7.63214 7.39250
#
# Compressibility (1/GPa) = 0.01354951
#
# Stress axis : x y z
#
# Youngs Moduli (GPa) = 142.84461 81.08003 72.09660
#
# Poissons Ratio (x) = 0.19069 0.17276
# Poissons Ratio (y) = 0.33596 0.36620
# Poissons Ratio (z) = 0.34228 0.41183
#
# Static dielectric constant tensor:
#      x y z
#    x 4.078650 0.000000 -0.070020 
#    y 0.000000 4.347720 0.000000 
#    z -0.070020 0.000000 3.990520 
# 
# 
# High freq. dielectric constant tensor:
#      x y z
#    x 1.871330 0.000000 -0.010770 
#    y 0.000000 1.854790 0.000000 
#    z -0.010770 0.000000 1.855570 
# 
# From -- ./inp_files/148979.got.cif
#   From: 2010.06.25/outbox.cif.g09.slc.cpg/sg12_75_cif.got.tgz:148979.got - 2010.06.28 00:19:55.
