data_PCOD8111486
_publ_section_title
;
Structure prediction by ZEFSAII (Michael W. Deem and Ramdas Pophale) SiO2 
 PCOD8111486
Probable space group: C 2/M
;
_chemical_formula_sum "Si O2"
_cell_formula_units_Z 48
_cell_length_a 9.656863
_cell_length_b 15.296650
_cell_length_c 27.330377
_cell_angle_alpha 90.000000
_cell_angle_beta 144.727417
_cell_angle_gamma 90.000000
_cell_volume 2331.337828
_symmetry_space_group_name_H-M "C 2/M"
_symmetry_group_IT_number 12
_symmetry_cell_setting 'monoclinic'
loop_
_space_group_symop_operation_xyz
x,y,z
-x,y,-z
-x,-y,-z
x,-y,z
1/2+x,1/2+y,z
1/2-x,1/2+y,-z
1/2-x,1/2-y,-z
1/2+x,1/2-y,z
loop_
_atom_site_type_symbol
_atom_site_label
_atom_site_fract_x
_atom_site_fract_y
_atom_site_fract_z
Si Si1 0.747500 0.649457 0.215174
Si Si2 0.737952 0.847091 0.235494
Si Si3 0.487011 0.231837 0.442885
Si Si4 0.699389 0.396627 0.095825
Si Si5 0.731043 0.597128 0.647604
Si Si6 0.352908 0.596422 0.710574
O O1 0.814029 0.748742 0.245768
O O2 0.615500 0.641058 0.124515
O O3 0.596213 0.612198 0.217020
O O4 0.985303 0.591745 0.277696
O O5 0.452411 0.858587 0.149841
O O6 0.835920 0.874975 0.316587
O O7 0.885166 0.903206 0.238583
O O8 0.500000 0.186997 0.500000
O O9 0.370263 0.327790 0.416678
O O10 0.333382 0.168810 0.363238
O O11 0.750000 0.250000 0.500000
O O12 0.722350 0.500000 0.105242
O O13 0.500000 0.365614 0.000000
O O14 0.625115 0.500000 0.605850
O O15 0.240126 0.500000 0.670287
#
# Coordination Sequence:
#
# PCOD8111486 Si02
#       6
#     8   8   8   8   8   8
#     4  11  20  39  64  89 119 159 208 252 294 358
#     4  11  20  39  64  89 120 160 206 252 298 359
#     4  12  25  40  60  88 126 157 199 259 317 358
#     4  10  22  40  61  90 126 163 203 247 299 364
#     4  11  22  41  64  86 117 166 213 247 298 371
#     4  12  23  39  63  92 120 159 209 254 304 360
#
# _framework density 20.589034999999999
#
# number of rings (size 3 to 8) (size 9 to 14) (size 15 to 20)
#    0.000    0.833    3.333    7.000    0.000    2.000 
#    0.000    0.833    0.000    3.000    0.000    0.000 
#    0.000    0.000    0.000    0.000    0.000    0.000 
#
# Total GULP energy -297539.780744 kJ/mol
# GULP energy per Si atom -12397.490864 kJ/mol
# Density = 2.054217 g / cm^3
# Si number density = 20.589035 Si / 1000 Ang^3
#
#
#
# Elastic Constant Matrix: (Units=GPa)
#
#
# Indices 1 2 3 4 5 6 
#
# 1 151.2984 13.2702 51.5524 -0.0001 -17.7516 -0.0001
# 2 13.2702 137.2535 24.7562 -0.0003 -7.8441 -0.0002
# 3 51.5524 24.7562 92.1148 -0.0016 -8.3739 -0.0007
# 4 -0.0001 -0.0003 -0.0016 21.2003 -0.0002 -1.9728
# 5 -17.7516 -7.8441 -8.3739 -0.0002 29.2470 -0.0001
# 6 -0.0001 -0.0002 -0.0007 -1.9728 -0.0001 25.9112
#
#
#
# Elastic Compliance Matrix: (Units=1/GPa)
#
#
# Indices 1 2 3 4 5 6 
#
# 1 0.008593 0.000209 -0.004503 0.000000 0.003982 0.000000
# 2 0.000209 0.007727 -0.002047 0.000000 0.001613 0.000000
# 3 -0.004503 -0.002047 0.013992 0.000001 0.000724 0.000000
# 4 0.000000 0.000000 0.000001 0.047506 0.000000 0.003617
# 5 0.003982 0.001613 0.000724 0.000000 0.037248 0.000000
# 6 0.000000 0.000000 0.000000 0.003617 0.000000 0.038869
#
#
# Mechanical properties :
#
#
# Convention : Reuss Voigt Hill
#
# Bulk Modulus (GPa) = 56.72252 62.20272 59.46262
# Shear Modulus (GPa) = 28.98660 34.67756 31.83208
#
# Velocity S-wave (km/s) = 3.75622 4.10844 3.93627
# Velocity P-wave (km/s) = 6.81337 7.26518 7.04290
#
# Compressibility (1/GPa) = 0.01762968
#
# Stress axis : x y z
#
# Youngs Moduli (GPa) = 116.37791 129.41660 71.46860
#
# Poissons Ratio (x) = -0.02705 0.32183
# Poissons Ratio (y) = -0.02433 0.14630
# Poissons Ratio (z) = 0.52406 0.26491
#
# Static dielectric constant tensor:
#      x y z
#    x 3.970260 0.000000 -0.176310 
#    y 0.000000 3.836740 0.000000 
#    z -0.176310 0.000000 3.537520 
# 
# 
# High freq. dielectric constant tensor:
#      x y z
#    x 1.821990 0.000000 -0.009830 
#    y 0.000000 1.817610 0.000000 
#    z -0.009830 0.000000 1.773620 
# 
# From -- ./inp_files/255787.got.cif
#   From: 2010.06.25/outbox.cif.g09.slc.cpg/sg12_128_cif.got.tgz:255787.got - 2010.06.28 00:19:55.
