data_PCOD8111552
_publ_section_title
;
Structure prediction by ZEFSAII (Michael W. Deem and Ramdas Pophale) SiO2 
 PCOD8111552
Probable space group: C 2/M
;
_chemical_formula_sum "Si O2"
_cell_formula_units_Z 56
_cell_length_a 27.922987
_cell_length_b 11.708083
_cell_length_c 9.465265
_cell_angle_alpha 90.000000
_cell_angle_beta 114.653475
_cell_angle_gamma 90.000000
_cell_volume 2812.362600
_symmetry_space_group_name_H-M "C 2/M"
_symmetry_group_IT_number 12
_symmetry_cell_setting 'monoclinic'
loop_
_space_group_symop_operation_xyz
x,y,z
-x,y,-z
-x,-y,-z
x,-y,z
1/2+x,1/2+y,z
1/2-x,1/2+y,-z
1/2-x,1/2-y,-z
1/2+x,1/2-y,z
loop_
_atom_site_type_symbol
_atom_site_label
_atom_site_fract_x
_atom_site_fract_y
_atom_site_fract_z
Si Si1 0.328044 0.268890 0.234965
Si Si2 0.082201 0.753816 0.871773
Si Si3 0.380589 0.261914 0.591579
Si Si4 0.065194 0.000000 0.257193
Si Si5 0.651665 0.864443 0.174894
Si Si6 0.947434 0.000000 0.090798
Si Si7 0.766778 0.376258 0.954129
Si Si8 0.015817 0.369312 0.357693
O O1 0.381668 0.236803 0.221466
O O2 0.338189 0.268103 0.413507
O O3 0.296710 0.385183 0.154773
O O4 0.280822 0.185040 0.120564
O O5 0.084029 0.888482 0.900554
O O6 0.023152 0.711554 0.776533
O O7 0.100796 0.677625 0.025544
O O8 0.403291 0.387998 0.653017
O O9 0.348290 0.207368 0.680495
O O10 0.426040 0.175933 0.599259
O O11 0.004854 0.000000 0.239306
O O12 0.054062 0.000000 0.078552
O O13 0.702735 0.826849 0.146933
O O14 0.648536 0.000000 0.202178
O O15 0.790689 0.500000 0.006876
O O16 0.011990 0.500000 0.300597
O O17 0.000000 0.360272 0.500000
#
# Coordination Sequence:
#
# PCOD8111552 Si02
#       8
#     8   8   8   4   8   4   8   8
#     4  10  23  39  65  91 118 154 200 259 302 365
#     4  11  21  40  61  91 121 165 207 242 302 357
#     4  12  23  40  61  94 123 158 208 245 309 359
#     4  11  24  39  57  89 133 169 195 255 295 351
#     4  10  22  40  63  86 121 159 205 254 302 362
#     4  11  22  39  61  83 135 171 201 245 285 366
#     4   9  21  43  63  88 118 155 201 253 313 365
#     4  11  23  39  59  92 130 159 201 249 298 358
#
# _framework density 19.912082999999999
#
# number of rings (size 3 to 8) (size 9 to 14) (size 15 to 20)
#    0.000    1.429    4.286    0.857    2.000    2.857 
#    0.000    2.857    0.000    0.000    0.000    0.000 
#    0.000    0.000    0.000    0.000    0.000    0.000 
#
# Total GULP energy -346935.183794 kJ/mol
# GULP energy per Si atom -12390.542278 kJ/mol
# Density = 1.986676 g / cm^3
# Si number density = 19.912083 Si / 1000 Ang^3
#
#
#
# Elastic Constant Matrix: (Units=GPa)
#
#
# Indices 1 2 3 4 5 6 
#
# 1 52.1695 32.6080 36.3015 0.0000 8.9243 0.0000
# 2 32.6080 107.3494 43.6675 0.0000 -7.9625 0.0000
# 3 36.3015 43.6675 138.5085 0.0000 3.9903 0.0000
# 4 0.0000 0.0000 0.0000 9.4518 0.0000 -1.1789
# 5 8.9243 -7.9625 3.9903 0.0000 30.7389 0.0000
# 6 0.0000 0.0000 0.0000 -1.1789 0.0000 29.2222
#
#
#
# Elastic Compliance Matrix: (Units=1/GPa)
#
#
# Indices 1 2 3 4 5 6 
#
# 1 0.028962 -0.007506 -0.004944 0.000000 -0.009711 0.000000
# 2 -0.007506 0.012958 -0.002286 0.000000 0.005833 0.000000
# 3 -0.004944 -0.002286 0.009247 0.000000 -0.000357 0.000000
# 4 0.000000 0.000000 0.000000 0.106335 0.000000 0.004290
# 5 -0.009711 0.005833 -0.000357 0.000000 0.036909 0.000000
# 6 0.000000 0.000000 0.000000 0.004290 0.000000 0.034394
#
#
# Mechanical properties :
#
#
# Convention : Reuss Voigt Hill
#
# Bulk Modulus (GPa) = 46.09759 58.13127 52.11443
# Shear Modulus (GPa) = 18.83189 26.24595 22.53892
#
# Velocity S-wave (km/s) = 3.07864 3.63449 3.36805
# Velocity P-wave (km/s) = 5.98650 6.84617 6.43072
#
# Compressibility (1/GPa) = 0.02169311
#
# Stress axis : x y z
#
# Youngs Moduli (GPa) = 34.52851 77.17259 108.14812
#
# Poissons Ratio (x) = 0.57928 0.53471
# Poissons Ratio (y) = 0.25918 0.24722
# Poissons Ratio (z) = 0.17072 0.17641
#
# Static dielectric constant tensor:
#      x y z
#    x 3.764230 0.000000 0.084760 
#    y 0.000000 3.739020 0.000000 
#    z 0.084760 0.000000 3.630220 
# 
# 
# High freq. dielectric constant tensor:
#      x y z
#    x 1.775220 0.000000 0.003790 
#    y 0.000000 1.785810 0.000000 
#    z 0.003790 0.000000 1.774700 
# 
# From -- ./inp_files/110593.got.cif
#   From: 2010.06.25/outbox.cif.g09.slc.cpg/sg12_56_cif.got.tgz:110593.got - 2010.06.28 00:19:55.
