data_PCOD8111799
_publ_section_title
;
Structure prediction by ZEFSAII (Michael W. Deem and Ramdas Pophale) SiO2 
 PCOD8111799
Probable space group: C 2/M
;
_chemical_formula_sum "Si O2"
_cell_formula_units_Z 48
_cell_length_a 12.210855
_cell_length_b 17.608027
_cell_length_c 12.128399
_cell_angle_alpha 90.000000
_cell_angle_beta 66.336988
_cell_angle_gamma 90.000000
_cell_volume 2388.463901
_symmetry_space_group_name_H-M "C 2/M"
_symmetry_group_IT_number 12
_symmetry_cell_setting 'monoclinic'
loop_
_space_group_symop_operation_xyz
x,y,z
-x,y,-z
-x,-y,-z
x,-y,z
1/2+x,1/2+y,z
1/2-x,1/2+y,-z
1/2-x,1/2-y,-z
1/2+x,1/2-y,z
loop_
_atom_site_type_symbol
_atom_site_label
_atom_site_fract_x
_atom_site_fract_y
_atom_site_fract_z
Si Si1 0.114787 0.331239 0.090986
Si Si2 0.749406 0.691497 0.754158
Si Si3 0.363128 0.084795 0.529168
Si Si4 0.775817 0.858732 0.825407
Si Si5 0.387576 0.084349 0.273781
Si Si6 0.519068 0.666715 0.113967
O O1 0.208673 0.350250 0.150604
O O2 0.101153 0.241801 0.070745
O O3 0.985664 0.363868 0.174003
O O4 0.168804 0.364072 0.957684
O O5 0.809682 0.650337 0.626856
O O6 0.787832 0.778788 0.754557
O O7 0.609460 0.684501 0.784298
O O8 0.500000 0.075909 0.500000
O O9 0.351449 0.115006 0.408715
O O10 0.303507 0.000000 0.568617
O O11 0.734331 0.917851 0.749023
O O12 0.901941 0.883826 0.832169
O O13 0.441088 0.000000 0.263849
O O14 0.500000 0.629876 0.000000
#
# Coordination Sequence:
#
# PCOD8111799 Si02
#       6
#     8   8   8   8   8   8
#     4  11  19  34  60  92 121 155 193 246 306 354
#     4  11  20  35  63  89 119 156 200 249 294 356
#     4  10  22  41  62  85 116 159 207 252 296 348
#     4  11  22  35  58  93 126 157 196 241 307 364
#     4  11  23  40  60  86 123 160 204 254 296 348
#     4  11  18  35  57  88 122 157 191 241 297 363
#
# _framework density 20.096599000000001
#
# number of rings (size 3 to 8) (size 9 to 14) (size 15 to 20)
#    0.000    1.167    6.667    1.500    0.000    2.000 
#    0.000    1.667    0.000    3.000    0.000    0.000 
#    0.000    0.000    0.000    0.000    0.000    0.000 
#
# Total GULP energy -297408.372892 kJ/mol
# GULP energy per Si atom -12392.015537 kJ/mol
# Density = 2.005086 g / cm^3
# Si number density = 20.096599 Si / 1000 Ang^3
#
#
#
# Elastic Constant Matrix: (Units=GPa)
#
#
# Indices 1 2 3 4 5 6 
#
# 1 131.5020 4.6590 45.8488 0.0000 25.3071 0.0000
# 2 4.6590 37.7200 34.5957 0.0000 1.3331 0.0000
# 3 45.8488 34.5957 116.2443 0.0000 22.1225 0.0000
# 4 0.0000 0.0000 0.0000 74.0695 0.0000 23.6738
# 5 25.3071 1.3331 22.1225 0.0000 34.3826 0.0000
# 6 0.0000 0.0000 0.0000 23.6738 0.0000 24.3204
#
#
#
# Elastic Compliance Matrix: (Units=1/GPa)
#
#
# Indices 1 2 3 4 5 6 
#
# 1 0.009718 0.002236 -0.003556 0.000000 -0.004951 0.000000
# 2 0.002236 0.038236 -0.013294 0.000000 0.005425 0.000000
# 3 -0.003556 -0.013294 0.015230 0.000000 -0.006667 0.000000
# 4 0.000000 0.000000 0.000000 0.019598 0.000000 -0.019077
# 5 -0.004951 0.005425 -0.006667 0.000000 0.036808 0.000000
# 6 0.000000 0.000000 0.000000 -0.019077 0.000000 0.059687
#
#
# Mechanical properties :
#
#
# Convention : Reuss Voigt Hill
#
# Bulk Modulus (GPa) = 29.44928 50.63037 40.03983
# Shear Modulus (GPa) = 22.74539 39.91203 31.32871
#
# Velocity S-wave (km/s) = 3.36788 4.46130 3.95258
# Velocity P-wave (km/s) = 5.45977 7.19624 6.38729
#
# Compressibility (1/GPa) = 0.03395668
#
# Stress axis : x y z
#
# Youngs Moduli (GPa) = 102.90207 26.15328 65.65826
#
# Poissons Ratio (x) = -0.05849 0.23349
# Poissons Ratio (y) = -0.23012 0.87286
# Poissons Ratio (z) = 0.36594 0.34768
#
# Static dielectric constant tensor:
#      x y z
#    x 4.239280 0.000000 0.114710 
#    y 0.000000 3.371250 0.000000 
#    z 0.114710 0.000000 3.866540 
# 
# 
# High freq. dielectric constant tensor:
#      x y z
#    x 1.799420 0.000000 0.023180 
#    y 0.000000 1.742880 0.000000 
#    z 0.023180 0.000000 1.778590 
# 
# From -- ./inp_files/131646.got.cif
#   From: 2010.06.25/outbox.cif.g09.slc.cpg/sg12_66_cif.got.tgz:131646.got - 2010.06.28 00:19:55.
