data_PCOD8111189
_publ_section_title
;
Structure prediction by ZEFSAII (Michael W. Deem and Ramdas Pophale) SiO2 
 PCOD8111189
Probable space group: C 2/M
;
_chemical_formula_sum "Si O2"
_cell_formula_units_Z 56
_cell_length_a 13.189641
_cell_length_b 22.997833
_cell_length_c 14.073684
_cell_angle_alpha 90.000000
_cell_angle_beta 41.590936
_cell_angle_gamma 90.000000
_cell_volume 2833.805941
_symmetry_space_group_name_H-M "C 2/M"
_symmetry_group_IT_number 12
_symmetry_cell_setting 'monoclinic'
loop_
_space_group_symop_operation_xyz
x,y,z
-x,y,-z
-x,-y,-z
x,-y,z
1/2+x,1/2+y,z
1/2-x,1/2+y,-z
1/2-x,1/2-y,-z
1/2+x,1/2-y,z
loop_
_atom_site_type_symbol
_atom_site_label
_atom_site_fract_x
_atom_site_fract_y
_atom_site_fract_z
Si Si1 0.156813 0.566262 0.112462
Si Si2 0.593275 0.214238 0.339998
Si Si3 0.339698 0.659841 0.653290
Si Si4 0.165442 0.116787 0.841948
Si Si5 0.390438 0.145043 0.347786
Si Si6 0.682397 0.433291 0.622681
Si Si7 0.844048 0.066186 0.797418
O O1 0.106186 0.500000 0.139001
O O2 0.239948 0.575483 0.154368
O O3 0.004789 0.604058 0.209636
O O4 0.271748 0.584203 0.948314
O O5 0.500000 0.200628 0.500000
O O6 0.638961 0.281660 0.300284
O O7 0.748800 0.177826 0.230479
O O8 0.484049 0.198307 0.328189
O O9 0.500000 0.638249 0.500000
O O10 0.226806 0.672440 0.644873
O O11 0.275554 0.608683 0.765237
O O12 0.153260 0.083188 0.751792
O O13 0.000000 0.130463 0.000000
O O14 0.309313 0.107786 0.487166
O O15 0.738819 0.500000 0.577918
O O16 0.525713 0.425562 0.675139
O O17 0.801767 0.000000 0.799716
#
# Coordination Sequence:
#
# PCOD8111189 Si02
#       7
#     8   8   8   8   8   8   8
#     4  10  22  39  61  91 128 164 201 251 308 361
#     4  10  23  42  63  89 122 159 207 254 305 356
#     4  11  24  42  66  91 119 164 205 252 308 363
#     4  11  21  38  61  94 128 164 204 250 305 363
#     4  11  23  42  62  93 123 158 205 257 301 360
#     4  11  21  35  63  95 126 162 203 251 301 363
#     4  10  22  40  61  91 125 161 206 249 301 369
#
# _framework density 19.761410999999999
#
# number of rings (size 3 to 8) (size 9 to 14) (size 15 to 20)
#    0.000    1.429    4.286    0.857    0.000    6.000 
#    2.571    5.000    0.000    0.000    0.000    0.000 
#    0.000    0.000    0.000    0.000    0.000    0.000 
#
# Total GULP energy -347319.731762 kJ/mol
# GULP energy per Si atom -12404.276134 kJ/mol
# Density = 1.971643 g / cm^3
# Si number density = 19.761411 Si / 1000 Ang^3
#
#
#
# Elastic Constant Matrix: (Units=GPa)
#
#
# Indices 1 2 3 4 5 6 
#
# 1 107.5453 50.3993 21.5063 0.0005 2.7468 -0.0011
# 2 50.3993 115.9013 57.0876 -0.0008 11.7353 0.0009
# 3 21.5063 57.0876 71.8433 0.0028 -7.7389 -0.0043
# 4 0.0005 -0.0008 0.0028 25.9635 -0.0001 8.8833
# 5 2.7468 11.7353 -7.7389 -0.0001 31.4014 0.0008
# 6 -0.0011 0.0009 -0.0043 8.8833 0.0008 21.7395
#
#
#
# Elastic Compliance Matrix: (Units=1/GPa)
#
#
# Indices 1 2 3 4 5 6 
#
# 1 0.011773 -0.005947 0.001366 -0.000001 0.001530 0.000002
# 2 -0.005947 0.019650 -0.014966 0.000004 -0.010512 -0.000005
# 3 0.001366 -0.014966 0.026701 -0.000006 0.012054 0.000008
# 4 -0.000001 0.000004 -0.000006 0.044776 -0.000002 -0.018296
# 5 0.001530 -0.010512 0.012054 -0.000002 0.038611 0.000002
# 6 0.000002 -0.000005 0.000008 -0.018296 0.000002 0.053476
#
#
# Mechanical properties :
#
#
# Convention : Reuss Voigt Hill
#
# Bulk Modulus (GPa) = 52.54922 61.47515 57.01219
# Shear Modulus (GPa) = 20.79645 26.90733 23.85189
#
# Velocity S-wave (km/s) = 3.24756 3.69400 3.47795
# Velocity P-wave (km/s) = 6.38057 7.02641 6.71126
#
# Compressibility (1/GPa) = 0.01902978
#
# Stress axis : x y z
#
# Youngs Moduli (GPa) = 84.93818 50.88964 37.45155
#
# Poissons Ratio (x) = 0.30266 -0.05117
# Poissons Ratio (y) = 0.50516 0.56052
# Poissons Ratio (z) = -0.11605 0.76164
#
# Static dielectric constant tensor:
#      x y z
#    x 3.525830 0.000000 -0.042830 
#    y 0.000000 3.497390 0.000000 
#    z -0.042830 0.000000 3.690060 
# 
# 
# High freq. dielectric constant tensor:
#      x y z
#    x 1.771610 0.000000 -0.001010 
#    y 0.000000 1.768790 0.000000 
#    z -0.001010 0.000000 1.775980 
# 
# From -- ./inp_files/218258.got.cif
#   From: 2010.06.25/outbox.cif.g09.slc.cpg/sg12_110_cif.got.tgz:218258.got - 2010.06.28 00:19:55.
