data_PCOD8111819
_publ_section_title
;
Structure prediction by ZEFSAII (Michael W. Deem and Ramdas Pophale) SiO2 
 PCOD8111819
Probable space group: C 2/M
;
_chemical_formula_sum "Si O2"
_cell_formula_units_Z 48
_cell_length_a 23.045070
_cell_length_b 9.041722
_cell_length_c 12.012690
_cell_angle_alpha 90.000000
_cell_angle_beta 67.994713
_cell_angle_gamma 90.000000
_cell_volume 2320.700621
_symmetry_space_group_name_H-M "C 2/M"
_symmetry_group_IT_number 12
_symmetry_cell_setting 'monoclinic'
loop_
_space_group_symop_operation_xyz
x,y,z
-x,y,-z
-x,-y,-z
x,-y,z
1/2+x,1/2+y,z
1/2-x,1/2+y,-z
1/2-x,1/2-y,-z
1/2+x,1/2-y,z
loop_
_atom_site_type_symbol
_atom_site_label
_atom_site_fract_x
_atom_site_fract_y
_atom_site_fract_z
Si Si1 0.546256 0.173359 0.727045
Si Si2 0.815451 0.171013 0.974580
Si Si3 0.108165 0.325781 0.448344
Si Si4 0.570453 0.671557 0.263756
Si Si5 0.732950 0.669847 0.399446
Si Si6 0.646098 0.168456 0.837274
O O1 0.581574 0.215541 0.587903
O O2 0.482098 0.264908 0.782085
O O3 0.589481 0.221633 0.799198
O O4 0.531255 0.000000 0.741604
O O5 0.861019 0.196616 0.837311
O O6 0.800605 0.000000 0.003022
O O7 0.750000 0.250000 0.000000
O O8 0.851582 0.229910 0.056536
O O9 0.115182 0.500000 0.427958
O O10 0.063561 0.261735 0.384006
O O11 0.174824 0.248893 0.383502
O O12 0.557514 0.500000 0.295774
O O13 0.716713 0.500000 0.437256
O O14 0.750000 0.750000 0.500000
O O15 0.789482 0.682874 0.274139
O O16 0.635245 0.000000 0.883117
#
# Coordination Sequence:
#
# PCOD8111819 Si02
#       6
#     8   8   8   8   8   8
#     4  10  22  41  62  89 124 162 202 249 303 363
#     4  11  25  44  65  90 121 157 202 253 304 360
#     4  11  22  39  62  91 125 162 206 253 302 361
#     4  11  25  42  60  89 124 160 204 255 305 359
#     4  11  21  36  59  90 125 159 197 247 301 356
#     4  10  22  41  63  90 125 160 202 251 299 357
#
# _framework density 20.683409999999999
#
# number of rings (size 3 to 8) (size 9 to 14) (size 15 to 20)
#    0.000    1.333    1.667    3.500    0.000   12.667 
#    0.000    3.333    0.000    0.000    0.000    0.000 
#    0.000    0.000    0.000    0.000    0.000    0.000 
#
# Total GULP energy -297736.609300 kJ/mol
# GULP energy per Si atom -12405.692054 kJ/mol
# Density = 2.063633 g / cm^3
# Si number density = 20.683410 Si / 1000 Ang^3
#
#
#
# Elastic Constant Matrix: (Units=GPa)
#
#
# Indices 1 2 3 4 5 6 
#
# 1 130.1562 57.2573 28.6151 0.0000 10.8030 0.0000
# 2 57.2573 118.9351 52.1055 0.0000 5.3149 0.0000
# 3 28.6151 52.1055 73.5667 0.0000 22.4619 0.0000
# 4 0.0000 0.0000 0.0000 34.7033 0.0000 3.2241
# 5 10.8030 5.3149 22.4619 0.0000 33.6699 0.0000
# 6 0.0000 0.0000 0.0000 3.2241 0.0000 43.0644
#
#
#
# Elastic Compliance Matrix: (Units=1/GPa)
#
#
# Indices 1 2 3 4 5 6 
#
# 1 0.009950 -0.004832 0.000370 0.000000 -0.002676 0.000000
# 2 -0.004832 0.015193 -0.010828 0.000000 0.006376 0.000000
# 3 0.000370 -0.010828 0.025911 0.000000 -0.015695 0.000000
# 4 0.000000 0.000000 0.000000 0.029018 0.000000 -0.002172
# 5 -0.002676 0.006376 -0.015695 0.000000 0.040023 0.000000
# 6 0.000000 0.000000 0.000000 -0.002172 0.000000 0.023384
#
#
# Mechanical properties :
#
#
# Convention : Reuss Voigt Hill
#
# Bulk Modulus (GPa) = 48.84713 66.51265 57.67989
# Shear Modulus (GPa) = 27.64218 34.59952 31.12085
#
# Velocity S-wave (km/s) = 3.65970 4.09444 3.88316
# Velocity P-wave (km/s) = 6.44405 7.38782 6.93202
#
# Compressibility (1/GPa) = 0.02047203
#
# Stress axis : x y z
#
# Youngs Moduli (GPa) = 100.50535 65.81934 38.59415
#
# Poissons Ratio (x) = 0.31806 -0.01426
# Poissons Ratio (y) = 0.48567 0.41790
# Poissons Ratio (z) = -0.03714 0.71269
#
# Static dielectric constant tensor:
#      x y z
#    x 3.852640 0.000000 0.134250 
#    y 0.000000 3.770650 0.000000 
#    z 0.134250 0.000000 3.448370 
# 
# 
# High freq. dielectric constant tensor:
#      x y z
#    x 1.826430 0.000000 0.005600 
#    y 0.000000 1.813390 0.000000 
#    z 0.005600 0.000000 1.806390 
# 
# From -- ./inp_files/172035.got.cif
#   From: 2010.06.25/outbox.cif.g09.slc.cpg/sg12_87_cif.got.tgz:172035.got - 2010.06.28 00:19:55.
