data_PCOD8111550
_publ_section_title
;
Structure prediction by ZEFSAII (Michael W. Deem and Ramdas Pophale) SiO2 
 PCOD8111550
Probable space group: C 2/M
;
_chemical_formula_sum "Si O2"
_cell_formula_units_Z 48
_cell_length_a 22.196489
_cell_length_b 11.809579
_cell_length_c 11.025949
_cell_angle_alpha 90.000000
_cell_angle_beta 129.328302
_cell_angle_gamma 90.000000
_cell_volume 2235.683368
_symmetry_space_group_name_H-M "C 2/M"
_symmetry_group_IT_number 12
_symmetry_cell_setting 'monoclinic'
loop_
_space_group_symop_operation_xyz
x,y,z
-x,y,-z
-x,-y,-z
x,-y,z
1/2+x,1/2+y,z
1/2-x,1/2+y,-z
1/2-x,1/2-y,-z
1/2+x,1/2-y,z
loop_
_atom_site_type_symbol
_atom_site_label
_atom_site_fract_x
_atom_site_fract_y
_atom_site_fract_z
Si Si1 0.375929 0.623997 0.881950
Si Si2 0.160242 0.304881 0.007118
Si Si3 0.829888 0.128943 0.184891
Si Si4 0.442194 0.000000 0.540697
Si Si5 0.467701 0.375281 0.769816
Si Si6 0.924950 0.743009 0.487420
Si Si7 0.460840 0.000000 0.087790
O O1 0.342262 0.500000 0.873450
O O2 0.317434 0.723274 0.850084
O O3 0.392355 0.630185 0.760913
O O4 0.455549 0.649498 0.055806
O O5 0.236180 0.373303 0.062992
O O6 0.134394 0.217428 0.866775
O O7 0.092063 0.388969 0.960908
O O8 0.859609 0.171623 0.353710
O O9 0.858673 0.000000 0.196277
O O10 0.500000 0.000000 0.500000
O O11 0.391282 0.885322 0.460019
O O12 0.478888 0.000000 0.723416
O O13 0.472117 0.500000 0.715459
O O14 0.455022 0.280096 0.655802
O O15 0.000000 0.743759 0.500000
O O16 0.500000 0.000000 0.000000
#
# Coordination Sequence:
#
# PCOD8111550 Si02
#       7
#     8   8   8   4   8   8   4
#     4   9  18  34  57  87 121 158 212 265 320 386
#     4  11  23  41  64  95 129 173 220 273 335 397
#     4  11  24  43  65  95 132 171 221 278 333 402
#     4  10  22  40  62  98 132 175 223 277 339 399
#     4   9  18  32  56  87 119 157 205 267 323 379
#     4  11  22  38  61  90 125 164 215 269 334 394
#     4  12  26  42  74 104 137 179 231 288 336 404
#
# _framework density 21.469944999999999
#
# number of rings (size 3 to 8) (size 9 to 14) (size 15 to 20)
#    0.000    1.667    0.833    6.000    4.667    2.667 
#    3.000    0.833    0.000    0.000    0.000    0.000 
#    0.000    0.000    0.000    0.000    0.000    0.000 
#
# Total GULP energy -297348.433469 kJ/mol
# GULP energy per Si atom -12389.518061 kJ/mol
# Density = 2.142108 g / cm^3
# Si number density = 21.469945 Si / 1000 Ang^3
#
#
#
# Elastic Constant Matrix: (Units=GPa)
#
#
# Indices 1 2 3 4 5 6 
#
# 1 81.4967 44.0743 22.7559 0.0000 -20.0940 0.0000
# 2 44.0743 176.4902 40.4835 0.0000 -13.0129 0.0000
# 3 22.7559 40.4835 69.9686 0.0000 -18.5149 0.0000
# 4 0.0000 0.0000 0.0000 -37.3178 0.0000 -2.0770
# 5 -20.0940 -13.0129 -18.5149 0.0000 27.2666 0.0000
# 6 0.0000 0.0000 0.0000 -2.0770 0.0000 32.3604
#
#
#
# Elastic Compliance Matrix: (Units=1/GPa)
#
#
# Indices 1 2 3 4 5 6 
#
# 1 0.016789 -0.003236 -0.000881 0.000000 0.010230 0.000000
# 2 -0.003236 0.007167 -0.003438 0.000000 -0.001299 0.000000
# 3 -0.000881 -0.003438 0.019458 0.000000 0.010923 0.000000
# 4 0.000000 0.000000 0.000000 -0.026701 0.000000 -0.001714
# 5 0.010230 -0.001299 0.010923 0.000000 0.051011 0.000000
# 6 0.000000 0.000000 0.000000 -0.001714 0.000000 0.030792
#
#
# Mechanical properties :
#
#
# Convention : Reuss Voigt Hill
#
# Bulk Modulus (GPa) = 35.33069 60.28699 47.80884
# Shear Modulus (GPa) = 40.63047 19.17130 29.90089
#
# Velocity S-wave (km/s) = 4.35493 2.99145 3.73592
# Velocity P-wave (km/s) = 6.46366 6.33027 6.39731
#
# Compressibility (1/GPa) = 0.02830401
#
# Stress axis : x y z
#
# Youngs Moduli (GPa) = 59.56305 139.52693 51.39224
#
# Poissons Ratio (x) = 0.45156 0.04526
# Poissons Ratio (y) = 0.19277 0.17669
# Poissons Ratio (z) = 0.05246 0.47970
#
# Static dielectric constant tensor:
#      x y z
#    x 3.344360 0.000000 0.652930 
#    y 0.000000 4.337500 0.000000 
#    z 0.652930 0.000000 1.983350 
# 
# 
# High freq. dielectric constant tensor:
#      x y z
#    x 1.829460 0.000000 -0.027060 
#    y 0.000000 1.870450 0.000000 
#    z -0.027060 0.000000 1.808640 
# 
# From -- ./inp_files/174884.got.cif
#   From: 2010.06.25/outbox.cif.g09.slc.cpg/sg12_88_cif.got.tgz:174884.got - 2010.06.28 00:19:55.
