data_PCOD8111667
_publ_section_title
;
Structure prediction by ZEFSAII (Michael W. Deem and Ramdas Pophale) SiO2 
 PCOD8111667
Probable space group: C 2/M
;
_chemical_formula_sum "Si O2"
_cell_formula_units_Z 40
_cell_length_a 16.649129
_cell_length_b 25.249783
_cell_length_c 8.632654
_cell_angle_alpha 90.000000
_cell_angle_beta 33.561807
_cell_angle_gamma 90.000000
_cell_volume 2006.272781
_symmetry_space_group_name_H-M "C 2/M"
_symmetry_group_IT_number 12
_symmetry_cell_setting 'monoclinic'
loop_
_space_group_symop_operation_xyz
x,y,z
-x,y,-z
-x,-y,-z
x,-y,z
1/2+x,1/2+y,z
1/2-x,1/2+y,-z
1/2-x,1/2-y,-z
1/2+x,1/2-y,z
loop_
_atom_site_type_symbol
_atom_site_label
_atom_site_fract_x
_atom_site_fract_y
_atom_site_fract_z
Si Si1 0.214100 0.703335 0.766995
Si Si2 0.857670 0.596116 0.642352
Si Si3 0.805546 0.500000 0.167125
Si Si4 0.146658 0.500000 0.561423
Si Si5 0.829258 0.896407 0.765356
Si Si6 0.398543 0.798938 0.388007
O O1 0.286630 0.653528 0.731074
O O2 0.321612 0.753134 0.611143
O O3 0.190955 0.689048 0.624193
O O4 0.062221 0.719428 0.089464
O O5 0.800781 0.551776 0.615521
O O6 0.906264 0.648063 0.473599
O O7 0.000000 0.573473 0.500000
O O8 0.729728 0.610387 0.966056
O O9 0.773826 0.500000 0.401180
O O10 0.735983 0.448483 0.205376
O O11 0.974975 0.500000 0.859743
O O12 0.000000 0.901987 0.500000
#
# Coordination Sequence:
#
# PCOD8111667 Si02
#       6
#     8   8   4   4   8   8
#     4  10  22  42  62  90 124 163 207 248 303 357
#     4  12  22  40  63  95 122 157 208 250 302 359
#     4  11  22  43  66  93 122 159 204 246 307 363
#     4  11  22  40  72  92 116 160 207 252 295 367
#     4  12  26  41  61  92 130 161 196 254 311 359
#     4  10  22  40  65  90 122 162 207 254 295 363
#
# _framework density 19.937467000000002
#
# number of rings (size 3 to 8) (size 9 to 14) (size 15 to 20)
#    0.000    1.000    4.000    2.400    2.800    4.800 
#    0.000    4.000    0.000    0.000    0.000    0.000 
#    0.000    0.000    0.000    0.000    0.000    0.000 
#
# Total GULP energy -248131.803385 kJ/mol
# GULP energy per Si atom -12406.590169 kJ/mol
# Density = 1.989209 g / cm^3
# Si number density = 19.937467 Si / 1000 Ang^3
#
#
#
# Elastic Constant Matrix: (Units=GPa)
#
#
# Indices 1 2 3 4 5 6 
#
# 1 60.0755 34.0115 25.4643 0.0000 9.6363 0.0000
# 2 34.0115 132.9707 34.7711 0.0000 18.2058 0.0000
# 3 25.4643 34.7711 110.5111 0.0000 10.2393 -0.0001
# 4 0.0000 0.0000 0.0000 34.6805 0.0000 16.6775
# 5 9.6363 18.2058 10.2393 0.0000 32.6398 0.0000
# 6 0.0000 0.0000 -0.0001 16.6775 0.0000 27.9636
#
#
#
# Elastic Compliance Matrix: (Units=1/GPa)
#
#
# Indices 1 2 3 4 5 6 
#
# 1 0.020786 -0.004079 -0.003242 0.000000 -0.002844 0.000000
# 2 -0.004079 0.009500 -0.001720 0.000000 -0.003555 0.000000
# 3 -0.003242 -0.001720 0.010464 0.000000 -0.001366 0.000000
# 4 0.000000 0.000000 0.000000 0.040430 0.000000 -0.024113
# 5 -0.002844 -0.003555 -0.001366 0.000000 0.033889 0.000000
# 6 0.000000 0.000000 0.000000 -0.024113 0.000000 0.050142
#
#
# Mechanical properties :
#
#
# Convention : Reuss Voigt Hill
#
# Bulk Modulus (GPa) = 44.11779 54.67235 49.39507
# Shear Modulus (GPa) = 26.19874 33.01083 29.60478
#
# Velocity S-wave (km/s) = 3.62891 4.07347 3.85760
# Velocity P-wave (km/s) = 6.30355 7.04313 6.68358
#
# Compressibility (1/GPa) = 0.02266660
#
# Stress axis : x y z
#
# Youngs Moduli (GPa) = 48.10973 105.25910 95.56859
#
# Poissons Ratio (x) = 0.42939 0.30988
# Poissons Ratio (y) = 0.19626 0.16436
# Poissons Ratio (z) = 0.15600 0.18103
#
# Static dielectric constant tensor:
#      x y z
#    x 3.844470 0.000000 0.155400 
#    y 0.000000 3.584850 0.000000 
#    z 0.155400 0.000000 3.784960 
# 
# 
# High freq. dielectric constant tensor:
#      x y z
#    x 1.780670 0.000000 0.012430 
#    y 0.000000 1.788900 0.000000 
#    z 0.012430 0.000000 1.783600 
# 
# From -- ./inp_files/79282.got.cif
#   From: 2010.06.25/outbox.cif.g09.slc.cpg/sg12_40_cif.got.tgz:79282.got - 2010.06.28 00:19:55.
