data_PCOD8111611
_publ_section_title
;
Structure prediction by ZEFSAII (Michael W. Deem and Ramdas Pophale) SiO2 
 PCOD8111611
Probable space group: C 2/M
;
_chemical_formula_sum "Si O2"
_cell_formula_units_Z 56
_cell_length_a 22.280863
_cell_length_b 21.879512
_cell_length_c 14.319048
_cell_angle_alpha 90.000000
_cell_angle_beta 22.142786
_cell_angle_gamma 90.000000
_cell_volume 2631.045842
_symmetry_space_group_name_H-M "C 2/M"
_symmetry_group_IT_number 12
_symmetry_cell_setting 'monoclinic'
loop_
_space_group_symop_operation_xyz
x,y,z
-x,y,-z
-x,-y,-z
x,-y,z
1/2+x,1/2+y,z
1/2-x,1/2+y,-z
1/2-x,1/2-y,-z
1/2+x,1/2-y,z
loop_
_atom_site_type_symbol
_atom_site_label
_atom_site_fract_x
_atom_site_fract_y
_atom_site_fract_z
Si Si1 0.851948 0.362316 0.529589
Si Si2 0.255544 0.932129 0.302318
Si Si3 0.676176 0.144678 0.960073
Si Si4 0.119753 0.242352 0.405850
Si Si5 0.438692 0.376671 0.721815
Si Si6 0.324231 0.430013 0.066024
Si Si7 0.678616 0.570045 0.619480
O O1 0.817489 0.293554 0.613475
O O2 0.821203 0.409404 0.658229
O O3 0.739756 0.380492 0.605224
O O4 0.035172 0.364036 0.235572
O O5 0.362950 0.889283 0.081233
O O6 0.265582 0.913414 0.396484
O O7 0.070634 0.929730 0.537669
O O8 0.321074 0.000000 0.193882
O O9 0.720457 0.215192 0.873914
O O10 0.835961 0.115816 0.775793
O O11 0.000000 0.269923 0.500000
O O12 0.028415 0.188911 0.594752
O O13 0.324233 0.384939 0.976671
O O14 0.296899 0.500000 0.074438
O O15 0.488809 0.422976 0.885788
O O16 0.719896 0.500000 0.589685
#
# Coordination Sequence:
#
# PCOD8111611 Si02
#       7
#     8   8   8   8   8   8   8
#     4  12  24  35  63  87 119 156 199 253 296 348
#     4   9  18  37  64  86 115 158 199 241 291 357
#     4  10  23  38  57  93 121 152 196 248 302 354
#     4   9  22  41  63  84 117 164 207 239 291 364
#     4   9  19  39  63  87 119 158 201 240 288 358
#     4  10  22  40  64  89 121 163 201 238 294 368
#     4   9  20  42  65  85 114 161 209 238 289 365
#
# _framework density 21.284310000000001
#
# number of rings (size 3 to 8) (size 9 to 14) (size 15 to 20)
#    0.000    2.286    0.000    3.429    4.000    5.714 
#    0.000    8.571    9.429    0.000    0.000    0.000 
#    0.000    0.000    0.000    0.000    0.000    0.000 
#
# Total GULP energy -347083.177236 kJ/mol
# GULP energy per Si atom -12395.827758 kJ/mol
# Density = 2.123587 g / cm^3
# Si number density = 21.284310 Si / 1000 Ang^3
#
#
#
# Elastic Constant Matrix: (Units=GPa)
#
#
# Indices 1 2 3 4 5 6 
#
# 1 87.7266 60.7825 23.8553 0.0082 20.1376 -0.0010
# 2 60.7825 105.8171 33.2690 0.0031 8.1638 0.0027
# 3 23.8553 33.2690 86.9458 -0.0031 15.6643 0.0013
# 4 0.0082 0.0031 -0.0031 25.5199 0.0049 7.2360
# 5 20.1376 8.1638 15.6643 0.0049 24.8812 -0.0011
# 6 -0.0010 0.0027 0.0013 7.2360 -0.0011 41.7546
#
#
#
# Elastic Compliance Matrix: (Units=1/GPa)
#
#
# Indices 1 2 3 4 5 6 
#
# 1 0.023372 -0.012607 0.001212 -0.000003 -0.015543 0.000001
# 2 -0.012607 0.017568 -0.004583 0.000000 0.007324 -0.000001
# 3 0.001212 -0.004583 0.014469 0.000004 -0.008586 -0.000001
# 4 -0.000003 0.000000 0.000004 0.041210 -0.000008 -0.007142
# 5 -0.015543 0.007324 -0.008586 -0.000008 0.055773 0.000002
# 6 0.000001 -0.000001 -0.000001 -0.007142 0.000002 0.025187
#
#
# Mechanical properties :
#
#
# Convention : Reuss Voigt Hill
#
# Bulk Modulus (GPa) = 42.63867 57.36701 50.00284
# Shear Modulus (GPa) = 23.00399 29.26999 26.13699
#
# Velocity S-wave (km/s) = 3.29111 3.71238 3.50808
# Velocity P-wave (km/s) = 5.87523 6.73698 6.32081
#
# Compressibility (1/GPa) = 0.02345289
#
# Stress axis : x y z
#
# Youngs Moduli (GPa) = 42.78555 56.92284 69.11106
#
# Poissons Ratio (x) = 0.71763 -0.08373
# Poissons Ratio (y) = 0.53940 0.31671
# Poissons Ratio (z) = -0.05183 0.26086
#
# Static dielectric constant tensor:
#      x y z
#    x 3.862580 -0.000010 0.290000 
#    y -0.000010 3.705570 0.000050 
#    z 0.290000 0.000050 3.866370 
# 
# 
# High freq. dielectric constant tensor:
#      x y z
#    x 1.829930 0.000000 0.022760 
#    y 0.000000 1.817630 0.000000 
#    z 0.022760 0.000000 1.833650 
# 
# From -- ./inp_files/242153.got.cif
#   From: 2010.06.25/outbox.cif.g09.slc.cpg/sg12_122_cif.got.tgz:242153.got - 2010.06.28 00:19:55.
