data_PCOD8111564
_publ_section_title
;
Structure prediction by ZEFSAII (Michael W. Deem and Ramdas Pophale) SiO2 
 PCOD8111564
Probable space group: C 2/M
;
_chemical_formula_sum "Si O2"
_cell_formula_units_Z 48
_cell_length_a 29.310789
_cell_length_b 9.219384
_cell_length_c 9.292982
_cell_angle_alpha 90.000000
_cell_angle_beta 99.466962
_cell_angle_gamma 90.000000
_cell_volume 2477.017271
_symmetry_space_group_name_H-M "C 2/M"
_symmetry_group_IT_number 12
_symmetry_cell_setting 'monoclinic'
loop_
_space_group_symop_operation_xyz
x,y,z
-x,y,-z
-x,-y,-z
x,-y,z
1/2+x,1/2+y,z
1/2-x,1/2+y,-z
1/2-x,1/2-y,-z
1/2+x,1/2-y,z
loop_
_atom_site_type_symbol
_atom_site_label
_atom_site_fract_x
_atom_site_fract_y
_atom_site_fract_z
Si Si1 0.547618 0.836356 0.108130
Si Si2 0.545758 0.169586 0.441268
Si Si3 0.374341 0.671210 0.350961
Si Si4 0.123442 0.828926 0.978067
Si Si5 0.715098 0.837418 0.078483
Si Si6 0.226349 0.839679 0.610322
O O1 0.539952 0.793902 0.270227
O O2 0.568056 0.000000 0.106977
O O3 0.500000 0.826999 0.000000
O O4 0.580658 0.719519 0.052351
O O5 0.500000 0.225010 0.500000
O O6 0.590216 0.251696 0.524540
O O7 0.553196 0.000000 0.472925
O O8 0.378907 0.500000 0.373833
O O9 0.385153 0.715033 0.192096
O O10 0.322546 0.726628 0.361692
O O11 0.131532 0.000000 0.997442
O O12 0.167321 0.746804 0.063979
O O13 0.736362 0.846248 0.245880
O O14 0.707670 0.000000 0.012790
O O15 0.750000 0.750000 0.000000
O O16 0.250000 0.750000 0.500000
O O17 0.216480 0.000000 0.544950
#
# Coordination Sequence:
#
# PCOD8111564 Si02
#       6
#     8   8   8   8   8   8
#     4  10  22  41  64  91 122 154 196 249 301 357
#     4  10  22  40  63  90 119 154 197 242 295 359
#     4  10  22  41  60  85 121 158 197 245 296 351
#     4  11  23  40  62  89 122 159 203 248 297 356
#     4  11  22  40  63  89 122 159 203 249 297 351
#     4  10  23  41  59  85 122 159 201 247 294 350
#
# _framework density 19.378146000000001
#
# number of rings (size 3 to 8) (size 9 to 14) (size 15 to 20)
#    0.000    1.667    1.667    2.000    2.333    6.000 
#    0.000    0.000    0.000    0.000    0.000    0.000 
#    0.000    0.000    0.000    0.000    0.000    0.000 
#
# Total GULP energy -297651.925304 kJ/mol
# GULP energy per Si atom -12402.163554 kJ/mol
# Density = 1.933404 g / cm^3
# Si number density = 19.378146 Si / 1000 Ang^3
#
#
#
# Elastic Constant Matrix: (Units=GPa)
#
#
# Indices 1 2 3 4 5 6 
#
# 1 113.8426 53.1979 66.4732 0.0000 -0.4145 0.0000
# 2 53.1979 88.7155 53.1298 0.0000 -5.4664 0.0000
# 3 66.4732 53.1298 132.8276 0.0000 -8.0631 0.0000
# 4 0.0000 0.0000 0.0000 33.7391 0.0000 -2.4325
# 5 -0.4145 -5.4664 -8.0631 0.0000 41.8552 0.0000
# 6 0.0000 0.0000 0.0000 -2.4325 0.0000 37.9414
#
#
#
# Elastic Compliance Matrix: (Units=1/GPa)
#
#
# Indices 1 2 3 4 5 6 
#
# 1 0.014370 -0.005720 -0.004999 0.000000 -0.001568 0.000000
# 2 -0.005720 0.017126 -0.003901 0.000000 0.001429 0.000000
# 3 -0.004999 -0.003901 0.011693 0.000000 0.001694 0.000000
# 4 0.000000 0.000000 0.000000 0.029777 0.000000 0.001909
# 5 -0.001568 0.001429 0.001694 0.000000 0.024389 0.000000
# 6 0.000000 0.000000 0.000000 0.001909 0.000000 0.026479
#
#
# Mechanical properties :
#
#
# Convention : Reuss Voigt Hill
#
# Bulk Modulus (GPa) = 71.68364 75.66529 73.67447
# Shear Modulus (GPa) = 31.70099 33.54613 32.62356
#
# Velocity S-wave (km/s) = 4.04903 4.16520 4.10753
# Velocity P-wave (km/s) = 7.67671 7.89071 7.78445
#
# Compressibility (1/GPa) = 0.01395018
#
# Stress axis : x y z
#
# Youngs Moduli (GPa) = 69.58960 58.39005 85.51880
#
# Poissons Ratio (x) = 0.33398 0.42748
# Poissons Ratio (y) = 0.39805 0.33362
# Poissons Ratio (z) = 0.34786 0.22779
#
# Static dielectric constant tensor:
#      x y z
#    x 3.725980 0.000000 -0.093910 
#    y 0.000000 3.666680 0.000000 
#    z -0.093910 0.000000 3.545080 
# 
# 
# High freq. dielectric constant tensor:
#      x y z
#    x 1.765240 0.000000 0.000300 
#    y 0.000000 1.755080 0.000000 
#    z 0.000300 0.000000 1.762730 
# 
# From -- ./inp_files/108739.got.cif
#   From: 2010.06.25/outbox.cif.g09.slc.cpg/sg12_55_cif.got.tgz:108739.got - 2010.06.28 00:19:55.
