data_PCOD8111958
_publ_section_title
;
Structure prediction by ZEFSAII (Michael W. Deem and Ramdas Pophale) SiO2 
 PCOD8111958
Probable space group: C 2/M
;
_chemical_formula_sum "Si O2"
_cell_formula_units_Z 56
_cell_length_a 29.001457
_cell_length_b 8.851601
_cell_length_c 12.483709
_cell_angle_alpha 90.000000
_cell_angle_beta 119.727819
_cell_angle_gamma 90.000000
_cell_volume 2782.918716
_symmetry_space_group_name_H-M "C 2/M"
_symmetry_group_IT_number 12
_symmetry_cell_setting 'monoclinic'
loop_
_space_group_symop_operation_xyz
x,y,z
-x,y,-z
-x,-y,-z
x,-y,z
1/2+x,1/2+y,z
1/2-x,1/2+y,-z
1/2-x,1/2-y,-z
1/2+x,1/2-y,z
loop_
_atom_site_type_symbol
_atom_site_label
_atom_site_fract_x
_atom_site_fract_y
_atom_site_fract_z
Si Si1 0.193616 0.824902 0.917124
Si Si2 0.543296 0.171385 0.459769
Si Si3 0.495501 0.675154 0.793806
Si Si4 0.147272 0.827144 0.633727
Si Si5 0.607853 0.323503 0.196760
Si Si6 0.804822 0.175798 0.534533
Si Si7 0.393120 0.178359 0.029716
O O1 0.181319 0.800852 0.778546
O O2 0.148207 0.749024 0.935493
O O3 0.196428 0.000000 0.951568
O O4 0.250000 0.750000 0.000000
O O5 0.500000 0.190588 0.500000
O O6 0.531565 0.284371 0.349535
O O7 0.597662 0.215976 0.579773
O O8 0.545960 0.000000 0.419713
O O9 0.512107 0.500000 0.811627
O O10 0.452859 0.707132 0.838133
O O11 0.547364 0.774376 0.871756
O O12 0.183363 0.783077 0.574369
O O13 0.127293 0.000000 0.601563
O O14 0.616087 0.500000 0.182472
O O15 0.647464 0.264624 0.335027
O O16 0.621167 0.230699 0.105987
O O17 0.750000 0.250000 0.500000
O O18 0.798443 0.000000 0.545115
O O19 0.388347 0.000000 0.031878
#
# Coordination Sequence:
#
# PCOD8111958 Si02
#       7
#     8   8   8   8   8   8   8
#     4  11  25  45  69  95 127 169 217 265 318 376
#     4  11  23  37  59  93 130 165 206 258 312 373
#     4  11  22  41  66  92 126 168 212 261 319 383
#     4  10  22  43  66  91 124 164 210 257 310 376
#     4  10  22  42  66  93 127 167 211 260 318 385
#     4  10  22  41  64  95 127 161 207 259 317 377
#     4  12  26  42  63  94 132 169 213 265 315 379
#
# _framework density 20.122757
#
# number of rings (size 3 to 8) (size 9 to 14) (size 15 to 20)
#    0.000    1.286    1.429    3.857    2.000    8.571 
#    0.000    0.000    0.000    0.000    0.000    0.000 
#    0.000    0.000    0.000    0.000    0.000    0.000 
#
# Total GULP energy -347350.316169 kJ/mol
# GULP energy per Si atom -12405.368435 kJ/mol
# Density = 2.007696 g / cm^3
# Si number density = 20.122757 Si / 1000 Ang^3
#
#
#
# Elastic Constant Matrix: (Units=GPa)
#
#
# Indices 1 2 3 4 5 6 
#
# 1 148.2230 69.0223 64.9104 0.0000 9.5631 0.0000
# 2 69.0223 95.3325 54.6007 0.0000 -6.1671 0.0000
# 3 64.9104 54.6007 125.1036 0.0000 -3.9775 0.0000
# 4 0.0000 0.0000 0.0000 26.7949 0.0000 1.4905
# 5 9.5631 -6.1671 -3.9775 0.0000 30.3928 0.0000
# 6 0.0000 0.0000 0.0000 1.4905 0.0000 36.8751
#
#
#
# Elastic Compliance Matrix: (Units=1/GPa)
#
#
# Indices 1 2 3 4 5 6 
#
# 1 0.011805 -0.007063 -0.003219 0.000000 -0.005569 0.000000
# 2 -0.007063 0.018340 -0.004168 0.000000 0.005398 0.000000
# 3 -0.003219 -0.004168 0.011536 0.000000 0.001677 0.000000
# 4 0.000000 0.000000 0.000000 0.037405 0.000000 -0.001512
# 5 -0.005569 0.005398 0.001677 0.000000 0.035970 0.000000
# 6 0.000000 0.000000 0.000000 -0.001512 0.000000 0.027180
#
#
# Mechanical properties :
#
#
# Convention : Reuss Voigt Hill
#
# Bulk Modulus (GPa) = 78.24832 82.85842 80.55337
# Shear Modulus (GPa) = 28.50697 30.82095 29.66396
#
# Velocity S-wave (km/s) = 3.76793 3.91787 3.84363
# Velocity P-wave (km/s) = 7.60918 7.85698 7.73407
#
# Compressibility (1/GPa) = 0.01277983
#
# Stress axis : x y z
#
# Youngs Moduli (GPa) = 84.71105 54.52595 86.68465
#
# Poissons Ratio (x) = 0.38514 0.27906
# Poissons Ratio (y) = 0.59834 0.36129
# Poissons Ratio (z) = 0.27271 0.22726
#
# Static dielectric constant tensor:
#      x y z
#    x 3.849070 0.000000 0.027530 
#    y 0.000000 3.669220 0.000000 
#    z 0.027530 0.000000 3.792910 
# 
# 
# High freq. dielectric constant tensor:
#      x y z
#    x 1.797330 0.000000 -0.002890 
#    y 0.000000 1.787110 0.000000 
#    z -0.002890 0.000000 1.799140 
# 
# From -- ./inp_files/181143.got.cif
#   From: 2010.06.25/outbox.cif.g09.slc.cpg/sg12_91_cif.got.tgz:181143.got - 2010.06.28 00:19:55.
