data_PCOD8111243
_publ_section_title
;
Structure prediction by ZEFSAII (Michael W. Deem and Ramdas Pophale) SiO2 
 PCOD8111243
Probable space group: C 2/M
;
_chemical_formula_sum "Si O2"
_cell_formula_units_Z 36
_cell_length_a 23.619737
_cell_length_b 10.229807
_cell_length_c 14.300431
_cell_angle_alpha 90.000000
_cell_angle_beta 30.153198
_cell_angle_gamma 90.000000
_cell_volume 1735.668300
_symmetry_space_group_name_H-M "C 2/M"
_symmetry_group_IT_number 12
_symmetry_cell_setting 'monoclinic'
loop_
_space_group_symop_operation_xyz
x,y,z
-x,y,-z
-x,-y,-z
x,-y,z
1/2+x,1/2+y,z
1/2-x,1/2+y,-z
1/2-x,1/2-y,-z
1/2+x,1/2-y,z
loop_
_atom_site_type_symbol
_atom_site_label
_atom_site_fract_x
_atom_site_fract_y
_atom_site_fract_z
Si Si1 0.485764 0.500000 0.410445
Si Si2 0.892847 0.261098 0.464672
Si Si3 0.881777 0.500000 0.615291
Si Si4 0.834270 0.348965 0.256901
Si Si5 0.136786 0.000000 0.022970
Si Si6 0.465434 0.239535 0.907421
O O1 0.500000 0.500000 0.500000
O O2 0.416550 0.628596 0.485802
O O3 0.599045 0.500000 0.185681
O O4 0.869652 0.372117 0.571436
O O5 0.782616 0.227215 0.560866
O O6 0.994006 0.310921 0.252672
O O7 0.000000 0.500000 0.500000
O O8 0.772631 0.500000 0.838340
O O9 0.829211 0.500000 0.298692
O O10 0.923636 0.262088 0.186002
O O11 0.870932 0.348873 0.093928
O O12 0.087200 0.118556 0.033473
#
# Coordination Sequence:
#
# PCOD8111243 Si02
#       6
#     4   8   4   8   4   8
#     4  10  22  46  68  89 120 173 218 260 313 375
#     4  11  23  42  65  91 132 163 210 261 314 372
#     4  12  26  45  63  95 123 159 215 273 322 363
#     4  11  22  39  62  94 133 166 213 245 308 383
#     4  10  22  44  66  89 126 163 212 258 321 375
#     4  10  22  39  62  94 128 170 201 253 311 380
#
# _framework density 20.741291
#
# number of rings (size 3 to 8) (size 9 to 14) (size 15 to 20)
#    0.000    1.333    3.333    2.667    3.111    2.667 
#    4.000    3.333    0.000    0.000    0.000    0.000 
#    0.000    0.000    0.000    0.000    0.000    0.000 
#
# Total GULP energy -223047.182263 kJ/mol
# GULP energy per Si atom -12391.510126 kJ/mol
# Density = 2.069408 g / cm^3
# Si number density = 20.741291 Si / 1000 Ang^3
#
#
#
# Elastic Constant Matrix: (Units=GPa)
#
#
# Indices 1 2 3 4 5 6 
#
# 1 91.1546 35.9575 32.7511 0.0000 -8.2784 0.0000
# 2 35.9575 99.6641 38.6881 0.0000 -5.2779 0.0000
# 3 32.7511 38.6881 103.8167 0.0000 -5.9482 0.0000
# 4 0.0000 0.0000 0.0000 32.9031 0.0000 -0.2657
# 5 -8.2784 -5.2779 -5.9482 0.0000 38.0953 0.0000
# 6 0.0000 0.0000 0.0000 -0.2657 0.0000 18.6835
#
#
#
# Elastic Compliance Matrix: (Units=1/GPa)
#
#
# Indices 1 2 3 4 5 6 
#
# 1 0.013627 -0.003725 -0.002796 0.000000 0.002009 0.000000
# 2 -0.003725 0.012783 -0.003565 0.000000 0.000405 0.000000
# 3 -0.002796 -0.003565 0.011886 0.000000 0.000754 0.000000
# 4 0.000000 0.000000 0.000000 0.030396 0.000000 0.000432
# 5 0.002009 0.000405 0.000754 0.000000 0.026860 0.000000
# 6 0.000000 0.000000 0.000000 0.000432 0.000000 0.053529
#
#
# Mechanical properties :
#
#
# Convention : Reuss Voigt Hill
#
# Bulk Modulus (GPa) = 55.17491 56.60321 55.88906
# Shear Modulus (GPa) = 28.52346 30.41894 29.47120
#
# Velocity S-wave (km/s) = 3.71239 3.83376 3.77357
# Velocity P-wave (km/s) = 6.71082 6.85174 6.78164
#
# Compressibility (1/GPa) = 0.01812418
#
# Stress axis : x y z
#
# Youngs Moduli (GPa) = 73.38636 78.22880 84.13091
#
# Poissons Ratio (x) = 0.29138 0.23520
# Poissons Ratio (y) = 0.27334 0.29997
# Poissons Ratio (z) = 0.20516 0.27892
#
# Static dielectric constant tensor:
#      x y z
#    x 3.551450 0.000000 0.034540 
#    y 0.000000 3.723780 0.000000 
#    z 0.034540 0.000000 4.278480 
# 
# 
# High freq. dielectric constant tensor:
#      x y z
#    x 1.788000 0.000000 0.002880 
#    y 0.000000 1.812230 0.000000 
#    z 0.002880 0.000000 1.836440 
# 
# From -- ./inp_files/244567.got.cif
#   From: 2010.06.25/outbox.cif.g09.slc.cpg/sg12_123_cif.got.tgz:244567.got - 2010.06.28 00:19:55.
