data_PCOD8111610
_publ_section_title
;
Structure prediction by ZEFSAII (Michael W. Deem and Ramdas Pophale) SiO2 
 PCOD8111610
Probable space group: C 2/M
;
_chemical_formula_sum "Si O2"
_cell_formula_units_Z 64
_cell_length_a 19.434555
_cell_length_b 8.696900
_cell_length_c 30.889107
_cell_angle_alpha 90.000000
_cell_angle_beta 141.845714
_cell_angle_gamma 90.000000
_cell_volume 3225.366826
_symmetry_space_group_name_H-M "C 2/M"
_symmetry_group_IT_number 12
_symmetry_cell_setting 'monoclinic'
loop_
_space_group_symop_operation_xyz
x,y,z
-x,y,-z
-x,-y,-z
x,-y,z
1/2+x,1/2+y,z
1/2-x,1/2+y,-z
1/2-x,1/2-y,-z
1/2+x,1/2-y,z
loop_
_atom_site_type_symbol
_atom_site_label
_atom_site_fract_x
_atom_site_fract_y
_atom_site_fract_z
Si Si1 0.251229 0.820699 0.453888
Si Si2 0.473280 0.673856 0.536856
Si Si3 0.030076 0.680125 0.313795
Si Si4 0.018273 0.824534 0.962365
Si Si5 0.624239 0.817610 0.682838
Si Si6 0.974842 0.819782 0.196351
Si Si7 0.265073 0.176332 0.053356
Si Si8 0.619900 0.317428 0.186923
O O1 0.250000 0.750000 0.500000
O O2 0.365971 0.779771 0.487947
O O3 0.149097 0.759654 0.375683
O O4 0.240230 0.000000 0.452854
O O5 0.500000 0.677877 0.500000
O O6 0.448327 0.500000 0.539970
O O7 0.574665 0.739807 0.615397
O O8 0.046905 0.500000 0.326589
O O9 0.945436 0.736857 0.309499
O O10 0.985359 0.721894 0.244874
O O11 0.947044 0.747609 0.887761
O O12 0.976569 0.000000 0.944807
O O13 0.148725 0.815037 0.019798
O O14 0.000000 0.742388 0.000000
O O15 0.751988 0.762110 0.751293
O O16 0.618380 0.000000 0.674115
O O17 0.850406 0.785982 0.119968
O O18 0.062076 0.760926 0.202916
O O19 0.990705 0.000000 0.213758
O O20 0.307605 0.000000 0.071530
O O21 0.250000 0.250000 0.000000
O O22 0.610416 0.500000 0.180959
#
# Coordination Sequence:
#
# PCOD8111610 Si02
#       8
#     8   8   8   8   8   8   8   8
#     4  12  24  42  68  94 124 165 210 260 313 371
#     4  11  25  43  64  93 128 164 206 258 310 367
#     4  11  24  41  63  94 125 160 206 257 310 366
#     4   9  18  33  59  88 115 152 200 250 296 349
#     4  10  22  40  64  89 120 162 208 256 303 365
#     4  11  23  40  61  89 124 163 205 254 307 367
#     4  11  21  37  62  89 118 156 202 255 310 368
#     4   9  19  37  58  86 119 157 206 251 296 360
#
# _framework density 19.842703
#
# number of rings (size 3 to 8) (size 9 to 14) (size 15 to 20)
#    0.000    1.500    2.500    2.625    3.500    1.500 
#    0.000    0.625    0.000    1.500    0.000    0.000 
#    0.000    0.000    0.000    0.000    0.000    0.000 
#
# Total GULP energy -396806.590150 kJ/mol
# GULP energy per Si atom -12400.205942 kJ/mol
# Density = 1.979754 g / cm^3
# Si number density = 19.842703 Si / 1000 Ang^3
#
#
#
# Elastic Constant Matrix: (Units=GPa)
#
#
# Indices 1 2 3 4 5 6 
#
# 1 106.1201 24.8765 56.2226 -0.0001 -11.2617 0.0002
# 2 24.8765 58.5536 25.4369 0.0000 -2.4100 0.0004
# 3 56.2226 25.4369 135.7561 0.0000 3.0398 0.0001
# 4 -0.0001 0.0000 0.0000 34.8149 0.0000 -1.6532
# 5 -11.2617 -2.4100 3.0398 0.0000 36.0386 -0.0001
# 6 0.0002 0.0004 0.0001 -1.6532 -0.0001 22.7704
#
#
#
# Elastic Compliance Matrix: (Units=1/GPa)
#
#
# Indices 1 2 3 4 5 6 
#
# 1 0.013303 -0.003306 -0.004987 0.000000 0.004357 0.000000
# 2 -0.003306 0.019499 -0.002295 0.000000 0.000464 0.000000
# 3 -0.004987 -0.002295 0.009919 0.000000 -0.002549 0.000000
# 4 0.000000 0.000000 0.000000 0.028823 0.000000 0.002093
# 5 0.004357 0.000464 -0.002549 0.000000 0.029355 0.000000
# 6 0.000000 0.000000 0.000000 0.002093 0.000000 0.044069
#
#
# Mechanical properties :
#
#
# Convention : Reuss Voigt Hill
#
# Bulk Modulus (GPa) = 46.41595 57.05574 51.73584
# Shear Modulus (GPa) = 28.84753 31.65103 30.24928
#
# Velocity S-wave (km/s) = 3.81702 3.99820 3.90866
# Velocity P-wave (km/s) = 6.54744 7.08029 6.81907
#
# Compressibility (1/GPa) = 0.02154432
#
# Stress axis : x y z
#
# Youngs Moduli (GPa) = 75.17142 51.28494 100.81924
#
# Poissons Ratio (x) = 0.16954 0.50283
# Poissons Ratio (y) = 0.24850 0.23137
# Poissons Ratio (z) = 0.37492 0.11769
#
# Static dielectric constant tensor:
#      x y z
#    x 3.692760 0.000000 -0.034170 
#    y 0.000000 3.486620 0.000000 
#    z -0.034170 0.000000 3.721660 
# 
# 
# High freq. dielectric constant tensor:
#      x y z
#    x 1.785200 0.000000 -0.002160 
#    y 0.000000 1.754270 0.000000 
#    z -0.002160 0.000000 1.789860 
# 
# From -- ./inp_files/378509.got.cif
#   From: 2010.06.25/outbox.cif.g09.slc.cpg/sg12_190_cif.got.tgz:378509.got - 2010.06.28 00:19:55.
