data_PCOD8111942
_publ_section_title
;
Structure prediction by ZEFSAII (Michael W. Deem and Ramdas Pophale) SiO2 
 PCOD8111942
Probable space group: C 2/M
;
_chemical_formula_sum "Si O2"
_cell_formula_units_Z 40
_cell_length_a 16.016121
_cell_length_b 18.408423
_cell_length_c 8.249757
_cell_angle_alpha 90.000000
_cell_angle_beta 130.762724
_cell_angle_gamma 90.000000
_cell_volume 1842.263949
_symmetry_space_group_name_H-M "C 2/M"
_symmetry_group_IT_number 12
_symmetry_cell_setting 'monoclinic'
loop_
_space_group_symop_operation_xyz
x,y,z
-x,y,-z
-x,-y,-z
x,-y,z
1/2+x,1/2+y,z
1/2-x,1/2+y,-z
1/2-x,1/2-y,-z
1/2+x,1/2-y,z
loop_
_atom_site_type_symbol
_atom_site_label
_atom_site_fract_x
_atom_site_fract_y
_atom_site_fract_z
Si Si1 0.612136 0.500000 0.358721
Si Si2 0.391374 0.798551 0.467219
Si Si3 0.644781 0.500000 0.037366
Si Si4 0.882461 0.858218 0.432487
Si Si5 0.223301 0.372775 0.949171
Si Si6 0.491577 0.082742 0.800299
O O1 0.672300 0.500000 0.262622
O O2 0.651062 0.427764 0.503207
O O3 0.483186 0.500000 0.165913
O O4 0.500000 0.798052 0.500000
O O5 0.382164 0.717585 0.535574
O O6 0.292775 0.814643 0.215653
O O7 0.400282 0.861421 0.614396
O O8 0.695255 0.431117 0.018779
O O9 0.000000 0.874518 0.500000
O O10 0.787929 0.839639 0.182366
O O11 0.108168 0.407443 0.859711
O O12 0.450997 0.000000 0.718798
O O13 0.500000 0.099704 0.000000
#
# Coordination Sequence:
#
# PCOD8111942 Si02
#       6
#     4   8   4   8   8   8
#     4  11  24  41  60  90 126 164 211 257 302 354
#     4   9  22  39  62  95 126 161 203 253 308 366
#     4  11  23  40  61  93 120 165 210 255 304 365
#     4  11  21  41  64  92 125 165 206 256 304 365
#     4  11  21  39  66  91 122 168 203 249 312 365
#     4  10  22  41  64  93 127 160 205 255 305 366
#
# _framework density 21.712413999999999
#
# number of rings (size 3 to 8) (size 9 to 14) (size 15 to 20)
#    0.000    1.600    3.000    1.500    1.400    2.800 
#    3.600    2.000    0.000    0.000    0.000    0.000 
#    0.000    0.000    0.000    0.000    0.000    0.000 
#
# Total GULP energy -247899.299299 kJ/mol
# GULP energy per Si atom -12394.964965 kJ/mol
# Density = 2.166300 g / cm^3
# Si number density = 21.712414 Si / 1000 Ang^3
#
#
#
# Elastic Constant Matrix: (Units=GPa)
#
#
# Indices 1 2 3 4 5 6 
#
# 1 32.2963 13.1664 5.4826 0.0000 -14.2324 0.0000
# 2 13.1664 177.6589 59.0611 0.0000 -23.9166 0.0000
# 3 5.4826 59.0611 125.1666 0.0000 -9.5547 0.0000
# 4 0.0000 0.0000 0.0000 27.9976 0.0000 -7.3443
# 5 -14.2324 -23.9166 -9.5547 0.0000 30.0063 0.0000
# 6 0.0000 0.0000 0.0000 -7.3443 0.0000 8.6955
#
#
#
# Elastic Compliance Matrix: (Units=1/GPa)
#
#
# Indices 1 2 3 4 5 6 
#
# 1 0.039180 -0.000407 -0.000134 0.000000 0.018217 0.000000
# 2 -0.000407 0.007308 -0.003075 0.000000 0.004652 0.000000
# 3 -0.000134 -0.003075 0.009485 0.000000 0.000506 0.000000
# 4 0.000000 0.000000 0.000000 0.045883 0.000000 0.038754
# 5 0.018217 0.004652 0.000506 0.000000 0.045836 0.000000
# 6 0.000000 0.000000 0.000000 0.038754 0.000000 0.147734
#
#
# Mechanical properties :
#
#
# Convention : Reuss Voigt Hill
#
# Bulk Modulus (GPa) = 20.51678 54.50467 37.51072
# Shear Modulus (GPa) = 15.67873 30.50066 23.08969
#
# Velocity S-wave (km/s) = 2.69012 3.75207 3.26457
# Velocity P-wave (km/s) = 4.37251 6.62784 5.61458
#
# Compressibility (1/GPa) = 0.04874060
#
# Stress axis : x y z
#
# Youngs Moduli (GPa) = 25.52355 136.84528 105.43115
#
# Poissons Ratio (x) = 0.05568 0.01408
# Poissons Ratio (y) = 0.01039 0.32422
# Poissons Ratio (z) = 0.00341 0.42082
#
# Static dielectric constant tensor:
#      x y z
#    x 3.707860 0.000000 0.012330 
#    y 0.000000 4.311470 0.000000 
#    z 0.012330 0.000000 4.231830 
# 
# 
# High freq. dielectric constant tensor:
#      x y z
#    x 1.831220 0.000000 0.004610 
#    y 0.000000 1.867990 0.000000 
#    z 0.004610 0.000000 1.858310 
# 
# From -- ./inp_files/74994.got.cif
#   From: 2010.06.25/outbox.cif.g09.slc.cpg/sg12_38_cif.got.tgz:74994.got - 2010.06.28 00:19:55.
