data_PCOD8111125
_publ_section_title
;
Structure prediction by ZEFSAII (Michael W. Deem and Ramdas Pophale) SiO2 
 PCOD8111125
Probable space group: C 2/M
;
_chemical_formula_sum "Si O2"
_cell_formula_units_Z 44
_cell_length_a 9.860929
_cell_length_b 27.818496
_cell_length_c 11.515828
_cell_angle_alpha 90.000000
_cell_angle_beta 47.597060
_cell_angle_gamma 90.000000
_cell_volume 2332.655120
_symmetry_space_group_name_H-M "C 2/M"
_symmetry_group_IT_number 12
_symmetry_cell_setting 'monoclinic'
loop_
_space_group_symop_operation_xyz
x,y,z
-x,y,-z
-x,-y,-z
x,-y,z
1/2+x,1/2+y,z
1/2-x,1/2+y,-z
1/2-x,1/2-y,-z
1/2+x,1/2-y,z
loop_
_atom_site_type_symbol
_atom_site_label
_atom_site_fract_x
_atom_site_fract_y
_atom_site_fract_z
Si Si1 0.000000 0.082908 0.000000
Si Si2 0.358699 0.845966 0.173692
Si Si3 0.315285 0.599421 0.535861
Si Si4 0.532928 0.743637 0.106349
Si Si5 0.806696 0.500000 0.475181
Si Si6 0.997246 0.852799 0.230707
Si Si7 0.742072 0.000000 0.230826
O O1 0.039164 0.116314 0.090047
O O2 0.825387 0.048173 0.124295
O O3 0.350742 0.876342 0.296638
O O4 0.421274 0.793182 0.179798
O O5 0.169597 0.848103 0.215169
O O6 0.500000 0.868519 0.000000
O O7 0.500000 0.606714 0.500000
O O8 0.270743 0.544195 0.551014
O O9 0.331027 0.623067 0.398609
O O10 0.444371 0.702775 0.238690
O O11 0.500000 0.721261 0.000000
O O12 0.750000 0.750000 0.000000
O O13 0.719232 0.500000 0.654038
O O14 0.024969 0.500000 0.341652
#
# Coordination Sequence:
#
# PCOD8111125 Si02
#       7
#     4   8   8   8   4   8   4
#     4  11  22  40  62  92 118 160 202 237 308 360
#     4  10  22  39  60  87 121 154 206 246 290 358
#     4  10  23  41  62  86 121 158 198 252 302 356
#     4  11  20  36  61  90 122 159 198 250 299 354
#     4  11  21  42  60  88 121 154 200 245 315 343
#     4  11  21  37  64  88 118 161 197 245 301 358
#     4  10  24  38  61  87 126 154 191 260 289 369
#
# _framework density 18.862625999999999
#
# number of rings (size 3 to 8) (size 9 to 14) (size 15 to 20)
#    0.000    1.455    6.364    0.273    2.545    0.727 
#    0.000    0.455    0.000    0.000    0.000    0.000 
#    0.000    0.000    0.000    0.000    0.000    0.000 
#
# Total GULP energy -272602.482384 kJ/mol
# GULP energy per Si atom -12391.021927 kJ/mol
# Density = 1.881969 g / cm^3
# Si number density = 18.862626 Si / 1000 Ang^3
#
#
#
# Elastic Constant Matrix: (Units=GPa)
#
#
# Indices 1 2 3 4 5 6 
#
# 1 66.3275 35.4393 32.3305 0.0000 14.1711 0.0000
# 2 35.4393 146.7684 82.6267 0.0000 18.6227 0.0000
# 3 32.3305 82.6267 143.0379 0.0000 21.4793 0.0000
# 4 0.0000 0.0000 0.0000 32.1030 0.0000 4.7810
# 5 14.1711 18.6227 21.4793 0.0000 25.7847 0.0000
# 6 0.0000 0.0000 0.0000 4.7810 0.0000 31.6807
#
#
#
# Elastic Compliance Matrix: (Units=1/GPa)
#
#
# Indices 1 2 3 4 5 6 
#
# 1 0.018832 -0.002747 -0.001616 0.000000 -0.007020 0.000000
# 2 -0.002747 0.010675 -0.005275 0.000000 -0.001807 0.000000
# 3 -0.001616 -0.005275 0.011084 0.000000 -0.004536 0.000000
# 4 0.000000 0.000000 0.000000 0.031866 0.000000 -0.004809
# 5 -0.007020 -0.001807 -0.004536 0.000000 0.047725 0.000000
# 6 0.000000 0.000000 0.000000 -0.004809 0.000000 0.032291
#
#
# Mechanical properties :
#
#
# Convention : Reuss Voigt Hill
#
# Bulk Modulus (GPa) = 46.90982 72.99188 59.95085
# Shear Modulus (GPa) = 27.95600 31.62950 29.79275
#
# Velocity S-wave (km/s) = 3.85396 4.09936 3.97855
# Velocity P-wave (km/s) = 6.68784 7.82221 7.27716
#
# Compressibility (1/GPa) = 0.02131750
#
# Stress axis : x y z
#
# Youngs Moduli (GPa) = 53.10177 93.67327 90.21731
#
# Poissons Ratio (x) = 0.25731 0.14575
# Poissons Ratio (y) = 0.14587 0.47585
# Poissons Ratio (z) = 0.08579 0.49408
#
# Static dielectric constant tensor:
#      x y z
#    x 3.402220 0.000000 0.244810 
#    y 0.000000 3.693250 0.000000 
#    z 0.244810 0.000000 3.918510 
# 
# 
# High freq. dielectric constant tensor:
#      x y z
#    x 1.729630 0.000000 0.013340 
#    y 0.000000 1.743920 0.000000 
#    z 0.013340 0.000000 1.733980 
# 
# From -- ./inp_files/41709.got.cif
#   From: 2010.06.25/outbox.cif.g09.slc.cpg/sg12_21_cif.got.tgz:41709.got - 2010.06.28 00:19:55.
