data_PCOD8111525
_publ_section_title
;
Structure prediction by ZEFSAII (Michael W. Deem and Ramdas Pophale) SiO2 
 PCOD8111525
Probable space group: C 2/M
;
_chemical_formula_sum "Si O2"
_cell_formula_units_Z 40
_cell_length_a 15.403028
_cell_length_b 13.306187
_cell_length_c 9.680993
_cell_angle_alpha 90.000000
_cell_angle_beta 110.293912
_cell_angle_gamma 90.000000
_cell_volume 1861.007455
_symmetry_space_group_name_H-M "C 2/M"
_symmetry_group_IT_number 12
_symmetry_cell_setting 'monoclinic'
loop_
_space_group_symop_operation_xyz
x,y,z
-x,y,-z
-x,-y,-z
x,-y,z
1/2+x,1/2+y,z
1/2-x,1/2+y,-z
1/2-x,1/2-y,-z
1/2+x,1/2-y,z
loop_
_atom_site_type_symbol
_atom_site_label
_atom_site_fract_x
_atom_site_fract_y
_atom_site_fract_z
Si Si1 0.748696 0.777624 0.159608
Si Si2 0.717149 0.385150 0.358652
Si Si3 0.573262 0.115331 0.437619
Si Si4 0.391209 0.617067 0.424449
Si Si5 0.923781 0.616923 0.860238
O O1 0.701534 0.684623 0.216646
O O2 0.847327 0.814780 0.276848
O O3 0.678652 0.870377 0.136043
O O4 0.750000 0.750000 0.000000
O O5 0.691151 0.500000 0.306119
O O6 0.824486 0.373875 0.450294
O O7 0.658003 0.349945 0.459208
O O8 0.500000 0.169370 0.500000
O O9 0.566556 0.168080 0.284854
O O10 0.544071 0.000000 0.405908
O O11 0.500000 0.638113 0.500000
O O12 0.371673 0.500000 0.382133
O O13 0.944100 0.500000 0.858624
O O14 0.000000 0.669118 0.000000
#
# Coordination Sequence:
#
# PCOD8111525 Si02
#       5
#     8   8   8   8   8
#     4  12  26  40  61  97 133 169 210 266 322 384
#     4  10  22  42  65  91 124 164 213 266 314 371
#     4   9  18  34  61  92 119 155 202 252 312 373
#     4  10  22  44  72  95 124 173 223 266 316 379
#     4  10  22  40  62  90 129 165 200 257 325 384
#
# _framework density 21.493734
#
# number of rings (size 3 to 8) (size 9 to 14) (size 15 to 20)
#    0.000    1.800    2.000    1.200    2.800    4.000 
#    0.000    0.000    0.000    4.200    0.000    0.000 
#    0.000    0.000    0.000    0.000    0.000    0.000 
#
# Total GULP energy -247899.293436 kJ/mol
# GULP energy per Si atom -12394.964672 kJ/mol
# Density = 2.144481 g / cm^3
# Si number density = 21.493734 Si / 1000 Ang^3
#
#
#
# Elastic Constant Matrix: (Units=GPa)
#
#
# Indices 1 2 3 4 5 6 
#
# 1 155.7312 3.7641 61.9312 0.0000 -13.5804 0.0000
# 2 3.7641 64.7837 44.6134 0.0000 -6.1575 0.0000
# 3 61.9312 44.6134 148.2934 0.0000 -24.8504 0.0000
# 4 0.0000 0.0000 0.0000 -70.4747 0.0000 341.4512
# 5 -13.5804 -6.1575 -24.8504 0.0000 40.4135 0.0000
# 6 0.0000 0.0000 0.0000 341.4512 0.0000-1199.8314
#
#
#
# Elastic Compliance Matrix: (Units=1/GPa)
#
#
# Indices 1 2 3 4 5 6 
#
# 1 0.007978 0.002293 -0.003918 0.000000 0.000621 0.000000
# 2 0.002293 0.020147 -0.007108 0.000000 -0.000530 0.000000
# 3 -0.003918 -0.007108 0.011278 0.000000 0.004535 0.000000
# 4 0.000000 0.000000 0.000000 0.037458 0.000000 0.010660
# 5 0.000621 -0.000530 0.004535 0.000000 0.027661 0.000000
# 6 0.000000 0.000000 0.000000 0.010660 0.000000 0.002200
#
#
# Mechanical properties :
#
#
# Convention : Reuss Voigt Hill
#
# Bulk Modulus (GPa) = 45.58114 65.49176 55.53645
# Shear Modulus (GPa) = 38.02288 -228.74522 -95.36117
#
# Velocity S-wave (km/s) = 4.21054 -10.32740 -6.66808
# Velocity P-wave (km/s) = 6.70007 10.56743 5.77839
#
# Compressibility (1/GPa) = 0.02193890
#
# Stress axis : x y z
#
# Youngs Moduli (GPa) = 125.34376 49.63483 88.66901
#
# Poissons Ratio (x) = -0.11383 0.34738
# Poissons Ratio (y) = -0.28747 0.63025
# Poissons Ratio (z) = 0.49106 0.35280
#
# Static dielectric constant tensor:
#      x y z
#    x 3.965830 0.000000 -0.173200 
#    y 0.000000 3.997670 0.000000 
#    z -0.173200 0.000000 4.234620 
# 
# 
# High freq. dielectric constant tensor:
#      x y z
#    x 1.847850 0.000000 -0.003450 
#    y 0.000000 1.845320 0.000000 
#    z -0.003450 0.000000 1.836320 
# 
# From -- ./inp_files/58907.got.cif
#   From: 2010.06.25/outbox.cif.g09.slc.cpg/sg12_30_cif.got.tgz:58907.got - 2010.06.28 00:19:55.
