data_PCOD8111878
_publ_section_title
;
Structure prediction by ZEFSAII (Michael W. Deem and Ramdas Pophale) SiO2 
 PCOD8111878
Probable space group: C 2/M
;
_chemical_formula_sum "Si O2"
_cell_formula_units_Z 40
_cell_length_a 29.787752
_cell_length_b 8.794852
_cell_length_c 14.922312
_cell_angle_alpha 90.000000
_cell_angle_beta 30.346143
_cell_angle_gamma 90.000000
_cell_volume 1975.082845
_symmetry_space_group_name_H-M "C 2/M"
_symmetry_group_IT_number 12
_symmetry_cell_setting 'monoclinic'
loop_
_space_group_symop_operation_xyz
x,y,z
-x,y,-z
-x,-y,-z
x,-y,z
1/2+x,1/2+y,z
1/2-x,1/2+y,-z
1/2-x,1/2-y,-z
1/2+x,1/2-y,z
loop_
_atom_site_type_symbol
_atom_site_label
_atom_site_fract_x
_atom_site_fract_y
_atom_site_fract_z
Si Si1 0.510336 0.820544 0.379742
Si Si2 0.806637 0.178629 0.981145
Si Si3 0.979950 0.679124 0.934052
Si Si4 0.900560 0.824767 0.421824
Si Si5 0.711257 0.174671 0.806012
O O1 0.500000 0.768365 0.500000
O O2 0.593766 0.739262 0.191751
O O3 0.426163 0.766592 0.467700
O O4 0.522729 0.000000 0.350997
O O5 0.803948 0.000000 0.973700
O O6 0.750000 0.250000 0.000000
O O7 0.766119 0.224322 0.146390
O O8 0.992255 0.500000 0.901021
O O9 0.051154 0.759784 0.748196
O O10 0.879494 0.730473 0.084461
O O11 0.000000 0.732297 0.000000
O O12 0.793796 0.806574 0.594986
O O13 0.927709 0.000000 0.387090
O O14 0.701572 0.000000 0.853514
#
# Coordination Sequence:
#
# PCOD8111878 Si02
#       5
#     8   8   8   8   8
#     4  11  23  39  60  88 124 166 210 258 313 375
#     4  12  24  38  60  90 125 166 211 257 311 371
#     4  10  22  42  67  92 124 170 216 262 319 378
#     4  11  23  39  62  93 126 165 210 263 317 371
#     4  10  22  41  63  90 129 167 207 260 317 374
#
# _framework density 20.252314999999999
#
# number of rings (size 3 to 8) (size 9 to 14) (size 15 to 20)
#    0.000    1.200    2.000    4.200    0.000    7.600 
#    0.000    0.000    0.000    0.000    0.000    0.000 
#    0.000    0.000    0.000    0.000    0.000    0.000 
#
# Total GULP energy -248086.313988 kJ/mol
# GULP energy per Si atom -12404.315699 kJ/mol
# Density = 2.020622 g / cm^3
# Si number density = 20.252315 Si / 1000 Ang^3
#
#
#
# Elastic Constant Matrix: (Units=GPa)
#
#
# Indices 1 2 3 4 5 6 
#
# 1 139.2269 42.6650 63.8786 0.0000 10.0043 0.0000
# 2 42.6650 92.2754 45.2539 -0.0001 6.6146 0.0000
# 3 63.8786 45.2539 147.6238 0.0000 1.4527 0.0000
# 4 0.0000 -0.0001 0.0000 31.7826 0.0000 4.4292
# 5 10.0043 6.6146 1.4527 0.0000 34.0387 0.0000
# 6 0.0000 0.0000 0.0000 4.4292 0.0000 24.3575
#
#
#
# Elastic Compliance Matrix: (Units=1/GPa)
#
#
# Indices 1 2 3 4 5 6 
#
# 1 0.009701 -0.002684 -0.003353 0.000000 -0.002186 0.000000
# 2 -0.002684 0.013682 -0.003016 0.000000 -0.001741 0.000000
# 3 -0.003353 -0.003016 0.009138 0.000000 0.001182 0.000000
# 4 0.000000 0.000000 0.000000 0.032282 0.000000 -0.005870
# 5 -0.002186 -0.001741 0.001182 0.000000 0.030309 0.000000
# 6 0.000000 0.000000 0.000000 -0.005870 0.000000 0.042123
#
#
# Mechanical properties :
#
#
# Convention : Reuss Voigt Hill
#
# Bulk Modulus (GPa) = 69.37471 75.85790 72.61631
# Shear Modulus (GPa) = 31.22186 33.19099 32.20642
#
# Velocity S-wave (km/s) = 3.93064 4.05269 3.99213
# Velocity P-wave (km/s) = 7.41144 7.70953 7.56195
#
# Compressibility (1/GPa) = 0.01441447
#
# Stress axis : x y z
#
# Youngs Moduli (GPa) = 103.08602 73.08948 109.43555
#
# Poissons Ratio (x) = 0.19617 0.36697
# Poissons Ratio (y) = 0.27668 0.33002
# Poissons Ratio (z) = 0.34568 0.22041
#
# Static dielectric constant tensor:
#      x y z
#    x 3.727170 0.000000 -0.081500 
#    y 0.000000 3.680570 0.000000 
#    z -0.081500 0.000000 3.783800 
# 
# 
# High freq. dielectric constant tensor:
#      x y z
#    x 1.788020 0.000000 -0.005870 
#    y 0.000000 1.792370 0.000000 
#    z -0.005870 0.000000 1.805140 
# 
# From -- ./inp_files/211194.got.cif
#   From: 2010.06.25/outbox.cif.g09.slc.cpg/sg12_106_cif.got.tgz:211194.got - 2010.06.28 00:19:55.
