data_PCOD8111174
_publ_section_title
;
Structure prediction by ZEFSAII (Michael W. Deem and Ramdas Pophale) SiO2 
 PCOD8111174
Probable space group: C 2/M
;
_chemical_formula_sum "Si O2"
_cell_formula_units_Z 44
_cell_length_a 26.100107
_cell_length_b 9.522219
_cell_length_c 26.553235
_cell_angle_alpha 90.000000
_cell_angle_beta 18.312445
_cell_angle_gamma 90.000000
_cell_volume 2073.491380
_symmetry_space_group_name_H-M "C 2/M"
_symmetry_group_IT_number 12
_symmetry_cell_setting 'monoclinic'
loop_
_space_group_symop_operation_xyz
x,y,z
-x,y,-z
-x,-y,-z
x,-y,z
1/2+x,1/2+y,z
1/2-x,1/2+y,-z
1/2-x,1/2-y,-z
1/2+x,1/2-y,z
loop_
_atom_site_type_symbol
_atom_site_label
_atom_site_fract_x
_atom_site_fract_y
_atom_site_fract_z
Si Si1 0.684832 0.848809 0.845617
Si Si2 0.756105 0.842748 0.121702
Si Si3 0.719608 0.842326 0.577637
Si Si4 0.500000 0.738085 0.500000
Si Si5 0.152683 0.656247 0.052375
Si Si6 0.403659 0.154856 0.481188
O O1 0.702515 0.709335 0.861433
O O2 0.831756 0.848064 0.666990
O O3 0.706568 0.000000 0.853562
O O4 0.500000 0.842558 0.000000
O O5 0.561286 0.840796 0.297518
O O6 0.825054 0.000000 0.049029
O O7 0.843988 0.733116 0.003835
O O8 0.750000 0.750000 0.500000
O O9 0.528767 0.857978 0.759751
O O10 0.784078 0.771187 0.569247
O O11 0.795866 0.000000 0.501144
O O12 0.544868 0.824607 0.508638
O O13 0.230598 0.500000 0.975890
O O14 0.250000 0.750000 0.000000
O O15 0.322852 0.000000 0.552618
#
# Coordination Sequence:
#
# PCOD8111174 Si02
#       6
#     8   8   8   4   8   8
#     4  10  22  39  61  89 125 166 212 264 314 376
#     4  10  22  40  61  89 121 160 205 253 311 372
#     4  11  25  42  63  93 126 162 209 260 316 379
#     4  10  22  40  64  96 130 174 218 268 322 382
#     4  11  24  41  62  90 124 161 204 257 312 374
#     4  10  22  41  65  92 128 166 210 263 316 377
#
# _framework density 21.220248000000002
#
# number of rings (size 3 to 8) (size 9 to 14) (size 15 to 20)
#    0.000    1.636    0.000    3.273    2.545   12.727 
#    0.000    0.000    0.000    0.000    0.000    0.000 
#    0.000    0.000    0.000    0.000    0.000    0.000 
#
# Total GULP energy -272542.289331 kJ/mol
# GULP energy per Si atom -12388.285879 kJ/mol
# Density = 2.117195 g / cm^3
# Si number density = 21.220248 Si / 1000 Ang^3
#
#
#
# Elastic Constant Matrix: (Units=GPa)
#
#
# Indices 1 2 3 4 5 6 
#
# 1 104.9782 65.2955 27.6066 -0.0085 2.7707 -0.0008
# 2 65.2955 205.2778 45.6805 -0.0182 0.5486 0.0064
# 3 27.6066 45.6805 104.6102 -0.0685 -0.9203 0.0355
# 4 -0.0085 -0.0182 -0.0685 36.5530 0.0239 -9.5475
# 5 2.7707 0.5486 -0.9203 0.0239 33.2898 -0.0063
# 6 -0.0008 0.0064 0.0355 -9.5475 -0.0063 45.2675
#
#
#
# Elastic Compliance Matrix: (Units=1/GPa)
#
#
# Indices 1 2 3 4 5 6 
#
# 1 0.012170 -0.003491 -0.001696 -0.000001 -0.001002 0.000002
# 2 -0.003491 0.006398 -0.001871 -0.000001 0.000133 0.000000
# 3 -0.001696 -0.001871 0.010828 0.000017 0.000471 -0.000005
# 4 -0.000001 -0.000001 0.000017 0.028953 -0.000019 0.006106
# 5 -0.001002 0.000133 0.000471 -0.000019 0.030133 0.000000
# 6 0.000002 0.000000 -0.000005 0.006106 0.000000 0.023379
#
#
# Mechanical properties :
#
#
# Convention : Reuss Voigt Hill
#
# Bulk Modulus (GPa) = 65.44848 76.89238 71.17043
# Shear Modulus (GPa) = 38.14756 41.44097 39.79427
#
# Velocity S-wave (km/s) = 4.24452 4.42395 4.33517
# Velocity P-wave (km/s) = 7.41153 7.89995 7.65963
#
# Compressibility (1/GPa) = 0.01527919
#
# Stress axis : x y z
#
# Youngs Moduli (GPa) = 82.17264 156.30107 92.35130
#
# Poissons Ratio (x) = 0.54562 0.15663
# Poissons Ratio (y) = 0.28685 0.17283
# Poissons Ratio (z) = 0.13936 0.29250
#
# Static dielectric constant tensor:
#      x y z
#    x 3.713850 0.000010 0.105660 
#    y 0.000010 4.084870 0.000010 
#    z 0.105660 0.000010 4.074360 
# 
# 
# High freq. dielectric constant tensor:
#      x y z
#    x 1.821750 0.000000 0.002360 
#    y 0.000000 1.850600 0.000000 
#    z 0.002360 0.000000 1.835650 
# 
# From -- ./inp_files/368984.got.cif
#   From: 2010.06.25/outbox.cif.g09.slc.cpg/sg12_185_cif.got.tgz:368984.got - 2010.06.28 00:19:55.
