data_PCOD8111382
_publ_section_title
;
Structure prediction by ZEFSAII (Michael W. Deem and Ramdas Pophale) SiO2 
 PCOD8111382
Probable space group: C 2/M
;
_chemical_formula_sum "Si O2"
_cell_formula_units_Z 40
_cell_length_a 10.159709
_cell_length_b 8.994579
_cell_length_c 22.247443
_cell_angle_alpha 90.000000
_cell_angle_beta 96.764812
_cell_angle_gamma 90.000000
_cell_volume 2018.868801
_symmetry_space_group_name_H-M "C 2/M"
_symmetry_group_IT_number 12
_symmetry_cell_setting 'monoclinic'
loop_
_space_group_symop_operation_xyz
x,y,z
-x,y,-z
-x,-y,-z
x,-y,z
1/2+x,1/2+y,z
1/2-x,1/2+y,-z
1/2-x,1/2-y,-z
1/2+x,1/2-y,z
loop_
_atom_site_type_symbol
_atom_site_label
_atom_site_fract_x
_atom_site_fract_y
_atom_site_fract_z
Si Si1 0.032276 0.171544 0.771228
Si Si2 0.643066 0.672319 0.035758
Si Si3 0.817818 0.674636 0.836534
Si Si4 0.272756 0.826098 0.564460
Si Si5 0.523941 0.671352 0.631294
O O1 0.167473 0.215618 0.812039
O O2 0.913827 0.273834 0.788327
O O3 0.052150 0.203344 0.702256
O O4 0.996368 0.000000 0.781553
O O5 0.679539 0.500000 0.042417
O O6 0.641338 0.741381 0.101339
O O7 0.500000 0.697888 0.000000
O O8 0.750000 0.750000 0.000000
O O9 0.834929 0.500000 0.847176
O O10 0.250000 0.750000 0.500000
O O11 0.407481 0.774139 0.601826
O O12 0.155008 0.782455 0.602770
O O13 0.280342 0.000000 0.553589
O O14 0.486109 0.500000 0.617707
#
# Coordination Sequence:
#
# PCOD8111382 Si02
#       5
#     8   8   8   8   8
#     4  10  22  40  60  85 118 153 191 238 290 344
#     4  11  24  41  61  87 119 155 196 242 292 346
#     4  11  23  39  61  89 119 153 195 240 288 346
#     4  11  23  39  60  87 118 153 195 241 290 346
#     4  10  22  40  60  84 117 154 192 238 290 343
#
# _framework density 19.813075999999999
#
# number of rings (size 3 to 8) (size 9 to 14) (size 15 to 20)
#    0.000    1.400    0.000    4.800    0.000   14.400 
#    0.000    0.000    0.000    0.000    0.000    0.000 
#    0.000    0.000    0.000    0.000    0.000    0.000 
#
# Total GULP energy -248138.345118 kJ/mol
# GULP energy per Si atom -12406.917256 kJ/mol
# Density = 1.976798 g / cm^3
# Si number density = 19.813076 Si / 1000 Ang^3
#
#
#
# Elastic Constant Matrix: (Units=GPa)
#
#
# Indices 1 2 3 4 5 6 
#
# 1 124.8265 68.1993 33.6054 0.0000 -9.6089 0.0000
# 2 68.1993 97.8493 49.4696 0.0000 1.6767 0.0000
# 3 33.6054 49.4696 111.0528 0.0000 -4.6797 0.0000
# 4 0.0000 0.0000 0.0000 37.0975 0.0000 -1.0855
# 5 -9.6089 1.6767 -4.6797 0.0000 41.8426 0.0000
# 6 0.0000 0.0000 0.0000 -1.0855 0.0000 39.9458
#
#
#
# Elastic Compliance Matrix: (Units=1/GPa)
#
#
# Indices 1 2 3 4 5 6 
#
# 1 0.013431 -0.009605 0.000362 0.000000 0.003510 0.000000
# 2 -0.009605 0.020118 -0.006211 0.000000 -0.003706 0.000000
# 3 0.000362 -0.006211 0.011731 0.000000 0.001644 0.000000
# 4 0.000000 0.000000 0.000000 0.026977 0.000000 0.000733
# 5 0.003510 -0.003706 0.001644 0.000000 0.025037 0.000000
# 6 0.000000 0.000000 0.000000 0.000733 0.000000 0.025054
#
#
# Mechanical properties :
#
#
# Convention : Reuss Voigt Hill
#
# Bulk Modulus (GPa) = 69.57767 70.69748 70.13758
# Shear Modulus (GPa) = 31.63589 35.94080 33.78835
#
# Velocity S-wave (km/s) = 4.00023 4.26372 4.13408
# Velocity P-wave (km/s) = 7.51858 7.74589 7.63308
#
# Compressibility (1/GPa) = 0.01437243
#
# Stress axis : x y z
#
# Youngs Moduli (GPa) = 74.45283 49.70716 85.24094
#
# Poissons Ratio (x) = 0.47741 -0.03085
# Poissons Ratio (y) = 0.71508 0.52947
# Poissons Ratio (z) = -0.02695 0.30875
#
# Static dielectric constant tensor:
#      x y z
#    x 3.956440 0.000000 -0.214410 
#    y 0.000000 3.525270 0.000000 
#    z -0.214410 0.000000 3.997290 
# 
# 
# High freq. dielectric constant tensor:
#      x y z
#    x 1.787990 0.000000 -0.001940 
#    y 0.000000 1.779460 0.000000 
#    z -0.001940 0.000000 1.792710 
# 
# From -- ./inp_files/303417.got.cif
#   From: 2010.06.25/outbox.cif.g09.slc.cpg/sg12_152_cif.got.tgz:303417.got - 2010.06.28 00:19:55.
