data_PCOD8111787
_publ_section_title
;
Structure prediction by ZEFSAII (Michael W. Deem and Ramdas Pophale) SiO2 
 PCOD8111787
Probable space group: C 2/M
;
_chemical_formula_sum "Si O2"
_cell_formula_units_Z 48
_cell_length_a 18.508624
_cell_length_b 14.858345
_cell_length_c 8.622043
_cell_angle_alpha 90.000000
_cell_angle_beta 96.982506
_cell_angle_gamma 90.000000
_cell_volume 2353.540772
_symmetry_space_group_name_H-M "C 2/M"
_symmetry_group_IT_number 12
_symmetry_cell_setting 'monoclinic'
loop_
_space_group_symop_operation_xyz
x,y,z
-x,y,-z
-x,-y,-z
x,-y,z
1/2+x,1/2+y,z
1/2-x,1/2+y,-z
1/2-x,1/2-y,-z
1/2+x,1/2-y,z
loop_
_atom_site_type_symbol
_atom_site_label
_atom_site_fract_x
_atom_site_fract_y
_atom_site_fract_z
Si Si1 0.330228 0.783120 0.017546
Si Si2 0.660254 0.312238 0.682115
Si Si3 0.932653 0.290665 0.585093
Si Si4 0.572946 0.500000 0.319830
Si Si5 0.314844 0.895252 0.737169
Si Si6 0.902441 0.000000 0.330372
Si Si7 0.060517 0.829492 0.139901
O O1 0.355852 0.771947 0.203052
O O2 0.250000 0.750000 0.000000
O O3 0.335738 0.878869 0.926700
O O4 0.371642 0.714660 0.921174
O O5 0.617623 0.282781 0.516879
O O6 0.746089 0.331646 0.673207
O O7 0.630005 0.406862 0.746868
O O8 0.882057 0.370457 0.640013
O O9 0.971650 0.236869 0.736069
O O10 0.000000 0.329178 0.500000
O O11 0.487076 0.500000 0.322318
O O12 0.616266 0.500000 0.491832
O O13 0.596481 0.415603 0.226221
O O14 0.295997 0.000000 0.709624
O O15 0.000000 0.855735 0.000000
#
# Coordination Sequence:
#
# PCOD8111787 Si02
#       7
#     8   8   8   4   8   4   8
#     4   9  21  38  58  80 111 153 197 240 289 346
#     4  11  20  39  61  87 118 159 197 237 294 352
#     4  11  22  37  62  88 118 156 201 243 288 350
#     4  11  21  32  50  90 126 156 190 235 287 355
#     4  10  22  41  61  86 117 156 197 248 298 343
#     4  11  20  32  58  86 127 156 188 238 291 350
#     4  11  21  35  55  84 120 156 196 236 290 351
#
# _framework density 20.394801999999999
#
# number of rings (size 3 to 8) (size 9 to 14) (size 15 to 20)
#    0.000    1.500    2.500    3.750    0.000    1.000 
#    1.500    0.833    0.000   17.000    0.000    0.000 
#    0.000    0.000    0.000    0.000    0.000    0.000 
#
# Total GULP energy -297317.822557 kJ/mol
# GULP energy per Si atom -12388.242607 kJ/mol
# Density = 2.034838 g / cm^3
# Si number density = 20.394802 Si / 1000 Ang^3
#
#
#
# Elastic Constant Matrix: (Units=GPa)
#
#
# Indices 1 2 3 4 5 6 
#
# 1 72.9178 18.7935 27.8133 0.0000 -12.7726 0.0000
# 2 18.7935 65.0701 20.7441 0.0000 -4.5377 0.0000
# 3 27.8133 20.7441 89.5050 0.0000 -3.8656 0.0000
# 4 0.0000 0.0000 0.0000 23.4661 0.0000 5.9563
# 5 -12.7726 -4.5377 -3.8656 0.0000 31.4372 0.0000
# 6 0.0000 0.0000 0.0000 5.9563 0.0000 16.0525
#
#
#
# Elastic Compliance Matrix: (Units=1/GPa)
#
#
# Indices 1 2 3 4 5 6 
#
# 1 0.017250 -0.003171 -0.004366 0.000000 0.006014 0.000000
# 2 -0.003171 0.017295 -0.002987 0.000000 0.000841 0.000000
# 3 -0.004366 -0.002987 0.013196 0.000000 -0.000582 0.000000
# 4 0.000000 0.000000 0.000000 0.047046 0.000000 -0.017456
# 5 0.006014 0.000841 -0.000582 0.000000 0.034303 0.000000
# 6 0.000000 0.000000 0.000000 -0.017456 0.000000 0.068773
#
#
# Mechanical properties :
#
#
# Convention : Reuss Voigt Hill
#
# Bulk Modulus (GPa) = 37.46118 40.24384 38.85251
# Shear Modulus (GPa) = 21.94843 24.86729 23.40786
#
# Velocity S-wave (km/s) = 3.28407 3.49563 3.39150
# Velocity P-wave (km/s) = 5.72609 6.00565 5.86753
#
# Compressibility (1/GPa) = 0.02669430
#
# Stress axis : x y z
#
# Youngs Moduli (GPa) = 57.97099 57.82145 75.77926
#
# Poissons Ratio (x) = 0.18335 0.33083
# Poissons Ratio (y) = 0.18382 0.22632
# Poissons Ratio (z) = 0.25308 0.17269
#
# Static dielectric constant tensor:
#      x y z
#    x 3.647110 0.000000 0.006480 
#    y 0.000000 3.645250 0.000000 
#    z 0.006480 0.000000 4.298910 
# 
# 
# High freq. dielectric constant tensor:
#      x y z
#    x 1.800620 0.000000 -0.006860 
#    y 0.000000 1.768810 0.000000 
#    z -0.006860 0.000000 1.805300 
# 
# From -- ./inp_files/73668.got.cif
#   From: 2010.06.25/outbox.cif.g09.slc.cpg/sg12_37_cif.got.tgz:73668.got - 2010.06.28 00:19:55.
