data_PCOD8111161
_publ_section_title
;
Structure prediction by ZEFSAII (Michael W. Deem and Ramdas Pophale) SiO2 
 PCOD8111161
Probable space group: C 2/M
;
_chemical_formula_sum "Si O2"
_cell_formula_units_Z 64
_cell_length_a 16.707155
_cell_length_b 16.085694
_cell_length_c 14.361058
_cell_angle_alpha 90.000000
_cell_angle_beta 55.932131
_cell_angle_gamma 90.000000
_cell_volume 3197.094828
_symmetry_space_group_name_H-M "C 2/M"
_symmetry_group_IT_number 12
_symmetry_cell_setting 'monoclinic'
loop_
_space_group_symop_operation_xyz
x,y,z
-x,y,-z
-x,-y,-z
x,-y,z
1/2+x,1/2+y,z
1/2-x,1/2+y,-z
1/2-x,1/2-y,-z
1/2+x,1/2-y,z
loop_
_atom_site_type_symbol
_atom_site_label
_atom_site_fract_x
_atom_site_fract_y
_atom_site_fract_z
Si Si1 0.415775 0.842634 0.857287
Si Si2 0.095951 0.206070 0.983251
Si Si3 0.122079 0.406265 0.683345
Si Si4 0.535086 0.595418 0.582463
Si Si5 0.717692 0.406104 0.039405
Si Si6 0.231574 0.843083 0.540973
Si Si7 0.132963 0.799314 0.245448
Si Si8 0.284787 0.247285 0.272706
O O1 0.507162 0.894520 0.760802
O O2 0.329389 0.905931 0.936073
O O3 0.380165 0.787687 0.795621
O O4 0.437976 0.784958 0.932463
O O5 0.146798 0.136566 0.011753
O O6 0.169202 0.232387 0.855837
O O7 0.000000 0.167226 0.000000
O O8 0.144896 0.500000 0.704116
O O9 0.171188 0.395494 0.547963
O O10 0.167028 0.335229 0.718074
O O11 0.500000 0.610370 0.500000
O O12 0.518993 0.500000 0.620569
O O13 0.645081 0.618705 0.535685
O O14 0.468912 0.653475 0.689161
O O15 0.682984 0.500000 0.075358
O O16 0.710411 0.356653 0.140994
O O17 0.250000 0.750000 0.500000
O O18 0.210356 0.831208 0.665488
O O19 0.173902 0.779165 0.322178
#
# Coordination Sequence:
#
# PCOD8111161 Si02
#       8
#     8   8   8   8   8   8   8   8
#     4  11  21  40  64  86 124 167 205 253 301 374
#     4  11  21  40  64  90 125 163 212 250 304 383
#     4  11  23  39  61  90 123 160 203 262 317 358
#     4  11  23  39  60  91 125 156 198 263 319 360
#     4  11  23  39  60  92 127 162 204 258 313 364
#     4  10  22  39  61  87 119 164 213 250 303 373
#     4  11  21  38  64  87 118 161 210 247 305 377
#     4  11  21  40  64  90 121 165 208 254 306 375
#
# _framework density 20.018173000000001
#
# number of rings (size 3 to 8) (size 9 to 14) (size 15 to 20)
#    0.000    1.125    3.750    4.875    1.750    2.250 
#    0.000    1.875    0.000    0.750    0.000    0.000 
#    0.000    0.000    0.000    0.000    0.000    0.000 
#
# Total GULP energy -396580.529187 kJ/mol
# GULP energy per Si atom -12393.141537 kJ/mol
# Density = 1.997261 g / cm^3
# Si number density = 20.018173 Si / 1000 Ang^3
#
#
#
# Elastic Constant Matrix: (Units=GPa)
#
#
# Indices 1 2 3 4 5 6 
#
# 1 103.6791 20.1382 38.9058 0.0000 -3.3580 0.0000
# 2 20.1382 65.4208 29.1501 0.0000 10.6378 0.0000
# 3 38.9058 29.1501 81.4988 0.0000 -6.0506 0.0000
# 4 0.0000 0.0000 0.0000 14.5838 0.0000 -13.4064
# 5 -3.3580 10.6378 -6.0506 0.0000 37.6051 0.0000
# 6 0.0000 0.0000 0.0000 -13.4064 0.0000 15.2530
#
#
#
# Elastic Compliance Matrix: (Units=1/GPa)
#
#
# Indices 1 2 3 4 5 6 
#
# 1 0.011863 -0.001497 -0.005078 0.000000 0.000666 0.000000
# 2 -0.001497 0.019958 -0.006936 0.000000 -0.006895 0.000000
# 3 -0.005078 -0.006936 0.017496 0.000000 0.004324 0.000000
# 4 0.000000 0.000000 0.000000 0.357094 0.000000 0.313862
# 5 0.000666 -0.006895 0.004324 0.000000 0.029298 0.000000
# 6 0.000000 0.000000 0.000000 0.313862 0.000000 0.341426
#
#
# Mechanical properties :
#
#
# Convention : Reuss Voigt Hill
#
# Bulk Modulus (GPa) = 44.85318 47.44299 46.14808
# Shear Modulus (GPa) = 6.16075 24.31535 15.23805
#
# Velocity S-wave (km/s) = 1.75621 3.48898 2.76200
# Velocity P-wave (km/s) = 5.15434 6.32314 5.76842
#
# Compressibility (1/GPa) = 0.02229497
#
# Stress axis : x y z
#
# Youngs Moduli (GPa) = 84.29459 50.10468 57.15561
#
# Poissons Ratio (x) = 0.07502 0.29025
# Poissons Ratio (y) = 0.12621 0.39641
# Poissons Ratio (z) = 0.42807 0.34751
#
# Static dielectric constant tensor:
#      x y z
#    x 3.511830 0.000000 -0.338450 
#    y 0.000000 3.672190 0.000000 
#    z -0.338450 0.000000 3.852850 
# 
# 
# High freq. dielectric constant tensor:
#      x y z
#    x 1.782830 0.000000 -0.012320 
#    y 0.000000 1.769360 0.000000 
#    z -0.012320 0.000000 1.789770 
# 
# From -- ./inp_files/225276.got.cif
#   From: 2010.06.25/outbox.cif.g09.slc.cpg/sg12_113_cif.got.tgz:225276.got - 2010.06.28 00:19:55.
