data_PCOD8111448
_publ_section_title
;
Structure prediction by ZEFSAII (Michael W. Deem and Ramdas Pophale) SiO2 
 PCOD8111448
Probable space group: C 2/M
;
_chemical_formula_sum "Si O2"
_cell_formula_units_Z 40
_cell_length_a 10.254831
_cell_length_b 8.512896
_cell_length_c 22.208355
_cell_angle_alpha 90.000000
_cell_angle_beta 83.830565
_cell_angle_gamma 90.000000
_cell_volume 1927.523449
_symmetry_space_group_name_H-M "C 2/M"
_symmetry_group_IT_number 12
_symmetry_cell_setting 'monoclinic'
loop_
_space_group_symop_operation_xyz
x,y,z
-x,y,-z
-x,-y,-z
x,-y,z
1/2+x,1/2+y,z
1/2-x,1/2+y,-z
1/2-x,1/2-y,-z
1/2+x,1/2-y,z
loop_
_atom_site_type_symbol
_atom_site_label
_atom_site_fract_x
_atom_site_fract_y
_atom_site_fract_z
Si Si1 0.680726 0.681194 0.261760
Si Si2 0.688774 0.183141 0.132198
Si Si3 0.073606 0.317919 0.668642
Si Si4 0.539828 0.685336 0.933300
Si Si5 0.622406 0.681586 0.537567
O O1 0.688366 0.500000 0.241962
O O2 0.698746 0.788281 0.202522
O O3 0.794564 0.726066 0.302531
O O4 0.542689 0.712135 0.300166
O O5 0.563230 0.270894 0.112623
O O6 0.818198 0.251483 0.092920
O O7 0.672275 0.000000 0.120570
O O8 0.037035 0.500000 0.678541
O O9 0.095247 0.281639 0.598079
O O10 0.547364 0.500000 0.937540
O O11 0.500000 0.758744 0.000000
O O12 0.500000 0.702778 0.500000
O O13 0.644743 0.500000 0.553349
O O14 0.750000 0.750000 0.500000
#
# Coordination Sequence:
#
# PCOD8111448 Si02
#       5
#     8   8   8   8   8
#     4  11  24  41  61  87 120 156 196 244 296 352
#     4  11  23  38  60  89 118 154 199 243 293 352
#     4  11  24  41  63  91 120 155 200 246 296 353
#     4  10  22  40  61  87 120 157 197 243 296 352
#     4  11  24  41  62  90 123 159 200 245 295 352
#
# _framework density 20.752016000000001
#
# number of rings (size 3 to 8) (size 9 to 14) (size 15 to 20)
#    0.000    1.200    0.000    5.400    0.000   14.800 
#    0.000    0.000    0.000    0.000    0.000    0.000 
#    0.000    0.000    0.000    0.000    0.000    0.000 
#
# Total GULP energy -248146.150155 kJ/mol
# GULP energy per Si atom -12407.307508 kJ/mol
# Density = 2.070478 g / cm^3
# Si number density = 20.752016 Si / 1000 Ang^3
#
#
#
# Elastic Constant Matrix: (Units=GPa)
#
#
# Indices 1 2 3 4 5 6 
#
# 1 131.2510 20.1213 23.7695 0.0000 -4.8784 0.0000
# 2 20.1213 40.2526 7.3246 0.0000 -2.3236 0.0000
# 3 23.7695 7.3246 110.7263 0.0000 -7.2522 0.0000
# 4 0.0000 0.0000 0.0000 30.9726 0.0000 -1.7008
# 5 -4.8784 -2.3236 -7.2522 0.0000 48.5491 0.0000
# 6 0.0000 0.0000 0.0000 -1.7008 0.0000 30.0042
#
#
#
# Elastic Compliance Matrix: (Units=1/GPa)
#
#
# Indices 1 2 3 4 5 6 
#
# 1 0.008520 -0.003954 -0.001539 0.000000 0.000437 0.000000
# 2 -0.003954 0.027025 -0.000889 0.000000 0.000763 0.000000
# 3 -0.001539 -0.000889 0.009500 0.000000 0.001222 0.000000
# 4 0.000000 0.000000 0.000000 0.032387 0.000000 0.001836
# 5 0.000437 0.000763 0.001222 0.000000 0.020861 0.000000
# 6 0.000000 0.000000 0.000000 0.001836 0.000000 0.033433
#
#
# Mechanical properties :
#
#
# Convention : Reuss Voigt Hill
#
# Bulk Modulus (GPa) = 30.97633 42.74009 36.85821
# Shear Modulus (GPa) = 32.20596 37.30613 34.75605
#
# Velocity S-wave (km/s) = 3.94375 4.24454 4.09691
# Velocity P-wave (km/s) = 5.97468 6.68295 6.33872
#
# Compressibility (1/GPa) = 0.03228271
#
# Stress axis : x y z
#
# Youngs Moduli (GPa) = 117.37043 37.00232 105.25810
#
# Poissons Ratio (x) = 0.14630 0.16197
# Poissons Ratio (y) = 0.46405 0.09358
# Poissons Ratio (z) = 0.18061 0.03290
#
# Static dielectric constant tensor:
#      x y z
#    x 3.896820 0.000000 -0.035690 
#    y 0.000000 3.723300 0.000000 
#    z -0.035690 0.000000 3.823780 
# 
# 
# High freq. dielectric constant tensor:
#      x y z
#    x 1.830640 0.000000 -0.002420 
#    y 0.000000 1.812810 0.000000 
#    z -0.002420 0.000000 1.828120 
# 
# From -- ./inp_files/303420.got.cif
#   From: 2010.06.25/outbox.cif.g09.slc.cpg/sg12_152_cif.got.tgz:303420.got - 2010.06.28 00:19:55.
