data_PCOD8111785
_publ_section_title
;
Structure prediction by ZEFSAII (Michael W. Deem and Ramdas Pophale) SiO2 
 PCOD8111785
Probable space group: C 2/M
;
_chemical_formula_sum "Si O2"
_cell_formula_units_Z 64
_cell_length_a 11.957507
_cell_length_b 13.777502
_cell_length_c 26.447532
_cell_angle_alpha 90.000000
_cell_angle_beta 45.533075
_cell_angle_gamma 90.000000
_cell_volume 3109.457002
_symmetry_space_group_name_H-M "C 2/M"
_symmetry_group_IT_number 12
_symmetry_cell_setting 'monoclinic'
loop_
_space_group_symop_operation_xyz
x,y,z
-x,y,-z
-x,-y,-z
x,-y,z
1/2+x,1/2+y,z
1/2-x,1/2+y,-z
1/2-x,1/2-y,-z
1/2+x,1/2-y,z
loop_
_atom_site_type_symbol
_atom_site_label
_atom_site_fract_x
_atom_site_fract_y
_atom_site_fract_z
Si Si1 0.459405 0.891877 0.858501
Si Si2 0.018173 0.891243 0.576236
Si Si3 0.369314 0.700661 0.192398
Si Si4 0.920400 0.887560 0.793407
Si Si5 0.123758 0.887843 0.917662
Si Si6 0.077526 0.609353 0.927102
Si Si7 0.972184 0.245195 0.684478
Si Si8 0.245951 0.391669 0.581489
O O1 0.583316 0.809300 0.803957
O O2 0.293969 0.866631 0.886710
O O3 0.450330 0.889094 0.922382
O O4 0.517216 0.000000 0.822964
O O5 0.979217 0.815109 0.631370
O O6 0.179639 0.862559 0.496394
O O7 0.878900 0.888082 0.580966
O O8 0.033832 0.000000 0.593932
O O9 0.469404 0.623377 0.192560
O O10 0.406584 0.680777 0.121250
O O11 0.185901 0.690808 0.261988
O O12 0.993420 0.827322 0.724488
O O13 0.745141 0.843779 0.858612
O O14 0.911745 0.000000 0.780420
O O15 0.108325 0.000000 0.905865
O O16 0.000000 0.861210 0.000000
O O17 0.119297 0.500000 0.930578
O O18 0.000000 0.663842 0.000000
O O19 0.111484 0.320597 0.641659
O O20 0.175460 0.500000 0.600163
#
# Coordination Sequence:
#
# PCOD8111785 Si02
#       8
#     8   8   8   8   8   8   8   8
#     4  10  22  41  61  85 115 150 201 257 305 361
#     4   9  19  38  65  93 120 154 198 245 288 339
#     4  12  25  40  59  89 122 163 202 246 307 367
#     4  11  24  41  59  86 123 159 202 250 303 364
#     4  10  24  44  64  86 116 157 206 263 318 365
#     4   9  19  37  62  85 110 152 201 254 307 353
#     4  12  22  38  60  91 123 161 199 239 294 355
#     4   9  20  39  63  92 123 156 196 242 291 344
#
# _framework density 20.582371999999999
#
# number of rings (size 3 to 8) (size 9 to 14) (size 15 to 20)
#    0.000    1.750    1.250    3.375    1.750    2.500 
#    0.000    3.125    0.000    0.000    0.000    7.875 
#    0.000    0.000    0.000    0.000    0.000    0.000 
#
# Total GULP energy -396750.214777 kJ/mol
# GULP energy per Si atom -12398.444212 kJ/mol
# Density = 2.053553 g / cm^3
# Si number density = 20.582372 Si / 1000 Ang^3
#
#
#
# Elastic Constant Matrix: (Units=GPa)
#
#
# Indices 1 2 3 4 5 6 
#
# 1 92.6286 26.4407 37.5067 0.0000 3.8826 0.0000
# 2 26.4407 88.3692 47.6983 0.0000 -3.1194 0.0000
# 3 37.5067 47.6983 127.1030 0.0000 2.6633 0.0000
# 4 0.0000 0.0000 0.0000 20.4141 0.0000 -0.4633
# 5 3.8826 -3.1194 2.6633 0.0000 32.6586 0.0000
# 6 0.0000 0.0000 0.0000 -0.4633 0.0000 39.3877
#
#
#
# Elastic Compliance Matrix: (Units=1/GPa)
#
#
# Indices 1 2 3 4 5 6 
#
# 1 0.012668 -0.002310 -0.002840 0.000000 -0.001495 0.000000
# 2 -0.002310 0.014717 -0.004885 0.000000 0.002079 0.000000
# 3 -0.002840 -0.004885 0.010560 0.000000 -0.000990 0.000000
# 4 0.000000 0.000000 0.000000 0.048999 0.000000 0.000576
# 5 -0.001495 0.002079 -0.000990 0.000000 0.031077 0.000000
# 6 0.000000 0.000000 0.000000 0.000576 0.000000 0.025395
#
#
# Mechanical properties :
#
#
# Convention : Reuss Voigt Hill
#
# Bulk Modulus (GPa) = 55.94442 59.04358 57.49400
# Shear Modulus (GPa) = 29.50823 31.58908 30.54866
#
# Velocity S-wave (km/s) = 3.79049 3.92186 3.85673
# Velocity P-wave (km/s) = 6.81152 7.01831 6.91569
#
# Compressibility (1/GPa) = 0.01787488
#
# Stress axis : x y z
#
# Youngs Moduli (GPa) = 78.94019 67.94647 94.70098
#
# Poissons Ratio (x) = 0.15697 0.26893
# Poissons Ratio (y) = 0.18237 0.46260
# Poissons Ratio (z) = 0.22418 0.33191
#
# Static dielectric constant tensor:
#      x y z
#    x 3.681630 0.000000 0.020170 
#    y 0.000000 3.972560 0.000000 
#    z 0.020170 0.000000 3.812450 
# 
# 
# High freq. dielectric constant tensor:
#      x y z
#    x 1.804000 0.000000 0.003470 
#    y 0.000000 1.816020 0.000000 
#    z 0.003470 0.000000 1.797120 
# 
# From -- ./inp_files/358419.got.cif
#   From: 2010.06.25/outbox.cif.g09.slc.cpg/sg12_180_cif.got.tgz:358419.got - 2010.06.28 00:19:55.
