data_PCOD8111051
_publ_section_title
;
Structure prediction by ZEFSAII (Michael W. Deem and Ramdas Pophale) SiO2 
 PCOD8111051
Probable space group: C 2/M
;
_chemical_formula_sum "Si O2"
_cell_formula_units_Z 56
_cell_length_a 20.496470
_cell_length_b 8.779375
_cell_length_c 17.695822
_cell_angle_alpha 90.000000
_cell_angle_beta 70.774145
_cell_angle_gamma 90.000000
_cell_volume 3006.700901
_symmetry_space_group_name_H-M "C 2/M"
_symmetry_group_IT_number 12
_symmetry_cell_setting 'monoclinic'
loop_
_space_group_symop_operation_xyz
x,y,z
-x,y,-z
-x,-y,-z
x,-y,z
1/2+x,1/2+y,z
1/2-x,1/2+y,-z
1/2-x,1/2-y,-z
1/2+x,1/2-y,z
loop_
_atom_site_type_symbol
_atom_site_label
_atom_site_fract_x
_atom_site_fract_y
_atom_site_fract_z
Si Si1 0.902493 0.180278 0.598148
Si Si2 0.056650 0.180184 0.577594
Si Si3 0.833631 0.177851 0.164945
Si Si4 0.826453 0.322639 0.758713
Si Si5 0.575282 0.179639 0.996655
Si Si6 0.927103 0.180538 0.264473
Si Si7 0.424269 0.319819 0.844436
O O1 0.899271 0.236941 0.511717
O O2 0.844407 0.269554 0.666999
O O3 0.976793 0.229347 0.602801
O O4 0.890207 0.000000 0.610506
O O5 0.087245 0.244416 0.645074
O O6 0.058818 0.000000 0.574112
O O7 0.753254 0.214351 0.196857
O O8 0.866200 0.233552 0.232166
O O9 0.849268 0.000000 0.146019
O O10 0.867407 0.272960 0.085268
O O11 0.842499 0.500000 0.762209
O O12 0.869781 0.227772 0.802213
O O13 0.597922 0.250954 0.067256
O O14 0.574215 0.000000 0.005705
O O15 0.500000 0.241560 0.000000
O O16 0.000082 0.244056 0.206123
O O17 0.931787 0.000000 0.267338
O O18 0.424367 0.500000 0.850960
#
# Coordination Sequence:
#
# PCOD8111051 Si02
#       7
#     8   8   8   8   8   8   8
#     4   9  16  30  54  81 109 142 184 229 275 327
#     4   8  14  27  53  85 107 132 185 241 268 309
#     4  10  22  39  58  79 109 152 191 223 268 333
#     4  11  23  37  53  80 119 150 179 228 284 329
#     4  11  23  38  58  87 118 141 172 229 288 327
#     4   9  16  31  57  84 103 135 190 235 263 309
#     4  11  21  36  63  85 105 144 191 230 267 326
#
# _framework density 18.625063999999998
#
# number of rings (size 3 to 8) (size 9 to 14) (size 15 to 20)
#    0.000    2.143    2.857    2.143    0.000    2.286 
#    0.000    2.143    0.000    0.000    0.000    0.000 
#    0.000    0.000    0.000    0.000    0.000    0.000 
#
# Total GULP energy -347165.613820 kJ/mol
# GULP energy per Si atom -12398.771922 kJ/mol
# Density = 1.858267 g / cm^3
# Si number density = 18.625064 Si / 1000 Ang^3
#
#
#
# Elastic Constant Matrix: (Units=GPa)
#
#
# Indices 1 2 3 4 5 6 
#
# 1 77.5730 24.7168 38.3307 0.0000 1.6897 0.0000
# 2 24.7168 43.5672 33.4169 0.0000 -5.7318 0.0000
# 3 38.3307 33.4169 141.1843 0.0000 9.4590 0.0000
# 4 0.0000 0.0000 0.0000 20.3739 0.0000 -3.7134
# 5 1.6897 -5.7318 9.4590 0.0000 31.9309 0.0000
# 6 0.0000 0.0000 0.0000 -3.7134 0.0000 20.9388
#
#
#
# Elastic Compliance Matrix: (Units=1/GPa)
#
#
# Indices 1 2 3 4 5 6 
#
# 1 0.016647 -0.007634 -0.002614 0.000000 -0.001477 0.000000
# 2 -0.007634 0.033238 -0.006347 0.000000 0.008251 0.000000
# 3 -0.002614 -0.006347 0.009552 0.000000 -0.003831 0.000000
# 4 0.000000 0.000000 0.000000 0.050722 0.000000 0.008995
# 5 -0.001477 0.008251 -0.003831 0.000000 0.034012 0.000000
# 6 0.000000 0.000000 0.000000 0.008995 0.000000 0.049354
#
#
# Mechanical properties :
#
#
# Convention : Reuss Voigt Hill
#
# Bulk Modulus (GPa) = 38.10001 50.58371 44.34186
# Shear Modulus (GPa) = 21.23482 25.70606 23.47044
#
# Velocity S-wave (km/s) = 3.38023 3.71912 3.55372
# Velocity P-wave (km/s) = 5.97790 6.75724 6.37949
#
# Compressibility (1/GPa) = 0.02624671
#
# Stress axis : x y z
#
# Youngs Moduli (GPa) = 60.07042 30.08615 104.69505
#
# Poissons Ratio (x) = 0.22967 0.27365
# Poissons Ratio (y) = 0.45857 0.66453
# Poissons Ratio (z) = 0.15701 0.19097
#
# Static dielectric constant tensor:
#      x y z
#    x 3.370680 0.000000 0.204720 
#    y 0.000000 3.118060 0.000000 
#    z 0.204720 0.000000 3.801170 
# 
# 
# High freq. dielectric constant tensor:
#      x y z
#    x 1.706220 0.000000 0.010790 
#    y 0.000000 1.696100 0.000000 
#    z 0.010790 0.000000 1.742110 
# 
# From -- ./inp_files/275025.got.cif
#   From: 2010.06.25/outbox.cif.g09.slc.cpg/sg12_138_cif.got.tgz:275025.got - 2010.06.28 00:19:55.
