data_PCOD8111826
_publ_section_title
;
Structure prediction by ZEFSAII (Michael W. Deem and Ramdas Pophale) SiO2 
 PCOD8111826
Probable space group: C 2/M
;
_chemical_formula_sum "Si O2"
_cell_formula_units_Z 48
_cell_length_a 11.610095
_cell_length_b 18.999571
_cell_length_c 10.954602
_cell_angle_alpha 90.000000
_cell_angle_beta 82.130641
_cell_angle_gamma 90.000000
_cell_volume 2393.684820
_symmetry_space_group_name_H-M "C 2/M"
_symmetry_group_IT_number 12
_symmetry_cell_setting 'monoclinic'
loop_
_space_group_symop_operation_xyz
x,y,z
-x,y,-z
-x,-y,-z
x,-y,z
1/2+x,1/2+y,z
1/2-x,1/2+y,-z
1/2-x,1/2-y,-z
1/2+x,1/2-y,z
loop_
_atom_site_type_symbol
_atom_site_label
_atom_site_fract_x
_atom_site_fract_y
_atom_site_fract_z
Si Si1 0.571821 0.846516 0.654947
Si Si2 0.630574 0.325580 0.962020
Si Si3 0.748309 0.198904 0.809639
Si Si4 0.610564 0.420408 0.758148
Si Si5 0.522388 0.305513 0.361533
Si Si6 0.143625 0.581336 0.398749
O O1 0.651287 0.853679 0.765027
O O2 0.556600 0.763261 0.639929
O O3 0.448166 0.886319 0.686185
O O4 0.636064 0.877524 0.527316
O O5 0.694599 0.272600 0.860420
O O6 0.629925 0.401917 0.897667
O O7 0.500000 0.296076 0.000000
O O8 0.696355 0.337470 0.079659
O O9 0.844299 0.213672 0.690560
O O10 0.565670 0.500000 0.752945
O O11 0.512691 0.367832 0.724168
O O12 0.727962 0.408534 0.667353
O O13 0.500000 0.335126 0.500000
O O14 0.112449 0.500000 0.424126
#
# Coordination Sequence:
#
# PCOD8111826 Si02
#       6
#     8   8   8   8   8   8
#     4  11  20  36  65  93 125 161 199 259 304 376
#     4  11  22  42  63  88 125 165 211 257 309 363
#     4  11  23  38  63  97 124 155 206 267 307 355
#     4  11  24  42  62  85 126 170 210 252 306 374
#     4  12  23  38  63  97 126 159 208 252 316 373
#     4  10  22  41  62  92 129 168 199 246 318 373
#
# _framework density 20.052765999999998
#
# number of rings (size 3 to 8) (size 9 to 14) (size 15 to 20)
#    0.000    1.000    5.000    3.000    0.000    3.333 
#    0.000    3.333    0.000    2.000    0.000    0.000 
#    0.000    0.000    0.000    0.000    0.000    0.000 
#
# Total GULP energy -297571.956450 kJ/mol
# GULP energy per Si atom -12398.831519 kJ/mol
# Density = 2.000712 g / cm^3
# Si number density = 20.052766 Si / 1000 Ang^3
#
#
#
# Elastic Constant Matrix: (Units=GPa)
#
#
# Indices 1 2 3 4 5 6 
#
# 1 95.9537 42.7181 37.7067 0.0000 11.0090 0.0000
# 2 42.7181 120.7198 41.7124 0.0000 6.2499 0.0000
# 3 37.7067 41.7124 89.6959 0.0000 11.7253 0.0000
# 4 0.0000 0.0000 0.0000 26.2903 0.0000 -2.2000
# 5 11.0090 6.2499 11.7253 0.0000 48.6517 0.0000
# 6 0.0000 0.0000 0.0000 -2.2000 0.0000 29.8500
#
#
#
# Elastic Compliance Matrix: (Units=1/GPa)
#
#
# Indices 1 2 3 4 5 6 
#
# 1 0.013678 -0.003386 -0.003952 0.000000 -0.001708 0.000000
# 2 -0.003386 0.010709 -0.003590 0.000000 0.000256 0.000000
# 3 -0.003952 -0.003590 0.014768 0.000000 -0.002204 0.000000
# 4 0.000000 0.000000 0.000000 0.038273 0.000000 0.002821
# 5 -0.001708 0.000256 -0.002204 0.000000 0.021439 0.000000
# 6 0.000000 0.000000 0.000000 0.002821 0.000000 0.033709
#
#
# Mechanical properties :
#
#
# Convention : Reuss Voigt Hill
#
# Bulk Modulus (GPa) = 57.80939 61.18264 59.49601
# Shear Modulus (GPa) = 31.21122 33.24053 32.22588
#
# Velocity S-wave (km/s) = 3.94947 4.07585 4.01316
# Velocity P-wave (km/s) = 7.04904 7.26134 7.15598
#
# Compressibility (1/GPa) = 0.01729823
#
# Stress axis : x y z
#
# Youngs Moduli (GPa) = 73.10905 93.37814 67.71473
#
# Poissons Ratio (x) = 0.31620 0.26762
# Poissons Ratio (y) = 0.24756 0.24311
# Poissons Ratio (z) = 0.28894 0.33524
#
# Static dielectric constant tensor:
#      x y z
#    x 3.834060 0.000000 0.039700 
#    y 0.000000 3.569840 0.000000 
#    z 0.039700 0.000000 3.800200 
# 
# 
# High freq. dielectric constant tensor:
#      x y z
#    x 1.792880 0.000000 -0.006570 
#    y 0.000000 1.765650 0.000000 
#    z -0.006570 0.000000 1.787000 
# 
# From -- ./inp_files/131038.got.cif
#   From: 2010.06.25/outbox.cif.g09.slc.cpg/sg12_66_cif.got.tgz:131038.got - 2010.06.28 00:19:55.
