data_PCOD8111290
_publ_section_title
;
Structure prediction by ZEFSAII (Michael W. Deem and Ramdas Pophale) SiO2 
 PCOD8111290
Probable space group: C 2/M
;
_chemical_formula_sum "Si O2"
_cell_formula_units_Z 56
_cell_length_a 15.635531
_cell_length_b 17.982961
_cell_length_c 11.489668
_cell_angle_alpha 90.000000
_cell_angle_beta 123.857501
_cell_angle_gamma 90.000000
_cell_volume 2682.761907
_symmetry_space_group_name_H-M "C 2/M"
_symmetry_group_IT_number 12
_symmetry_cell_setting 'monoclinic'
loop_
_space_group_symop_operation_xyz
x,y,z
-x,y,-z
-x,-y,-z
x,-y,z
1/2+x,1/2+y,z
1/2-x,1/2+y,-z
1/2-x,1/2-y,-z
1/2+x,1/2-y,z
loop_
_atom_site_type_symbol
_atom_site_label
_atom_site_fract_x
_atom_site_fract_y
_atom_site_fract_z
Si Si1 0.555054 0.914696 0.162681
Si Si2 0.467186 0.414075 0.103929
Si Si3 0.035358 0.332755 0.705075
Si Si4 0.169561 0.665231 0.592951
Si Si5 0.337396 0.299322 0.124886
Si Si6 0.235818 0.173012 0.680009
Si Si7 0.659929 0.585503 0.412146
O O1 0.473595 0.895562 0.202459
O O2 0.650976 0.860063 0.249341
O O3 0.591306 0.000000 0.201466
O O4 0.500000 0.899255 0.000000
O O5 0.434578 0.500000 0.082645
O O6 0.367739 0.365425 0.060829
O O7 0.557554 0.396193 0.263111
O O8 0.500000 0.390326 0.000000
O O9 0.125607 0.359459 0.685429
O O10 0.064330 0.253070 0.780277
O O11 0.926698 0.319449 0.562252
O O12 0.238451 0.739503 0.653772
O O13 0.240801 0.601360 0.593623
O O14 0.302422 0.338997 0.217721
O O15 0.250000 0.250000 0.000000
O O16 0.159660 0.132787 0.530991
O O17 0.664604 0.500000 0.452030
#
# Coordination Sequence:
#
# PCOD8111290 Si02
#       7
#     8   8   8   8   8   8   8
#     4  11  24  41  60  90 131 173 213 260 324 390
#     4  10  25  45  67  95 133 175 218 271 334 400
#     4  10  22  40  62  94 127 166 215 270 328 383
#     4  10  22  39  64  95 129 164 211 272 327 384
#     4  11  25  42  66  97 130 172 225 269 329 391
#     4  11  23  40  64  96 128 169 217 270 325 388
#     4  11  23  41  68  98 129 174 218 272 336 396
#
# _framework density 20.874009999999998
#
# number of rings (size 3 to 8) (size 9 to 14) (size 15 to 20)
#    0.000    1.429    1.429    2.571    6.000    4.000 
#    0.000    3.571    0.000    0.000    0.000    0.000 
#    0.000    0.000    0.000    0.000    0.000    0.000 
#
# Total GULP energy -347299.455168 kJ/mol
# GULP energy per Si atom -12403.551970 kJ/mol
# Density = 2.082650 g / cm^3
# Si number density = 20.874010 Si / 1000 Ang^3
#
#
#
# Elastic Constant Matrix: (Units=GPa)
#
#
# Indices 1 2 3 4 5 6 
#
# 1 114.1254 60.4731 58.0663 0.0000 -20.3339 0.0000
# 2 60.4731 69.9570 54.5254 0.0000 -9.9210 0.0000
# 3 58.0663 54.5254 117.7056 0.0000 -23.2917 0.0000
# 4 0.0000 0.0000 0.0000 18.9361 0.0000 2.5970
# 5 -20.3339 -9.9210 -23.2917 0.0000 39.6437 0.0000
# 6 0.0000 0.0000 0.0000 2.5970 0.0000 38.0850
#
#
#
# Elastic Compliance Matrix: (Units=1/GPa)
#
#
# Indices 1 2 3 4 5 6 
#
# 1 0.017335 -0.013112 -0.001547 0.000000 0.004701 0.000000
# 2 -0.013112 0.032301 -0.009308 0.000000 -0.004111 0.000000
# 3 -0.001547 -0.009308 0.014657 0.000000 0.005488 0.000000
# 4 0.000000 0.000000 0.000000 0.053308 0.000000 -0.003635
# 5 0.004701 -0.004111 0.005488 0.000000 0.029832 0.000000
# 6 0.000000 0.000000 0.000000 -0.003635 0.000000 0.026505
#
#
# Mechanical properties :
#
#
# Convention : Reuss Voigt Hill
#
# Bulk Modulus (GPa) = 61.13285 71.99086 66.56186
# Shear Modulus (GPa) = 21.99493 27.91450 24.95472
#
# Velocity S-wave (km/s) = 3.24960 3.66086 3.46134
# Velocity P-wave (km/s) = 6.59014 7.24102 6.92323
#
# Compressibility (1/GPa) = 0.01635782
#
# Stress axis : x y z
#
# Youngs Moduli (GPa) = 57.68608 30.95889 68.22741
#
# Poissons Ratio (x) = 0.40594 0.10558
# Poissons Ratio (y) = 0.75640 0.63504
# Poissons Ratio (z) = 0.08927 0.28816
#
# Static dielectric constant tensor:
#      x y z
#    x 9.662120 0.000000 2.327820 
#    y 0.000000 3.663000 0.000000 
#    z 2.327820 0.000000 5.161190 
# 
# 
# High freq. dielectric constant tensor:
#      x y z
#    x 1.816970 0.000000 -0.008850 
#    y 0.000000 1.812090 0.000000 
#    z -0.008850 0.000000 1.835740 
# 
# From -- ./inp_files/146255.got.cif
#   From: 2010.06.25/outbox.cif.g09.slc.cpg/sg12_74_cif.got.tgz:146255.got - 2010.06.28 00:19:55.
