data_PCOD8111576
_publ_section_title
;
Structure prediction by ZEFSAII (Michael W. Deem and Ramdas Pophale) SiO2 
 PCOD8111576
Probable space group: C 2/M
;
_chemical_formula_sum "Si O2"
_cell_formula_units_Z 64
_cell_length_a 24.793056
_cell_length_b 8.777054
_cell_length_c 14.335089
_cell_angle_alpha 90.000000
_cell_angle_beta 89.360783
_cell_angle_gamma 90.000000
_cell_volume 3119.264462
_symmetry_space_group_name_H-M "C 2/M"
_symmetry_group_IT_number 12
_symmetry_cell_setting 'monoclinic'
loop_
_space_group_symop_operation_xyz
x,y,z
-x,y,-z
-x,-y,-z
x,-y,z
1/2+x,1/2+y,z
1/2-x,1/2+y,-z
1/2-x,1/2-y,-z
1/2+x,1/2-y,z
loop_
_atom_site_type_symbol
_atom_site_label
_atom_site_fract_x
_atom_site_fract_y
_atom_site_fract_z
Si Si1 0.164207 0.678981 0.269306
Si Si2 0.355473 0.678706 0.350515
Si Si3 0.769947 0.671177 0.230287
Si Si4 0.061844 0.325144 0.789881
Si Si5 0.807943 0.320320 0.522072
Si Si6 0.443316 0.824905 0.831033
Si Si7 0.587163 0.678502 0.986318
Si Si8 0.804490 0.328347 0.026931
O O1 0.171279 0.500000 0.256503
O O2 0.210696 0.762532 0.208168
O O3 0.171701 0.729153 0.376212
O O4 0.105939 0.732907 0.232666
O O5 0.359459 0.500000 0.363771
O O6 0.298498 0.719550 0.303926
O O7 0.406260 0.733000 0.289189
O O8 0.354286 0.758672 0.451389
O O9 0.764898 0.500000 0.270765
O O10 0.807700 0.669496 0.138805
O O11 0.080601 0.500000 0.784175
O O12 0.071786 0.266835 0.893674
O O13 0.998095 0.306767 0.770296
O O14 0.803229 0.500000 0.512676
O O15 0.750000 0.250000 0.500000
O O16 0.434714 0.000000 0.861513
O O17 0.450032 0.725419 0.925410
O O18 0.583035 0.500000 0.967659
O O19 0.647307 0.727975 0.015405
O O20 0.807740 0.500000 0.986423
O O21 0.750000 0.250000 0.000000
#
# Coordination Sequence:
#
# PCOD8111576 Si02
#       8
#     8   8   8   8   8   8   8   8
#     4  10  22  40  63  91 123 160 202 251 306 367
#     4  12  24  39  62  91 122 158 201 251 306 366
#     4  11  22  36  58  86 120 160 199 245 304 364
#     4  11  23  42  66  90 120 162 210 261 308 359
#     4  11  22  38  63  94 127 160 201 249 306 370
#     4  10  23  43  65  89 121 162 209 257 308 363
#     4  12  24  38  60  90 124 162 207 254 305 367
#     4  11  23  37  55  83 122 164 206 250 305 366
#
# _framework density 20.517657
#
# number of rings (size 3 to 8) (size 9 to 14) (size 15 to 20)
#    0.000    1.000    2.500    4.875    0.000    7.000 
#    0.000    0.625    0.000    3.750    0.000    0.000 
#    0.000    0.000    0.000    0.000    0.000    0.000 
#
# Total GULP energy -396932.525196 kJ/mol
# GULP energy per Si atom -12404.141412 kJ/mol
# Density = 2.047096 g / cm^3
# Si number density = 20.517657 Si / 1000 Ang^3
#
#
#
# Elastic Constant Matrix: (Units=GPa)
#
#
# Indices 1 2 3 4 5 6 
#
# 1 97.3740 19.5574 21.6801 0.0000 -8.7569 0.0000
# 2 19.5574 88.7139 20.3560 0.0000 -1.9735 0.0000
# 3 21.6801 20.3560 82.9171 0.0000 -10.2054 0.0000
# 4 0.0000 0.0000 0.0000 29.6840 0.0000 -5.7716
# 5 -8.7569 -1.9735 -10.2054 0.0000 25.7077 0.0000
# 6 0.0000 0.0000 0.0000 -5.7716 0.0000 31.8793
#
#
#
# Elastic Compliance Matrix: (Units=1/GPa)
#
#
# Indices 1 2 3 4 5 6 
#
# 1 0.011399 -0.001957 -0.002146 0.000000 0.002881 0.000000
# 2 -0.001957 0.012283 -0.002597 0.000000 -0.000754 0.000000
# 3 -0.002146 -0.002597 0.013819 0.000000 0.004556 0.000000
# 4 0.000000 0.000000 0.000000 0.034917 0.000000 0.006322
# 5 0.002881 -0.000754 0.004556 0.000000 0.041631 0.000000
# 6 0.000000 0.000000 0.000000 0.006322 0.000000 0.032513
#
#
# Mechanical properties :
#
#
# Convention : Reuss Voigt Hill
#
# Bulk Modulus (GPa) = 41.48736 43.57688 42.53212
# Shear Modulus (GPa) = 29.76282 31.28164 30.52223
#
# Velocity S-wave (km/s) = 3.81280 3.90887 3.86114
# Velocity P-wave (km/s) = 6.29662 6.45424 6.37592
#
# Compressibility (1/GPa) = 0.02410373
#
# Stress axis : x y z
#
# Youngs Moduli (GPa) = 87.72324 81.41623 72.36184
#
# Poissons Ratio (x) = 0.15930 0.15526
# Poissons Ratio (y) = 0.17164 0.18789
# Poissons Ratio (z) = 0.18822 0.21141
#
# Static dielectric constant tensor:
#      x y z
#    x 3.800580 0.000000 -0.107990 
#    y 0.000000 3.700510 0.000000 
#    z -0.107990 0.000000 3.855410 
# 
# 
# High freq. dielectric constant tensor:
#      x y z
#    x 1.804360 0.000000 -0.010020 
#    y 0.000000 1.806200 0.000000 
#    z -0.010020 0.000000 1.798230 
# 
# From -- ./inp_files/238786.got.cif
#   From: 2010.06.25/outbox.cif.g09.slc.cpg/sg12_120_cif.got.tgz:238786.got - 2010.06.28 00:19:55.
