data_PCOD8111032
_publ_section_title
;
Structure prediction by ZEFSAII (Michael W. Deem and Ramdas Pophale) SiO2 
 PCOD8111032
Probable space group: C 2/M
;
_chemical_formula_sum "Si O2"
_cell_formula_units_Z 48
_cell_length_a 22.992042
_cell_length_b 9.067497
_cell_length_c 23.041041
_cell_angle_alpha 90.000000
_cell_angle_beta 149.494019
_cell_angle_gamma 90.000000
_cell_volume 2438.444586
_symmetry_space_group_name_H-M "C 2/M"
_symmetry_group_IT_number 12
_symmetry_cell_setting 'monoclinic'
loop_
_space_group_symop_operation_xyz
x,y,z
-x,y,-z
-x,-y,-z
x,-y,z
1/2+x,1/2+y,z
1/2-x,1/2+y,-z
1/2-x,1/2-y,-z
1/2+x,1/2-y,z
loop_
_atom_site_type_symbol
_atom_site_label
_atom_site_fract_x
_atom_site_fract_y
_atom_site_fract_z
Si Si1 0.886373 0.325398 0.366670
Si Si2 0.300789 0.323647 0.182995
Si Si3 0.678423 0.332928 0.391568
Si Si4 0.673265 0.674851 0.259152
Si Si5 0.417005 0.675976 0.038164
Si Si6 0.083929 0.167292 0.832885
O O1 0.882897 0.500000 0.352953
O O2 0.885698 0.241283 0.304826
O O3 0.772940 0.268125 0.302708
O O4 0.000000 0.280794 0.500000
O O5 0.301557 0.500000 0.187647
O O6 0.343939 0.260870 0.157607
O O7 0.172625 0.258305 0.081071
O O8 0.721624 0.500000 0.427670
O O9 0.750000 0.250000 0.500000
O O10 0.696111 0.260702 0.343164
O O11 0.547556 0.321412 0.298276
O O12 0.676015 0.500000 0.266683
O O13 0.545591 0.720877 0.128161
O O14 0.400780 0.500000 0.019885
O O15 0.396320 0.737034 0.086318
O O16 0.123695 0.000000 0.872314
#
# Coordination Sequence:
#
# PCOD8111032 Si02
#       6
#     8   8   8   8   8   8
#     4  10  22  39  57  77 103 140 186 225 255 304
#     4  11  22  35  53  80 113 143 172 214 270 319
#     4   9  17  31  52  77 103 135 173 213 262 312
#     4   8  17  35  56  76 103 137 175 222 265 304
#     4   9  17  35  60  80 102 138 181 218 260 315
#     4   8  17  33  52  77 110 142 169 208 265 323
#
# _framework density 19.684678999999999
#
# number of rings (size 3 to 8) (size 9 to 14) (size 15 to 20)
#    0.000    2.833    0.000    3.000    2.333    1.000 
#    0.000   10.000    0.000    0.000    0.000    0.000 
#    0.000    0.000    0.000    0.000    0.000    0.000 
#
# Total GULP energy -297439.652756 kJ/mol
# GULP energy per Si atom -12393.318865 kJ/mol
# Density = 1.963988 g / cm^3
# Si number density = 19.684679 Si / 1000 Ang^3
#
#
#
# Elastic Constant Matrix: (Units=GPa)
#
#
# Indices 1 2 3 4 5 6 
#
# 1 85.0530 18.0158 36.7660 0.0000 15.4927 0.0000
# 2 18.0158 43.2593 37.7015 0.0000 -0.7014 0.0000
# 3 36.7660 37.7015 119.4619 0.0000 -5.7410 0.0000
# 4 0.0000 0.0000 0.0000 33.9396 0.0000 -6.6787
# 5 15.4927 -0.7014 -5.7410 0.0000 20.3610 0.0000
# 6 0.0000 0.0000 0.0000 -6.6787 0.0000 20.0006
#
#
#
# Elastic Compliance Matrix: (Units=1/GPa)
#
#
# Indices 1 2 3 4 5 6 
#
# 1 0.017255 -0.003009 -0.005065 0.000000 -0.014661 0.000000
# 2 -0.003009 0.032474 -0.009285 0.000000 0.000790 0.000000
# 3 -0.005065 -0.009285 0.013209 0.000000 0.007259 0.000000
# 4 0.000000 0.000000 0.000000 0.031536 0.000000 0.010531
# 5 -0.014661 0.000790 0.007259 0.000000 0.062343 0.000000
# 6 0.000000 0.000000 0.000000 0.010531 0.000000 0.053515
#
#
# Mechanical properties :
#
#
# Convention : Reuss Voigt Hill
#
# Bulk Modulus (GPa) = 35.43614 48.08229 41.75921
# Shear Modulus (GPa) = 19.64968 25.21298 22.43133
#
# Velocity S-wave (km/s) = 3.16289 3.58277 3.37936
# Velocity P-wave (km/s) = 5.60174 6.44936 6.04044
#
# Compressibility (1/GPa) = 0.02821978
#
# Stress axis : x y z
#
# Youngs Moduli (GPa) = 57.95434 30.79374 75.70715
#
# Poissons Ratio (x) = 0.09266 0.38348
# Poissons Ratio (y) = 0.17439 0.70291
# Poissons Ratio (z) = 0.29356 0.28591
#
# Static dielectric constant tensor:
#      x y z
#    x 3.703610 0.000000 0.072250 
#    y 0.000000 3.121450 0.000000 
#    z 0.072250 0.000000 3.599990 
# 
# 
# High freq. dielectric constant tensor:
#      x y z
#    x 1.769590 0.000000 0.001320 
#    y 0.000000 1.720060 0.000000 
#    z 0.001320 0.000000 1.777460 
# 
# From -- ./inp_files/348890.got.cif
#   From: 2010.06.25/outbox.cif.g09.slc.cpg/sg12_175_cif.got.tgz:348890.got - 2010.06.28 00:19:55.
