data_PCOD8111887
_publ_section_title
;
Structure prediction by ZEFSAII (Michael W. Deem and Ramdas Pophale) SiO2 
 PCOD8111887
Probable space group: C 2/M
;
_chemical_formula_sum "Si O2"
_cell_formula_units_Z 56
_cell_length_a 14.219918
_cell_length_b 21.515305
_cell_length_c 17.822987
_cell_angle_alpha 90.000000
_cell_angle_beta 150.133484
_cell_angle_gamma 90.000000
_cell_volume 2715.425505
_symmetry_space_group_name_H-M "C 2/M"
_symmetry_group_IT_number 12
_symmetry_cell_setting 'monoclinic'
loop_
_space_group_symop_operation_xyz
x,y,z
-x,y,-z
-x,-y,-z
x,-y,z
1/2+x,1/2+y,z
1/2-x,1/2+y,-z
1/2-x,1/2-y,-z
1/2+x,1/2-y,z
loop_
_atom_site_type_symbol
_atom_site_label
_atom_site_fract_x
_atom_site_fract_y
_atom_site_fract_z
Si Si1 0.091893 0.000000 0.180240
Si Si2 0.280294 0.569000 0.349304
Si Si3 0.829506 0.267172 0.172591
Si Si4 0.162368 0.322642 0.170241
Si Si5 0.791441 0.613240 0.389759
Si Si6 0.014294 0.780607 0.159687
Si Si7 0.077110 0.612856 0.354582
Si Si8 0.207364 0.500000 0.839350
O O1 0.151499 0.059423 0.268357
O O2 0.195733 0.000000 0.173490
O O3 0.865556 0.000000 0.013834
O O4 0.500000 0.559045 0.500000
O O5 0.184685 0.500000 0.277103
O O6 0.241374 0.610944 0.249423
O O7 0.214413 0.604012 0.379039
O O8 0.810113 0.225373 0.233999
O O9 0.899137 0.219097 0.157274
O O10 0.983427 0.319586 0.292883
O O11 0.629694 0.298641 0.008318
O O12 0.085639 0.289079 0.191973
O O13 0.000000 0.338685 0.000000
O O14 0.696198 0.675436 0.291403
O O15 0.798339 0.608748 0.484231
O O16 0.000000 0.605795 0.500000
O O17 0.916148 0.561353 0.238991
#
# Coordination Sequence:
#
# PCOD8111887 Si02
#       8
#     4   8   8   8   8   8   8   4
#     4  11  24  43  62  98 132 172 217 261 332 404
#     4  11  26  46  66  92 132 177 222 274 334 390
#     4  10  22  41  67  94 127 169 218 272 325 391
#     4  10  22  43  69  94 127 170 218 277 323 387
#     4  12  24  39  62  99 137 170 209 267 328 409
#     4  10  22  41  63  95 129 165 216 268 329 387
#     4  12  23  42  68  98 131 174 219 272 334 393
#     4  11  23  42  70  91 130 177 217 267 328 397
#
# _framework density 20.622919
#
# number of rings (size 3 to 8) (size 9 to 14) (size 15 to 20)
#    0.000    1.143    3.571    2.357    2.000    2.571 
#    0.000    0.000    0.000    0.000    0.000    0.000 
#    0.000    0.000    0.000    0.000    0.000    0.000 
#
# Total GULP energy -347175.291856 kJ/mol
# GULP energy per Si atom -12399.117566 kJ/mol
# Density = 2.057598 g / cm^3
# Si number density = 20.622919 Si / 1000 Ang^3
#
#
#
# Elastic Constant Matrix: (Units=GPa)
#
#
# Indices 1 2 3 4 5 6 
#
# 1 100.1755 37.7400 31.1840 -0.0214 -11.8510 -0.0021
# 2 37.7400 121.6882 65.9542 -0.0770 -12.9736 -0.0194
# 3 31.1840 65.9542 118.6875 -0.1223 -14.6710 -0.0309
# 4 -0.0214 -0.0770 -0.1223 21.3198 -0.0447 2.5680
# 5 -11.8510 -12.9736 -14.6710 -0.0447 25.7852 -0.0098
# 6 -0.0021 -0.0194 -0.0309 2.5680 -0.0098 35.7732
#
#
#
# Elastic Compliance Matrix: (Units=1/GPa)
#
#
# Indices 1 2 3 4 5 6 
#
# 1 0.011750 -0.002628 -0.001208 0.000003 0.003391 -0.000001
# 2 -0.002628 0.012483 -0.006044 0.000011 0.001634 0.000001
# 3 -0.001208 -0.006044 0.012539 0.000056 0.003538 0.000004
# 4 0.000003 0.000011 0.000056 0.047314 0.000119 -0.003396
# 5 0.003391 0.001634 0.003538 0.000119 0.043176 0.000007
# 6 -0.000001 0.000001 0.000004 -0.003396 0.000007 0.028198
#
#
# Mechanical properties :
#
#
# Convention : Reuss Voigt Hill
#
# Bulk Modulus (GPa) = 58.78264 67.81197 63.29731
# Shear Modulus (GPa) = 27.64117 30.28717 28.96417
#
# Velocity S-wave (km/s) = 3.66500 3.83641 3.75169
# Velocity P-wave (km/s) = 6.81726 7.25102 7.03748
#
# Compressibility (1/GPa) = 0.01701182
#
# Stress axis : x y z
#
# Youngs Moduli (GPa) = 85.10932 80.10966 79.75142
#
# Poissons Ratio (x) = 0.21053 0.09631
# Poissons Ratio (y) = 0.22366 0.48204
# Poissons Ratio (z) = 0.10278 0.48420
#
# Static dielectric constant tensor:
#      x y z
#    x 3.814480 -0.000010 -0.045360 
#    y -0.000010 4.051580 -0.000120 
#    z -0.045360 -0.000120 3.824600 
# 
# 
# High freq. dielectric constant tensor:
#      x y z
#    x 1.812800 0.000000 -0.002410 
#    y 0.000000 1.808410 0.000000 
#    z -0.002410 0.000000 1.806980 
# 
# From -- ./inp_files/272448.got.cif
#   From: 2010.06.25/outbox.cif.g09.slc.cpg/sg12_137_cif.got.tgz:272448.got - 2010.06.28 00:19:55.
