data_PCOD8111784
_publ_section_title
;
Structure prediction by ZEFSAII (Michael W. Deem and Ramdas Pophale) SiO2 
 PCOD8111784
Probable space group: C 2/M
;
_chemical_formula_sum "Si O2"
_cell_formula_units_Z 56
_cell_length_a 15.245694
_cell_length_b 8.971944
_cell_length_c 25.853307
_cell_angle_alpha 90.000000
_cell_angle_beta 125.432182
_cell_angle_gamma 90.000000
_cell_volume 2881.390368
_symmetry_space_group_name_H-M "C 2/M"
_symmetry_group_IT_number 12
_symmetry_cell_setting 'monoclinic'
loop_
_space_group_symop_operation_xyz
x,y,z
-x,y,-z
-x,-y,-z
x,-y,z
1/2+x,1/2+y,z
1/2-x,1/2+y,-z
1/2-x,1/2-y,-z
1/2+x,1/2-y,z
loop_
_atom_site_type_symbol
_atom_site_label
_atom_site_fract_x
_atom_site_fract_y
_atom_site_fract_z
Si Si1 0.331470 0.323567 0.436937
Si Si2 0.488690 0.676529 0.579210
Si Si3 0.342881 0.825030 0.999104
Si Si4 0.964738 0.826714 0.215169
Si Si5 0.717535 0.827135 0.137856
Si Si6 0.471221 0.674298 0.878977
Si Si7 0.410399 0.176695 0.652958
O O1 0.329636 0.500000 0.436502
O O2 0.400590 0.272117 0.410694
O O3 0.388795 0.269723 0.509354
O O4 0.211100 0.258563 0.392972
O O5 0.486468 0.500000 0.587370
O O6 0.483128 0.757532 0.632115
O O7 0.458183 0.762019 0.054918
O O8 0.338764 0.000000 0.007814
O O9 0.250000 0.750000 0.000000
O O10 0.324042 0.786367 0.933162
O O11 0.842228 0.784917 0.186224
O O12 0.987767 0.785313 0.163902
O O13 0.042577 0.727385 0.276427
O O14 0.987901 0.000000 0.233734
O O15 0.651727 0.728566 0.156626
O O16 0.698747 0.000000 0.143818
O O17 0.481200 0.500000 0.893311
O O18 0.411424 0.000000 0.649935
#
# Coordination Sequence:
#
# PCOD8111784 Si02
#       7
#     8   8   8   8   8   8   8
#     4   8  17  34  57  83 112 145 185 227 273 339
#     4   9  17  35  60  82 108 149 188 222 276 338
#     4  11  21  37  62  89 118 150 187 236 290 341
#     4  10  23  43  58  75 112 156 193 229 277 339
#     4  10  22  41  61  83 113 150 189 232 286 344
#     4  11  23  40  61  88 116 147 190 238 287 343
#     4  11  22  35  54  84 115 143 185 236 281 326
#
# _framework density 19.435061999999999
#
# number of rings (size 3 to 8) (size 9 to 14) (size 15 to 20)
#    0.000    2.000    1.429    3.000    0.000    5.714 
#    0.000    7.857    0.000    0.000    0.000    0.000 
#    0.000    0.000    0.000    0.000    0.000    0.000 
#
# Total GULP energy -347283.355132 kJ/mol
# GULP energy per Si atom -12402.976969 kJ/mol
# Density = 1.939083 g / cm^3
# Si number density = 19.435062 Si / 1000 Ang^3
#
#
#
# Elastic Constant Matrix: (Units=GPa)
#
#
# Indices 1 2 3 4 5 6 
#
# 1 94.3696 24.0214 16.8600 0.0000 6.7251 0.0000
# 2 24.0214 50.4187 25.8158 0.0000 -1.3764 0.0000
# 3 16.8600 25.8158 71.9690 0.0000 8.8029 0.0000
# 4 0.0000 0.0000 0.0000 32.7491 0.0000 -0.5734
# 5 6.7251 -1.3764 8.8029 0.0000 17.2098 0.0000
# 6 0.0000 0.0000 0.0000 -0.5734 0.0000 32.9714
#
#
#
# Elastic Compliance Matrix: (Units=1/GPa)
#
#
# Indices 1 2 3 4 5 6 
#
# 1 0.012539 -0.006063 -0.000111 0.000000 -0.005328 0.000000
# 2 -0.006063 0.028004 -0.009802 0.000000 0.009623 0.000000
# 3 -0.000111 -0.009802 0.018697 0.000000 -0.010304 0.000000
# 4 0.000000 0.000000 0.000000 0.030545 0.000000 0.000531
# 5 -0.005328 0.009623 -0.010304 0.000000 0.066229 0.000000
# 6 0.000000 0.000000 0.000000 0.000531 0.000000 0.030339
#
#
# Mechanical properties :
#
#
# Convention : Reuss Voigt Hill
#
# Bulk Modulus (GPa) = 36.64471 38.90575 37.77523
# Shear Modulus (GPa) = 21.98763 26.59005 24.28884
#
# Velocity S-wave (km/s) = 3.36719 3.70286 3.53901
# Velocity P-wave (km/s) = 5.83208 6.19220 6.01484
#
# Compressibility (1/GPa) = 0.02728907
#
# Stress axis : x y z
#
# Youngs Moduli (GPa) = 79.74821 35.70915 53.48375
#
# Poissons Ratio (x) = 0.21650 0.00594
# Poissons Ratio (y) = 0.48350 0.52424
# Poissons Ratio (z) = 0.00886 0.35002
#
# Static dielectric constant tensor:
#      x y z
#    x 3.774490 0.000000 0.170240 
#    y 0.000000 3.340310 0.000000 
#    z 0.170240 0.000000 3.524210 
# 
# 
# High freq. dielectric constant tensor:
#      x y z
#    x 1.772660 0.000000 0.000860 
#    y 0.000000 1.741460 0.000000 
#    z 0.000860 0.000000 1.752760 
# 
# From -- ./inp_files/309060.got.cif
#   From: 2010.06.25/outbox.cif.g09.slc.cpg/sg12_155_cif.got.tgz:309060.got - 2010.06.28 00:19:55.
