data_PCOD8111518
_publ_section_title
;
Structure prediction by ZEFSAII (Michael W. Deem and Ramdas Pophale) SiO2 
 PCOD8111518
Probable space group: C 2/M
;
_chemical_formula_sum "Si O2"
_cell_formula_units_Z 56
_cell_length_a 17.623996
_cell_length_b 8.512241
_cell_length_c 28.629374
_cell_angle_alpha 90.000000
_cell_angle_beta 141.148675
_cell_angle_gamma 90.000000
_cell_volume 2694.241996
_symmetry_space_group_name_H-M "C 2/M"
_symmetry_group_IT_number 12
_symmetry_cell_setting 'monoclinic'
loop_
_space_group_symop_operation_xyz
x,y,z
-x,y,-z
-x,-y,-z
x,-y,z
1/2+x,1/2+y,z
1/2-x,1/2+y,-z
1/2-x,1/2-y,-z
1/2+x,1/2-y,z
loop_
_atom_site_type_symbol
_atom_site_label
_atom_site_fract_x
_atom_site_fract_y
_atom_site_fract_z
Si Si1 0.589822 0.682641 0.140828
Si Si2 0.439915 0.320062 0.423278
Si Si3 0.315443 0.681823 0.712521
Si Si4 0.121375 0.819024 0.425574
Si Si5 0.759253 0.816484 0.144801
Si Si6 0.668684 0.816929 0.001932
Si Si7 0.984259 0.681160 0.717515
O O1 0.557196 0.500000 0.123248
O O2 0.635579 0.733461 0.213582
O O3 0.694738 0.720000 0.154555
O O4 0.471253 0.780467 0.072045
O O5 0.500000 0.261766 0.500000
O O6 0.395884 0.500000 0.406606
O O7 0.327245 0.210274 0.357498
O O8 0.537509 0.299847 0.429955
O O9 0.342801 0.500000 0.715727
O O10 0.379434 0.787515 0.704507
O O11 0.250000 0.750000 0.500000
O O12 0.064849 0.718639 0.357061
O O13 0.133671 0.000000 0.415989
O O14 0.902129 0.790256 0.216125
O O15 0.729903 0.000000 0.136940
O O16 0.711783 0.750059 0.072539
O O17 0.690437 0.000000 0.012257
O O18 0.750000 0.750000 0.000000
O O19 0.023406 0.500000 0.738470
#
# Coordination Sequence:
#
# PCOD8111518 Si02
#       7
#     8   8   8   8   8   8   8
#     4  11  24  41  63  92 124 159 202 251 305 368
#     4  10  22  40  62  90 122 157 199 246 298 359
#     4  11  24  41  62  90 122 157 201 252 304 360
#     4  11  23  40  64  93 127 164 203 251 304 360
#     4  11  24  42  63  90 124 160 203 253 304 361
#     4  11  24  41  63  91 123 161 204 252 306 364
#     4  12  25  41  63  90 122 162 207 252 303 363
#
# _framework density 20.785067000000002
#
# number of rings (size 3 to 8) (size 9 to 14) (size 15 to 20)
#    0.000    1.000    0.000    6.429    0.000   14.571 
#    0.000    0.000    0.000    0.000    0.000    0.000 
#    0.000    0.000    0.000    0.000    0.000    0.000 
#
# Total GULP energy -347438.566027 kJ/mol
# GULP energy per Si atom -12408.520215 kJ/mol
# Density = 2.073776 g / cm^3
# Si number density = 20.785067 Si / 1000 Ang^3
#
#
#
# Elastic Constant Matrix: (Units=GPa)
#
#
# Indices 1 2 3 4 5 6 
#
# 1 102.6902 26.9895 41.4068 0.0000 -7.8317 0.0000
# 2 26.9895 57.6605 25.1604 0.0001 -11.8368 -0.0001
# 3 41.4068 25.1604 155.9686 0.0000 -9.3670 0.0000
# 4 0.0000 0.0001 0.0000 33.6857 0.0000 2.4768
# 5 -7.8317 -11.8368 -9.3670 0.0000 46.2163 0.0000
# 6 0.0000 -0.0001 0.0000 2.4768 0.0000 32.1724
#
#
#
# Elastic Compliance Matrix: (Units=1/GPa)
#
#
# Indices 1 2 3 4 5 6 
#
# 1 0.011911 -0.004438 -0.002423 0.000000 0.000391 0.000000
# 2 -0.004438 0.021159 -0.001979 0.000000 0.004266 0.000000
# 3 -0.002423 -0.001979 0.007409 0.000000 0.000584 0.000000
# 4 0.000000 0.000000 0.000000 0.029855 0.000000 -0.002298
# 5 0.000391 0.004266 0.000584 0.000000 0.022915 0.000000
# 6 0.000000 0.000000 0.000000 -0.002298 0.000000 0.031259
#
#
# Mechanical properties :
#
#
# Convention : Reuss Voigt Hill
#
# Bulk Modulus (GPa) = 43.85904 55.93696 49.89800
# Shear Modulus (GPa) = 33.38040 37.26573 35.32307
#
# Velocity S-wave (km/s) = 4.01182 4.23887 4.12690
# Velocity P-wave (km/s) = 6.52737 7.13638 6.83866
#
# Compressibility (1/GPa) = 0.02280031
#
# Stress axis : x y z
#
# Youngs Moduli (GPa) = 83.95498 47.26015 134.96936
#
# Poissons Ratio (x) = 0.20974 0.32701
# Poissons Ratio (y) = 0.37258 0.26710
# Poissons Ratio (z) = 0.20341 0.09353
#
# Static dielectric constant tensor:
#      x y z
#    x 3.869660 0.000000 -0.072330 
#    y 0.000000 3.738760 0.000000 
#    z -0.072330 0.000000 4.374800 
# 
# 
# High freq. dielectric constant tensor:
#      x y z
#    x 1.830550 0.000000 -0.003350 
#    y 0.000000 1.818170 0.000000 
#    z -0.003350 0.000000 1.831810 
# 
# From -- ./inp_files/363184.got.cif
#   From: 2010.06.25/outbox.cif.g09.slc.cpg/sg12_182_cif.got.tgz:363184.got - 2010.06.28 00:19:55.
