data_PCOD8111185
_publ_section_title
;
Structure prediction by ZEFSAII (Michael W. Deem and Ramdas Pophale) SiO2 
 PCOD8111185
Probable space group: C 2/M
;
_chemical_formula_sum "Si O2"
_cell_formula_units_Z 48
_cell_length_a 13.438239
_cell_length_b 18.135657
_cell_length_c 15.004257
_cell_angle_alpha 90.000000
_cell_angle_beta 146.473338
_cell_angle_gamma 90.000000
_cell_volume 2019.690500
_symmetry_space_group_name_H-M "C 2/M"
_symmetry_group_IT_number 12
_symmetry_cell_setting 'monoclinic'
loop_
_space_group_symop_operation_xyz
x,y,z
-x,y,-z
-x,-y,-z
x,-y,z
1/2+x,1/2+y,z
1/2-x,1/2+y,-z
1/2-x,1/2-y,-z
1/2+x,1/2-y,z
loop_
_atom_site_type_symbol
_atom_site_label
_atom_site_fract_x
_atom_site_fract_y
_atom_site_fract_z
Si Si1 0.559491 0.085831 0.680244
Si Si2 0.959033 0.583322 0.121781
Si Si3 0.670620 0.306124 0.870402
Si Si4 0.302533 0.337301 0.384374
Si Si5 0.797006 0.786338 0.810121
Si Si6 0.217135 0.169394 0.436731
O O1 0.565285 0.095040 0.790575
O O2 0.731528 0.128836 0.766106
O O3 0.378653 0.126126 0.506412
O O4 0.565426 0.000000 0.655200
O O5 0.948747 0.500000 0.084723
O O6 0.143599 0.616379 0.218595
O O7 0.793992 0.623071 0.950537
O O8 0.660709 0.263874 0.768055
O O9 0.473911 0.333182 0.758173
O O10 0.750000 0.250000 0.000000
O O11 0.500000 0.355495 0.500000
O O12 0.239851 0.249658 0.317361
O O13 0.305045 0.371031 0.485088
O O14 0.000000 0.779447 0.000000
O O15 0.250000 0.250000 0.500000
#
# Coordination Sequence:
#
# PCOD8111185 Si02
#       6
#     8   8   8   8   8   8
#     4  10  22  42  63  92 128 164 210 259 308 369
#     4  10  22  39  61  90 127 163 204 260 314 370
#     4  12  21  38  64  94 119 160 215 252 304 373
#     4  11  21  37  60  91 125 158 206 253 312 371
#     4  12  23  37  64  94 124 164 204 260 310 370
#     4  11  21  37  66  90 115 164 209 255 302 364
#
# _framework density 23.766017000000002
#
# number of rings (size 3 to 8) (size 9 to 14) (size 15 to 20)
#    0.000    1.000    6.667    1.000    0.000    1.333 
#    0.000    1.667    0.000    4.500    0.000    0.000 
#    0.000    0.000    0.000    0.000    0.000    0.000 
#
# Total GULP energy -297376.358865 kJ/mol
# GULP energy per Si atom -12390.681619 kJ/mol
# Density = 2.371192 g / cm^3
# Si number density = 23.766017 Si / 1000 Ang^3
#
#
#
# Elastic Constant Matrix: (Units=GPa)
#
#
# Indices 1 2 3 4 5 6 
#
# 1 24.6211 7.1727 14.9959 0.0014 10.4917 0.0004
# 2 7.1727 160.0665 45.2441 -0.0026 18.8802 0.0010
# 3 14.9959 45.2441 136.7025 0.0091 26.6833 0.0046
# 4 0.0014 -0.0026 0.0091 33.9750 0.0040 11.2056
# 5 10.4917 18.8802 26.6833 0.0040 40.8223 0.0020
# 6 0.0004 0.0010 0.0046 11.2056 0.0020 29.9068
#
#
#
# Elastic Compliance Matrix: (Units=1/GPa)
#
#
# Indices 1 2 3 4 5 6 
#
# 1 0.046796 -0.000025 -0.003186 0.000000 -0.009933 0.000001
# 2 -0.000025 0.007030 -0.001938 0.000001 -0.001978 0.000000
# 3 -0.003186 -0.001938 0.009137 -0.000002 -0.004257 0.000000
# 4 0.000000 0.000001 -0.000002 0.033584 -0.000002 -0.012583
# 5 -0.009933 -0.001978 -0.004257 -0.000002 0.030747 0.000000
# 6 0.000001 0.000000 0.000000 -0.012583 0.000000 0.038152
#
#
# Mechanical properties :
#
#
# Convention : Reuss Voigt Hill
#
# Bulk Modulus (GPa) = 18.98795 50.69062 34.83928
# Shear Modulus (GPa) = 25.86681 37.87264 31.86973
#
# Velocity S-wave (km/s) = 3.30266 3.99628 3.66591
# Velocity P-wave (km/s) = 4.74872 6.53215 5.71049
#
# Compressibility (1/GPa) = 0.05266498
#
# Stress axis : x y z
#
# Youngs Moduli (GPa) = 21.36926 142.25650 109.44516
#
# Poissons Ratio (x) = 0.00352 0.34874
# Poissons Ratio (y) = 0.00053 0.21207
# Poissons Ratio (z) = 0.06809 0.27565
#
# Static dielectric constant tensor:
#      x y z
#    x 4.074520 -0.000030 0.818260 
#    y -0.000030 4.091880 0.000020 
#    z 0.818260 0.000020 3.877630 
# 
# 
# High freq. dielectric constant tensor:
#      x y z
#    x 1.946660 0.000000 0.004400 
#    y 0.000000 1.915480 0.000000 
#    z 0.004400 0.000000 1.954840 
# 
# From -- ./inp_files/89026.got.cif
#   From: 2010.06.25/outbox.cif.g09.slc.cpg/sg12_45_cif.got.tgz:89026.got - 2010.06.28 00:19:55.
