data_PCOD8111276
_publ_section_title
;
Structure prediction by ZEFSAII (Michael W. Deem and Ramdas Pophale) SiO2 
 PCOD8111276
Probable space group: C 2/M
;
_chemical_formula_sum "Si O2"
_cell_formula_units_Z 48
_cell_length_a 9.977690
_cell_length_b 29.125207
_cell_length_c 8.147017
_cell_angle_alpha 90.000000
_cell_angle_beta 97.978308
_cell_angle_gamma 90.000000
_cell_volume 2344.625595
_symmetry_space_group_name_H-M "C 2/M"
_symmetry_group_IT_number 12
_symmetry_cell_setting 'monoclinic'
loop_
_space_group_symop_operation_xyz
x,y,z
-x,y,-z
-x,-y,-z
x,-y,z
1/2+x,1/2+y,z
1/2-x,1/2+y,-z
1/2-x,1/2-y,-z
1/2+x,1/2-y,z
loop_
_atom_site_type_symbol
_atom_site_label
_atom_site_fract_x
_atom_site_fract_y
_atom_site_fract_z
Si Si1 0.602882 0.947881 0.286056
Si Si2 0.143774 0.363371 0.096892
Si Si3 0.870809 0.126785 0.880931
Si Si4 0.400301 0.701490 0.624023
Si Si5 0.118311 0.695851 0.408273
Si Si6 0.200288 0.552857 0.661010
O O1 0.655252 0.917122 0.145321
O O2 0.444161 0.937606 0.280930
O O3 0.686475 0.936751 0.465238
O O4 0.626987 0.000000 0.236877
O O5 0.164177 0.334928 0.265355
O O6 0.259152 0.352816 0.985274
O O7 0.000000 0.349445 0.000000
O O8 0.924210 0.169917 0.785758
O O9 0.811945 0.086443 0.756344
O O10 0.000000 0.106617 0.000000
O O11 0.500000 0.682944 0.500000
O O12 0.244439 0.699446 0.549557
O O13 0.434191 0.754844 0.667893
O O14 0.000000 0.672899 0.500000
O O15 0.244213 0.500000 0.696147
#
# Coordination Sequence:
#
# PCOD8111276 Si02
#       6
#     8   8   8   8   8   8
#     4   9  19  37  63  89 116 153 200 250 295 343
#     4  12  23  35  59  94 122 151 192 250 304 347
#     4  12  25  38  57  89 129 161 189 238 307 366
#     4  10  22  43  62  81 113 163 205 240 293 353
#     4  10  22  39  64  87 112 152 208 254 283 343
#     4   9  19  38  62  87 116 157 204 245 287 346
#
# _framework density 20.472352000000001
#
# number of rings (size 3 to 8) (size 9 to 14) (size 15 to 20)
#    0.000    1.667    1.667    4.000    2.333    2.667 
#    0.000    0.000    0.000    2.500    0.000    0.000 
#    0.000    0.000    0.000    0.000    0.000    0.000 
#
# Total GULP energy -297666.380722 kJ/mol
# GULP energy per Si atom -12402.765863 kJ/mol
# Density = 2.042576 g / cm^3
# Si number density = 20.472352 Si / 1000 Ang^3
#
#
#
# Elastic Constant Matrix: (Units=GPa)
#
#
# Indices 1 2 3 4 5 6 
#
# 1 99.3140 16.6565 28.0998 0.0000 -2.9166 0.0000
# 2 16.6565 80.2179 35.6208 0.0000 -0.7287 0.0000
# 3 28.0998 35.6208 69.7925 0.0000 -8.3419 0.0000
# 4 0.0000 0.0000 0.0000 13.8254 0.0000 -8.1402
# 5 -2.9166 -0.7287 -8.3419 0.0000 46.7198 0.0000
# 6 0.0000 0.0000 0.0000 -8.1402 0.0000 17.7747
#
#
#
# Elastic Compliance Matrix: (Units=1/GPa)
#
#
# Indices 1 2 3 4 5 6 
#
# 1 0.011375 -0.000420 -0.004375 0.000000 -0.000078 0.000000
# 2 -0.000420 0.016206 -0.008251 0.000000 -0.001247 0.000000
# 3 -0.004375 -0.008251 0.020694 0.000000 0.003293 0.000000
# 4 0.000000 0.000000 0.000000 0.099035 0.000000 0.045355
# 5 -0.000078 -0.001247 0.003293 0.000000 0.021968 0.000000
# 6 0.000000 0.000000 0.000000 0.045355 0.000000 0.077031
#
#
# Mechanical properties :
#
#
# Convention : Reuss Voigt Hill
#
# Bulk Modulus (GPa) = 45.07833 45.56429 45.32131
# Shear Modulus (GPa) = 17.87021 26.92713 22.39867
#
# Velocity S-wave (km/s) = 2.95768 3.63063 3.31130
# Velocity P-wave (km/s) = 5.80782 6.31507 6.06675
#
# Compressibility (1/GPa) = 0.02218361
#
# Stress axis : x y z
#
# Youngs Moduli (GPa) = 87.91197 61.70625 48.32238
#
# Poissons Ratio (x) = 0.02592 0.21140
# Poissons Ratio (y) = 0.03693 0.39871
# Poissons Ratio (z) = 0.38459 0.50914
#
# Static dielectric constant tensor:
#      x y z
#    x 3.561730 0.000000 0.010740 
#    y 0.000000 3.814670 0.000000 
#    z 0.010740 0.000000 3.670560 
# 
# 
# High freq. dielectric constant tensor:
#      x y z
#    x 1.789240 0.000000 0.001570 
#    y 0.000000 1.803510 0.000000 
#    z 0.001570 0.000000 1.802980 
# 
# From -- ./inp_files/42214.got.cif
#   From: 2010.06.25/outbox.cif.g09.slc.cpg/sg12_22_cif.got.tgz:42214.got - 2010.06.28 00:19:55.
