data_PCOD8111724
_publ_section_title
;
Structure prediction by ZEFSAII (Michael W. Deem and Ramdas Pophale) SiO2 
 PCOD8111724
Probable space group: C 2/M
;
_chemical_formula_sum "Si O2"
_cell_formula_units_Z 56
_cell_length_a 29.337823
_cell_length_b 19.293535
_cell_length_c 9.280560
_cell_angle_alpha 90.000000
_cell_angle_beta 149.890621
_cell_angle_gamma 90.000000
_cell_volume 2635.219078
_symmetry_space_group_name_H-M "C 2/M"
_symmetry_group_IT_number 12
_symmetry_cell_setting 'monoclinic'
loop_
_space_group_symop_operation_xyz
x,y,z
-x,y,-z
-x,-y,-z
x,-y,z
1/2+x,1/2+y,z
1/2-x,1/2+y,-z
1/2-x,1/2-y,-z
1/2+x,1/2-y,z
loop_
_atom_site_type_symbol
_atom_site_label
_atom_site_fract_x
_atom_site_fract_y
_atom_site_fract_z
Si Si1 0.106416 0.079091 0.277011
Si Si2 0.090893 0.670719 0.318963
Si Si3 0.243702 0.575866 0.091015
Si Si4 0.406502 0.315362 0.180005
Si Si5 0.847165 0.217578 0.726798
Si Si6 0.093927 0.683725 0.669106
Si Si7 0.756355 0.921985 0.787622
O O1 0.157180 0.087642 0.568775
O O2 0.156826 0.134633 0.312643
O O3 0.117600 0.000000 0.248185
O O4 0.000000 0.097612 0.000000
O O5 0.112769 0.744693 0.304644
O O6 0.080405 0.677229 0.461598
O O7 0.166711 0.614956 0.482899
O O8 0.000000 0.640350 0.000000
O O9 0.205914 0.500000 0.030385
O O10 0.167260 0.629930 0.932381
O O11 0.259423 0.580940 0.966203
O O12 0.500000 0.344587 0.500000
O O13 0.366718 0.260500 0.187952
O O14 0.414898 0.273654 0.050178
O O15 0.343014 0.379861 0.970928
O O16 0.750000 0.250000 0.500000
O O17 0.000000 0.674013 0.500000
O O18 0.760270 0.000000 0.738001
#
# Coordination Sequence:
#
# PCOD8111724 Si02
#       7
#     8   8   8   8   8   8   8
#     4  10  23  40  62  92 129 173 219 269 325 387
#     4  11  23  41  68  95 128 170 210 269 326 375
#     4   9  20  38  62  90 124 166 213 261 318 383
#     4  11  24  40  63  93 129 168 214 262 318 379
#     4  12  24  42  63  98 134 169 217 271 323 390
#     4  10  22  40  66  95 127 163 218 262 322 385
#     4  10  23  41  62  91 126 171 217 258 320 387
#
# _framework density 21.250603999999999
#
# number of rings (size 3 to 8) (size 9 to 14) (size 15 to 20)
#    0.000    1.571    1.429    3.000    4.000    2.571 
#    0.000    0.000    0.000    0.000    0.000    0.000 
#    0.000    0.000    0.000    0.000    0.000    0.000 
#
# Total GULP energy -347038.202463 kJ/mol
# GULP energy per Si atom -12394.221517 kJ/mol
# Density = 2.120224 g / cm^3
# Si number density = 21.250604 Si / 1000 Ang^3
#
#
#
# Elastic Constant Matrix: (Units=GPa)
#
#
# Indices 1 2 3 4 5 6 
#
# 1 77.8580 47.8928 46.1800 0.0000 6.9290 0.0000
# 2 47.8928 154.3298 71.3618 0.0000 14.7751 0.0000
# 3 46.1800 71.3618 160.0523 0.0000 4.1009 0.0000
# 4 0.0000 0.0000 0.0000 21.7379 0.0000 -5.8342
# 5 6.9290 14.7751 4.1009 0.0000 31.7296 0.0000
# 6 0.0000 0.0000 0.0000 -5.8342 0.0000 5.2867
#
#
#
# Elastic Compliance Matrix: (Units=1/GPa)
#
#
# Indices 1 2 3 4 5 6 
#
# 1 0.017188 -0.003659 -0.003286 0.000000 -0.001625 0.000000
# 2 -0.003659 0.009310 -0.003015 0.000000 -0.003147 0.000000
# 3 -0.003286 -0.003015 0.008514 0.000000 0.001021 0.000000
# 4 0.000000 0.000000 0.000000 0.065362 0.000000 0.072130
# 5 -0.001625 -0.003147 0.001021 0.000000 0.033205 0.000000
# 6 0.000000 0.000000 0.000000 0.072130 0.000000 0.268753
#
#
# Mechanical properties :
#
#
# Convention : Reuss Voigt Hill
#
# Bulk Modulus (GPa) = 66.25653 80.34550 73.30102
# Shear Modulus (GPa) = 11.70184 26.87121 19.28653
#
# Velocity S-wave (km/s) = 2.34916 3.55983 3.01587
# Velocity P-wave (km/s) = 6.21324 7.40183 6.83343
#
# Compressibility (1/GPa) = 0.01509285
#
# Stress axis : x y z
#
# Youngs Moduli (GPa) = 58.17861 107.40669 117.45007
#
# Poissons Ratio (x) = 0.39298 0.38599
# Poissons Ratio (y) = 0.21287 0.35410
# Poissons Ratio (z) = 0.19120 0.32382
#
# Static dielectric constant tensor:
#      x y z
#    x 3.644270 0.000000 -0.125960 
#    y 0.000000 4.193380 0.000000 
#    z -0.125960 0.000000 4.098910 
# 
# 
# High freq. dielectric constant tensor:
#      x y z
#    x 1.819010 0.000000 -0.010570 
#    y 0.000000 1.837330 0.000000 
#    z -0.010570 0.000000 1.851050 
# 
# From -- ./inp_files/113400.got.cif
#   From: 2010.06.25/outbox.cif.g09.slc.cpg/sg12_57_cif.got.tgz:113400.got - 2010.06.28 00:19:55.
