data_PCOD8111216
_publ_section_title
;
Structure prediction by ZEFSAII (Michael W. Deem and Ramdas Pophale) SiO2 
 PCOD8111216
Probable space group: C 2/M
;
_chemical_formula_sum "Si O2"
_cell_formula_units_Z 56
_cell_length_a 20.048333
_cell_length_b 8.643051
_cell_length_c 16.346959
_cell_angle_alpha 90.000000
_cell_angle_beta 91.232561
_cell_angle_gamma 90.000000
_cell_volume 2831.925459
_symmetry_space_group_name_H-M "C 2/M"
_symmetry_group_IT_number 12
_symmetry_cell_setting 'monoclinic'
loop_
_space_group_symop_operation_xyz
x,y,z
-x,y,-z
-x,-y,-z
x,-y,z
1/2+x,1/2+y,z
1/2-x,1/2+y,-z
1/2-x,1/2-y,-z
1/2+x,1/2-y,z
loop_
_atom_site_type_symbol
_atom_site_label
_atom_site_fract_x
_atom_site_fract_y
_atom_site_fract_z
Si Si1 0.676775 0.681822 0.488156
Si Si2 0.630355 0.178385 0.321127
Si Si3 0.868128 0.316746 0.353283
Si Si4 0.263254 0.322983 0.233052
Si Si5 0.508916 0.183355 0.752589
Si Si6 0.301289 0.818914 0.065015
Si Si7 0.951156 0.315334 0.069042
O O1 0.679845 0.500000 0.503274
O O2 0.750000 0.750000 0.500000
O O3 0.647698 0.716317 0.398565
O O4 0.627665 0.760555 0.553091
O O5 0.685478 0.194068 0.251947
O O6 0.562091 0.244011 0.280961
O O7 0.623747 0.000000 0.349545
O O8 0.859214 0.500000 0.348271
O O9 0.804077 0.236015 0.311944
O O10 0.934379 0.260247 0.308580
O O11 0.281677 0.500000 0.213906
O O12 0.279600 0.218524 0.156084
O O13 0.524178 0.251181 0.843025
O O14 0.508061 0.000000 0.757717
O O15 0.375994 0.755278 0.050241
O O16 0.300732 0.000000 0.052820
O O17 0.250000 0.750000 0.000000
O O18 0.952335 0.500000 0.070459
O O19 0.000000 0.250350 0.000000
#
# Coordination Sequence:
#
# PCOD8111216 Si02
#       7
#     8   8   8   8   8   8   8
#     4  12  24  39  60  88 122 158 202 249 302 357
#     4  10  22  39  62  90 120 156 204 250 296 354
#     4  11  21  38  64  89 119 157 201 248 298 354
#     4  11  22  37  61  90 121 159 201 244 296 355
#     4   9  19  37  60  88 118 157 202 244 293 357
#     4  11  23  39  61  90 122 155 199 249 302 355
#     4   9  18  34  60  88 115 151 198 246 289 346
#
# _framework density 19.774532000000001
#
# number of rings (size 3 to 8) (size 9 to 14) (size 15 to 20)
#    0.000    1.571    2.857    2.571    2.000    1.143 
#    0.000    4.286    0.000    1.714    0.000    0.000 
#    0.000    0.000    0.000    0.000    0.000    0.000 
#
# Total GULP energy -347296.609822 kJ/mol
# GULP energy per Si atom -12403.450351 kJ/mol
# Density = 1.972952 g / cm^3
# Si number density = 19.774532 Si / 1000 Ang^3
#
#
#
# Elastic Constant Matrix: (Units=GPa)
#
#
# Indices 1 2 3 4 5 6 
#
# 1 162.7313 39.7229 75.2807 0.0000 2.3263 0.0000
# 2 39.7229 46.2432 17.9712 0.0000 -0.3607 0.0000
# 3 75.2807 17.9712 127.1001 0.0000 -7.3373 0.0000
# 4 0.0000 0.0000 0.0000 33.6512 0.0000 1.8055
# 5 2.3263 -0.3607 -7.3373 0.0000 40.1508 0.0000
# 6 0.0000 0.0000 0.0000 1.8055 0.0000 22.7216
#
#
#
# Elastic Compliance Matrix: (Units=1/GPa)
#
#
# Indices 1 2 3 4 5 6 
#
# 1 0.010223 -0.006777 -0.005189 0.000000 -0.001601 0.000000
# 2 -0.006777 0.027381 0.000181 0.000000 0.000672 0.000000
# 3 -0.005189 0.000181 0.011050 0.000000 0.002322 0.000000
# 4 0.000000 0.000000 0.000000 0.029844 0.000000 -0.002372
# 5 -0.001601 0.000672 0.002322 0.000000 0.025429 0.000000
# 6 0.000000 0.000000 0.000000 -0.002372 0.000000 0.044199
#
#
# Mechanical properties :
#
#
# Convention : Reuss Voigt Hill
#
# Bulk Modulus (GPa) = 39.86649 66.89158 53.37903
# Shear Modulus (GPa) = 27.76888 32.84470 30.30679
#
# Velocity S-wave (km/s) = 3.75143 4.07991 3.91911
# Velocity P-wave (km/s) = 6.24248 7.48964 6.89432
#
# Compressibility (1/GPa) = 0.02508373
#
# Stress axis : x y z
#
# Youngs Moduli (GPa) = 97.81983 36.52132 90.50038
#
# Poissons Ratio (x) = 0.24752 0.46962
# Poissons Ratio (y) = 0.66296 -0.01642
# Poissons Ratio (z) = 0.50760 -0.00663
#
# Static dielectric constant tensor:
#      x y z
#    x 4.014340 0.000000 -0.169050 
#    y 0.000000 3.339610 0.000000 
#    z -0.169050 0.000000 3.945110 
# 
# 
# High freq. dielectric constant tensor:
#      x y z
#    x 1.779770 0.000000 -0.005260 
#    y 0.000000 1.747030 0.000000 
#    z -0.005260 0.000000 1.781860 
# 
# From -- ./inp_files/230854.got.cif
#   From: 2010.06.25/outbox.cif.g09.slc.cpg/sg12_116_cif.got.tgz:230854.got - 2010.06.28 00:19:55.
