data_PCOD8111686
_publ_section_title
;
Structure prediction by ZEFSAII (Michael W. Deem and Ramdas Pophale) SiO2 
 PCOD8111686
Probable space group: C 2/M
;
_chemical_formula_sum "Si O2"
_cell_formula_units_Z 48
_cell_length_a 9.976200
_cell_length_b 28.244946
_cell_length_c 8.164003
_cell_angle_alpha 90.000000
_cell_angle_beta 88.507032
_cell_angle_gamma 90.000000
_cell_volume 2299.649227
_symmetry_space_group_name_H-M "C 2/M"
_symmetry_group_IT_number 12
_symmetry_cell_setting 'monoclinic'
loop_
_space_group_symop_operation_xyz
x,y,z
-x,y,-z
-x,-y,-z
x,-y,z
1/2+x,1/2+y,z
1/2-x,1/2+y,-z
1/2-x,1/2-y,-z
1/2+x,1/2-y,z
loop_
_atom_site_type_symbol
_atom_site_label
_atom_site_fract_x
_atom_site_fract_y
_atom_site_fract_z
Si Si1 0.518523 0.201730 0.312345
Si Si2 0.370449 0.634713 0.898384
Si Si3 0.388143 0.111929 0.884846
Si Si4 0.759764 0.768543 0.814462
Si Si5 0.384760 0.445217 0.635809
Si Si6 0.639008 0.944411 0.427593
O O1 0.500000 0.185488 0.500000
O O2 0.537357 0.156359 0.197769
O O3 0.389648 0.230557 0.253561
O O4 0.651805 0.233310 0.297224
O O5 0.332013 0.680544 0.793183
O O6 0.406947 0.588770 0.789174
O O7 0.500000 0.647440 0.000000
O O8 0.244038 0.625803 0.016013
O O9 0.335111 0.075366 0.752769
O O10 0.500000 0.088042 0.000000
O O11 0.750000 0.750000 0.000000
O O12 0.500000 0.438503 0.500000
O O13 0.377781 0.500000 0.695891
O O14 0.249262 0.427882 0.553621
O O15 0.500000 0.924606 0.500000
O O16 0.641035 0.000000 0.408914
#
# Coordination Sequence:
#
# PCOD8111686 Si02
#       6
#     8   8   8   8   8   8
#     4  12  26  44  68  98 129 175 217 269 324 387
#     4  12  25  40  67  99 128 173 222 266 327 395
#     4  12  23  41  65  94 132 172 212 268 330 383
#     4  12  24  47  68  94 136 175 216 271 328 387
#     4  10  23  45  67  94 134 174 217 275 334 386
#     4  10  22  40  65  94 129 171 213 266 324 387
#
# _framework density 20.872748999999999
#
# number of rings (size 3 to 8) (size 9 to 14) (size 15 to 20)
#    0.000    0.667    3.333    4.500    2.333    2.000 
#    0.000    0.000    0.000    0.000    0.000    0.000 
#    0.000    0.000    0.000    0.000    0.000    0.000 
#
# Total GULP energy -297703.100383 kJ/mol
# GULP energy per Si atom -12404.295849 kJ/mol
# Density = 2.082524 g / cm^3
# Si number density = 20.872749 Si / 1000 Ang^3
#
#
#
# Elastic Constant Matrix: (Units=GPa)
#
#
# Indices 1 2 3 4 5 6 
#
# 1 116.3258 6.9148 11.7830 0.0000 1.9839 0.0000
# 2 6.9148 54.8702 28.5758 0.0000 0.7802 0.0000
# 3 11.7830 28.5758 79.5085 0.0000 -9.7645 0.0000
# 4 0.0000 0.0000 0.0000 41.2380 0.0000 -21.0646
# 5 1.9839 0.7802 -9.7645 0.0000 27.7444 0.0000
# 6 0.0000 0.0000 0.0000 -21.0646 0.0000 146.1965
#
#
#
# Elastic Compliance Matrix: (Units=1/GPa)
#
#
# Indices 1 2 3 4 5 6 
#
# 1 0.008769 -0.000425 -0.001278 0.000000 -0.001065 0.000000
# 2 -0.000425 0.022796 -0.008576 0.000000 -0.003629 0.000000
# 3 -0.001278 -0.008576 0.016608 0.000000 0.006177 0.000000
# 4 0.000000 0.000000 0.000000 0.026176 0.000000 0.003772
# 5 -0.001065 -0.003629 0.006177 0.000000 0.038396 0.000000
# 6 0.000000 0.000000 0.000000 0.003772 0.000000 0.007384
#
#
# Mechanical properties :
#
#
# Convention : Reuss Voigt Hill
#
# Bulk Modulus (GPa) = 36.20994 38.36129 37.28562
# Shear Modulus (GPa) = 33.35778 56.59783 44.97780
#
# Velocity S-wave (km/s) = 4.00202 5.21292 4.64708
# Velocity P-wave (km/s) = 6.22419 7.39265 6.83344
#
# Compressibility (1/GPa) = 0.02761673
#
# Stress axis : x y z
#
# Youngs Moduli (GPa) = 114.03319 43.86707 60.21374
#
# Poissons Ratio (x) = 0.01862 0.07694
# Poissons Ratio (y) = 0.04841 0.51638
# Poissons Ratio (z) = 0.14571 0.37620
#
# Static dielectric constant tensor:
#      x y z
#    x 3.127960 0.000000 -0.796770 
#    y 0.000000 3.830340 0.000000 
#    z -0.796770 0.000000 3.092660 
# 
# 
# High freq. dielectric constant tensor:
#      x y z
#    x 1.839760 0.000000 -0.000850 
#    y 0.000000 1.818380 0.000000 
#    z -0.000850 0.000000 1.817750 
# 
# From -- ./inp_files/42219.got.cif
#   From: 2010.06.25/outbox.cif.g09.slc.cpg/sg12_22_cif.got.tgz:42219.got - 2010.06.28 00:19:55.
