data_PCOD8111567
_publ_section_title
;
Structure prediction by ZEFSAII (Michael W. Deem and Ramdas Pophale) SiO2 
 PCOD8111567
Probable space group: C 2/M
;
_chemical_formula_sum "Si O2"
_cell_formula_units_Z 64
_cell_length_a 30.378698
_cell_length_b 9.001362
_cell_length_c 19.255131
_cell_angle_alpha 90.000000
_cell_angle_beta 141.702112
_cell_angle_gamma 90.000000
_cell_volume 3263.175787
_symmetry_space_group_name_H-M "C 2/M"
_symmetry_group_IT_number 12
_symmetry_cell_setting 'monoclinic'
loop_
_space_group_symop_operation_xyz
x,y,z
-x,y,-z
-x,-y,-z
x,-y,z
1/2+x,1/2+y,z
1/2-x,1/2+y,-z
1/2-x,1/2-y,-z
1/2+x,1/2-y,z
loop_
_atom_site_type_symbol
_atom_site_label
_atom_site_fract_x
_atom_site_fract_y
_atom_site_fract_z
Si Si1 0.685286 0.826603 0.455945
Si Si2 0.459842 0.170881 0.021736
Si Si3 0.450722 0.666150 0.755666
Si Si4 0.448792 0.335063 0.246348
Si Si5 0.201259 0.823159 0.998301
Si Si6 0.974164 0.675303 0.541168
Si Si7 0.701950 0.825460 0.148053
Si Si8 0.318280 0.175507 0.387546
O O1 0.750000 0.750000 0.500000
O O2 0.615946 0.774021 0.329115
O O3 0.685494 0.782063 0.536538
O O4 0.691298 0.000000 0.452898
O O5 0.492186 0.276919 0.119210
O O6 0.472453 0.000000 0.058178
O O7 0.500000 0.208222 0.000000
O O8 0.375791 0.206512 0.915405
O O9 0.426759 0.500000 0.747058
O O10 0.485164 0.665468 0.723054
O O11 0.435733 0.500000 0.260131
O O12 0.467183 0.226306 0.331399
O O13 0.378985 0.279170 0.120298
O O14 0.216259 0.755777 0.092658
O O15 0.213893 0.000000 0.016619
O O16 0.250000 0.750000 0.000000
O O17 0.973559 0.500000 0.542648
O O18 0.894826 0.734026 0.456564
O O19 0.000000 0.738831 0.500000
O O20 0.757711 0.764080 0.272505
O O21 0.713886 0.000000 0.151383
O O22 0.308368 0.000000 0.362744
#
# Coordination Sequence:
#
# PCOD8111567 Si02
#       8
#     8   8   8   8   8   8   8   8
#     4  11  24  42  64  92 125 164 208 256 310 370
#     4  10  23  42  63  91 124 163 208 255 308 367
#     4  11  22  40  65  93 122 161 206 256 313 365
#     4  10  22  40  63  90 122 157 200 253 305 359
#     4  11  24  43  64  92 126 163 208 256 309 369
#     4  10  22  40  63  91 120 158 204 246 300 363
#     4  11  24  41  63  91 125 166 207 252 310 368
#     4  10  23  42  61  87 125 164 202 251 306 363
#
# _framework density 19.612794000000001
#
# number of rings (size 3 to 8) (size 9 to 14) (size 15 to 20)
#    0.000    1.500    2.500    1.500    3.500    4.000 
#    0.000    0.000    0.000    0.000    0.000    0.000 
#    0.000    0.000    0.000    0.000    0.000    0.000 
#
# Total GULP energy -396879.187979 kJ/mol
# GULP energy per Si atom -12402.474624 kJ/mol
# Density = 1.956815 g / cm^3
# Si number density = 19.612794 Si / 1000 Ang^3
#
#
#
# Elastic Constant Matrix: (Units=GPa)
#
#
# Indices 1 2 3 4 5 6 
#
# 1 114.4146 50.4052 33.3095 0.0000 5.2863 0.0000
# 2 50.4052 80.3388 54.5275 0.0000 -3.3738 0.0000
# 3 33.3095 54.5275 119.3848 0.0000 5.5631 0.0000
# 4 0.0000 0.0000 0.0000 40.6091 0.0000 -0.1465
# 5 5.2863 -3.3738 5.5631 0.0000 31.8311 0.0000
# 6 0.0000 0.0000 0.0000 -0.1465 0.0000 30.7171
#
#
#
# Elastic Compliance Matrix: (Units=1/GPa)
#
#
# Indices 1 2 3 4 5 6 
#
# 1 0.012351 -0.008160 0.000420 0.000000 -0.002989 0.000000
# 2 -0.008160 0.023798 -0.008846 0.000000 0.005423 0.000000
# 3 0.000420 -0.008846 0.012447 0.000000 -0.003183 0.000000
# 4 0.000000 0.000000 0.000000 0.024625 0.000000 0.000117
# 5 -0.002989 0.005423 -0.003183 0.000000 0.033043 0.000000
# 6 0.000000 0.000000 0.000000 0.000117 0.000000 0.032556
#
#
# Mechanical properties :
#
#
# Convention : Reuss Voigt Hill
#
# Bulk Modulus (GPa) = 64.82507 65.62474 65.22490
# Shear Modulus (GPa) = 28.22737 32.35784 30.29261
#
# Velocity S-wave (km/s) = 3.79784 4.06622 3.93432
# Velocity P-wave (km/s) = 7.23572 7.45509 7.34622
#
# Compressibility (1/GPa) = 0.01542613
#
# Stress axis : x y z
#
# Youngs Moduli (GPa) = 80.96738 42.02008 80.33756
#
# Poissons Ratio (x) = 0.34287 -0.03375
# Poissons Ratio (y) = 0.66066 0.71064
# Poissons Ratio (z) = -0.03402 0.37169
#
# Static dielectric constant tensor:
#      x y z
#    x 3.792060 0.000000 0.042890 
#    y 0.000000 3.437000 0.000000 
#    z 0.042890 0.000000 3.535900 
# 
# 
# High freq. dielectric constant tensor:
#      x y z
#    x 1.774070 0.000000 0.003590 
#    y 0.000000 1.767180 0.000000 
#    z 0.003590 0.000000 1.773750 
# 
# From -- ./inp_files/295569.got.cif
#   From: 2010.06.25/outbox.cif.g09.slc.cpg/sg12_148_cif.got.tgz:295569.got - 2010.06.28 00:19:55.
