data_PCOD8111633
_publ_section_title
;
Structure prediction by ZEFSAII (Michael W. Deem and Ramdas Pophale) SiO2 
 PCOD8111633
Probable space group: C 2/M
;
_chemical_formula_sum "Si O2"
_cell_formula_units_Z 48
_cell_length_a 17.510816
_cell_length_b 19.380468
_cell_length_c 8.392967
_cell_angle_alpha 90.000000
_cell_angle_beta 53.095407
_cell_angle_gamma 90.000000
_cell_volume 2277.606970
_symmetry_space_group_name_H-M "C 2/M"
_symmetry_group_IT_number 12
_symmetry_cell_setting 'monoclinic'
loop_
_space_group_symop_operation_xyz
x,y,z
-x,y,-z
-x,-y,-z
x,-y,z
1/2+x,1/2+y,z
1/2-x,1/2+y,-z
1/2-x,1/2-y,-z
1/2+x,1/2-y,z
loop_
_atom_site_type_symbol
_atom_site_label
_atom_site_fract_x
_atom_site_fract_y
_atom_site_fract_z
Si Si1 0.445253 0.204433 0.912492
Si Si2 0.063123 0.425196 0.267927
Si Si3 0.279022 0.420121 0.051516
Si Si4 0.102046 0.923200 0.794677
Si Si5 0.444826 0.682990 0.420460
Si Si6 0.769932 0.802568 0.835551
O O1 0.478415 0.131129 0.800713
O O2 0.475343 0.264278 0.749878
O O3 0.500000 0.225549 0.000000
O O4 0.335762 0.194078 0.107174
O O5 0.064086 0.500000 0.179929
O O6 0.166843 0.406330 0.205692
O O7 0.000000 0.428267 0.500000
O O8 0.306576 0.500000 0.985561
O O9 0.326262 0.394371 0.158545
O O10 0.311377 0.374136 0.859707
O O11 0.095842 0.872901 0.651962
O O12 0.135302 0.000000 0.697169
O O13 0.000000 0.928642 0.000000
O O14 0.500000 0.647348 0.500000
O O15 0.348629 0.721632 0.606932
O O16 0.750000 0.750000 0.000000
#
# Coordination Sequence:
#
# PCOD8111633 Si02
#       6
#     8   8   8   8   8   8
#     4  11  25  41  60  91 127 161 205 258 304 363
#     4   9  19  38  65  90 117 158 200 245 306 365
#     4   9  20  40  64  88 121 157 198 253 306 365
#     4  10  22  40  64  93 124 160 203 253 309 370
#     4  12  24  40  63  88 125 168 207 255 307 370
#     4  11  24  41  63  90 122 165 208 255 309 364
#
# _framework density 21.074750999999999
#
# number of rings (size 3 to 8) (size 9 to 14) (size 15 to 20)
#    0.000    1.667    1.667    2.000    4.667    3.333 
#    0.000    0.000    0.000    0.000    0.000    0.000 
#    0.000    0.000    0.000    0.000    0.000    0.000 
#
# Total GULP energy -297352.057035 kJ/mol
# GULP energy per Si atom -12389.669043 kJ/mol
# Density = 2.102678 g / cm^3
# Si number density = 21.074751 Si / 1000 Ang^3
#
#
#
# Elastic Constant Matrix: (Units=GPa)
#
#
# Indices 1 2 3 4 5 6 
#
# 1 98.9136 32.5189 37.0878 0.0000 15.7100 0.0000
# 2 32.5189 69.7068 23.0358 0.0000 1.7061 0.0000
# 3 37.0878 23.0358 89.5637 0.0000 -10.6789 0.0000
# 4 0.0000 0.0000 0.0000 35.4697 0.0000 11.9981
# 5 15.7100 1.7061 -10.6789 0.0000 29.4097 0.0000
# 6 0.0000 0.0000 0.0000 11.9981 0.0000 38.0079
#
#
#
# Elastic Compliance Matrix: (Units=1/GPa)
#
#
# Indices 1 2 3 4 5 6 
#
# 1 0.015888 -0.004986 -0.006558 0.000000 -0.010579 0.000000
# 2 -0.004986 0.017418 -0.002319 0.000000 0.000811 0.000000
# 3 -0.006558 -0.002319 0.015586 0.000000 0.009297 0.000000
# 4 0.000000 0.000000 0.000000 0.031563 0.000000 -0.009964
# 5 -0.010579 0.000811 0.009297 0.000000 0.042982 0.000000
# 6 0.000000 0.000000 0.000000 -0.009964 0.000000 0.029456
#
#
# Mechanical properties :
#
#
# Convention : Reuss Voigt Hill
#
# Bulk Modulus (GPa) = 47.24387 49.27433 48.25910
# Shear Modulus (GPa) = 26.64183 31.61357 29.12770
#
# Velocity S-wave (km/s) = 3.55936 3.87727 3.72171
# Velocity P-wave (km/s) = 6.27359 6.59362 6.43560
#
# Compressibility (1/GPa) = 0.02116677
#
# Stress axis : x y z
#
# Youngs Moduli (GPa) = 62.93953 57.41145 64.16068
#
# Poissons Ratio (x) = 0.28624 0.42078
# Poissons Ratio (y) = 0.31380 0.14877
# Poissons Ratio (z) = 0.41278 0.13312
#
# Static dielectric constant tensor:
#      x y z
#    x 5.016050 0.000000 -1.296590 
#    y 0.000000 4.363770 0.000000 
#    z -1.296590 0.000000 3.631490 
# 
# 
# High freq. dielectric constant tensor:
#      x y z
#    x 1.835550 0.000000 -0.012760 
#    y 0.000000 1.827660 0.000000 
#    z -0.012760 0.000000 1.813330 
# 
# From -- ./inp_files/75087.got.cif
#   From: 2010.06.25/outbox.cif.g09.slc.cpg/sg12_38_cif.got.tgz:75087.got - 2010.06.28 00:19:55.
