data_PCOD8111472
_publ_section_title
;
Structure prediction by ZEFSAII (Michael W. Deem and Ramdas Pophale) SiO2 
 PCOD8111472
Probable space group: C 2/M
;
_chemical_formula_sum "Si O2"
_cell_formula_units_Z 40
_cell_length_a 15.511878
_cell_length_b 8.636951
_cell_length_c 14.506082
_cell_angle_alpha 90.000000
_cell_angle_beta 89.092989
_cell_angle_gamma 90.000000
_cell_volume 1943.213617
_symmetry_space_group_name_H-M "C 2/M"
_symmetry_group_IT_number 12
_symmetry_cell_setting 'monoclinic'
loop_
_space_group_symop_operation_xyz
x,y,z
-x,y,-z
-x,-y,-z
x,-y,z
1/2+x,1/2+y,z
1/2-x,1/2+y,-z
1/2-x,1/2-y,-z
1/2+x,1/2-y,z
loop_
_atom_site_type_symbol
_atom_site_label
_atom_site_fract_x
_atom_site_fract_y
_atom_site_fract_z
Si Si1 0.097043 0.681486 0.905656
Si Si2 0.151533 0.321982 0.270000
Si Si3 0.088993 0.180687 0.094104
Si Si4 0.492567 0.183279 0.395939
Si Si5 0.843393 0.822176 0.279176
O O1 0.107174 0.500000 0.921179
O O2 0.152031 0.732352 0.817211
O O3 0.997959 0.722938 0.888167
O O4 0.131690 0.769057 0.996376
O O5 0.133874 0.500000 0.243928
O O6 0.152324 0.220747 0.176820
O O7 0.077748 0.260292 0.340266
O O8 0.244975 0.303875 0.316624
O O9 0.067471 0.000000 0.092257
O O10 0.500000 0.244303 0.500000
O O11 0.406522 0.253368 0.354195
O O12 0.483945 0.000000 0.392838
O O13 0.868176 0.000000 0.261668
#
# Coordination Sequence:
#
# PCOD8111472 Si02
#       5
#     8   8   8   8   8
#     4  11  21  36  59  86 122 165 202 244 301 356
#     4  10  22  40  61  88 125 163 199 246 304 360
#     4  11  21  35  59  90 122 159 205 249 291 353
#     4  10  22  42  66  89 118 159 202 249 308 367
#     4  11  23  39  61  91 123 159 204 252 298 353
#
# _framework density 20.584457
#
# number of rings (size 3 to 8) (size 9 to 14) (size 15 to 20)
#    0.000    1.400    2.000    5.400    0.000    3.600 
#    0.000    0.000    0.000    0.000    0.000    0.000 
#    0.000    0.000    0.000    0.000    0.000    0.000 
#
# Total GULP energy -248065.489233 kJ/mol
# GULP energy per Si atom -12403.274462 kJ/mol
# Density = 2.053761 g / cm^3
# Si number density = 20.584457 Si / 1000 Ang^3
#
#
#
# Elastic Constant Matrix: (Units=GPa)
#
#
# Indices 1 2 3 4 5 6 
#
# 1 111.4809 24.2988 67.2030 0.0000 14.4574 0.0000
# 2 24.2988 70.0706 45.1726 0.0000 3.4770 0.0000
# 3 67.2030 45.1726 150.4997 0.0000 13.3703 0.0000
# 4 0.0000 0.0000 0.0000 26.6783 0.0000 6.0164
# 5 14.4574 3.4770 13.3703 0.0000 14.5385 0.0000
# 6 0.0000 0.0000 0.0000 6.0164 0.0000 27.0023
#
#
#
# Elastic Compliance Matrix: (Units=1/GPa)
#
#
# Indices 1 2 3 4 5 6 
#
# 1 0.013206 -0.001045 -0.004834 0.000000 -0.008437 0.000000
# 2 -0.001045 0.017785 -0.004994 0.000000 0.001378 0.000000
# 3 -0.004834 -0.004994 0.010638 0.000000 -0.003782 0.000000
# 4 0.000000 0.000000 0.000000 0.039467 0.000000 -0.008794
# 5 -0.008437 0.001378 -0.003782 0.000000 0.080321 0.000000
# 6 0.000000 0.000000 0.000000 -0.008794 0.000000 0.038993
#
#
# Mechanical properties :
#
#
# Convention : Reuss Voigt Hill
#
# Bulk Modulus (GPa) = 50.29276 67.26667 58.77972
# Shear Modulus (GPa) = 21.85483 26.66896 24.26190
#
# Velocity S-wave (km/s) = 3.26193 3.60333 3.43687
# Velocity P-wave (km/s) = 6.21871 7.07540 6.66084
#
# Compressibility (1/GPa) = 0.01988358
#
# Stress axis : x y z
#
# Youngs Moduli (GPa) = 75.72380 56.22807 94.00329
#
# Poissons Ratio (x) = 0.05874 0.45439
# Poissons Ratio (y) = 0.07910 0.46946
# Poissons Ratio (z) = 0.36603 0.28081
#
# Static dielectric constant tensor:
#      x y z
#    x 3.648050 0.000000 -0.043300 
#    y 0.000000 3.685220 0.000000 
#    z -0.043300 0.000000 3.839560 
# 
# 
# High freq. dielectric constant tensor:
#      x y z
#    x 1.801780 0.000000 0.001870 
#    y 0.000000 1.806630 0.000000 
#    z 0.001870 0.000000 1.801550 
# 
# From -- ./inp_files/211371.got.cif
#   From: 2010.06.25/outbox.cif.g09.slc.cpg/sg12_106_cif.got.tgz:211371.got - 2010.06.28 00:19:55.
