data_PCOD8111400
_publ_section_title
;
Structure prediction by ZEFSAII (Michael W. Deem and Ramdas Pophale) SiO2 
 PCOD8111400
Probable space group: C 2/M
;
_chemical_formula_sum "Si O2"
_cell_formula_units_Z 56
_cell_length_a 9.453300
_cell_length_b 16.531148
_cell_length_c 18.747655
_cell_angle_alpha 90.000000
_cell_angle_beta 65.198574
_cell_angle_gamma 90.000000
_cell_volume 2659.547901
_symmetry_space_group_name_H-M "C 2/M"
_symmetry_group_IT_number 12
_symmetry_cell_setting 'monoclinic'
loop_
_space_group_symop_operation_xyz
x,y,z
-x,y,-z
-x,-y,-z
x,-y,z
1/2+x,1/2+y,z
1/2-x,1/2+y,-z
1/2-x,1/2-y,-z
1/2+x,1/2-y,z
loop_
_atom_site_type_symbol
_atom_site_label
_atom_site_fract_x
_atom_site_fract_y
_atom_site_fract_z
Si Si1 0.597434 0.142310 0.695102
Si Si2 0.822918 0.831389 0.015306
Si Si3 0.678070 0.590970 0.241492
Si Si4 0.361724 0.329037 0.285726
Si Si5 0.550989 0.905016 0.409357
Si Si6 0.766438 0.405695 0.821737
Si Si7 0.656923 0.907448 0.932378
O O1 0.734867 0.090072 0.700987
O O2 0.630900 0.232872 0.713262
O O3 0.586948 0.131882 0.611628
O O4 0.437554 0.103998 0.755423
O O5 0.729387 0.862219 0.103290
O O6 0.750000 0.750000 0.000000
O O7 0.800450 0.897475 0.957401
O O8 0.000000 0.820474 0.000000
O O9 0.633315 0.500000 0.228705
O O10 0.521289 0.640686 0.286445
O O11 0.788984 0.629974 0.155486
O O12 0.215254 0.360997 0.361622
O O13 0.353619 0.360329 0.205812
O O14 0.500000 0.886771 0.500000
O O15 0.572712 0.000000 0.389700
O O16 0.720634 0.500000 0.838395
O O17 0.616543 0.000000 0.926721
O O18 0.500000 0.865951 0.000000
#
# Coordination Sequence:
#
# PCOD8111400 Si02
#       7
#     8   8   8   8   8   8   8
#     4  11  23  39  65  95 128 165 208 261 323 382
#     4  12  27  40  60  87 125 170 220 287 336 394
#     4  11  21  36  62  88 120 158 208 268 314 379
#     4  11  23  39  64  96 128 162 211 267 323 382
#     4  10  22  44  69  93 130 175 214 255 314 395
#     4  11  24  43  66  89 125 175 225 266 321 401
#     4  10  22  40  60  85 120 164 215 272 338 394
#
# _framework density 21.05621
#
# number of rings (size 3 to 8) (size 9 to 14) (size 15 to 20)
#    0.000    1.143    0.000    7.714    6.000    4.000 
#    0.000    0.714    0.000    2.571    0.000    0.000 
#    0.000    0.000    0.000    0.000    0.000    0.000 
#
# Total GULP energy -347170.233085 kJ/mol
# GULP energy per Si atom -12398.936896 kJ/mol
# Density = 2.100828 g / cm^3
# Si number density = 21.056210 Si / 1000 Ang^3
#
#
#
# Elastic Constant Matrix: (Units=GPa)
#
#
# Indices 1 2 3 4 5 6 
#
# 1 131.9572 14.7934 42.9725 0.0000 16.7636 0.0000
# 2 14.7934 93.6776 30.8838 0.0000 7.7626 0.0000
# 3 42.9725 30.8838 118.3520 0.0000 22.2817 0.0000
# 4 0.0000 0.0000 0.0000 25.3806 0.0000 4.0991
# 5 16.7636 7.7626 22.2817 0.0000 35.1873 0.0000
# 6 0.0000 0.0000 0.0000 4.0991 0.0000 32.9796
#
#
#
# Elastic Compliance Matrix: (Units=1/GPa)
#
#
# Indices 1 2 3 4 5 6 
#
# 1 0.008786 -0.000312 -0.002649 0.000000 -0.002439 0.000000
# 2 -0.000312 0.011708 -0.002820 0.000000 -0.000649 0.000000
# 3 -0.002649 -0.002820 0.011118 0.000000 -0.005156 0.000000
# 4 0.000000 0.000000 0.000000 0.040207 0.000000 -0.004997
# 5 -0.002439 -0.000649 -0.005156 0.000000 0.032989 0.000000
# 6 0.000000 0.000000 0.000000 -0.004997 0.000000 0.030943
#
#
# Mechanical properties :
#
#
# Convention : Reuss Voigt Hill
#
# Bulk Modulus (GPa) = 49.87738 57.92067 53.89903
# Shear Modulus (GPa) = 32.46839 35.73197 34.10018
#
# Velocity S-wave (km/s) = 3.93107 4.12391 4.02865
# Velocity P-wave (km/s) = 6.65910 7.08822 6.87701
#
# Compressibility (1/GPa) = 0.02004917
#
# Stress axis : x y z
#
# Youngs Moduli (GPa) = 113.81939 85.41523 89.94552
#
# Poissons Ratio (x) = 0.02664 0.23831
# Poissons Ratio (y) = 0.03549 0.25362
# Poissons Ratio (z) = 0.30156 0.24085
#
# Static dielectric constant tensor:
#      x y z
#    x 4.521530 0.000000 0.745560 
#    y 0.000000 4.318930 0.000000 
#    z 0.745560 0.000000 4.367450 
# 
# 
# High freq. dielectric constant tensor:
#      x y z
#    x 1.836390 0.000000 0.013510 
#    y 0.000000 1.830630 0.000000 
#    z 0.013510 0.000000 1.811610 
# 
# From -- ./inp_files/257073.got.cif
#   From: 2010.06.25/outbox.cif.g09.slc.cpg/sg12_129_cif.got.tgz:257073.got - 2010.06.28 00:19:55.
