data_PCOD8111783
_publ_section_title
;
Structure prediction by ZEFSAII (Michael W. Deem and Ramdas Pophale) SiO2 
 PCOD8111783
Probable space group: C 2/M
;
_chemical_formula_sum "Si O2"
_cell_formula_units_Z 64
_cell_length_a 11.252516
_cell_length_b 26.339133
_cell_length_c 11.654126
_cell_angle_alpha 90.000000
_cell_angle_beta 109.751237
_cell_angle_gamma 90.000000
_cell_volume 3250.860310
_symmetry_space_group_name_H-M "C 2/M"
_symmetry_group_IT_number 12
_symmetry_cell_setting 'monoclinic'
loop_
_space_group_symop_operation_xyz
x,y,z
-x,y,-z
-x,-y,-z
x,-y,z
1/2+x,1/2+y,z
1/2-x,1/2+y,-z
1/2-x,1/2-y,-z
1/2+x,1/2-y,z
loop_
_atom_site_type_symbol
_atom_site_label
_atom_site_fract_x
_atom_site_fract_y
_atom_site_fract_z
Si Si1 0.179598 0.940618 0.320065
Si Si2 0.892277 0.557939 0.574142
Si Si3 0.376911 0.115078 0.275030
Si Si4 0.947854 0.900631 0.362099
Si Si5 0.204165 0.556280 0.206645
Si Si6 0.354181 0.798304 0.433858
Si Si7 0.949444 0.645533 0.868193
Si Si8 0.243261 0.187340 0.637176
O O1 0.280158 0.929807 0.452348
O O2 0.253152 0.922255 0.228109
O O3 0.064377 0.902038 0.310489
O O4 0.139072 0.000000 0.299009
O O5 0.936487 0.500000 0.581034
O O6 0.840414 0.571938 0.681339
O O7 0.020489 0.590498 0.602610
O O8 0.330801 0.167136 0.316154
O O9 0.431481 0.125642 0.167052
O O10 0.854327 0.938622 0.264604
O O11 0.879316 0.846222 0.364285
O O12 0.000000 0.923034 0.500000
O O13 0.166464 0.500000 0.154262
O O14 0.131516 0.597623 0.106135
O O15 0.500000 0.786345 0.500000
O O16 0.294075 0.826581 0.526222
O O17 0.288451 0.746117 0.378147
O O18 0.857703 0.681714 0.765129
O O19 0.000000 0.673720 0.000000
#
# Coordination Sequence:
#
# PCOD8111783 Si02
#       8
#     8   8   8   8   8   8   8   8
#     4  11  21  30  49  83 123 159 190 231 291 361
#     4   9  17  29  47  75 114 151 183 225 280 345
#     4  11  21  34  56  83 114 152 192 241 295 344
#     4  11  19  31  50  80 124 161 185 228 288 362
#     4   9  18  31  51  79 110 150 196 235 279 339
#     4  11  20  36  61  91 120 146 183 237 308 359
#     4  10  22  41  61  80 112 155 201 251 292 339
#     4  10  23  38  58  89 119 151 193 237 293 360
#
# _framework density 19.687096
#
# number of rings (size 3 to 8) (size 9 to 14) (size 15 to 20)
#    0.000    1.750    2.500    3.000    1.750    3.250 
#    0.000    0.625    0.000    3.000    0.000    4.375 
#    0.000    0.000    0.000    0.000    0.000    0.000 
#
# Total GULP energy -396478.513471 kJ/mol
# GULP energy per Si atom -12389.953546 kJ/mol
# Density = 1.964229 g / cm^3
# Si number density = 19.687096 Si / 1000 Ang^3
#
#
#
# Elastic Constant Matrix: (Units=GPa)
#
#
# Indices 1 2 3 4 5 6 
#
# 1 137.2347 37.3605 34.9013 0.0000 -6.2493 0.0000
# 2 37.3605 55.8922 31.9966 0.0000 -2.3370 0.0000
# 3 34.9013 31.9966 71.8456 0.0000 -1.5316 0.0000
# 4 0.0000 0.0000 0.0000 -4.6379 0.0000 1.3746
# 5 -6.2493 -2.3370 -1.5316 0.0000 12.4422 0.0000
# 6 0.0000 0.0000 0.0000 1.3746 0.0000 31.2537
#
#
#
# Elastic Compliance Matrix: (Units=1/GPa)
#
#
# Indices 1 2 3 4 5 6 
#
# 1 0.009336 -0.004752 -0.002344 0.000000 0.003508 0.000000
# 2 -0.004752 0.026561 -0.009490 0.000000 0.001434 0.000000
# 3 -0.002344 -0.009490 0.019271 0.000000 -0.000588 0.000000
# 4 0.000000 0.000000 0.000000 -0.212841 0.000000 0.009361
# 5 0.003508 0.001434 -0.000588 0.000000 0.082331 0.000000
# 6 0.000000 0.000000 0.000000 0.009361 0.000000 0.031585
#
#
# Mechanical properties :
#
#
# Convention : Reuss Voigt Hill
#
# Bulk Modulus (GPa) = 45.46285 52.60994 49.03639
# Shear Modulus (GPa) = -1537.11623 18.52587 -759.29518
#
# Velocity S-wave (km/s) = -27.97264 3.07093 -19.66008
# Velocity P-wave (km/s) = 31.93976 6.27337 22.14490
#
# Compressibility (1/GPa) = 0.02199598
#
# Stress axis : x y z
#
# Youngs Moduli (GPa) = 107.10710 37.64969 51.89054
#
# Poissons Ratio (x) = 0.17891 0.12165
# Poissons Ratio (y) = 0.50898 0.49243
# Poissons Ratio (z) = 0.25109 0.35729
#
# Static dielectric constant tensor:
#      x y z
#    x 3.981320 0.000000 -0.021330 
#    y 0.000000 3.532830 0.000000 
#    z -0.021330 0.000000 3.134140 
# 
# 
# High freq. dielectric constant tensor:
#      x y z
#    x 1.788000 0.000000 -0.001900 
#    y 0.000000 1.765740 0.000000 
#    z -0.001900 0.000000 1.711640 
# 
# From -- ./inp_files/137441.got.cif
#   From: 2010.06.25/outbox.cif.g09.slc.cpg/sg12_69_cif.got.tgz:137441.got - 2010.06.28 00:19:55.
