data_PCOD8111262
_publ_section_title
;
Structure prediction by ZEFSAII (Michael W. Deem and Ramdas Pophale) SiO2 
 PCOD8111262
Probable space group: C 2/M
;
_chemical_formula_sum "Si O2"
_cell_formula_units_Z 56
_cell_length_a 23.224953
_cell_length_b 22.118704
_cell_length_c 18.590609
_cell_angle_alpha 90.000000
_cell_angle_beta 17.165348
_cell_angle_gamma 90.000000
_cell_volume 2818.524834
_symmetry_space_group_name_H-M "C 2/M"
_symmetry_group_IT_number 12
_symmetry_cell_setting 'monoclinic'
loop_
_space_group_symop_operation_xyz
x,y,z
-x,y,-z
-x,-y,-z
x,-y,z
1/2+x,1/2+y,z
1/2-x,1/2+y,-z
1/2-x,1/2-y,-z
1/2+x,1/2-y,z
loop_
_atom_site_type_symbol
_atom_site_label
_atom_site_fract_x
_atom_site_fract_y
_atom_site_fract_z
Si Si1 0.592807 0.766037 0.629384
Si Si2 0.691406 0.680809 0.313603
Si Si3 0.774139 0.190959 0.270288
Si Si4 0.422698 0.068014 0.512569
Si Si5 0.480047 0.134246 0.855269
Si Si6 0.893083 0.860565 0.430985
Si Si7 0.711821 0.069561 0.040961
O O1 0.750000 0.750000 0.500000
O O2 0.693584 0.803339 0.446151
O O3 0.435845 0.809131 0.854453
O O4 0.500217 0.703165 0.714392
O O5 0.500000 0.660924 0.500000
O O6 0.692120 0.754206 0.318491
O O7 0.695988 0.646266 0.383672
O O8 0.875859 0.651230 0.053536
O O9 0.734906 0.122100 0.291729
O O10 0.000000 0.202635 0.000000
O O11 0.500000 0.060740 0.500000
O O12 0.342409 0.000000 0.585987
O O13 0.581257 0.091849 0.264692
O O14 0.711018 0.122672 0.595235
O O15 0.386753 0.079984 0.920118
O O16 0.066177 0.907778 0.218694
O O17 0.737630 0.000000 0.020537
#
# Coordination Sequence:
#
# PCOD8111262 Si02
#       7
#     8   8   8   8   8   8   8
#     4   9  19  34  57  89 123 161 198 256 318 368
#     4  11  21  37  62  95 129 165 197 254 321 380
#     4  11  21  35  59  92 126 162 210 253 311 381
#     4  10  23  43  61  85 126 168 212 263 312 370
#     4  11  21  40  63  92 129 161 206 264 310 372
#     4  10  22  39  63  91 127 163 206 255 319 373
#     4  11  24  43  65  90 123 169 217 259 308 369
#
# _framework density 19.868549999999999
#
# number of rings (size 3 to 8) (size 9 to 14) (size 15 to 20)
#    0.000    1.571    2.857    3.429    0.000    6.000 
#    0.000    1.429    0.000    1.714    0.000    0.000 
#    0.000    0.000    0.000    0.000    0.000    0.000 
#
# Total GULP energy -346872.133866 kJ/mol
# GULP energy per Si atom -12388.290495 kJ/mol
# Density = 1.982333 g / cm^3
# Si number density = 19.868550 Si / 1000 Ang^3
#
#
#
# Elastic Constant Matrix: (Units=GPa)
#
#
# Indices 1 2 3 4 5 6 
#
# 1 91.7568 14.4817 23.1306 -0.0391 3.1566 0.0055
# 2 14.4817 44.2753 16.3080 -0.0178 -1.5470 0.0277
# 3 23.1306 16.3080 70.8457 -0.0368 -9.5479 -0.0004
# 4 -0.0391 -0.0178 -0.0368 24.9837 0.0116 5.7658
# 5 3.1566 -1.5470 -9.5479 0.0116 35.7100 0.0134
# 6 0.0055 0.0277 -0.0004 5.7658 0.0134 25.6835
#
#
#
# Elastic Compliance Matrix: (Units=1/GPa)
#
#
# Indices 1 2 3 4 5 6 
#
# 1 0.012339 -0.002753 -0.003691 0.000013 -0.002197 -0.000002
# 2 -0.002753 0.025300 -0.004922 0.000013 0.000023 -0.000030
# 3 -0.003691 -0.004922 0.017084 0.000014 0.004681 0.000001
# 4 0.000013 0.000013 0.000014 0.042213 -0.000007 -0.009477
# 5 -0.002197 0.000023 0.004681 -0.000007 0.029450 -0.000013
# 6 -0.000002 -0.000030 0.000001 -0.009477 -0.000013 0.041063
#
#
# Mechanical properties :
#
#
# Convention : Reuss Voigt Hill
#
# Bulk Modulus (GPa) = 31.25837 34.96871 33.11354
# Shear Modulus (GPa) = 24.89485 27.47261 26.18373
#
# Velocity S-wave (km/s) = 3.54358 3.72253 3.63416
# Velocity P-wave (km/s) = 5.70170 6.00953 5.85764
#
# Compressibility (1/GPa) = 0.03199143
#
# Stress axis : x y z
#
# Youngs Moduli (GPa) = 81.04458 39.52545 58.53420
#
# Poissons Ratio (x) = 0.10882 0.21604
# Poissons Ratio (y) = 0.22313 0.28810
# Poissons Ratio (z) = 0.29912 0.19454
#
# Static dielectric constant tensor:
#      x y z
#    x 4.323090 0.000750 0.343000 
#    y 0.000750 4.360410 0.000900 
#    z 0.343000 0.000900 3.571500 
# 
# 
# High freq. dielectric constant tensor:
#      x y z
#    x 1.787310 -0.000010 0.010240 
#    y -0.000010 1.769100 0.000040 
#    z 0.010240 0.000040 1.764870 
# 
# From -- ./inp_files/285984.got.cif
#   From: 2010.06.25/outbox.cif.g09.slc.cpg/sg12_143_cif.got.tgz:285984.got - 2010.06.28 00:19:55.
