data_PCOD8111219
_publ_section_title
;
Structure prediction by ZEFSAII (Michael W. Deem and Ramdas Pophale) SiO2 
 PCOD8111219
Probable space group: C 2/M
;
_chemical_formula_sum "Si O2"
_cell_formula_units_Z 64
_cell_length_a 26.643693
_cell_length_b 14.193824
_cell_length_c 9.012002
_cell_angle_alpha 90.000000
_cell_angle_beta 65.139841
_cell_angle_gamma 90.000000
_cell_volume 3092.313590
_symmetry_space_group_name_H-M "C 2/M"
_symmetry_group_IT_number 12
_symmetry_cell_setting 'monoclinic'
loop_
_space_group_symop_operation_xyz
x,y,z
-x,y,-z
-x,-y,-z
x,-y,z
1/2+x,1/2+y,z
1/2-x,1/2+y,-z
1/2-x,1/2-y,-z
1/2+x,1/2-y,z
loop_
_atom_site_type_symbol
_atom_site_label
_atom_site_fract_x
_atom_site_fract_y
_atom_site_fract_z
Si Si1 0.071320 0.396734 0.343975
Si Si2 0.461476 0.278369 0.426222
Si Si3 0.467399 0.190033 0.900690
Si Si4 0.786290 0.892749 0.033777
Si Si5 0.842455 0.202559 0.474113
Si Si6 0.243302 0.610578 0.767872
Si Si7 0.319441 0.895140 0.644013
Si Si8 0.149096 0.758496 0.862393
O O1 0.052465 0.500000 0.419512
O O2 0.045514 0.326000 0.495280
O O3 0.053207 0.384072 0.195975
O O4 0.138042 0.387468 0.270270
O O5 0.500000 0.334692 0.500000
O O6 0.493629 0.267675 0.229951
O O7 0.401446 0.326383 0.476929
O O8 0.500000 0.143341 0.000000
O O9 0.414774 0.237495 0.039740
O O10 0.741052 0.878638 0.217376
O O11 0.836209 0.824679 0.016185
O O12 0.807286 0.000000 0.997921
O O13 0.762412 0.859447 0.907330
O O14 0.793154 0.139234 0.597328
O O15 0.831607 0.314665 0.508187
O O16 0.844673 0.182617 0.297028
O O17 0.231301 0.500000 0.767232
O O18 0.186746 0.665087 0.804476
O O19 0.323820 0.000000 0.564837
#
# Coordination Sequence:
#
# PCOD8111219 Si02
#       8
#     8   8   8   8   8   8   8   8
#     4   9  19  35  57  83 115 159 203 247 298 354
#     4   9  20  37  61  85 112 158 207 247 295 358
#     4  11  22  37  55  84 120 154 203 253 298 362
#     4  10  22  39  62  91 118 155 202 245 302 369
#     4  11  22  39  61  91 123 162 201 245 310 357
#     4  11  25  41  61  93 126 158 205 252 300 368
#     4   9  18  35  60  88 119 154 200 245 290 360
#     4  12  24  39  63  89 126 164 198 249 314 364
#
# _framework density 20.696477999999999
#
# number of rings (size 3 to 8) (size 9 to 14) (size 15 to 20)
#    0.000    1.750    2.500    1.500    5.250    5.000 
#    0.000    0.000    0.000    1.500    0.000    0.000 
#    0.000    0.000    0.000    0.000    0.000    0.000 
#
# Total GULP energy -396644.976007 kJ/mol
# GULP energy per Si atom -12395.155500 kJ/mol
# Density = 2.064937 g / cm^3
# Si number density = 20.696478 Si / 1000 Ang^3
#
#
#
# Elastic Constant Matrix: (Units=GPa)
#
#
# Indices 1 2 3 4 5 6 
#
# 1 87.4172 22.5128 25.8330 0.0000 1.4168 0.0000
# 2 22.5128 31.9761 9.4439 0.0000 2.4622 0.0000
# 3 25.8330 9.4439 88.7447 0.0000 3.3657 0.0000
# 4 0.0000 0.0000 0.0000 16.7771 0.0000 5.2500
# 5 1.4168 2.4622 3.3657 0.0000 38.5979 0.0000
# 6 0.0000 0.0000 0.0000 5.2500 0.0000 6.8543
#
#
#
# Elastic Compliance Matrix: (Units=1/GPa)
#
#
# Indices 1 2 3 4 5 6 
#
# 1 0.014867 -0.009511 -0.003329 0.000000 0.000351 0.000000
# 2 -0.009511 0.038493 -0.001252 0.000000 -0.001997 0.000000
# 3 -0.003329 -0.001252 0.012404 0.000000 -0.000880 0.000000
# 4 0.000000 0.000000 0.000000 0.078395 0.000000 -0.060046
# 5 0.000351 -0.001997 -0.000880 0.000000 0.026099 0.000000
# 6 0.000000 0.000000 0.000000 -0.060046 0.000000 0.191886
#
#
# Mechanical properties :
#
#
# Convention : Reuss Voigt Hill
#
# Bulk Modulus (GPa) = 26.60969 35.96859 31.28914
# Shear Modulus (GPa) = 12.41144 22.46910 17.44027
#
# Velocity S-wave (km/s) = 2.45151 3.29849 2.90602
# Velocity P-wave (km/s) = 4.57146 5.65009 5.13915
#
# Compressibility (1/GPa) = 0.03758030
#
# Stress axis : x y z
#
# Youngs Moduli (GPa) = 67.26410 25.97874 80.62005
#
# Poissons Ratio (x) = 0.24708 0.26837
# Poissons Ratio (y) = 0.63974 0.10094
# Poissons Ratio (z) = 0.22391 0.03253
#
# Static dielectric constant tensor:
#      x y z
#    x 4.144110 0.000000 0.019410 
#    y 0.000000 3.398900 0.000000 
#    z 0.019410 0.000000 3.666980 
# 
# 
# High freq. dielectric constant tensor:
#      x y z
#    x 1.831960 0.000000 0.000720 
#    y 0.000000 1.766900 0.000000 
#    z 0.000720 0.000000 1.809530 
# 
# From -- ./inp_files/104546.got.cif
#   From: 2010.06.25/outbox.cif.g09.slc.cpg/sg12_53_cif.got.tgz:104546.got - 2010.06.28 00:19:55.
