data_PCOD8111578
_publ_section_title
;
Structure prediction by ZEFSAII (Michael W. Deem and Ramdas Pophale) SiO2 
 PCOD8111578
Probable space group: C 2/M
;
_chemical_formula_sum "Si O2"
_cell_formula_units_Z 48
_cell_length_a 10.370797
_cell_length_b 8.215953
_cell_length_c 26.123346
_cell_angle_alpha 90.000000
_cell_angle_beta 76.303521
_cell_angle_gamma 90.000000
_cell_volume 2162.569881
_symmetry_space_group_name_H-M "C 2/M"
_symmetry_group_IT_number 12
_symmetry_cell_setting 'monoclinic'
loop_
_space_group_symop_operation_xyz
x,y,z
-x,y,-z
-x,-y,-z
x,-y,z
1/2+x,1/2+y,z
1/2-x,1/2+y,-z
1/2-x,1/2-y,-z
1/2+x,1/2-y,z
loop_
_atom_site_type_symbol
_atom_site_label
_atom_site_fract_x
_atom_site_fract_y
_atom_site_fract_z
Si Si1 0.707371 0.687751 0.113863
Si Si2 0.287998 0.500000 0.527360
Si Si3 0.012448 0.189859 0.942234
Si Si4 0.901591 0.313089 0.772847
Si Si5 0.386629 0.178568 0.387164
Si Si6 0.803305 0.313655 0.284705
Si Si7 0.968040 0.000000 0.421514
O O1 0.734489 0.500000 0.099562
O O2 0.844421 0.782506 0.095574
O O3 0.600608 0.764361 0.084204
O O4 0.654368 0.704183 0.176223
O O5 0.203678 0.659684 0.552913
O O6 0.323831 0.500000 0.463948
O O7 0.421076 0.500000 0.547160
O O8 0.985493 0.000000 0.948667
O O9 0.000000 0.269718 0.000000
O O10 0.899548 0.500000 0.790219
O O11 0.810161 0.293103 0.731227
O O12 0.050470 0.255070 0.746531
O O13 0.293029 0.210498 0.346853
O O14 0.480957 0.335773 0.385876
O O15 0.460480 0.000000 0.371152
O O16 0.779461 0.500000 0.271225
#
# Coordination Sequence:
#
# PCOD8111578 Si02
#       7
#     8   4   8   8   8   8   4
#     4  11  23  39  60  89 122 159 202 250 304 357
#     4   9  22  40  59  93 123 157 212 253 304 387
#     4  10  22  40  63  91 124 160 202 248 299 361
#     4  11  24  40  62  88 118 160 206 249 308 369
#     4   9  22  39  59  89 123 156 205 260 305 378
#     4  10  23  41  60  89 122 155 204 258 307 367
#     4  11  20  40  63  87 125 165 202 253 318 371
#
# _framework density 22.195816000000001
#
# number of rings (size 3 to 8) (size 9 to 14) (size 15 to 20)
#    0.500    1.333    0.000    3.000    3.500    5.667 
#    1.500    0.833    0.000    0.000    0.000    0.000 
#    0.000    0.000    0.000    0.000    0.000    0.000 
#
# Total GULP energy -297479.122004 kJ/mol
# GULP energy per Si atom -12394.963417 kJ/mol
# Density = 2.214530 g / cm^3
# Si number density = 22.195816 Si / 1000 Ang^3
#
#
#
# Elastic Constant Matrix: (Units=GPa)
#
#
# Indices 1 2 3 4 5 6 
#
# 1 83.3551 15.3507 -12.8373 0.0000 10.3912 0.0000
# 2 15.3507 82.4585 1.2778 0.0000 13.5937 0.0000
# 3 -12.8373 1.2778 54.8171 0.0000 9.6238 0.0000
# 4 0.0000 0.0000 0.0000 4.8338 0.0000 2.5919
# 5 10.3912 13.5937 9.6238 0.0000 35.7884 0.0000
# 6 0.0000 0.0000 0.0000 2.5919 0.0000 20.5887
#
#
#
# Elastic Compliance Matrix: (Units=1/GPa)
#
#
# Indices 1 2 3 4 5 6 
#
# 1 0.013481 -0.001867 0.003950 0.000000 -0.004267 0.000000
# 2 -0.001867 0.013214 0.000043 0.000000 -0.004489 0.000000
# 3 0.003950 0.000043 0.020330 0.000000 -0.006630 0.000000
# 4 0.000000 0.000000 0.000000 0.221853 0.000000 -0.027929
# 5 -0.004267 -0.004489 -0.006630 0.000000 0.032669 0.000000
# 6 0.000000 0.000000 0.000000 -0.027929 0.000000 0.052086
#
#
# Mechanical properties :
#
#
# Convention : Reuss Voigt Hill
#
# Bulk Modulus (GPa) = 19.50247 25.35701 22.42974
# Shear Modulus (GPa) = 13.64346 26.69814 20.17080
#
# Velocity S-wave (km/s) = 2.48198 3.47197 3.01784
# Velocity P-wave (km/s) = 4.12544 5.24612 4.71916
#
# Compressibility (1/GPa) = 0.05127555
#
# Stress axis : x y z
#
# Youngs Moduli (GPa) = 74.17852 75.67588 49.18734
#
# Poissons Ratio (x) = 0.14132 -0.19427
# Poissons Ratio (y) = 0.13852 -0.00210
# Poissons Ratio (z) = -0.29298 -0.00323
#
# Static dielectric constant tensor:
#      x y z
#    x 3.839710 0.000000 0.035470 
#    y 0.000000 3.794700 0.000000 
#    z 0.035470 0.000000 4.144940 
# 
# 
# High freq. dielectric constant tensor:
#      x y z
#    x 1.864500 0.000000 0.003160 
#    y 0.000000 1.862770 0.000000 
#    z 0.003160 0.000000 1.881520 
# 
# From -- ./inp_files/334802.got.cif
#   From: 2010.06.25/outbox.cif.g09.slc.cpg/sg12_168_cif.got.tgz:334802.got - 2010.06.28 00:19:55.
