data_PCOD8111007
_publ_section_title
;
Structure prediction by ZEFSAII (Michael W. Deem and Ramdas Pophale) SiO2 
 PCOD8111007
Probable space group: C 2/M
;
_chemical_formula_sum "Si O2"
_cell_formula_units_Z 44
_cell_length_a 12.464806
_cell_length_b 26.634363
_cell_length_c 8.809373
_cell_angle_alpha 90.000000
_cell_angle_beta 134.490226
_cell_angle_gamma 90.000000
_cell_volume 2086.352479
_symmetry_space_group_name_H-M "C 2/M"
_symmetry_group_IT_number 12
_symmetry_cell_setting 'monoclinic'
loop_
_space_group_symop_operation_xyz
x,y,z
-x,y,-z
-x,-y,-z
x,-y,z
1/2+x,1/2+y,z
1/2-x,1/2+y,-z
1/2-x,1/2-y,-z
1/2+x,1/2-y,z
loop_
_atom_site_type_symbol
_atom_site_label
_atom_site_fract_x
_atom_site_fract_y
_atom_site_fract_z
Si Si1 0.546965 0.000000 0.791785
Si Si2 0.339390 0.842891 0.531477
Si Si3 0.000000 0.580848 0.500000
Si Si4 0.169346 0.218353 0.136031
Si Si5 0.237011 0.500000 0.274218
Si Si6 0.833958 0.322966 0.012740
Si Si7 0.166720 0.890177 0.629047
O O1 0.564485 0.951406 0.703096
O O2 0.388891 0.000000 0.721028
O O3 0.676964 0.000000 0.043579
O O4 0.365010 0.884543 0.426590
O O5 0.273117 0.793447 0.384750
O O6 0.493685 0.829002 0.768175
O O7 0.216797 0.864481 0.523620
O O8 0.227528 0.187808 0.048920
O O9 0.179432 0.277921 0.121448
O O10 0.000000 0.200661 0.000000
O O11 0.335583 0.450229 0.393052
O O12 0.779747 0.373782 0.876279
O O13 0.000000 0.870899 0.500000
#
# Coordination Sequence:
#
# PCOD8111007 Si02
#       7
#     4   8   4   8   4   8   8
#     4  10  22  38  69  96 129 166 227 263 322 388
#     4  12  23  43  69  95 133 173 223 267 318 398
#     4  11  20  40  66 100 122 170 218 267 308 386
#     4  11  24  42  65  97 135 171 217 270 334 382
#     4  11  23  40  65  96 130 171 209 276 327 396
#     4  11  25  43  67  96 129 176 223 267 322 396
#     4  12  26  43  66  96 134 170 218 276 335 383
#
# _framework density 21.089437
#
# number of rings (size 3 to 8) (size 9 to 14) (size 15 to 20)
#    0.000    0.727    3.636    4.091    2.545    5.818 
#    0.000    0.000    0.000    1.091    0.000    0.000 
#    0.000    0.000    0.000    0.000    0.000    0.000 
#
# Total GULP energy -272903.665625 kJ/mol
# GULP energy per Si atom -12404.712074 kJ/mol
# Density = 2.104144 g / cm^3
# Si number density = 21.089437 Si / 1000 Ang^3
#
#
#
# Elastic Constant Matrix: (Units=GPa)
#
#
# Indices 1 2 3 4 5 6 
#
# 1 164.3578 48.2913 54.3419 0.0000 2.9556 0.0000
# 2 48.2913 120.8613 55.8920 0.0000 -9.1357 0.0000
# 3 54.3419 55.8920 126.3008 0.0000 2.4886 0.0000
# 4 0.0000 0.0000 0.0000 28.6760 0.0000 -14.9707
# 5 2.9556 -9.1357 2.4886 0.0000 32.8705 0.0000
# 6 0.0000 0.0000 0.0000 -14.9707 0.0000 12.7103
#
#
#
# Elastic Compliance Matrix: (Units=1/GPa)
#
#
# Indices 1 2 3 4 5 6 
#
# 1 0.007450 -0.001990 -0.002304 0.000000 -0.001049 0.000000
# 2 -0.001990 0.011292 -0.004212 0.000000 0.003636 0.000000
# 3 -0.002304 -0.004212 0.010808 0.000000 -0.001782 0.000000
# 4 0.000000 0.000000 0.000000 0.090557 0.000000 0.106662
# 5 -0.001049 0.003636 -0.001782 0.000000 0.031662 0.000000
# 6 0.000000 0.000000 0.000000 0.106662 0.000000 0.204308
#
#
# Mechanical properties :
#
#
# Convention : Reuss Voigt Hill
#
# Bulk Modulus (GPa) = 79.76624 80.95225 80.35925
# Shear Modulus (GPa) = 13.25315 31.71767 22.48541
#
# Velocity S-wave (km/s) = 2.50956 3.88230 3.26880
# Velocity P-wave (km/s) = 6.80457 7.65277 7.24110
#
# Compressibility (1/GPa) = 0.01253663
#
# Stress axis : x y z
#
# Youngs Moduli (GPa) = 134.23388 88.55741 92.52391
#
# Poissons Ratio (x) = 0.17627 0.21315
# Poissons Ratio (y) = 0.26719 0.38974
# Poissons Ratio (z) = 0.30924 0.37303
#
# Static dielectric constant tensor:
#      x y z
#    x 4.042010 0.000000 -0.204650 
#    y 0.000000 3.967270 0.000000 
#    z -0.204650 0.000000 3.647540 
# 
# 
# High freq. dielectric constant tensor:
#      x y z
#    x 1.845970 0.000000 -0.016820 
#    y 0.000000 1.834950 0.000000 
#    z -0.016820 0.000000 1.816670 
# 
# From -- ./inp_files/53446.got.cif
#   From: 2010.06.25/outbox.cif.g09.slc.cpg/sg12_27_cif.got.tgz:53446.got - 2010.06.28 00:19:55.
