data_PCOD8111638
_publ_section_title
;
Structure prediction by ZEFSAII (Michael W. Deem and Ramdas Pophale) SiO2 
 PCOD8111638
Probable space group: C 2/M
;
_chemical_formula_sum "Si O2"
_cell_formula_units_Z 64
_cell_length_a 31.737219
_cell_length_b 14.314426
_cell_length_c 21.385584
_cell_angle_alpha 90.000000
_cell_angle_beta 161.037810
_cell_angle_gamma 90.000000
_cell_volume 3156.985691
_symmetry_space_group_name_H-M "C 2/M"
_symmetry_group_IT_number 12
_symmetry_cell_setting 'monoclinic'
loop_
_space_group_symop_operation_xyz
x,y,z
-x,y,-z
-x,-y,-z
x,-y,z
1/2+x,1/2+y,z
1/2-x,1/2+y,-z
1/2-x,1/2-y,-z
1/2+x,1/2-y,z
loop_
_atom_site_type_symbol
_atom_site_label
_atom_site_fract_x
_atom_site_fract_y
_atom_site_fract_z
Si Si1 0.636169 0.250521 0.719990
Si Si2 0.974071 0.735225 0.303475
Si Si3 0.299319 0.605514 0.872660
Si Si4 0.779141 0.701862 0.606753
Si Si5 0.638445 0.106462 0.955478
Si Si6 0.549303 0.106691 0.967213
Si Si7 0.017470 0.104319 0.275889
Si Si8 0.227663 0.764006 0.272162
O O1 0.500000 0.281579 0.500000
O O2 0.621771 0.224466 0.772646
O O3 0.692157 0.162040 0.761337
O O4 0.728995 0.339194 0.845900
O O5 0.945738 0.830757 0.225995
O O6 0.121133 0.738500 0.533677
O O7 0.948240 0.647964 0.221849
O O8 0.247561 0.500000 0.792731
O O9 0.329006 0.648892 0.846042
O O10 0.437492 0.609239 0.099891
O O11 0.750000 0.750000 0.500000
O O12 0.662026 0.635598 0.462827
O O13 0.793389 0.778516 0.682791
O O14 0.907564 0.640566 0.787389
O O15 0.553290 0.115152 0.898192
O O16 0.672873 0.000000 0.987451
O O17 0.660769 0.167721 0.156413
O O18 0.569883 0.000000 0.018099
O O19 0.020015 0.000000 0.307097
#
# Coordination Sequence:
#
# PCOD8111638 Si02
#       8
#     8   8   8   8   8   8   8   8
#     4  12  23  43  66  91 129 168 214 263 315 374
#     4  11  22  40  64  89 128 168 210 263 314 374
#     4  11  23  42  66  90 128 170 213 262 316 381
#     4  11  23  39  66  93 128 169 213 264 318 378
#     4  11  24  41  64  94 132 166 208 262 319 380
#     4  11  22  40  65  96 129 167 213 263 318 375
#     4  10  22  40  64  93 126 169 214 262 318 378
#     4  11  22  41  63  90 129 165 207 264 315 376
#
# _framework density 20.272501999999999
#
# number of rings (size 3 to 8) (size 9 to 14) (size 15 to 20)
#    0.000    1.000    3.750    3.375    0.000    5.000 
#    0.000    1.250    0.000    3.000    0.000    0.000 
#    0.000    0.000    0.000    0.000    0.000    0.000 
#
# Total GULP energy -396861.037797 kJ/mol
# GULP energy per Si atom -12401.907431 kJ/mol
# Density = 2.022636 g / cm^3
# Si number density = 20.272502 Si / 1000 Ang^3
#
#
#
# Elastic Constant Matrix: (Units=GPa)
#
#
# Indices 1 2 3 4 5 6 
#
# 1 140.6388 66.5178 33.8180 0.0000 -6.1758 0.0000
# 2 66.5178 156.3437 58.4990 0.0000 -6.0467 0.0000
# 3 33.8180 58.4990 105.9922 0.0000 2.5006 0.0000
# 4 0.0000 0.0000 0.0000 22.7316 0.0000 -1.4657
# 5 -6.1758 -6.0467 2.5006 0.0000 34.3998 0.0000
# 6 0.0000 0.0000 0.0000 -1.4657 0.0000 19.2543
#
#
#
# Elastic Compliance Matrix: (Units=1/GPa)
#
#
# Indices 1 2 3 4 5 6 
#
# 1 0.009018 -0.003413 -0.001019 0.000000 0.001093 0.000000
# 2 -0.003413 0.009458 -0.004163 0.000000 0.001352 0.000000
# 3 -0.001019 -0.004163 0.012100 0.000000 -0.001794 0.000000
# 4 0.000000 0.000000 0.000000 0.044209 0.000000 0.003365
# 5 0.001093 0.001352 -0.001794 0.000000 0.029634 0.000000
# 6 0.000000 0.000000 0.000000 0.003365 0.000000 0.052193
#
#
# Mechanical properties :
#
#
# Convention : Reuss Voigt Hill
#
# Bulk Modulus (GPa) = 74.71025 80.07162 77.39093
# Shear Modulus (GPa) = 28.04828 31.55315 29.80071
#
# Velocity S-wave (km/s) = 3.72366 3.94947 3.83823
# Velocity P-wave (km/s) = 7.44450 7.77053 7.60926
#
# Compressibility (1/GPa) = 0.01338504
#
# Stress axis : x y z
#
# Youngs Moduli (GPa) = 110.89213 105.72734 82.64518
#
# Poissons Ratio (x) = 0.36085 0.08424
# Poissons Ratio (y) = 0.37848 0.34406
# Poissons Ratio (z) = 0.11303 0.44016
#
# Static dielectric constant tensor:
#      x y z
#    x 3.942650 0.000000 -0.107110 
#    y 0.000000 3.726550 0.000000 
#    z -0.107110 0.000000 3.832100 
# 
# 
# High freq. dielectric constant tensor:
#      x y z
#    x 1.803860 0.000000 -0.007620 
#    y 0.000000 1.781070 0.000000 
#    z -0.007620 0.000000 1.806160 
# 
# From -- ./inp_files/330397.got.cif
#   From: 2010.06.25/outbox.cif.g09.slc.cpg/sg12_166_cif.got.tgz:330397.got - 2010.06.28 00:19:55.
