data_PCOD8111774
_publ_section_title
;
Structure prediction by ZEFSAII (Michael W. Deem and Ramdas Pophale) SiO2 
 PCOD8111774
Probable space group: C 2/M
;
_chemical_formula_sum "Si O2"
_cell_formula_units_Z 48
_cell_length_a 20.227113
_cell_length_b 14.418383
_cell_length_c 11.573822
_cell_angle_alpha 90.000000
_cell_angle_beta 41.727216
_cell_angle_gamma 90.000000
_cell_volume 2246.625808
_symmetry_space_group_name_H-M "C 2/M"
_symmetry_group_IT_number 12
_symmetry_cell_setting 'monoclinic'
loop_
_space_group_symop_operation_xyz
x,y,z
-x,y,-z
-x,-y,-z
x,-y,z
1/2+x,1/2+y,z
1/2-x,1/2+y,-z
1/2-x,1/2-y,-z
1/2+x,1/2-y,z
loop_
_atom_site_type_symbol
_atom_site_label
_atom_site_fract_x
_atom_site_fract_y
_atom_site_fract_z
Si Si1 0.197236 0.610680 0.991044
Si Si2 0.109562 0.607813 0.344073
Si Si3 0.787259 0.105623 0.269621
Si Si4 0.232829 0.105384 0.436200
Si Si5 0.890585 0.715242 0.097453
Si Si6 0.106692 0.892682 0.386413
O O1 0.190884 0.500000 0.985955
O O2 0.117672 0.656054 0.008424
O O3 0.307253 0.647257 0.810735
O O4 0.170258 0.646260 0.154251
O O5 0.093548 0.500000 0.343699
O O6 0.174912 0.627794 0.373103
O O7 0.000000 0.654263 0.500000
O O8 0.796207 0.120990 0.394181
O O9 0.863179 0.176627 0.110009
O O10 0.816140 0.000000 0.196835
O O11 0.319641 0.175471 0.289941
O O12 0.136970 0.125290 0.480277
O O13 0.269906 0.000000 0.366880
O O14 0.000000 0.706683 0.000000
O O15 0.000000 0.844042 0.500000
O O16 0.096242 0.000000 0.371378
#
# Coordination Sequence:
#
# PCOD8111774 Si02
#       6
#     8   8   8   8   8   8
#     4   9  19  36  59  91 124 150 194 252 301 359
#     4   9  19  37  62  88 116 157 201 244 302 361
#     4  10  22  41  60  82 119 162 203 244 290 357
#     4   9  19  37  61  88 118 152 196 249 301 356
#     4  11  23  37  58  88 121 156 196 247 302 354
#     4   8  14  29  54  85 118 153 190 234 291 350
#
# _framework density 21.365375
#
# number of rings (size 3 to 8) (size 9 to 14) (size 15 to 20)
#    0.000    2.667    0.000    2.000    2.333    2.333 
#    3.000    3.333    0.000    0.000    0.000    0.000 
#    0.000    0.667    0.000    0.000    0.000    0.000 
#
# Total GULP energy -297498.920880 kJ/mol
# GULP energy per Si atom -12395.788370 kJ/mol
# Density = 2.131675 g / cm^3
# Si number density = 21.365375 Si / 1000 Ang^3
#
#
#
# Elastic Constant Matrix: (Units=GPa)
#
#
# Indices 1 2 3 4 5 6 
#
# 1 162.2514 30.1221 83.8505 0.0000 -19.1495 0.0000
# 2 30.1221 79.7968 14.7316 0.0000 -4.3709 0.0000
# 3 83.8505 14.7316 105.7403 0.0000 -3.1108 0.0000
# 4 0.0000 0.0000 0.0000 14.0556 0.0000 -4.0376
# 5 -19.1495 -4.3709 -3.1108 0.0000 42.0641 0.0000
# 6 0.0000 0.0000 0.0000 -4.0376 0.0000 16.0037
#
#
#
# Elastic Compliance Matrix: (Units=1/GPa)
#
#
# Indices 1 2 3 4 5 6 
#
# 1 0.011703 -0.002552 -0.008795 0.000000 0.004412 0.000000
# 2 -0.002552 0.013481 0.000153 0.000000 0.000250 0.000000
# 3 -0.008795 0.000153 0.016328 0.000000 -0.002780 0.000000
# 4 0.000000 0.000000 0.000000 0.076705 0.000000 0.019352
# 5 0.004412 0.000250 -0.002780 0.000000 0.025602 0.000000
# 6 0.000000 0.000000 0.000000 0.019352 0.000000 0.067368
#
#
# Mechanical properties :
#
#
# Convention : Reuss Voigt Hill
#
# Bulk Modulus (GPa) = 52.29069 67.24409 59.76739
# Shear Modulus (GPa) = 20.83771 29.03031 24.93401
#
# Velocity S-wave (km/s) = 3.12637 3.69013 3.41989
# Velocity P-wave (km/s) = 6.12861 7.04967 6.60521
#
# Compressibility (1/GPa) = 0.01912386
#
# Stress axis : x y z
#
# Youngs Moduli (GPa) = 85.44806 74.17994 61.24366
#
# Poissons Ratio (x) = 0.18934 0.53863
# Poissons Ratio (y) = 0.21810 -0.00939
# Poissons Ratio (z) = 0.75151 -0.01137
#
# Static dielectric constant tensor:
#      x y z
#    x 3.955190 0.000000 -0.011450 
#    y 0.000000 3.856970 0.000000 
#    z -0.011450 0.000000 3.888260 
# 
# 
# High freq. dielectric constant tensor:
#      x y z
#    x 1.843990 0.000000 0.003680 
#    y 0.000000 1.838900 0.000000 
#    z 0.003680 0.000000 1.813440 
# 
# From -- ./inp_files/143509.got.cif
#   From: 2010.06.25/outbox.cif.g09.slc.cpg/sg12_72_cif.got.tgz:143509.got - 2010.06.28 00:19:55.
