data_PCOD8111446
_publ_section_title
;
Structure prediction by ZEFSAII (Michael W. Deem and Ramdas Pophale) SiO2 
 PCOD8111446
Probable space group: C 2/M
;
_chemical_formula_sum "Si O2"
_cell_formula_units_Z 40
_cell_length_a 14.314774
_cell_length_b 8.282349
_cell_length_c 27.348399
_cell_angle_alpha 90.000000
_cell_angle_beta 37.470050
_cell_angle_gamma 90.000000
_cell_volume 1972.518310
_symmetry_space_group_name_H-M "C 2/M"
_symmetry_group_IT_number 12
_symmetry_cell_setting 'monoclinic'
loop_
_space_group_symop_operation_xyz
x,y,z
-x,y,-z
-x,-y,-z
x,-y,z
1/2+x,1/2+y,z
1/2-x,1/2+y,-z
1/2-x,1/2-y,-z
1/2+x,1/2-y,z
loop_
_atom_site_type_symbol
_atom_site_label
_atom_site_fract_x
_atom_site_fract_y
_atom_site_fract_z
Si Si1 0.188964 0.811970 0.379974
Si Si2 0.734241 0.813105 0.922303
Si Si3 0.137384 0.687394 0.505210
Si Si4 0.948047 0.185783 0.089834
Si Si5 0.935872 0.312667 0.198981
O O1 0.211103 0.715088 0.421207
O O2 0.320319 0.751001 0.288696
O O3 0.023620 0.781298 0.424165
O O4 0.206801 0.000000 0.384463
O O5 0.655061 0.795919 0.902450
O O6 0.892117 0.716597 0.854617
O O7 0.765308 0.000000 0.921302
O O8 0.625800 0.737912 0.009508
O O9 0.105213 0.500000 0.526519
O O10 0.250000 0.750000 0.500000
O O11 0.897788 0.212097 0.166243
O O12 0.926230 0.000000 0.084030
O O13 0.909483 0.500000 0.198685
#
# Coordination Sequence:
#
# PCOD8111446 Si02
#       5
#     8   8   8   8   8
#     4  10  22  40  61  87 118 148 188 236 282 337
#     4  11  22  38  59  83 114 152 195 240 285 338
#     4  11  22  39  64  88 116 151 188 229 280 340
#     4  11  22  38  59  83 114 152 195 240 285 338
#     4  11  23  39  59  85 117 152 189 235 287 338
#
# _framework density 20.278645999999998
#
# number of rings (size 3 to 8) (size 9 to 14) (size 15 to 20)
#    0.000    1.200    0.000    9.600    0.000    4.800 
#    0.000    0.000    0.000    0.000    0.000    0.000 
#    0.000    0.000    0.000    0.000    0.000    0.000 
#
# Total GULP energy -248128.191928 kJ/mol
# GULP energy per Si atom -12406.409596 kJ/mol
# Density = 2.023249 g / cm^3
# Si number density = 20.278646 Si / 1000 Ang^3
#
#
#
# Elastic Constant Matrix: (Units=GPa)
#
#
# Indices 1 2 3 4 5 6 
#
# 1 91.1881 1.3658 33.9634 -0.0001 9.0757 0.0011
# 2 1.3658 74.1390 10.8774 0.0000 9.9763 0.0021
# 3 33.9634 10.8774 118.0836 0.0000 22.6519 0.0000
# 4 -0.0001 0.0000 0.0000 29.6594 0.0000 0.2501
# 5 9.0757 9.9763 22.6519 0.0000 19.0573 -0.0001
# 6 0.0011 0.0021 0.0000 0.2501 -0.0001 35.7315
#
#
#
# Elastic Compliance Matrix: (Units=1/GPa)
#
#
# Indices 1 2 3 4 5 6 
#
# 1 0.012371 0.000563 -0.003139 0.000000 -0.002455 0.000000
# 2 0.000563 0.014538 0.000013 0.000000 -0.007895 -0.000001
# 3 -0.003139 0.000013 0.011768 0.000000 -0.012500 0.000000
# 4 0.000000 0.000000 0.000000 0.033718 0.000000 -0.000236
# 5 -0.002455 -0.007895 -0.012500 0.000000 0.072633 0.000001
# 6 0.000000 -0.000001 0.000000 -0.000236 0.000001 0.027988
#
#
# Mechanical properties :
#
#
# Convention : Reuss Voigt Hill
#
# Bulk Modulus (GPa) = 29.80459 41.75823 35.78141
# Shear Modulus (GPa) = 26.40939 32.70324 29.55632
#
# Velocity S-wave (km/s) = 3.61269 4.02019 3.82188
# Velocity P-wave (km/s) = 5.66846 6.49509 6.09580
#
# Compressibility (1/GPa) = 0.03355188
#
# Stress axis : x y z
#
# Youngs Moduli (GPa) = 80.83117 68.78450 84.97563
#
# Poissons Ratio (x) = -0.03873 0.26676
# Poissons Ratio (y) = -0.04551 -0.00113
# Poissons Ratio (z) = 0.25375 -0.00091
#
# Static dielectric constant tensor:
#      x y z
#    x 3.754250 0.000000 0.122360 
#    y 0.000000 3.751420 0.000000 
#    z 0.122360 0.000000 3.797090 
# 
# 
# High freq. dielectric constant tensor:
#      x y z
#    x 1.795860 0.000000 0.003700 
#    y 0.000000 1.805430 0.000000 
#    z 0.003700 0.000000 1.789650 
# 
# From -- ./inp_files/375242.got.cif
#   From: 2010.06.25/outbox.cif.g09.slc.cpg/sg12_188_cif.got.tgz:375242.got - 2010.06.28 00:19:55.
