data_PCOD8111554
_publ_section_title
;
Structure prediction by ZEFSAII (Michael W. Deem and Ramdas Pophale) SiO2 
 PCOD8111554
Probable space group: C 2/M
;
_chemical_formula_sum "Si O2"
_cell_formula_units_Z 32
_cell_length_a 16.550672
_cell_length_b 11.800631
_cell_length_c 13.742082
_cell_angle_alpha 90.000000
_cell_angle_beta 34.615514
_cell_angle_gamma 90.000000
_cell_volume 1524.658774
_symmetry_space_group_name_H-M "C 2/M"
_symmetry_group_IT_number 12
_symmetry_cell_setting 'monoclinic'
loop_
_space_group_symop_operation_xyz
x,y,z
-x,y,-z
-x,-y,-z
x,-y,z
1/2+x,1/2+y,z
1/2-x,1/2+y,-z
1/2-x,1/2-y,-z
1/2+x,1/2-y,z
loop_
_atom_site_type_symbol
_atom_site_label
_atom_site_fract_x
_atom_site_fract_y
_atom_site_fract_z
Si Si1 0.912306 0.719014 0.817263
Si Si2 0.351566 0.500000 0.196747
Si Si3 0.836125 0.237730 0.315284
Si Si4 0.589960 0.373862 0.506764
Si Si5 0.900829 0.500000 0.693288
O O1 0.927236 0.608544 0.735226
O O2 0.004255 0.709594 0.827463
O O3 0.989873 0.823656 0.689502
O O4 0.750000 0.750000 0.000000
O O5 0.333163 0.608904 0.282714
O O6 0.254729 0.500000 0.196728
O O7 0.500000 0.500000 0.000000
O O8 0.750000 0.250000 0.500000
O O9 0.740072 0.310598 0.335727
O O10 0.500000 0.369661 0.500000
O O11 0.627618 0.500000 0.502687
O O12 0.000000 0.500000 0.500000
#
# Coordination Sequence:
#
# PCOD8111554 Si02
#       5
#     8   4   8   8   4
#     4  11  24  39  65  95 131 161 210 271 328 375
#     4  12  24  42  68  96 128 167 214 273 324 376
#     4  10  23  38  65  93 128 164 219 258 320 387
#     4  10  22  40  63  87 125 169 211 255 313 391
#     4  12  24  42  68  94 127 169 222 261 311 392
#
# _framework density 20.988303999999999
#
# number of rings (size 3 to 8) (size 9 to 14) (size 15 to 20)
#    0.000    1.250    0.000    6.750   10.500    0.000 
#    0.000    0.000    0.000    3.750    0.000    0.000 
#    0.000    0.000    0.000    0.000    0.000    0.000 
#
# Total GULP energy -198264.966144 kJ/mol
# GULP energy per Si atom -12391.560384 kJ/mol
# Density = 2.094053 g / cm^3
# Si number density = 20.988304 Si / 1000 Ang^3
#
#
#
# Elastic Constant Matrix: (Units=GPa)
#
#
# Indices 1 2 3 4 5 6 
#
# 1 119.6834 89.7434 41.8629 0.0000 -35.5473 0.0000
# 2 89.7434 195.1796 74.2159 0.0000 -13.1910 0.0000
# 3 41.8629 74.2159 120.2635 0.0000 -33.7173 0.0000
# 4 0.0000 0.0000 0.0000 13.4302 0.0000 -13.6578
# 5 -35.5473 -13.1910 -33.7173 0.0000 44.6860 0.0000
# 6 0.0000 0.0000 0.0000 -13.6578 0.0000 40.1859
#
#
#
# Elastic Compliance Matrix: (Units=1/GPa)
#
#
# Indices 1 2 3 4 5 6 
#
# 1 0.017624 -0.008238 0.002788 0.000000 0.013691 0.000000
# 2 -0.008238 0.010620 -0.005890 0.000000 -0.007863 0.000000
# 3 0.002788 -0.005890 0.014096 0.000000 0.011114 0.000000
# 4 0.000000 0.000000 0.000000 0.113786 0.000000 0.038672
# 5 0.013691 -0.007863 0.011114 0.000000 0.039335 0.000000
# 6 0.000000 0.000000 0.000000 0.038672 0.000000 0.038028
#
#
# Mechanical properties :
#
#
# Convention : Reuss Voigt Hill
#
# Bulk Modulus (GPa) = 50.87088 94.08566 72.47827
# Shear Modulus (GPa) = 19.03150 34.94739 26.98944
#
# Velocity S-wave (km/s) = 3.01452 4.08498 3.58987
# Velocity P-wave (km/s) = 6.03381 8.19600 7.19657
#
# Compressibility (1/GPa) = 0.01965761
#
# Stress axis : x y z
#
# Youngs Moduli (GPa) = 56.74047 94.16405 70.94282
#
# Poissons Ratio (x) = 0.77574 -0.19775
# Poissons Ratio (y) = 0.46744 0.41788
# Poissons Ratio (z) = -0.15816 0.55466
#
# Static dielectric constant tensor:
#      x y z
#    x -9.347360 0.000000 6.058020 
#    y 0.000000 4.222180 0.000000 
#    z 6.058020 0.000000 0.681530 
# 
# 
# High freq. dielectric constant tensor:
#      x y z
#    x 1.851200 0.000000 -0.025750 
#    y 0.000000 1.829700 0.000000 
#    z -0.025750 0.000000 1.809360 
# 
# From -- ./inp_files/71034.got.cif
#   From: 2010.06.25/outbox.cif.g09.slc.cpg/sg12_36_cif.got.tgz:71034.got - 2010.06.28 00:19:55.
