data_PCOD8111612
_publ_section_title
;
Structure prediction by ZEFSAII (Michael W. Deem and Ramdas Pophale) SiO2 
 PCOD8111612
Probable space group: C 2/M
;
_chemical_formula_sum "Si O2"
_cell_formula_units_Z 56
_cell_length_a 21.655132
_cell_length_b 20.993213
_cell_length_c 18.334118
_cell_angle_alpha 90.000000
_cell_angle_beta 160.561908
_cell_angle_gamma 90.000000
_cell_volume 2773.751899
_symmetry_space_group_name_H-M "C 2/M"
_symmetry_group_IT_number 12
_symmetry_cell_setting 'monoclinic'
loop_
_space_group_symop_operation_xyz
x,y,z
-x,y,-z
-x,-y,-z
x,-y,z
1/2+x,1/2+y,z
1/2-x,1/2+y,-z
1/2-x,1/2-y,-z
1/2+x,1/2-y,z
loop_
_atom_site_type_symbol
_atom_site_label
_atom_site_fract_x
_atom_site_fract_y
_atom_site_fract_z
Si Si1 0.210087 0.308949 0.383486
Si Si2 0.056810 0.571135 0.144897
Si Si3 0.381085 0.859796 0.568496
Si Si4 0.833603 0.430187 0.035248
Si Si5 0.977236 0.814143 0.889011
Si Si6 0.114613 0.297304 0.700759
Si Si7 0.125123 0.801295 0.819810
O O1 0.203151 0.376349 0.333759
O O2 0.120023 0.310642 0.363826
O O3 0.108279 0.255340 0.222339
O O4 0.425725 0.295702 0.634499
O O5 0.145074 0.500000 0.247049
O O6 0.877241 0.574812 0.997716
O O7 0.000000 0.588042 0.000000
O O8 0.473305 0.924329 0.702889
O O9 0.169214 0.867576 0.303552
O O10 0.512336 0.834762 0.650907
O O11 0.747530 0.500000 0.956772
O O12 0.696689 0.373480 0.905474
O O13 0.000000 0.822062 0.000000
O O14 0.176759 0.824541 0.073961
O O15 0.119215 0.222385 0.728456
O O16 0.000000 0.306481 0.500000
O O17 0.250000 0.750000 0.000000
#
# Coordination Sequence:
#
# PCOD8111612 Si02
#       7
#     8   8   8   8   8   8   8
#     4  11  22  34  58  85 120 159 204 250 305 365
#     4   9  19  37  57  81 118 164 206 246 299 365
#     4  11  22  40  59  88 119 161 203 254 309 364
#     4  10  22  40  64  89 122 165 211 260 309 367
#     4  12  22  37  58  89 123 158 198 250 312 370
#     4  12  23  37  59  92 127 159 199 255 313 368
#     4  12  22  38  60  89 124 160 205 257 310 366
#
# _framework density 20.189260999999998
#
# number of rings (size 3 to 8) (size 9 to 14) (size 15 to 20)
#    0.000    1.000    4.286    3.429    0.000    1.714 
#    0.000    0.000    0.000    3.857    0.000    0.000 
#    0.000    0.000    0.000    0.000    0.000    0.000 
#
# Total GULP energy -346979.182797 kJ/mol
# GULP energy per Si atom -12392.113671 kJ/mol
# Density = 2.014331 g / cm^3
# Si number density = 20.189261 Si / 1000 Ang^3
#
#
#
# Elastic Constant Matrix: (Units=GPa)
#
#
# Indices 1 2 3 4 5 6 
#
# 1 120.2226 47.5827 49.6544 -0.0026 -9.4841 -0.0005
# 2 47.5827 85.9965 43.2413 -0.0004 1.4605 -0.0002
# 3 49.6544 43.2413 120.0791 -0.0076 3.7036 -0.0026
# 4 -0.0026 -0.0004 -0.0076 26.4907 -0.0030 1.8719
# 5 -9.4841 1.4605 3.7036 -0.0030 38.5377 -0.0006
# 6 -0.0005 -0.0002 -0.0026 1.8719 -0.0006 19.9123
#
#
#
# Elastic Compliance Matrix: (Units=1/GPa)
#
#
# Indices 1 2 3 4 5 6 
#
# 1 0.011908 -0.005029 -0.003219 0.000001 0.003431 0.000000
# 2 -0.005029 0.016323 -0.003753 -0.000001 -0.001495 0.000000
# 3 -0.003219 -0.003753 0.011063 0.000003 -0.001713 0.000001
# 4 0.000001 -0.000001 0.000003 0.038002 0.000003 -0.003572
# 5 0.003431 -0.001495 -0.001713 0.000003 0.027014 0.000000
# 6 0.000000 0.000000 0.000001 -0.003572 0.000000 0.050556
#
#
# Mechanical properties :
#
#
# Convention : Reuss Voigt Hill
#
# Bulk Modulus (GPa) = 65.38556 67.47276 66.42916
# Shear Modulus (GPa) = 27.17907 29.37613 28.27760
#
# Velocity S-wave (km/s) = 3.67306 3.81863 3.74655
# Velocity P-wave (km/s) = 7.10247 7.27566 7.18959
#
# Compressibility (1/GPa) = 0.01529390
#
# Stress axis : x y z
#
# Youngs Moduli (GPa) = 83.97429 61.26332 90.38972
#
# Poissons Ratio (x) = 0.30807 0.29099
# Poissons Ratio (y) = 0.42227 0.33919
# Poissons Ratio (z) = 0.27034 0.22989
#
# Static dielectric constant tensor:
#      x y z
#    x 3.937900 0.000000 -0.189720 
#    y 0.000000 3.670780 0.000000 
#    z -0.189720 0.000000 4.095050 
# 
# 
# High freq. dielectric constant tensor:
#      x y z
#    x 1.804290 0.000000 -0.003810 
#    y 0.000000 1.758820 0.000000 
#    z -0.003810 0.000000 1.789800 
# 
# From -- ./inp_files/286075.got.cif
#   From: 2010.06.25/outbox.cif.g09.slc.cpg/sg12_144_cif.got.tgz:286075.got - 2010.06.28 00:19:55.
