data_PCOD8111538
_publ_section_title
;
Structure prediction by ZEFSAII (Michael W. Deem and Ramdas Pophale) SiO2 
 PCOD8111538
Probable space group: C 2/M
;
_chemical_formula_sum "Si O2"
_cell_formula_units_Z 48
_cell_length_a 27.670531
_cell_length_b 14.475890
_cell_length_c 14.145099
_cell_angle_alpha 90.000000
_cell_angle_beta 157.779308
_cell_angle_gamma 90.000000
_cell_volume 2142.701773
_symmetry_space_group_name_H-M "C 2/M"
_symmetry_group_IT_number 12
_symmetry_cell_setting 'monoclinic'
loop_
_space_group_symop_operation_xyz
x,y,z
-x,y,-z
-x,-y,-z
x,-y,z
1/2+x,1/2+y,z
1/2-x,1/2+y,-z
1/2-x,1/2-y,-z
1/2+x,1/2-y,z
loop_
_atom_site_type_symbol
_atom_site_label
_atom_site_fract_x
_atom_site_fract_y
_atom_site_fract_z
Si Si1 0.418772 0.709252 0.066689
Si Si2 0.682259 0.893087 0.571312
Si Si3 0.798001 0.601983 0.888560
Si Si4 0.993798 0.894037 0.597454
Si Si5 0.497367 0.104015 0.394283
Si Si6 0.891639 0.721856 0.723859
O O1 0.425283 0.674440 0.187756
O O2 0.554214 0.704246 0.255932
O O3 0.325399 0.642496 0.840332
O O4 0.362819 0.813146 0.950656
O O5 0.589680 0.845925 0.483998
O O6 0.627038 0.873486 0.367077
O O7 0.679729 0.000000 0.583759
O O8 0.833879 0.500000 0.909572
O O9 0.648166 0.613197 0.620773
O O10 0.852425 0.604680 0.094174
O O11 0.000000 0.860429 0.500000
O O12 0.044344 0.000000 0.697080
O O13 0.500000 0.156939 0.500000
O O14 0.548614 0.000000 0.502909
O O15 0.750000 0.750000 0.500000
O O16 0.000000 0.709609 0.000000
#
# Coordination Sequence:
#
# PCOD8111538 Si02
#       6
#     8   8   8   8   8   8
#     4  12  24  43  71  99 136 179 229 285 345 408
#     4  11  24  44  70 104 137 179 231 282 341 415
#     4  10  22  40  62  92 134 176 225 273 326 398
#     4  10  24  43  64  97 143 187 224 271 335 408
#     4   9  19  36  63  96 135 175 216 272 332 399
#     4  12  26  48  73  99 138 178 228 294 360 412
#
# _framework density 22.401623000000001
#
# number of rings (size 3 to 8) (size 9 to 14) (size 15 to 20)
#    0.000    1.333    3.333    1.500    2.333    1.667 
#    0.000    2.500    0.000    0.000    0.000    0.000 
#    0.000    0.000    0.000    0.000    0.000    0.000 
#
# Total GULP energy -297351.464799 kJ/mol
# GULP energy per Si atom -12389.644367 kJ/mol
# Density = 2.235064 g / cm^3
# Si number density = 22.401623 Si / 1000 Ang^3
#
#
#
# Elastic Constant Matrix: (Units=GPa)
#
#
# Indices 1 2 3 4 5 6 
#
# 1 128.5996 45.5277 44.3898 0.0000 -13.0452 0.0000
# 2 45.5277 89.5691 36.5740 0.0000 -2.3238 0.0000
# 3 44.3898 36.5740 113.0094 0.0000 -10.6549 0.0000
# 4 0.0000 0.0000 0.0000 33.6436 0.0000 -4.1897
# 5 -13.0452 -2.3238 -10.6549 0.0000 37.0152 0.0000
# 6 0.0000 0.0000 0.0000 -4.1897 0.0000 27.3967
#
#
#
# Elastic Compliance Matrix: (Units=1/GPa)
#
#
# Indices 1 2 3 4 5 6 
#
# 1 0.010388 -0.004203 -0.002467 0.000000 0.002687 0.000000
# 2 -0.004203 0.014571 -0.003205 0.000000 -0.001489 0.000000
# 3 -0.002467 -0.003205 0.011054 0.000000 0.002111 0.000000
# 4 0.000000 0.000000 0.000000 0.030300 0.000000 0.004634
# 5 0.002687 -0.001489 0.002111 0.000000 0.028477 0.000000
# 6 0.000000 0.000000 0.000000 0.004634 0.000000 0.037209
#
#
# Mechanical properties :
#
#
# Convention : Reuss Voigt Hill
#
# Bulk Modulus (GPa) = 61.48879 64.90680 63.19779
# Shear Modulus (GPa) = 31.81228 33.25688 32.53458
#
# Velocity S-wave (km/s) = 3.77249 3.85720 3.81508
# Velocity P-wave (km/s) = 6.81789 6.99102 6.90500
#
# Compressibility (1/GPa) = 0.01626313
#
# Stress axis : x y z
#
# Youngs Moduli (GPa) = 96.26293 68.62841 90.46395
#
# Poissons Ratio (x) = 0.28847 0.22315
# Poissons Ratio (y) = 0.40462 0.28995
# Poissons Ratio (z) = 0.23746 0.21996
#
# Static dielectric constant tensor:
#      x y z
#    x 4.217180 0.000000 0.044570 
#    y 0.000000 4.026470 0.000000 
#    z 0.044570 0.000000 4.203250 
# 
# 
# High freq. dielectric constant tensor:
#      x y z
#    x 1.870720 0.000000 -0.001290 
#    y 0.000000 1.870620 0.000000 
#    z -0.001290 0.000000 1.894080 
# 
# From -- ./inp_files/251515.got.cif
#   From: 2010.06.25/outbox.cif.g09.slc.cpg/sg12_126_cif.got.tgz:251515.got - 2010.06.28 00:19:55.
