data_PCOD8111196
_publ_section_title
;
Structure prediction by ZEFSAII (Michael W. Deem and Ramdas Pophale) SiO2 
 PCOD8111196
Probable space group: C 2/M
;
_chemical_formula_sum "Si O2"
_cell_formula_units_Z 52
_cell_length_a 10.954400
_cell_length_b 25.884385
_cell_length_c 9.514835
_cell_angle_alpha 90.000000
_cell_angle_beta 72.021822
_cell_angle_gamma 90.000000
_cell_volume 2566.183702
_symmetry_space_group_name_H-M "C 2/M"
_symmetry_group_IT_number 12
_symmetry_cell_setting 'monoclinic'
loop_
_space_group_symop_operation_xyz
x,y,z
-x,y,-z
-x,-y,-z
x,-y,z
1/2+x,1/2+y,z
1/2-x,1/2+y,-z
1/2-x,1/2-y,-z
1/2+x,1/2-y,z
loop_
_atom_site_type_symbol
_atom_site_label
_atom_site_fract_x
_atom_site_fract_y
_atom_site_fract_z
Si Si1 0.770853 0.235139 0.653479
Si Si2 0.486903 0.558580 0.851496
Si Si3 0.247891 0.940544 0.252401
Si Si4 0.609585 0.835952 0.356242
Si Si5 0.185579 0.905084 0.577710
Si Si6 0.934254 0.652883 0.167182
Si Si7 0.500000 0.671134 0.500000
O O1 0.750000 0.250000 0.500000
O O2 0.791486 0.290127 0.724175
O O3 0.654902 0.200768 0.753649
O O4 0.902819 0.204224 0.628973
O O5 0.448895 0.500000 0.893952
O O6 0.372282 0.580899 0.795697
O O7 0.622369 0.560521 0.721973
O O8 0.500000 0.586687 0.000000
O O9 0.212098 0.938598 0.429742
O O10 0.361941 0.901517 0.175570
O O11 0.285457 0.000000 0.203664
O O12 0.500000 0.813906 0.500000
O O13 0.681777 0.881734 0.412813
O O14 0.546083 0.858210 0.238974
O O15 0.084036 0.860492 0.580672
O O16 0.000000 0.669685 0.000000
#
# Coordination Sequence:
#
# PCOD8111196 Si02
#       7
#     8   8   8   8   8   8   4
#     4  12  20  40  69  93 121 171 213 263 315 382
#     4  10  22  39  61  93 129 163 210 270 325 375
#     4  11  22  42  68  92 125 175 221 264 318 380
#     4  12  23  41  66  93 126 167 213 263 321 384
#     4  12  21  37  64  96 122 165 216 267 317 379
#     4  12  27  45  63  95 137 170 214 269 326 391
#     4  12  18  34  65  92 116 156 213 256 314 358
#
# _framework density 20.263553999999999
#
# number of rings (size 3 to 8) (size 9 to 14) (size 15 to 20)
#    0.000    0.462    8.462    0.462    2.154    2.154 
#    0.000    3.077    0.000    0.000    0.000    0.000 
#    0.000    0.000    0.000    0.000    0.000    0.000 
#
# Total GULP energy -322330.738686 kJ/mol
# GULP energy per Si atom -12397.336103 kJ/mol
# Density = 2.021743 g / cm^3
# Si number density = 20.263554 Si / 1000 Ang^3
#
#
#
# Elastic Constant Matrix: (Units=GPa)
#
#
# Indices 1 2 3 4 5 6 
#
# 1 125.9993 46.0428 53.9264 0.0000 15.8975 0.0000
# 2 46.0428 87.5915 28.5304 0.0000 1.6226 0.0000
# 3 53.9264 28.5304 129.4216 0.0000 0.3047 0.0000
# 4 0.0000 0.0000 0.0000 17.2116 0.0000 -0.6733
# 5 15.8975 1.6226 0.3047 0.0000 33.0292 0.0000
# 6 0.0000 0.0000 0.0000 -0.6733 0.0000 32.3129
#
#
#
# Elastic Compliance Matrix: (Units=1/GPa)
#
#
# Indices 1 2 3 4 5 6 
#
# 1 0.012157 -0.005001 -0.003950 0.000000 -0.005569 0.000000
# 2 -0.005001 0.014368 -0.001088 0.000000 0.001711 0.000000
# 3 -0.003950 -0.001088 0.009608 0.000000 0.001866 0.000000
# 4 0.000000 0.000000 0.000000 0.058148 0.000000 0.001212
# 5 -0.005569 0.001711 0.001866 0.000000 0.032856 0.000000
# 6 0.000000 0.000000 0.000000 0.001212 0.000000 0.030973
#
#
# Mechanical properties :
#
#
# Convention : Reuss Voigt Hill
#
# Bulk Modulus (GPa) = 62.28175 66.66795 64.47485
# Shear Modulus (GPa) = 27.24232 30.81159 29.02695
#
# Velocity S-wave (km/s) = 3.67058 3.90364 3.78891
# Velocity P-wave (km/s) = 6.98332 7.29998 7.14341
#
# Compressibility (1/GPa) = 0.01605607
#
# Stress axis : x y z
#
# Youngs Moduli (GPa) = 82.25589 69.59989 104.08035
#
# Poissons Ratio (x) = 0.34805 0.41113
# Poissons Ratio (y) = 0.41133 0.11321
# Poissons Ratio (z) = 0.32492 0.07570
#
# Static dielectric constant tensor:
#      x y z
#    x 3.999230 0.000000 0.174130 
#    y 0.000000 3.682600 0.000000 
#    z 0.174130 0.000000 3.615610 
# 
# 
# High freq. dielectric constant tensor:
#      x y z
#    x 1.803620 0.000000 0.012220 
#    y 0.000000 1.786450 0.000000 
#    z 0.012220 0.000000 1.773370 
# 
# From -- ./inp_files/52562.got.cif
#   From: 2010.06.25/outbox.cif.g09.slc.cpg/sg12_27_cif.got.tgz:52562.got - 2010.06.28 00:19:55.
