data_PCOD8111922
_publ_section_title
;
Structure prediction by ZEFSAII (Michael W. Deem and Ramdas Pophale) SiO2 
 PCOD8111922
Probable space group: C 2/M
;
_chemical_formula_sum "Si O2"
_cell_formula_units_Z 40
_cell_length_a 18.901021
_cell_length_b 8.912337
_cell_length_c 11.944118
_cell_angle_alpha 90.000000
_cell_angle_beta 76.605250
_cell_angle_gamma 90.000000
_cell_volume 1957.281185
_symmetry_space_group_name_H-M "C 2/M"
_symmetry_group_IT_number 12
_symmetry_cell_setting 'monoclinic'
loop_
_space_group_symop_operation_xyz
x,y,z
-x,y,-z
-x,-y,-z
x,-y,z
1/2+x,1/2+y,z
1/2-x,1/2+y,-z
1/2-x,1/2-y,-z
1/2+x,1/2-y,z
loop_
_atom_site_type_symbol
_atom_site_label
_atom_site_fract_x
_atom_site_fract_y
_atom_site_fract_z
Si Si1 0.814688 0.323441 0.907834
Si Si2 0.914474 0.171120 0.032531
Si Si3 0.701707 0.328185 0.318540
Si Si4 0.573946 0.675512 0.533444
Si Si5 0.366873 0.826989 0.275388
O O1 0.810901 0.500000 0.923602
O O2 0.810700 0.281767 0.779994
O O3 0.750000 0.250000 0.000000
O O4 0.889322 0.261440 0.932229
O O5 0.880140 0.241317 0.155606
O O6 0.887341 0.000000 0.035245
O O7 0.000000 0.182481 0.000000
O O8 0.690146 0.500000 0.283398
O O9 0.643309 0.282793 0.433106
O O10 0.782248 0.305971 0.339739
O O11 0.500000 0.728954 0.500000
O O12 0.570357 0.500000 0.561843
O O13 0.581258 0.761615 0.647668
O O14 0.386863 0.000000 0.250364
#
# Coordination Sequence:
#
# PCOD8111922 Si02
#       5
#     8   8   8   8   8
#     4  12  24  40  65  96 129 166 209 257 312 373
#     4  11  25  43  65  92 127 170 211 257 314 377
#     4  10  22  41  64  91 125 167 211 256 309 371
#     4  10  23  42  64  90 123 165 210 258 313 374
#     4  11  23  40  64  92 125 164 209 262 311 369
#
# _framework density 20.436512
#
# number of rings (size 3 to 8) (size 9 to 14) (size 15 to 20)
#    0.000    1.200    2.000    3.600    2.800    3.600 
#    0.000    0.000    0.000    0.000    0.000    0.000 
#    0.000    0.000    0.000    0.000    0.000    0.000 
#
# Total GULP energy -248118.924775 kJ/mol
# GULP energy per Si atom -12405.946239 kJ/mol
# Density = 2.039000 g / cm^3
# Si number density = 20.436512 Si / 1000 Ang^3
#
#
#
# Elastic Constant Matrix: (Units=GPa)
#
#
# Indices 1 2 3 4 5 6 
#
# 1 90.3348 38.5216 23.0406 0.0000 13.2368 0.0000
# 2 38.5216 126.5762 33.1331 0.0000 14.9230 0.0000
# 3 23.0406 33.1331 62.5571 0.0000 19.0785 0.0000
# 4 0.0000 0.0000 0.0000 39.4024 0.0000 5.4571
# 5 13.2368 14.9230 19.0785 0.0000 40.8720 0.0000
# 6 0.0000 0.0000 0.0000 5.4571 0.0000 29.5094
#
#
#
# Elastic Compliance Matrix: (Units=1/GPa)
#
#
# Indices 1 2 3 4 5 6 
#
# 1 0.013375 -0.003143 -0.002671 0.000000 -0.001938 0.000000
# 2 -0.003143 0.009967 -0.003873 0.000000 -0.000813 0.000000
# 3 -0.002671 -0.003873 0.021367 0.000000 -0.007695 0.000000
# 4 0.000000 0.000000 0.000000 0.026046 0.000000 -0.004817
# 5 -0.001938 -0.000813 -0.007695 0.000000 0.028983 0.000000
# 6 0.000000 0.000000 0.000000 -0.004817 0.000000 0.034778
#
#
# Mechanical properties :
#
#
# Convention : Reuss Voigt Hill
#
# Bulk Modulus (GPa) = 39.47066 52.09542 45.78304
# Shear Modulus (GPa) = 30.80043 34.27495 32.53769
#
# Velocity S-wave (km/s) = 3.88639 4.09974 3.99449
# Velocity P-wave (km/s) = 6.28446 6.92511 6.61255
#
# Compressibility (1/GPa) = 0.02533527
#
# Stress axis : x y z
#
# Youngs Moduli (GPa) = 74.76457 100.33463 46.80073
#
# Poissons Ratio (x) = 0.31536 0.12499
# Poissons Ratio (y) = 0.23499 0.18127
# Poissons Ratio (z) = 0.19967 0.38861
#
# Static dielectric constant tensor:
#      x y z
#    x 3.959290 0.000000 0.220210 
#    y 0.000000 3.819060 0.000000 
#    z 0.220210 0.000000 3.779400 
# 
# 
# High freq. dielectric constant tensor:
#      x y z
#    x 1.812360 0.000000 0.005970 
#    y 0.000000 1.803890 0.000000 
#    z 0.005970 0.000000 1.800640 
# 
# From -- ./inp_files/151662.got.cif
#   From: 2010.06.25/outbox.cif.g09.slc.cpg/sg12_76_cif.got.tgz:151662.got - 2010.06.28 00:19:55.
