data_PCOD8111295
_publ_section_title
;
Structure prediction by ZEFSAII (Michael W. Deem and Ramdas Pophale) SiO2 
 PCOD8111295
Probable space group: C 2/M
;
_chemical_formula_sum "Si O2"
_cell_formula_units_Z 64
_cell_length_a 14.583121
_cell_length_b 16.422242
_cell_length_c 19.180162
_cell_angle_alpha 90.000000
_cell_angle_beta 39.046676
_cell_angle_gamma 90.000000
_cell_volume 2893.633624
_symmetry_space_group_name_H-M "C 2/M"
_symmetry_group_IT_number 12
_symmetry_cell_setting 'monoclinic'
loop_
_space_group_symop_operation_xyz
x,y,z
-x,y,-z
-x,-y,-z
x,-y,z
1/2+x,1/2+y,z
1/2-x,1/2+y,-z
1/2-x,1/2-y,-z
1/2+x,1/2-y,z
loop_
_atom_site_type_symbol
_atom_site_label
_atom_site_fract_x
_atom_site_fract_y
_atom_site_fract_z
Si Si1 0.664265 0.093979 0.417490
Si Si2 0.334262 0.412301 0.594783
Si Si3 0.730392 0.594730 0.981116
Si Si4 0.161313 0.410855 0.933370
Si Si5 0.753248 0.707523 0.231864
Si Si6 0.419408 0.795725 0.771849
Si Si7 0.051391 0.818524 0.808207
Si Si8 0.794853 0.657874 0.457572
O O1 0.500000 0.127815 0.500000
O O2 0.790113 0.143279 0.302724
O O3 0.695694 0.102843 0.480176
O O4 0.674679 0.000000 0.388721
O O5 0.500000 0.431750 0.500000
O O6 0.252385 0.500000 0.656582
O O7 0.287144 0.342766 0.676096
O O8 0.323464 0.381450 0.522280
O O9 0.740757 0.500000 0.953776
O O10 0.827807 0.614518 0.991991
O O11 0.560180 0.616221 0.093442
O O12 0.794055 0.651145 0.882611
O O13 0.234537 0.500000 0.882375
O O14 0.246906 0.347930 0.836415
O O15 0.000000 0.413845 0.000000
O O16 0.632833 0.771396 0.275730
O O17 0.908646 0.750210 0.157152
O O18 0.471207 0.719680 0.788634
O O19 0.558374 0.851049 0.674519
O O20 0.750000 0.750000 0.500000
#
# Coordination Sequence:
#
# PCOD8111295 Si02
#       8
#     8   8   8   8   8   8   8   8
#     4  11  25  46  72 102 139 186 239 290 351 418
#     4  11  25  42  64  99 138 175 223 285 354 417
#     4  11  26  47  70 102 144 184 234 292 353 421
#     4  10  22  39  64  96 133 175 221 279 347 415
#     4  12  24  41  68  96 133 175 228 284 339 414
#     4  12  25  43  70 102 139 181 231 282 351 420
#     4  12  24  46  70 104 137 183 235 293 346 421
#     4  12  23  44  69 101 138 182 228 288 351 412
#
# _framework density 22.117522000000001
#
# number of rings (size 3 to 8) (size 9 to 14) (size 15 to 20)
#    0.000    0.625    3.750    3.750    1.750    2.000 
#    0.000    1.875    0.000    0.000    0.000    0.000 
#    0.000    0.000    0.000    0.000    0.000    0.000 
#
# Total GULP energy -396671.545721 kJ/mol
# GULP energy per Si atom -12395.985804 kJ/mol
# Density = 2.206718 g / cm^3
# Si number density = 22.117522 Si / 1000 Ang^3
#
#
#
# Elastic Constant Matrix: (Units=GPa)
#
#
# Indices 1 2 3 4 5 6 
#
# 1 138.3510 51.0917 30.0523 -0.0002 6.4552 0.0002
# 2 51.0917 100.9628 39.5686 0.0000 -1.2247 0.0001
# 3 30.0523 39.5686 105.9970 0.0002 -9.7239 0.0001
# 4 -0.0002 0.0000 0.0002 36.6318 0.0000 7.6084
# 5 6.4552 -1.2247 -9.7239 0.0000 38.2243 -0.0001
# 6 0.0002 0.0001 0.0001 7.6084 -0.0001 25.7816
#
#
#
# Elastic Compliance Matrix: (Units=1/GPa)
#
#
# Indices 1 2 3 4 5 6 
#
# 1 0.009122 -0.004165 -0.001214 0.000000 -0.001983 0.000000
# 2 -0.004165 0.013524 -0.003853 0.000000 0.000156 0.000000
# 3 -0.001214 -0.003853 0.011492 0.000000 0.003005 0.000000
# 4 0.000000 0.000000 0.000000 0.029081 0.000000 -0.008582
# 5 -0.001983 0.000156 0.003005 0.000000 0.027266 0.000000
# 6 0.000000 0.000000 0.000000 -0.008582 0.000000 0.041320
#
#
# Mechanical properties :
#
#
# Convention : Reuss Voigt Hill
#
# Bulk Modulus (GPa) = 63.79384 65.19291 64.49338
# Shear Modulus (GPa) = 32.15556 35.10076 33.62816
#
# Velocity S-wave (km/s) = 3.81707 3.98805 3.90350
# Velocity P-wave (km/s) = 6.95216 7.12361 7.03840
#
# Compressibility (1/GPa) = 0.01567549
#
# Stress axis : x y z
#
# Youngs Moduli (GPa) = 109.62445 73.94119 87.01353
#
# Poissons Ratio (x) = 0.30794 0.10559
# Poissons Ratio (y) = 0.45654 0.33531
# Poissons Ratio (z) = 0.13303 0.28493
#
# Static dielectric constant tensor:
#      x y z
#    x 4.136770 0.000000 0.122240 
#    y 0.000000 4.195140 0.000000 
#    z 0.122240 0.000000 3.356360 
# 
# 
# High freq. dielectric constant tensor:
#      x y z
#    x 1.889080 0.000000 -0.001410 
#    y 0.000000 1.878220 0.000000 
#    z -0.001410 0.000000 1.857970 
# 
# From -- ./inp_files/271683.got.cif
#   From: 2010.06.25/outbox.cif.g09.slc.cpg/sg12_136_cif.got.tgz:271683.got - 2010.06.28 00:19:55.
