data_PCOD8111293
_publ_section_title
;
Structure prediction by ZEFSAII (Michael W. Deem and Ramdas Pophale) SiO2 
 PCOD8111293
Probable space group: C 2/M
;
_chemical_formula_sum "Si O2"
_cell_formula_units_Z 40
_cell_length_a 25.694408
_cell_length_b 12.603442
_cell_length_c 8.666135
_cell_angle_alpha 90.000000
_cell_angle_beta 45.393552
_cell_angle_gamma 90.000000
_cell_volume 1998.024968
_symmetry_space_group_name_H-M "C 2/M"
_symmetry_group_IT_number 12
_symmetry_cell_setting 'monoclinic'
loop_
_space_group_symop_operation_xyz
x,y,z
-x,y,-z
-x,-y,-z
x,-y,z
1/2+x,1/2+y,z
1/2-x,1/2+y,-z
1/2-x,1/2-y,-z
1/2+x,1/2-y,z
loop_
_atom_site_type_symbol
_atom_site_label
_atom_site_fract_x
_atom_site_fract_y
_atom_site_fract_z
Si Si1 0.913535 0.000000 0.136815
Si Si2 0.533116 0.000000 0.170576
Si Si3 0.109982 0.180043 0.605813
Si Si4 0.000000 0.667939 0.000000
Si Si5 0.174186 0.000000 0.970397
Si Si6 0.429028 0.500000 0.543377
Si Si7 0.110911 0.500000 0.326276
Si Si8 0.282543 0.180373 0.797075
O O1 0.871528 0.102275 0.291173
O O2 0.898173 0.000000 0.986573
O O3 0.000000 0.000000 0.000000
O O4 0.544849 0.099523 0.032093
O O5 0.591229 0.000000 0.186605
O O6 0.454191 0.000000 0.415484
O O7 0.052739 0.264681 0.784094
O O8 0.071572 0.107819 0.554672
O O9 0.183169 0.239295 0.399231
O O10 0.221900 0.893939 0.842136
O O11 0.145848 0.000000 0.203750
O O12 0.500000 0.500000 0.500000
O O13 0.155259 0.606969 0.259942
O O14 0.250000 0.250000 0.000000
#
# Coordination Sequence:
#
# PCOD8111293 Si02
#       8
#     4   4   8   4   4   4   4   8
#     4  11  24  43  65  98 132 160 212 272 323 378
#     4  10  22  39  64  96 125 159 214 267 313 364
#     4  11  23  41  63  91 132 169 201 265 318 379
#     4  11  22  39  62  96 130 163 208 255 330 376
#     4  11  24  42  68  95 126 170 216 265 315 385
#     4  11  24  39  66  97 124 164 223 269 316 363
#     4  10  22  40  64  95 124 161 216 266 301 368
#     4  11  23  43  64  92 129 170 214 255 315 386
#
# _framework density 20.019770999999999
#
# number of rings (size 3 to 8) (size 9 to 14) (size 15 to 20)
#    0.000    1.200    5.000    1.200    0.000    4.000 
#    0.000    2.000    0.000    0.000    0.000    0.000 
#    0.000    0.000    0.000    0.000    0.000    0.000 
#
# Total GULP energy -247944.004157 kJ/mol
# GULP energy per Si atom -12397.200208 kJ/mol
# Density = 1.997420 g / cm^3
# Si number density = 20.019771 Si / 1000 Ang^3
#
#
#
# Elastic Constant Matrix: (Units=GPa)
#
#
# Indices 1 2 3 4 5 6 
#
# 1 108.3817 36.1805 31.4127 0.0000 11.0675 0.0000
# 2 36.1805 137.0736 60.9390 0.0000 3.9075 0.0000
# 3 31.4127 60.9390 130.9653 0.0000 4.0183 0.0000
# 4 0.0000 0.0000 0.0000 64.7230 0.0000 6.7638
# 5 11.0675 3.9075 4.0183 0.0000 30.8184 0.0000
# 6 0.0000 0.0000 0.0000 6.7638 0.0000 19.3951
#
#
#
# Elastic Compliance Matrix: (Units=1/GPa)
#
#
# Indices 1 2 3 4 5 6 
#
# 1 0.010695 -0.002058 -0.001504 0.000000 -0.003384 0.000000
# 2 -0.002058 0.009606 -0.003977 0.000000 0.000040 0.000000
# 3 -0.001504 -0.003977 0.009854 0.000000 -0.000241 0.000000
# 4 0.000000 0.000000 0.000000 0.016035 0.000000 -0.005592
# 5 -0.003384 0.000040 -0.000241 0.000000 0.033690 0.000000
# 6 0.000000 0.000000 0.000000 -0.005592 0.000000 0.053510
#
#
# Mechanical properties :
#
#
# Convention : Reuss Voigt Hill
#
# Bulk Modulus (GPa) = 66.32612 70.38721 68.35666
# Shear Modulus (GPa) = 32.57488 39.51318 36.04403
#
# Velocity S-wave (km/s) = 4.03815 4.44746 4.24774
# Velocity P-wave (km/s) = 7.41245 7.84910 7.63390
#
# Compressibility (1/GPa) = 0.01507702
#
# Stress axis : x y z
#
# Youngs Moduli (GPa) = 93.50124 104.10686 101.47869
#
# Poissons Ratio (x) = 0.21424 0.15261
# Poissons Ratio (y) = 0.19242 0.40359
# Poissons Ratio (z) = 0.14061 0.41405
#
# Static dielectric constant tensor:
#      x y z
#    x 3.331650 0.000000 0.172090 
#    y 0.000000 6.750130 0.000000 
#    z 0.172090 0.000000 3.638530 
# 
# 
# High freq. dielectric constant tensor:
#      x y z
#    x 1.756180 0.000000 0.009340 
#    y 0.000000 1.802920 0.000000 
#    z 0.009340 0.000000 1.800880 
# 
# From -- ./inp_files/102390.got.cif
#   From: 2010.06.25/outbox.cif.g09.slc.cpg/sg12_52_cif.got.tgz:102390.got - 2010.06.28 00:19:55.
