data_PCOD8111670
_publ_section_title
;
Structure prediction by ZEFSAII (Michael W. Deem and Ramdas Pophale) SiO2 
 PCOD8111670
Probable space group: C 2/M
;
_chemical_formula_sum "Si O2"
_cell_formula_units_Z 64
_cell_length_a 25.455605
_cell_length_b 12.840956
_cell_length_c 14.490102
_cell_angle_alpha 90.000000
_cell_angle_beta 139.099310
_cell_angle_gamma 90.000000
_cell_volume 3101.185005
_symmetry_space_group_name_H-M "C 2/M"
_symmetry_group_IT_number 12
_symmetry_cell_setting 'monoclinic'
loop_
_space_group_symop_operation_xyz
x,y,z
-x,y,-z
-x,-y,-z
x,-y,z
1/2+x,1/2+y,z
1/2-x,1/2+y,-z
1/2-x,1/2-y,-z
1/2+x,1/2-y,z
loop_
_atom_site_type_symbol
_atom_site_label
_atom_site_fract_x
_atom_site_fract_y
_atom_site_fract_z
Si Si1 0.408655 0.381325 0.258205
Si Si2 0.132643 0.267950 0.312280
Si Si3 0.783072 0.881760 0.448892
Si Si4 0.014814 0.619299 0.804058
Si Si5 0.350960 0.719071 0.001269
Si Si6 0.032995 0.297335 0.448639
Si Si7 0.190087 0.198699 0.708994
Si Si8 0.406895 0.616147 0.896052
O O1 0.435007 0.500000 0.276109
O O2 0.353380 0.339778 0.101850
O O3 0.489819 0.314042 0.373273
O O4 0.356599 0.375665 0.282141
O O5 0.147023 0.194137 0.420232
O O6 0.200543 0.355815 0.392559
O O7 0.139164 0.197738 0.229470
O O8 0.047055 0.322961 0.209722
O O9 0.773138 0.868612 0.325675
O O10 0.806471 0.000000 0.502824
O O11 0.022648 0.500000 0.844932
O O12 0.101608 0.671627 0.930480
O O13 0.984408 0.624580 0.658229
O O14 0.259106 0.739433 0.854099
O O15 0.392244 0.643374 0.982597
O O16 0.128308 0.282755 0.584612
O O17 0.000000 0.347330 0.500000
O O18 0.374182 0.500000 0.832695
O O19 0.500000 0.622457 0.000000
#
# Coordination Sequence:
#
# PCOD8111670 Si02
#       8
#     8   8   8   8   8   8   8   8
#     4  10  22  40  65  92 123 161 203 253 315 370
#     4  11  22  42  57  89 126 156 207 253 302 364
#     4  11  23  37  62  91 122 159 199 254 312 361
#     4  11  23  41  63  87 123 171 206 247 308 370
#     4  11  23  42  60  92 129 162 205 256 301 368
#     4   9  21  41  63  90 120 157 206 262 306 362
#     4  11  21  40  62  91 128 156 199 255 308 366
#     4  11  22  39  64  88 119 161 206 250 302 359
#
# _framework density 20.637273
#
# number of rings (size 3 to 8) (size 9 to 14) (size 15 to 20)
#    0.000    1.375    3.750    1.875    0.000    4.000 
#    0.000    3.125    0.000    0.750    0.000    0.000 
#    0.000    0.000    0.000    0.000    0.000    0.000 
#
# Total GULP energy -396955.604383 kJ/mol
# GULP energy per Si atom -12404.862637 kJ/mol
# Density = 2.059030 g / cm^3
# Si number density = 20.637273 Si / 1000 Ang^3
#
#
#
# Elastic Constant Matrix: (Units=GPa)
#
#
# Indices 1 2 3 4 5 6 
#
# 1 75.6128 26.9173 24.3120 0.0000 -7.6499 0.0000
# 2 26.9173 100.2190 19.7799 0.0000 -1.0487 0.0000
# 3 24.3120 19.7799 101.0136 0.0000 3.0119 0.0000
# 4 0.0000 0.0000 0.0000 15.7370 0.0000 2.2260
# 5 -7.6499 -1.0487 3.0119 0.0000 39.7394 0.0000
# 6 0.0000 0.0000 0.0000 2.2260 0.0000 1.1170
#
#
#
# Elastic Compliance Matrix: (Units=1/GPa)
#
#
# Indices 1 2 3 4 5 6 
#
# 1 0.015860 -0.003593 -0.003209 0.000000 0.003201 0.000000
# 2 -0.003593 0.011200 -0.001320 0.000000 -0.000296 0.000000
# 3 -0.003209 -0.001320 0.010975 0.000000 -0.001484 0.000000
# 4 0.000000 0.000000 0.000000 0.088490 0.000000 -0.176355
# 5 0.003201 -0.000296 -0.001484 0.000000 0.025885 0.000000
# 6 0.000000 0.000000 0.000000 -0.176355 0.000000 1.246760
#
#
# Mechanical properties :
#
#
# Convention : Reuss Voigt Hill
#
# Bulk Modulus (GPa) = 45.88860 46.54043 46.21452
# Shear Modulus (GPa) = 3.51450 25.04109 14.27779
#
# Velocity S-wave (km/s) = 1.30640 3.48716 2.63315
# Velocity P-wave (km/s) = 4.95577 6.23011 5.62912
#
# Compressibility (1/GPa) = 0.02179191
#
# Stress axis : x y z
#
# Youngs Moduli (GPa) = 63.05150 89.28173 91.11873
#
# Poissons Ratio (x) = 0.32078 0.29241
# Poissons Ratio (y) = 0.22654 0.12024
# Poissons Ratio (z) = 0.20234 0.11782
#
# Static dielectric constant tensor:
#      x y z
#    x 3.847340 0.000000 -0.228640 
#    y 0.000000 3.502450 0.000000 
#    z -0.228640 0.000000 3.797380 
# 
# 
# High freq. dielectric constant tensor:
#      x y z
#    x 1.816020 0.000000 -0.010590 
#    y 0.000000 1.789500 0.000000 
#    z -0.010590 0.000000 1.811970 
# 
# From -- ./inp_files/245994.got.cif
#   From: 2010.06.25/outbox.cif.g09.slc.cpg/sg12_123_cif.got.tgz:245994.got - 2010.06.28 00:19:55.
