data_PCOD8111801
_publ_section_title
;
Structure prediction by ZEFSAII (Michael W. Deem and Ramdas Pophale) SiO2 
 PCOD8111801
Probable space group: C 2/M
;
_chemical_formula_sum "Si O2"
_cell_formula_units_Z 64
_cell_length_a 32.241687
_cell_length_b 9.237730
_cell_length_c 14.778521
_cell_angle_alpha 90.000000
_cell_angle_beta 47.504198
_cell_angle_gamma 90.000000
_cell_volume 3245.443368
_symmetry_space_group_name_H-M "C 2/M"
_symmetry_group_IT_number 12
_symmetry_cell_setting 'monoclinic'
loop_
_space_group_symop_operation_xyz
x,y,z
-x,y,-z
-x,-y,-z
x,-y,z
1/2+x,1/2+y,z
1/2-x,1/2+y,-z
1/2-x,1/2-y,-z
1/2+x,1/2-y,z
loop_
_atom_site_type_symbol
_atom_site_label
_atom_site_fract_x
_atom_site_fract_y
_atom_site_fract_z
Si Si1 0.561501 0.835901 0.254780
Si Si2 0.745300 0.670619 0.911626
Si Si3 0.641695 0.169781 0.975393
Si Si4 0.131109 0.664696 0.328038
Si Si5 0.352504 0.335535 0.205956
Si Si6 0.551606 0.665599 0.576009
Si Si7 0.369784 0.334523 0.384588
Si Si8 0.268105 0.164180 0.560644
O O1 0.608699 0.806256 0.260062
O O2 0.507917 0.738120 0.352931
O O3 0.539939 0.000000 0.290224
O O4 0.588964 0.799949 0.118007
O O5 0.734656 0.500000 0.943495
O O6 0.695080 0.739050 0.928665
O O7 0.802303 0.695111 0.770334
O O8 0.750000 0.750000 0.000000
O O9 0.621948 0.227259 0.906085
O O10 0.656967 0.000000 0.949956
O O11 0.118913 0.500000 0.375846
O O12 0.100158 0.769695 0.442253
O O13 0.373414 0.500000 0.158248
O O14 0.373004 0.282087 0.275306
O O15 0.284482 0.329000 0.293535
O O16 0.544910 0.500000 0.558240
O O17 0.570257 0.682086 0.653895
O O18 0.348495 0.500000 0.415872
O O19 0.325171 0.241463 0.510378
O O20 0.250000 0.250000 0.500000
O O21 0.283080 0.000000 0.513983
#
# Coordination Sequence:
#
# PCOD8111801 Si02
#       8
#     8   8   8   8   8   8   8   8
#     4  10  22  43  62  81 115 158 196 237 295 357
#     4  11  22  39  62  90 124 159 195 238 293 353
#     4  11  23  39  60  88 120 157 200 244 291 349
#     4  10  22  41  62  85 119 159 193 233 294 360
#     4   9  19  36  56  81 114 155 195 236 291 354
#     4  11  24  39  60  91 117 148 199 253 294 340
#     4   9  20  38  55  79 118 153 191 243 295 345
#     4   9  17  30  51  77 109 147 187 229 283 343
#
# _framework density 19.719954999999999
#
# number of rings (size 3 to 8) (size 9 to 14) (size 15 to 20)
#    0.000    2.000    1.250    2.625    1.750    7.500 
#    0.000    0.625    0.000    3.750    0.000    0.000 
#    0.000    0.000    0.000    0.000    0.000    0.000 
#
# Total GULP energy -396748.042144 kJ/mol
# GULP energy per Si atom -12398.376317 kJ/mol
# Density = 1.967507 g / cm^3
# Si number density = 19.719955 Si / 1000 Ang^3
#
#
#
# Elastic Constant Matrix: (Units=GPa)
#
#
# Indices 1 2 3 4 5 6 
#
# 1 39.6259 29.1470 22.9837 0.0000 -2.1699 0.0000
# 2 29.1470 111.8987 53.6911 0.0000 -0.4842 0.0000
# 3 22.9837 53.6911 88.0398 0.0000 5.6908 0.0000
# 4 0.0000 0.0000 0.0000 35.3978 0.0000 2.2506
# 5 -2.1699 -0.4842 5.6908 0.0000 29.3187 0.0000
# 6 0.0000 0.0000 0.0000 2.2506 0.0000 28.8381
#
#
#
# Elastic Compliance Matrix: (Units=1/GPa)
#
#
# Indices 1 2 3 4 5 6 
#
# 1 0.032850 -0.006114 -0.005062 0.000000 0.003313 0.000000
# 2 -0.006114 0.013858 -0.006928 0.000000 0.001121 0.000000
# 3 -0.005062 -0.006928 0.017152 0.000000 -0.003818 0.000000
# 4 0.000000 0.000000 0.000000 0.028391 0.000000 -0.002216
# 5 0.003313 0.001121 -0.003818 0.000000 0.035113 0.000000
# 6 0.000000 0.000000 0.000000 -0.002216 0.000000 0.034849
#
#
# Mechanical properties :
#
#
# Convention : Reuss Voigt Hill
#
# Bulk Modulus (GPa) = 36.16147 50.13421 43.14784
# Shear Modulus (GPa) = 24.08048 27.62709 25.85379
#
# Velocity S-wave (km/s) = 3.49825 3.74702 3.62477
# Velocity P-wave (km/s) = 5.89019 6.64819 6.28063
#
# Compressibility (1/GPa) = 0.02765374
#
# Stress axis : x y z
#
# Youngs Moduli (GPa) = 30.44120 72.16029 58.30380
#
# Poissons Ratio (x) = 0.44117 0.29511
# Poissons Ratio (y) = 0.18611 0.40391
# Poissons Ratio (z) = 0.15408 0.49991
#
# Static dielectric constant tensor:
#      x y z
#    x 3.290580 0.000000 0.160790 
#    y 0.000000 3.783280 0.000000 
#    z 0.160790 0.000000 3.544370 
# 
# 
# High freq. dielectric constant tensor:
#      x y z
#    x 1.767320 0.000000 0.008460 
#    y 0.000000 1.774920 0.000000 
#    z 0.008460 0.000000 1.756880 
# 
# From -- ./inp_files/249673.got.cif
#   From: 2010.06.25/outbox.cif.g09.slc.cpg/sg12_125_cif.got.tgz:249673.got - 2010.06.28 00:19:55.
