data_PCOD8111248
_publ_section_title
;
Structure prediction by ZEFSAII (Michael W. Deem and Ramdas Pophale) SiO2 
 PCOD8111248
Probable space group: C 2/M
;
_chemical_formula_sum "Si O2"
_cell_formula_units_Z 40
_cell_length_a 12.531376
_cell_length_b 14.449825
_cell_length_c 10.292273
_cell_angle_alpha 90.000000
_cell_angle_beta 106.330860
_cell_angle_gamma 90.000000
_cell_volume 1788.493294
_symmetry_space_group_name_H-M "C 2/M"
_symmetry_group_IT_number 12
_symmetry_cell_setting 'monoclinic'
loop_
_space_group_symop_operation_xyz
x,y,z
-x,y,-z
-x,-y,-z
x,-y,z
1/2+x,1/2+y,z
1/2-x,1/2+y,-z
1/2-x,1/2-y,-z
1/2+x,1/2-y,z
loop_
_atom_site_type_symbol
_atom_site_label
_atom_site_fract_x
_atom_site_fract_y
_atom_site_fract_z
Si Si1 0.940267 0.898275 0.107389
Si Si2 0.685162 0.894523 0.277970
Si Si3 0.410374 0.702688 0.365525
Si Si4 0.055030 0.396088 0.710395
Si Si5 0.296861 0.852336 0.998604
O O1 0.950601 0.830575 0.235684
O O2 0.811634 0.916628 0.029063
O O3 0.992565 0.000000 0.155968
O O4 0.000000 0.854127 0.000000
O O5 0.790008 0.835601 0.364865
O O6 0.577903 0.881487 0.331209
O O7 0.647453 0.861296 0.122956
O O8 0.725722 0.000000 0.288762
O O9 0.500000 0.667028 0.500000
O O10 0.399154 0.814832 0.366389
O O11 0.081022 0.500000 0.665205
O O12 0.110688 0.385091 0.869552
O O13 0.250000 0.750000 0.000000
#
# Coordination Sequence:
#
# PCOD8111248 Si02
#       5
#     8   8   8   8   8
#     4  10  22  39  62  96 129 157 203 264 319 376
#     4  10  22  40  62  92 124 163 213 262 314 384
#     4  11  24  41  65  93 128 171 215 260 315 377
#     4  11  23  39  62  90 126 168 213 262 317 375
#     4  11  19  34  61  91 121 163 202 261 314 379
#
# _framework density 22.365195
#
# number of rings (size 3 to 8) (size 9 to 14) (size 15 to 20)
#    0.000    1.400    4.000    4.200    2.800    4.400 
#    0.000    0.000    0.000    3.600    0.000    0.000 
#    0.000    0.000    0.000    0.000    0.000    0.000 
#
# Total GULP energy -247886.288463 kJ/mol
# GULP energy per Si atom -12394.314423 kJ/mol
# Density = 2.231429 g / cm^3
# Si number density = 22.365195 Si / 1000 Ang^3
#
#
#
# Elastic Constant Matrix: (Units=GPa)
#
#
# Indices 1 2 3 4 5 6 
#
# 1 67.1525 42.4349 33.0806 0.0000 21.1475 0.0000
# 2 42.4349 168.8028 22.3005 0.0000 4.4243 0.0000
# 3 33.0806 22.3005 100.1225 0.0000 31.0594 0.0000
# 4 0.0000 0.0000 0.0000 5.4007 0.0000 8.6626
# 5 21.1475 4.4243 31.0594 0.0000 31.2732 0.0000
# 6 0.0000 0.0000 0.0000 8.6626 0.0000 30.5586
#
#
#
# Elastic Compliance Matrix: (Units=1/GPa)
#
#
# Indices 1 2 3 4 5 6 
#
# 1 0.023430 -0.005203 -0.002740 0.000000 -0.012386 0.000000
# 2 -0.005203 0.007270 -0.000972 0.000000 0.003455 0.000000
# 3 -0.002740 -0.000972 0.015164 0.000000 -0.013070 0.000000
# 4 0.000000 0.000000 0.000000 0.339553 0.000000 -0.096254
# 5 -0.012386 0.003455 -0.013070 0.000000 0.052844 0.000000
# 6 0.000000 0.000000 0.000000 -0.096254 0.000000 0.060010
#
#
# Mechanical properties :
#
#
# Convention : Reuss Voigt Hill
#
# Bulk Modulus (GPa) = 35.67156 59.07885 47.37520
# Shear Modulus (GPa) = 9.51573 29.33063 19.42318
#
# Velocity S-wave (km/s) = 2.06493 3.62531 2.95015
# Velocity P-wave (km/s) = 4.65505 6.63300 5.73002
#
# Compressibility (1/GPa) = 0.02803354
#
# Stress axis : x y z
#
# Youngs Moduli (GPa) = 42.68023 137.55186 65.94550
#
# Poissons Ratio (x) = 0.71574 0.18068
# Poissons Ratio (y) = 0.22208 0.06410
# Poissons Ratio (z) = 0.11694 0.13370
#
# Static dielectric constant tensor:
#      x y z
#    x 4.239670 0.000000 0.153490 
#    y 0.000000 4.286850 0.000000 
#    z 0.153490 0.000000 3.934140 
# 
# 
# High freq. dielectric constant tensor:
#      x y z
#    x 1.869330 0.000000 0.013000 
#    y 0.000000 1.900490 0.000000 
#    z 0.013000 0.000000 1.862070 
# 
# From -- ./inp_files/129570.got.cif
#   From: 2010.06.25/outbox.cif.g09.slc.cpg/sg12_65_cif.got.tgz:129570.got - 2010.06.28 00:19:55.
