data_PCOD8111781
_publ_section_title
;
Structure prediction by ZEFSAII (Michael W. Deem and Ramdas Pophale) SiO2 
 PCOD8111781
Probable space group: C 2/M
;
_chemical_formula_sum "Si O2"
_cell_formula_units_Z 48
_cell_length_a 7.276727
_cell_length_b 25.078983
_cell_length_c 11.742569
_cell_angle_alpha 90.000000
_cell_angle_beta 111.895327
_cell_angle_gamma 90.000000
_cell_volume 1988.358541
_symmetry_space_group_name_H-M "C 2/M"
_symmetry_group_IT_number 12
_symmetry_cell_setting 'monoclinic'
loop_
_space_group_symop_operation_xyz
x,y,z
-x,y,-z
-x,-y,-z
x,-y,z
1/2+x,1/2+y,z
1/2-x,1/2+y,-z
1/2-x,1/2-y,-z
1/2+x,1/2-y,z
loop_
_atom_site_type_symbol
_atom_site_label
_atom_site_fract_x
_atom_site_fract_y
_atom_site_fract_z
Si Si1 0.517604 0.313585 0.310162
Si Si2 0.500000 0.839707 0.000000
Si Si3 0.433881 0.908342 0.615874
Si Si4 0.930756 0.694471 0.745662
Si Si5 0.000000 0.116149 0.500000
Si Si6 0.077158 0.113334 0.897503
Si Si7 0.035019 0.500000 0.809038
Si Si8 0.810404 0.000000 0.089389
O O1 0.288497 0.322286 0.278697
O O2 0.571831 0.252146 0.313092
O O3 0.615680 0.344160 0.438263
O O4 0.563495 0.348351 0.209710
O O5 0.539840 0.804072 0.894877
O O6 0.312798 0.877748 0.938226
O O7 0.500000 0.918672 0.500000
O O8 0.510786 0.849445 0.674356
O O9 0.541553 0.948769 0.727294
O O10 0.193710 0.918192 0.580621
O O11 0.045236 0.051033 0.862944
O O12 0.000000 0.130482 0.000000
O O13 0.842734 0.500000 0.843291
O O14 0.219382 0.500000 0.939885
#
# Coordination Sequence:
#
# PCOD8111781 Si02
#       8
#     8   4   8   8   4   8   4   4
#     4  10  24  39  62  93 128 171 221 263 318 379
#     4  10  22  41  60  92 132 165 208 274 320 376
#     4  11  25  43  68  97 130 170 221 263 319 381
#     4  10  23  39  63  93 128 172 216 264 324 378
#     4  10  24  43  60  92 130 167 214 274 310 372
#     4  11  24  40  65  97 129 167 216 260 323 392
#     4  11  23  45  72  99 126 172 212 261 330 390
#     4  11  21  42  72  93 133 168 203 271 324 387
#
# _framework density 24.140514
#
# number of rings (size 3 to 8) (size 9 to 14) (size 15 to 20)
#    0.000    1.500    0.000    5.500    7.000    4.333 
#    0.000    2.500    0.000    0.000    0.000    0.000 
#    0.000    0.000    0.000    0.000    0.000    0.000 
#
# Total GULP energy -297354.955747 kJ/mol
# GULP energy per Si atom -12389.789823 kJ/mol
# Density = 2.408557 g / cm^3
# Si number density = 24.140514 Si / 1000 Ang^3
#
#
#
# Elastic Constant Matrix: (Units=GPa)
#
#
# Indices 1 2 3 4 5 6 
#
# 1 43.5401 5.3971 11.7109 0.0000 -14.1851 0.0000
# 2 5.3971 137.0270 35.1906 0.0000 -8.9710 0.0000
# 3 11.7109 35.1906 105.3799 0.0000 -33.5681 0.0000
# 4 0.0000 0.0000 0.0000 39.7938 0.0000 -2.7165
# 5 -14.1851 -8.9710 -33.5681 0.0000 40.7732 0.0000
# 6 0.0000 0.0000 0.0000 -2.7165 0.0000 24.4827
#
#
#
# Elastic Compliance Matrix: (Units=1/GPa)
#
#
# Indices 1 2 3 4 5 6 
#
# 1 0.025931 -0.000469 0.000157 0.000000 0.009047 0.000000
# 2 -0.000469 0.008002 -0.002862 0.000000 -0.000759 0.000000
# 3 0.000157 -0.002862 0.013886 0.000000 0.010857 0.000000
# 4 0.000000 0.000000 0.000000 0.025321 0.000000 0.002810
# 5 0.009047 -0.000759 0.010857 0.000000 0.036445 0.000000
# 6 0.000000 0.000000 0.000000 0.002810 0.000000 0.041157
#
#
# Mechanical properties :
#
#
# Convention : Reuss Voigt Hill
#
# Bulk Modulus (GPa) = 24.11337 43.39382 33.75359
# Shear Modulus (GPa) = 29.25458 36.58649 32.92053
#
# Velocity S-wave (km/s) = 3.48493 3.89725 3.69684
# Velocity P-wave (km/s) = 5.11893 6.18595 5.67756
#
# Compressibility (1/GPa) = 0.04147077
#
# Stress axis : x y z
#
# Youngs Moduli (GPa) = 38.56412 124.97598 72.01428
#
# Poissons Ratio (x) = 0.05866 -0.01131
# Poissons Ratio (y) = 0.01810 0.20607
# Poissons Ratio (z) = -0.00605 0.35762
#
# Static dielectric constant tensor:
#      x y z
#    x 2.724570 0.000000 1.461030 
#    y 0.000000 4.855620 0.000000 
#    z 1.461030 0.000000 3.185510 
# 
# 
# High freq. dielectric constant tensor:
#      x y z
#    x 1.951790 0.000000 -0.015010 
#    y 0.000000 1.951590 0.000000 
#    z -0.015010 0.000000 1.971470 
# 
# From -- ./inp_files/122643.got.cif
#   From: 2010.06.25/outbox.cif.g09.slc.cpg/sg12_62_cif.got.tgz:122643.got - 2010.06.28 00:19:55.
