data_PCOD8111515
_publ_section_title
;
Structure prediction by ZEFSAII (Michael W. Deem and Ramdas Pophale) SiO2 
 PCOD8111515
Probable space group: C 2/M
;
_chemical_formula_sum "Si O2"
_cell_formula_units_Z 64
_cell_length_a 19.769302
_cell_length_b 8.579004
_cell_length_c 30.851550
_cell_angle_alpha 90.000000
_cell_angle_beta 143.223913
_cell_angle_gamma 90.000000
_cell_volume 3132.612877
_symmetry_space_group_name_H-M "C 2/M"
_symmetry_group_IT_number 12
_symmetry_cell_setting 'monoclinic'
loop_
_space_group_symop_operation_xyz
x,y,z
-x,y,-z
-x,-y,-z
x,-y,z
1/2+x,1/2+y,z
1/2-x,1/2+y,-z
1/2-x,1/2-y,-z
1/2+x,1/2-y,z
loop_
_atom_site_type_symbol
_atom_site_label
_atom_site_fract_x
_atom_site_fract_y
_atom_site_fract_z
Si Si1 0.249096 0.319073 0.934608
Si Si2 0.243791 0.819300 0.394047
Si Si3 0.429767 0.180685 0.085681
Si Si4 0.189807 0.819969 0.659839
Si Si5 0.708820 0.680881 0.821759
Si Si6 0.969706 0.180638 0.658295
Si Si7 0.332883 0.680491 0.808341
Si Si8 0.041478 0.680869 0.439902
O O1 0.277882 0.500000 0.955423
O O2 0.140196 0.272976 0.907317
O O3 0.224279 0.282680 0.872336
O O4 0.357231 0.221006 0.005795
O O5 0.249035 0.716093 0.353781
O O6 0.342398 0.770156 0.477556
O O7 0.124487 0.781318 0.354562
O O8 0.253834 0.000000 0.386207
O O9 0.543238 0.280387 0.145466
O O10 0.462317 0.000000 0.101712
O O11 0.241844 0.718169 0.724879
O O12 0.057600 0.779705 0.588502
O O13 0.206519 0.000000 0.680247
O O14 0.713804 0.500000 0.836799
O O15 0.589755 0.727534 0.739641
O O16 0.807813 0.720945 0.838764
O O17 0.945944 0.284408 0.604281
O O18 0.967153 0.000000 0.643059
O O19 0.324300 0.500000 0.815767
O O20 0.014805 0.500000 0.433316
#
# Coordination Sequence:
#
# PCOD8111515 Si02
#       8
#     8   8   8   8   8   8   8   8
#     4  10  22  41  66  97 131 166 205 248 299 360
#     4  10  23  41  61  91 123 159 206 256 312 370
#     4  10  22  42  67  97 131 164 204 251 301 358
#     4  12  25  41  61  89 123 161 208 257 309 367
#     4  11  23  40  63  92 126 165 207 255 308 362
#     4  10  22  40  62  89 124 162 204 255 310 368
#     4  12  25  42  65  91 124 164 207 255 309 366
#     4  11  22  39  64  89 122 162 204 255 311 370
#
# _framework density 20.430230999999999
#
# number of rings (size 3 to 8) (size 9 to 14) (size 15 to 20)
#    0.000    1.250    1.250    4.500    1.750    5.500 
#    0.000    2.500    0.000    0.000    0.000    0.000 
#    0.000    0.000    0.000    0.000    0.000    0.000 
#
# Total GULP energy -397073.384009 kJ/mol
# GULP energy per Si atom -12408.543250 kJ/mol
# Density = 2.038373 g / cm^3
# Si number density = 20.430231 Si / 1000 Ang^3
#
#
#
# Elastic Constant Matrix: (Units=GPa)
#
#
# Indices 1 2 3 4 5 6 
#
# 1 91.5252 22.0983 24.0798 0.0001 -4.1398 -0.0001
# 2 22.0983 56.4703 21.1074 0.0002 3.8724 0.0000
# 3 24.0798 21.1074 64.5260 0.0000 -1.9040 -0.0001
# 4 0.0001 0.0002 0.0000 32.0313 0.0000 -2.1863
# 5 -4.1398 3.8724 -1.9040 0.0000 38.9011 0.0001
# 6 -0.0001 0.0000 -0.0001 -2.1863 0.0001 36.8153
#
#
#
# Elastic Compliance Matrix: (Units=1/GPa)
#
#
# Indices 1 2 3 4 5 6 
#
# 1 0.012840 -0.003827 -0.003493 0.000000 0.001576 0.000000
# 2 -0.003827 0.021530 -0.005698 0.000000 -0.002829 0.000000
# 3 -0.003493 -0.005698 0.018698 0.000000 0.001111 0.000000
# 4 0.000000 0.000000 0.000000 0.031346 0.000000 0.001862
# 5 0.001576 -0.002829 0.001111 0.000000 0.026210 0.000000
# 6 0.000000 0.000000 0.000000 0.001862 0.000000 0.027273
#
#
# Mechanical properties :
#
#
# Convention : Reuss Voigt Hill
#
# Bulk Modulus (GPa) = 36.99427 38.56586 37.78007
# Shear Modulus (GPa) = 28.91089 31.23196 30.07142
#
# Velocity S-wave (km/s) = 3.76587 3.91412 3.84071
# Velocity P-wave (km/s) = 6.08736 6.27255 6.18065
#
# Compressibility (1/GPa) = 0.02703121
#
# Stress axis : x y z
#
# Youngs Moduli (GPa) = 77.87929 46.44707 53.48184
#
# Poissons Ratio (x) = 0.17776 0.18683
# Poissons Ratio (y) = 0.29806 0.30474
# Poissons Ratio (z) = 0.27206 0.26466
#
# Static dielectric constant tensor:
#      x y z
#    x 3.743810 0.000000 0.074120 
#    y 0.000000 3.656180 0.000000 
#    z 0.074120 0.000000 3.686500 
# 
# 
# High freq. dielectric constant tensor:
#      x y z
#    x 1.808910 0.000000 0.002480 
#    y 0.000000 1.801960 0.000000 
#    z 0.002480 0.000000 1.801790 
# 
# From -- ./inp_files/378458.got.cif
#   From: 2010.06.25/outbox.cif.g09.slc.cpg/sg12_190_cif.got.tgz:378458.got - 2010.06.28 00:19:55.
