data_PCOD8111620
_publ_section_title
;
Structure prediction by ZEFSAII (Michael W. Deem and Ramdas Pophale) SiO2 
 PCOD8111620
Probable space group: C 2/M
;
_chemical_formula_sum "Si O2"
_cell_formula_units_Z 40
_cell_length_a 24.857657
_cell_length_b 8.833021
_cell_length_c 19.003935
_cell_angle_alpha 90.000000
_cell_angle_beta 151.082755
_cell_angle_gamma 90.000000
_cell_volume 2017.672432
_symmetry_space_group_name_H-M "C 2/M"
_symmetry_group_IT_number 12
_symmetry_cell_setting 'monoclinic'
loop_
_space_group_symop_operation_xyz
x,y,z
-x,y,-z
-x,-y,-z
x,-y,z
1/2+x,1/2+y,z
1/2-x,1/2+y,-z
1/2-x,1/2-y,-z
1/2+x,1/2-y,z
loop_
_atom_site_type_symbol
_atom_site_label
_atom_site_fract_x
_atom_site_fract_y
_atom_site_fract_z
Si Si1 0.054174 0.673493 0.343136
Si Si2 0.179448 0.325469 0.858007
Si Si3 0.711967 0.821908 0.148498
Si Si4 0.761501 0.823638 0.675156
Si Si5 0.982984 0.823662 0.845691
O O1 0.060896 0.500000 0.324503
O O2 0.164871 0.721998 0.510617
O O3 0.950865 0.695873 0.277093
O O4 0.042485 0.782593 0.263588
O O5 0.214183 0.500000 0.894453
O O6 0.205364 0.249577 0.813529
O O7 0.250000 0.250000 0.000000
O O8 0.755128 0.774103 0.274205
O O9 0.716713 0.000000 0.145330
O O10 0.586189 0.769102 0.993229
O O11 0.878366 0.781468 0.773877
O O12 0.755003 0.000000 0.687566
O O13 0.011768 0.000000 0.883268
#
# Coordination Sequence:
#
# PCOD8111620 Si02
#       5
#     8   8   8   8   8
#     4  10  22  40  64  91 122 158 198 246 303 364
#     4  11  22  39  64  91 120 157 200 249 300 358
#     4  12  25  40  61  89 122 162 205 252 300 351
#     4  10  23  42  61  89 125 160 198 246 307 363
#     4  11  22  38  64  91 121 160 202 249 299 359
#
# _framework density 19.824825000000001
#
# number of rings (size 3 to 8) (size 9 to 14) (size 15 to 20)
#    0.000    1.200    2.000    4.200    0.000    6.400 
#    0.000    4.000    0.000    0.000    0.000    0.000 
#    0.000    0.000    0.000    0.000    0.000    0.000 
#
# Total GULP energy -248144.135077 kJ/mol
# GULP energy per Si atom -12407.206754 kJ/mol
# Density = 1.977970 g / cm^3
# Si number density = 19.824825 Si / 1000 Ang^3
#
#
#
# Elastic Constant Matrix: (Units=GPa)
#
#
# Indices 1 2 3 4 5 6 
#
# 1 129.2725 65.3609 -15.9492 0.0000 -39.2217 0.0000
# 2 65.3609 123.4441 3.1129 0.0000 -26.0149 0.0000
# 3 -15.9492 3.1129 55.6575 0.0000 5.6095 0.0000
# 4 0.0000 0.0000 0.0000 31.9966 0.0000 -7.4462
# 5 -39.2217 -26.0149 5.6095 0.0000 55.0572 0.0000
# 6 0.0000 0.0000 0.0000 -7.4462 0.0000 34.0595
#
#
#
# Elastic Compliance Matrix: (Units=1/GPa)
#
#
# Indices 1 2 3 4 5 6 
#
# 1 0.012849 -0.005588 0.003373 0.000000 0.006169 0.000000
# 2 -0.005588 0.011476 -0.002413 0.000000 0.001688 0.000000
# 3 0.003373 -0.002413 0.019138 0.000000 -0.000687 0.000000
# 4 0.000000 0.000000 0.000000 0.032929 0.000000 0.007199
# 5 0.006169 0.001688 -0.000687 0.000000 0.023425 0.000000
# 6 0.000000 0.000000 0.000000 0.007199 0.000000 0.030934
#
#
# Mechanical properties :
#
#
# Convention : Reuss Voigt Hill
#
# Bulk Modulus (GPa) = 29.23510 45.93591 37.58551
# Shear Modulus (GPa) = 33.02293 41.27931 37.15112
#
# Velocity S-wave (km/s) = 4.08577 4.56807 4.33363
# Velocity P-wave (km/s) = 6.08578 7.14452 6.63630
#
# Compressibility (1/GPa) = 0.03420546
#
# Stress axis : x y z
#
# Youngs Moduli (GPa) = 77.82788 87.13755 52.25267
#
# Poissons Ratio (x) = 0.48694 -0.17623
# Poissons Ratio (y) = 0.43491 0.12610
# Poissons Ratio (z) = -0.26249 0.21029
#
# Static dielectric constant tensor:
#      x y z
#    x 3.576670 0.000000 -0.115380 
#    y 0.000000 3.802500 0.000000 
#    z -0.115380 0.000000 3.497290 
# 
# 
# High freq. dielectric constant tensor:
#      x y z
#    x 1.787660 0.000000 0.003390 
#    y 0.000000 1.777860 0.000000 
#    z 0.003390 0.000000 1.779420 
# 
# From -- ./inp_files/151698.got.cif
#   From: 2010.06.25/outbox.cif.g09.slc.cpg/sg12_76_cif.got.tgz:151698.got - 2010.06.28 00:19:55.
