data_PCOD8111775
_publ_section_title
;
Structure prediction by ZEFSAII (Michael W. Deem and Ramdas Pophale) SiO2 
 PCOD8111775
Probable space group: C 2/M
;
_chemical_formula_sum "Si O2"
_cell_formula_units_Z 64
_cell_length_a 20.127141
_cell_length_b 8.850407
_cell_length_c 32.247965
_cell_angle_alpha 90.000000
_cell_angle_beta 143.425941
_cell_angle_gamma 90.000000
_cell_volume 3422.889270
_symmetry_space_group_name_H-M "C 2/M"
_symmetry_group_IT_number 12
_symmetry_cell_setting 'monoclinic'
loop_
_space_group_symop_operation_xyz
x,y,z
-x,y,-z
-x,-y,-z
x,-y,z
1/2+x,1/2+y,z
1/2-x,1/2+y,-z
1/2-x,1/2-y,-z
1/2+x,1/2-y,z
loop_
_atom_site_type_symbol
_atom_site_label
_atom_site_fract_x
_atom_site_fract_y
_atom_site_fract_z
Si Si1 0.936634 0.322558 0.362531
Si Si2 0.420194 0.676108 0.498491
Si Si3 0.248260 0.675354 0.142560
Si Si4 0.413741 0.328571 0.994075
Si Si5 0.197822 0.824820 0.356968
Si Si6 0.524992 0.673592 0.704110
Si Si7 0.915754 0.676611 0.868109
Si Si8 0.292227 0.178422 0.724118
O O1 0.913567 0.500000 0.355536
O O2 0.966456 0.284381 0.330378
O O3 0.830571 0.228786 0.324384
O O4 0.041170 0.274122 0.442986
O O5 0.500000 0.711062 0.500000
O O6 0.420966 0.500000 0.510647
O O7 0.296344 0.725834 0.425130
O O8 0.226828 0.500000 0.124978
O O9 0.203972 0.756674 0.078753
O O10 0.377993 0.713621 0.214284
O O11 0.181774 0.733459 0.149906
O O12 0.390719 0.500000 0.993716
O O13 0.500000 0.305233 0.000000
O O14 0.465873 0.252318 0.061226
O O15 0.167250 0.766408 0.296028
O O16 0.092001 0.799065 0.332830
O O17 0.232815 0.000000 0.372385
O O18 0.539302 0.500000 0.696328
O O19 0.932126 0.500000 0.880819
O O20 0.880343 0.721581 0.804003
O O21 0.288412 0.000000 0.713665
#
# Coordination Sequence:
#
# PCOD8111775 Si02
#       8
#     8   8   8   8   8   8   8   8
#     4  12  24  37  61  90 115 146 190 239 284 333
#     4  11  23  40  63  85 113 153 190 230 283 341
#     4   9  16  31  53  75 106 149 189 222 270 337
#     4   9  17  27  43  75 114 143 176 230 286 323
#     4  11  24  40  61  88 116 148 189 237 286 337
#     4  10  22  41  60  83 118 155 190 231 283 343
#     4   9  17  30  52  78 106 145 189 227 271 334
#     4  11  21  37  59  84 116 152 191 233 283 341
#
# _framework density 18.697655000000001
#
# number of rings (size 3 to 8) (size 9 to 14) (size 15 to 20)
#    0.000    1.750    2.500    2.625    0.000    5.000 
#    0.000    0.000    0.000    0.750    0.000    0.000 
#    0.000    0.000    0.000    0.000    0.000    0.000 
#
# Total GULP energy -396891.487832 kJ/mol
# GULP energy per Si atom -12402.858995 kJ/mol
# Density = 1.865510 g / cm^3
# Si number density = 18.697655 Si / 1000 Ang^3
#
#
#
# Elastic Constant Matrix: (Units=GPa)
#
#
# Indices 1 2 3 4 5 6 
#
# 1 29.9300 17.9490 9.7979 0.0000 -2.1341 0.0003
# 2 17.9490 52.2192 31.2323 0.0003 -2.8010 0.0001
# 3 9.7979 31.2323 119.6210 -0.0001 -6.0439 0.0002
# 4 0.0000 0.0003 -0.0001 23.2111 0.0000 -9.9386
# 5 -2.1341 -2.8010 -6.0439 0.0000 23.4708 -0.0001
# 6 0.0003 0.0001 0.0002 -9.9386 -0.0001 19.7645
#
#
#
# Elastic Compliance Matrix: (Units=1/GPa)
#
#
# Indices 1 2 3 4 5 6 
#
# 1 0.042215 -0.014683 0.000488 0.000000 0.002212 -0.000001
# 2 -0.014683 0.027834 -0.006043 0.000000 0.000431 0.000000
# 3 0.000488 -0.006043 0.009993 0.000000 0.001897 0.000000
# 4 0.000000 0.000000 0.000000 0.054904 0.000000 0.027609
# 5 0.002212 0.000431 0.001897 0.000000 0.043347 0.000000
# 6 -0.000001 0.000000 0.000000 0.027609 0.000000 0.064479
#
#
# Mechanical properties :
#
#
# Convention : Reuss Voigt Hill
#
# Bulk Modulus (GPa) = 25.27449 35.52540 30.39995
# Shear Modulus (GPa) = 16.86690 22.80868 19.83779
#
# Velocity S-wave (km/s) = 3.00673 3.49645 3.26080
# Velocity P-wave (km/s) = 5.05972 5.94486 5.52006
#
# Compressibility (1/GPa) = 0.03956558
#
# Stress axis : x y z
#
# Youngs Moduli (GPa) = 23.68833 35.92668 100.06615
#
# Poissons Ratio (x) = 0.52752 -0.04881
# Poissons Ratio (y) = 0.34782 0.60470
# Poissons Ratio (z) = -0.01155 0.21710
#
# Static dielectric constant tensor:
#      x y z
#    x 3.175300 0.000000 -0.147220 
#    y 0.000000 3.440060 0.000000 
#    z -0.147220 0.000000 3.738230 
# 
# 
# High freq. dielectric constant tensor:
#      x y z
#    x 1.687880 0.000000 -0.007770 
#    y 0.000000 1.731210 0.000000 
#    z -0.007770 0.000000 1.744670 
# 
# From -- ./inp_files/378312.got.cif
#   From: 2010.06.25/outbox.cif.g09.slc.cpg/sg12_190_cif.got.tgz:378312.got - 2010.06.28 00:19:55.
