data_PCOD8111337
_publ_section_title
;
Structure prediction by ZEFSAII (Michael W. Deem and Ramdas Pophale) SiO2 
 PCOD8111337
Probable space group: C 2/M
;
_chemical_formula_sum "Si O2"
_cell_formula_units_Z 48
_cell_length_a 16.334509
_cell_length_b 34.209033
_cell_length_c 7.640986
_cell_angle_alpha 90.000000
_cell_angle_beta 145.095427
_cell_angle_gamma 90.000000
_cell_volume 2443.164673
_symmetry_space_group_name_H-M "C 2/M"
_symmetry_group_IT_number 12
_symmetry_cell_setting 'monoclinic'
loop_
_space_group_symop_operation_xyz
x,y,z
-x,y,-z
-x,-y,-z
x,-y,z
1/2+x,1/2+y,z
1/2-x,1/2+y,-z
1/2-x,1/2-y,-z
1/2+x,1/2-y,z
loop_
_atom_site_type_symbol
_atom_site_label
_atom_site_fract_x
_atom_site_fract_y
_atom_site_fract_z
Si Si1 0.380736 0.325800 0.542914
Si Si2 0.647118 0.757456 0.665797
Si Si3 0.316576 0.896741 0.871174
Si Si4 0.652764 0.096891 0.472943
Si Si5 0.311953 0.670374 0.824009
Si Si6 0.169445 0.543462 0.805035
O O1 0.348247 0.281189 0.442624
O O2 0.276915 0.356909 0.259605
O O3 0.361429 0.331191 0.712686
O O4 0.551559 0.330740 0.803864
O O5 0.500000 0.768784 0.500000
O O6 0.706587 0.792962 0.656209
O O7 0.750000 0.750000 0.000000
O O8 0.290623 0.910314 0.624912
O O9 0.486033 0.891156 0.189095
O O10 0.269304 0.929917 0.927935
O O11 0.723032 0.131803 0.705006
O O12 0.706344 0.059396 0.676284
O O13 0.234057 0.500000 0.943048
O O14 0.000000 0.542104 0.500000
#
# Coordination Sequence:
#
# PCOD8111337 Si02
#       6
#     8   8   8   8   8   8
#     4  10  22  40  57  78 109 148 188 229 280 333
#     4  12  25  38  54  83 113 145 188 234 280 326
#     4   9  19  34  56  82 110 143 185 230 275 328
#     4   9  19  34  55  83 109 143 185 228 277 329
#     4  10  22  40  58  77 109 150 187 229 280 333
#     4   9  18  32  54  83 114 144 177 225 280 332
#
# _framework density 19.646650000000001
#
# number of rings (size 3 to 8) (size 9 to 14) (size 15 to 20)
#    0.000    2.167    1.667    0.500    4.667    1.333 
#    0.000    3.333    0.000    2.000    0.000    4.667 
#    0.000    0.000    0.000    0.000    0.000    0.000 
#
# Total GULP energy -297314.256612 kJ/mol
# GULP energy per Si atom -12388.094026 kJ/mol
# Density = 1.960193 g / cm^3
# Si number density = 19.646650 Si / 1000 Ang^3
#
#
#
# Elastic Constant Matrix: (Units=GPa)
#
#
# Indices 1 2 3 4 5 6 
#
# 1 50.5798 43.7643 25.5200 0.0000 1.2302 0.0000
# 2 43.7643 147.6837 48.1088 0.0000 -2.8094 0.0000
# 3 25.5200 48.1088 90.4653 0.0000 0.7235 0.0000
# 4 0.0000 0.0000 0.0000 42.7279 0.0000 -3.4816
# 5 1.2302 -2.8094 0.7235 0.0000 23.8783 0.0000
# 6 0.0000 0.0000 0.0000 -3.4816 0.0000 27.0022
#
#
#
# Elastic Compliance Matrix: (Units=1/GPa)
#
#
# Indices 1 2 3 4 5 6 
#
# 1 0.027952 -0.006968 -0.004163 0.000000 -0.002134 0.000000
# 2 -0.006968 0.009956 -0.003342 0.000000 0.001632 0.000000
# 3 -0.004163 -0.003342 0.014010 0.000000 -0.000603 0.000000
# 4 0.000000 0.000000 0.000000 0.023652 0.000000 0.003050
# 5 -0.002134 0.001632 -0.000603 0.000000 0.042199 0.000000
# 6 0.000000 0.000000 0.000000 0.003050 0.000000 0.037427
#
#
# Mechanical properties :
#
#
# Convention : Reuss Voigt Hill
#
# Bulk Modulus (GPa) = 43.52896 58.16834 50.84865
# Shear Modulus (GPa) = 26.06899 30.14406 28.10652
#
# Velocity S-wave (km/s) = 3.64661 3.92128 3.78643
# Velocity P-wave (km/s) = 6.31936 7.08332 6.71222
#
# Compressibility (1/GPa) = 0.02297321
#
# Stress axis : x y z
#
# Youngs Moduli (GPa) = 35.77593 100.44497 71.37644
#
# Poissons Ratio (x) = 0.69988 0.29711
# Poissons Ratio (y) = 0.24928 0.23853
# Poissons Ratio (z) = 0.14892 0.33567
#
# Static dielectric constant tensor:
#      x y z
#    x 3.589700 0.000000 0.001430 
#    y 0.000000 3.501360 0.000000 
#    z 0.001430 0.000000 3.797250 
# 
# 
# High freq. dielectric constant tensor:
#      x y z
#    x 1.765350 0.000000 -0.012650 
#    y 0.000000 1.760370 0.000000 
#    z -0.012650 0.000000 1.762470 
# 
# From -- ./inp_files/80849.got.cif
#   From: 2010.06.25/outbox.cif.g09.slc.cpg/sg12_41_cif.got.tgz:80849.got - 2010.06.28 00:19:55.
