data_PCOD8111042
_publ_section_title
;
Structure prediction by ZEFSAII (Michael W. Deem and Ramdas Pophale) SiO2 
 PCOD8111042
Probable space group: C 2/M
;
_chemical_formula_sum "Si O2"
_cell_formula_units_Z 56
_cell_length_a 11.301559
_cell_length_b 14.221400
_cell_length_c 19.274372
_cell_angle_alpha 90.000000
_cell_angle_beta 64.058501
_cell_angle_gamma 90.000000
_cell_volume 2785.717851
_symmetry_space_group_name_H-M "C 2/M"
_symmetry_group_IT_number 12
_symmetry_cell_setting 'monoclinic'
loop_
_space_group_symop_operation_xyz
x,y,z
-x,y,-z
-x,-y,-z
x,-y,z
1/2+x,1/2+y,z
1/2-x,1/2+y,-z
1/2-x,1/2-y,-z
1/2+x,1/2-y,z
loop_
_atom_site_type_symbol
_atom_site_label
_atom_site_fract_x
_atom_site_fract_y
_atom_site_fract_z
Si Si1 0.107730 0.105884 0.070171
Si Si2 0.371802 0.209734 0.329963
Si Si3 0.584403 0.107261 0.545191
Si Si4 0.846141 0.896030 0.402899
Si Si5 0.641700 0.392931 0.320399
Si Si6 0.621529 0.260815 0.194572
Si Si7 0.809921 0.894629 0.100757
O O1 0.140934 0.181098 0.119787
O O2 0.956837 0.115124 0.089322
O O3 0.137160 0.000000 0.089379
O O4 0.196554 0.127866 0.979842
O O5 0.445281 0.173826 0.381420
O O6 0.317535 0.316087 0.353185
O O7 0.251621 0.140182 0.346292
O O8 0.476899 0.214324 0.240339
O O9 0.500000 0.141529 0.500000
O O10 0.741271 0.115615 0.491413
O O11 0.544624 0.000000 0.573071
O O12 0.996246 0.884897 0.392208
O O13 0.828781 0.000000 0.372911
O O14 0.671898 0.500000 0.291552
O O15 0.652247 0.329080 0.250123
O O16 0.723043 0.175639 0.167942
O O17 0.757265 0.000000 0.127393
#
# Coordination Sequence:
#
# PCOD8111042 Si02
#       7
#     8   8   8   8   8   8   8
#     4   9  18  36  59  82 112 149 191 235 275 326
#     4  11  23  37  60  84 117 150 191 238 291 339
#     4  10  22  40  61  85 113 147 191 245 296 339
#     4   9  21  40  60  82 109 146 192 238 283 341
#     4  10  22  39  57  83 116 151 194 235 282 342
#     4  11  21  35  56  85 117 153 185 230 289 340
#     4   9  19  35  57  85 113 147 192 235 276 330
#
# _framework density 20.102537000000002
#
# number of rings (size 3 to 8) (size 9 to 14) (size 15 to 20)
#    0.000    2.143    0.000    3.429    4.000    2.286 
#    0.000    2.857    0.000    0.000    0.000    9.000 
#    0.000    0.000    0.000    0.000    0.000    0.000 
#
# Total GULP energy -347118.191135 kJ/mol
# GULP energy per Si atom -12397.078255 kJ/mol
# Density = 2.005678 g / cm^3
# Si number density = 20.102537 Si / 1000 Ang^3
#
#
#
# Elastic Constant Matrix: (Units=GPa)
#
#
# Indices 1 2 3 4 5 6 
#
# 1 71.7460 38.6658 22.1860 0.0000 1.2200 0.0000
# 2 38.6658 122.0754 42.1822 0.0000 -7.6894 0.0000
# 3 22.1860 42.1822 52.4489 0.0000 -4.1604 0.0000
# 4 0.0000 0.0000 0.0000 28.6249 0.0000 -2.8731
# 5 1.2200 -7.6894 -4.1604 0.0000 30.8064 0.0000
# 6 0.0000 0.0000 0.0000 -2.8731 0.0000 31.1091
#
#
#
# Elastic Compliance Matrix: (Units=1/GPa)
#
#
# Indices 1 2 3 4 5 6 
#
# 1 0.017571 -0.004265 -0.004187 0.000000 -0.002326 0.000000
# 2 -0.004265 0.012460 -0.008043 0.000000 0.002193 0.000000
# 3 -0.004187 -0.008043 0.027454 0.000000 0.001866 0.000000
# 4 0.000000 0.000000 0.000000 0.035262 0.000000 0.003257
# 5 -0.002326 0.002193 0.001866 0.000000 0.033352 0.000000
# 6 0.000000 0.000000 0.000000 0.003257 0.000000 0.032446
#
#
# Mechanical properties :
#
#
# Convention : Reuss Voigt Hill
#
# Bulk Modulus (GPa) = 40.82467 50.25981 45.54224
# Shear Modulus (GPa) = 25.03783 27.65718 26.34750
#
# Velocity S-wave (km/s) = 3.53300 3.71321 3.62423
# Velocity P-wave (km/s) = 6.08236 6.59089 6.34173
#
# Compressibility (1/GPa) = 0.02449499
#
# Stress axis : x y z
#
# Youngs Moduli (GPa) = 56.91234 80.25806 36.42517
#
# Poissons Ratio (x) = 0.34231 0.15250
# Poissons Ratio (y) = 0.24274 0.29296
# Poissons Ratio (z) = 0.23828 0.64549
#
# Static dielectric constant tensor:
#      x y z
#    x 3.468360 0.000000 -0.114840 
#    y 0.000000 3.927620 0.000000 
#    z -0.114840 0.000000 3.710450 
# 
# 
# High freq. dielectric constant tensor:
#      x y z
#    x 1.766910 0.000000 -0.010510 
#    y 0.000000 1.804010 0.000000 
#    z -0.010510 0.000000 1.773160 
# 
# From -- ./inp_files/263253.got.cif
#   From: 2010.06.25/outbox.cif.g09.slc.cpg/sg12_132_cif.got.tgz:263253.got - 2010.06.28 00:19:55.
