data_PCOD8111343
_publ_section_title
;
Structure prediction by ZEFSAII (Michael W. Deem and Ramdas Pophale) SiO2 
 PCOD8111343
Probable space group: C 2/M
;
_chemical_formula_sum "Si O2"
_cell_formula_units_Z 64
_cell_length_a 30.339270
_cell_length_b 24.344648
_cell_length_c 8.820723
_cell_angle_alpha 90.000000
_cell_angle_beta 150.716289
_cell_angle_gamma 90.000000
_cell_volume 3186.699493
_symmetry_space_group_name_H-M "C 2/M"
_symmetry_group_IT_number 12
_symmetry_cell_setting 'monoclinic'
loop_
_space_group_symop_operation_xyz
x,y,z
-x,y,-z
-x,-y,-z
x,-y,z
1/2+x,1/2+y,z
1/2-x,1/2+y,-z
1/2-x,1/2-y,-z
1/2+x,1/2-y,z
loop_
_atom_site_type_symbol
_atom_site_label
_atom_site_fract_x
_atom_site_fract_y
_atom_site_fract_z
Si Si1 0.901415 0.626296 0.633272
Si Si2 0.901415 0.626295 0.275216
Si Si3 0.751561 0.937015 0.328223
Si Si4 0.402922 0.765800 0.135883
Si Si5 0.251561 0.437015 0.681143
Si Si6 0.902960 0.855128 0.782596
Si Si7 0.097040 0.855128 0.864835
Si Si8 0.097078 0.265800 0.218351
O O1 0.910115 0.627445 0.480346
O O2 0.839029 0.576059 0.498170
O O3 0.854247 0.683126 0.551926
O O4 0.000000 0.618469 0.000000
O O5 0.854247 0.683126 0.073556
O O6 0.000000 0.618469 0.500000
O O7 0.839029 0.576058 0.036004
O O8 0.733906 0.924483 0.451718
O O9 0.833484 0.900043 0.509722
O O10 0.777735 0.000000 0.378889
O O11 0.500000 0.761704 0.500000
O O12 0.358978 0.705725 0.031706
O O13 0.408787 0.779770 0.976361
O O14 0.277734 0.500000 0.787516
O O15 0.333484 0.400043 0.991181
O O16 0.858978 0.794275 0.622162
O O17 0.918942 0.864513 0.006826
O O18 0.000000 0.863166 0.000000
O O19 0.000000 0.863166 0.500000
O O20 0.000000 0.261703 0.000000
#
# Coordination Sequence:
#
# PCOD8111343 Si02
#       8
#     8   8   8   8   8   8   8   8
#     4  11  22  37  58  83 111 142 179 224 276 329
#     4  11  22  37  58  83 111 142 179 224 276 329
#     4  10  22  40  58  78 108 147 190 229 267 318
#     4   9  16  30  53  81 112 142 176 217 267 326
#     4  10  22  40  58  78 108 147 190 229 267 318
#     4   9  19  35  57  84 113 146 181 222 271 321
#     4   9  19  35  57  84 113 146 181 222 271 321
#     4   9  16  30  53  81 112 142 176 217 267 326
#
# _framework density 20.083476000000001
#
# number of rings (size 3 to 8) (size 9 to 14) (size 15 to 20)
#    0.000    2.250    0.000    4.500    0.000    4.500 
#    0.000    5.000    0.000    0.000    0.000    0.000 
#    0.000    0.000    0.000    0.000    0.000    0.000 
#
# Total GULP energy -396628.516499 kJ/mol
# GULP energy per Si atom -12394.641141 kJ/mol
# Density = 2.003777 g / cm^3
# Si number density = 20.083476 Si / 1000 Ang^3
#
#
#
# Elastic Constant Matrix: (Units=GPa)
#
#
# Indices 1 2 3 4 5 6 
#
# 1 92.3844 33.4879 29.4910 0.0000 -8.8624 0.0000
# 2 33.4879 100.4276 30.4245 0.0000 -2.2816 0.0000
# 3 29.4910 30.4245 71.8343 0.0000 -6.4439 0.0000
# 4 0.0000 0.0000 0.0000 33.9334 0.0000 4.3849
# 5 -8.8624 -2.2816 -6.4439 0.0000 27.2987 0.0000
# 6 0.0000 0.0000 0.0000 4.3849 0.0000 28.0462
#
#
#
# Elastic Compliance Matrix: (Units=1/GPa)
#
#
# Indices 1 2 3 4 5 6 
#
# 1 0.013560 -0.003269 -0.003895 0.000000 0.003210 0.000000
# 2 -0.003269 0.012212 -0.003917 0.000000 -0.000965 0.000000
# 3 -0.003895 -0.003917 0.017405 0.000000 0.002517 0.000000
# 4 0.000000 0.000000 0.000000 0.030077 0.000000 -0.004702
# 5 0.003210 -0.000965 0.002517 0.000000 0.038187 0.000000
# 6 0.000000 0.000000 0.000000 -0.004702 0.000000 0.036391
#
#
# Mechanical properties :
#
#
# Convention : Reuss Voigt Hill
#
# Bulk Modulus (GPa) = 47.58235 50.16144 48.87190
# Shear Modulus (GPa) = 28.24882 29.27184 28.76033
#
# Velocity S-wave (km/s) = 3.75450 3.82187 3.78834
# Velocity P-wave (km/s) = 6.52217 6.67131 6.59716
#
# Compressibility (1/GPa) = 0.02101620
#
# Stress axis : x y z
#
# Youngs Moduli (GPa) = 73.74379 81.88573 57.45636
#
# Poissons Ratio (x) = 0.26768 0.22377
# Poissons Ratio (y) = 0.24107 0.22505
# Poissons Ratio (z) = 0.28721 0.32073
#
# Static dielectric constant tensor:
#      x y z
#    x 3.565130 0.000000 -0.069910 
#    y 0.000000 4.300530 0.000000 
#    z -0.069910 0.000000 3.471280 
# 
# 
# High freq. dielectric constant tensor:
#      x y z
#    x 1.777020 0.000000 -0.006300 
#    y 0.000000 1.794010 0.000000 
#    z -0.006300 0.000000 1.768570 
# 
# From -- ./inp_files/113663.got.cif
#   From: 2010.06.25/outbox.cif.g09.slc.cpg/sg12_57_cif.got.tgz:113663.got - 2010.06.28 00:19:55.
