data_PCOD8111139
_publ_section_title
;
Structure prediction by ZEFSAII (Michael W. Deem and Ramdas Pophale) SiO2 
 PCOD8111139
Probable space group: C 2/M
;
_chemical_formula_sum "Si O2"
_cell_formula_units_Z 64
_cell_length_a 30.698451
_cell_length_b 8.794429
_cell_length_c 13.977517
_cell_angle_alpha 90.000000
_cell_angle_beta 57.966746
_cell_angle_gamma 90.000000
_cell_volume 3199.020440
_symmetry_space_group_name_H-M "C 2/M"
_symmetry_group_IT_number 12
_symmetry_cell_setting 'monoclinic'
loop_
_space_group_symop_operation_xyz
x,y,z
-x,y,-z
-x,-y,-z
x,-y,z
1/2+x,1/2+y,z
1/2-x,1/2+y,-z
1/2-x,1/2-y,-z
1/2+x,1/2-y,z
loop_
_atom_site_type_symbol
_atom_site_label
_atom_site_fract_x
_atom_site_fract_y
_atom_site_fract_z
Si Si1 0.214434 0.679039 0.621395
Si Si2 0.642650 0.673407 0.244654
Si Si3 0.988293 0.677278 0.231839
Si Si4 0.035464 0.679435 0.374326
Si Si5 0.396369 0.321551 0.241837
Si Si6 0.421278 0.175790 0.016424
Si Si7 0.166619 0.824055 0.000801
Si Si8 0.252730 0.323351 0.785555
O O1 0.213958 0.500000 0.609057
O O2 0.250000 0.750000 0.500000
O O3 0.157184 0.739898 0.676935
O O4 0.236951 0.726830 0.697825
O O5 0.624167 0.500000 0.271652
O O6 0.594030 0.776197 0.325280
O O7 0.686714 0.708185 0.271228
O O8 0.665943 0.710193 0.113813
O O9 0.975048 0.500000 0.258080
O O10 0.935886 0.769751 0.277946
O O11 0.015637 0.742316 0.295337
O O12 0.025051 0.705563 0.098572
O O13 0.032135 0.500000 0.377227
O O14 0.000000 0.747328 0.500000
O O15 0.387518 0.500000 0.257825
O O16 0.419758 0.277706 0.112235
O O17 0.375289 0.217885 0.999785
O O18 0.415256 0.000000 0.053387
O O19 0.222334 0.779257 0.896706
O O20 0.155003 0.000000 0.991347
O O21 0.239983 0.500000 0.819688
#
# Coordination Sequence:
#
# PCOD8111139 Si02
#       8
#     8   8   8   8   8   8   8   8
#     4  11  24  43  65  87 119 161 207 254 302 355
#     4  10  22  39  60  90 124 157 198 246 299 359
#     4  10  22  40  62  89 122 161 202 245 303 366
#     4  10  22  41  63  88 118 157 205 252 298 353
#     4  12  25  40  62  92 124 157 200 251 304 360
#     4  11  21  37  62  89 122 162 198 241 302 367
#     4  11  21  34  59  92 124 156 196 245 297 359
#     4  10  22  40  62  88 122 162 199 241 300 364
#
# _framework density 20.006124
#
# number of rings (size 3 to 8) (size 9 to 14) (size 15 to 20)
#    0.000    1.375    2.500    3.000    0.000    5.750 
#    0.000    2.500    0.000    0.000    0.000    0.000 
#    0.000    0.000    0.000    0.000    0.000    0.000 
#
# Total GULP energy -396975.075070 kJ/mol
# GULP energy per Si atom -12405.471096 kJ/mol
# Density = 1.996059 g / cm^3
# Si number density = 20.006124 Si / 1000 Ang^3
#
#
#
# Elastic Constant Matrix: (Units=GPa)
#
#
# Indices 1 2 3 4 5 6 
#
# 1 116.5017 24.5304 40.6209 0.0000 -24.8564 0.0000
# 2 24.5304 48.2178 40.6865 0.0000 -5.6246 0.0000
# 3 40.6209 40.6865 121.8471 0.0000 -15.5719 0.0000
# 4 0.0000 0.0000 0.0000 28.7821 0.0000 -6.2752
# 5 -24.8564 -5.6246 -15.5719 0.0000 16.2813 0.0000
# 6 0.0000 0.0000 0.0000 -6.2752 0.0000 32.4005
#
#
#
# Elastic Compliance Matrix: (Units=1/GPa)
#
#
# Indices 1 2 3 4 5 6 
#
# 1 0.013739 -0.004120 -0.000804 0.000000 0.018782 0.000000
# 2 -0.004120 0.030121 -0.009294 0.000000 -0.004774 0.000000
# 3 -0.000804 -0.009294 0.012545 0.000000 0.007560 0.000000
# 4 0.000000 0.000000 0.000000 0.036276 0.000000 0.007026
# 5 0.018782 -0.004774 0.007560 0.000000 0.095676 0.000000
# 6 0.000000 0.000000 0.000000 0.007026 0.000000 0.032224
#
#
# Mechanical properties :
#
#
# Convention : Reuss Voigt Hill
#
# Bulk Modulus (GPa) = 35.75576 55.36022 45.55799
# Shear Modulus (GPa) = 19.35430 27.54137 23.44783
#
# Velocity S-wave (km/s) = 3.11371 3.71434 3.42721
# Velocity P-wave (km/s) = 5.55321 6.79168 6.20343
#
# Compressibility (1/GPa) = 0.02796752
#
# Stress axis : x y z
#
# Youngs Moduli (GPa) = 72.78651 33.19929 79.71483
#
# Poissons Ratio (x) = 0.13678 0.06410
# Poissons Ratio (y) = 0.29989 0.74090
# Poissons Ratio (z) = 0.05852 0.30857
#
# Static dielectric constant tensor:
#      x y z
#    x 3.790330 0.000000 0.089360 
#    y 0.000000 3.613550 0.000000 
#    z 0.089360 0.000000 3.661620 
# 
# 
# High freq. dielectric constant tensor:
#      x y z
#    x 1.794600 0.000000 -0.002920 
#    y 0.000000 1.776830 0.000000 
#    z -0.002920 0.000000 1.778460 
# 
# From -- ./inp_files/249744.got.cif
#   From: 2010.06.25/outbox.cif.g09.slc.cpg/sg12_125_cif.got.tgz:249744.got - 2010.06.28 00:19:55.
