data_PCOD8111163
_publ_section_title
;
Structure prediction by ZEFSAII (Michael W. Deem and Ramdas Pophale) SiO2 
 PCOD8111163
Probable space group: C 2/M
;
_chemical_formula_sum "Si O2"
_cell_formula_units_Z 32
_cell_length_a 8.577145
_cell_length_b 31.341763
_cell_length_c 4.891023
_cell_angle_alpha 90.000000
_cell_angle_beta 87.949646
_cell_angle_gamma 90.000000
_cell_volume 1313.976935
_symmetry_space_group_name_H-M "C 2/M"
_symmetry_group_IT_number 12
_symmetry_cell_setting 'monoclinic'
loop_
_space_group_symop_operation_xyz
x,y,z
-x,y,-z
-x,-y,-z
x,-y,z
1/2+x,1/2+y,z
1/2-x,1/2+y,-z
1/2-x,1/2-y,-z
1/2+x,1/2-y,z
loop_
_atom_site_type_symbol
_atom_site_label
_atom_site_fract_x
_atom_site_fract_y
_atom_site_fract_z
Si Si1 0.178027 0.910791 0.394733
Si Si2 0.331839 0.950505 0.896714
Si Si3 0.324736 0.683239 0.593183
Si Si4 0.391005 0.230279 0.763493
O O1 0.201793 0.941462 0.134992
O O2 0.228220 0.862805 0.292135
O O3 0.000000 0.915153 0.500000
O O4 0.294631 0.923797 0.629007
O O5 0.329483 0.000000 0.816712
O O6 0.500000 0.936345 0.000000
O O7 0.500000 0.675495 0.500000
O O8 0.305069 0.722757 0.819035
O O9 0.229190 0.694079 0.322171
O O10 0.500000 0.241963 0.500000
O O11 0.500000 0.213668 0.000000
#
# Coordination Sequence:
#
# PCOD8111163 Si02
#       4
#     8   8   8   8
#     4  11  24  41  66  97 129 165 208 260 314 374
#     4  11  25  45  67  93 127 165 206 258 318 378
#     4   9  22  40  60  89 126 162 204 256 310 360
#     4  10  22  39  61  87 121 165 209 252 301 361
#
# _framework density 24.353549000000001
#
# number of rings (size 3 to 8) (size 9 to 14) (size 15 to 20)
#    0.000    1.750    0.000    2.250    0.000   25.000 
#    0.000    0.000    0.000    0.000    0.000    0.000 
#    0.000    0.000    0.000    0.000    0.000    0.000 
#
# Total GULP energy -198375.890201 kJ/mol
# GULP energy per Si atom -12398.493138 kJ/mol
# Density = 2.429812 g / cm^3
# Si number density = 24.353549 Si / 1000 Ang^3
#
#
#
# Elastic Constant Matrix: (Units=GPa)
#
#
# Indices 1 2 3 4 5 6 
#
# 1 68.4836 36.1878 9.8977 0.0000 29.0512 0.0000
# 2 36.1878 111.3068 21.6004 0.0000 19.3892 0.0000
# 3 9.8977 21.6004 107.3618 0.0000 33.1566 0.0000
# 4 0.0000 0.0000 0.0000 34.4020 0.0000 5.3211
# 5 29.0512 19.3892 33.1566 0.0000 44.3380 0.0000
# 6 0.0000 0.0000 0.0000 5.3211 0.0000 27.5695
#
#
#
# Elastic Compliance Matrix: (Units=1/GPa)
#
#
# Indices 1 2 3 4 5 6 
#
# 1 0.023877 -0.005723 0.003912 0.000000 -0.016068 0.000000
# 2 -0.005723 0.011155 -0.001779 0.000000 0.000202 0.000000
# 3 0.003912 -0.001779 0.012825 0.000000 -0.011376 0.000000
# 4 0.000000 0.000000 0.000000 0.029963 0.000000 -0.005783
# 5 -0.016068 0.000202 -0.011376 0.000000 0.041500 0.000000
# 6 0.000000 0.000000 0.000000 -0.005783 0.000000 0.037388
#
#
# Mechanical properties :
#
#
# Convention : Reuss Voigt Hill
#
# Bulk Modulus (GPa) = 24.58408 46.94711 35.76559
# Shear Modulus (GPa) = 28.17756 35.89298 32.03527
#
# Velocity S-wave (km/s) = 3.40519 3.84321 3.63081
# Velocity P-wave (km/s) = 5.05737 6.24603 5.68286
#
# Compressibility (1/GPa) = 0.04067674
#
# Stress axis : x y z
#
# Youngs Moduli (GPa) = 41.88182 89.64685 77.97380
#
# Poissons Ratio (x) = 0.51306 -0.30506
# Poissons Ratio (y) = 0.23969 0.13873
# Poissons Ratio (z) = -0.16386 0.15949
#
# Static dielectric constant tensor:
#      x y z
#    x 4.673640 0.000000 0.129120 
#    y 0.000000 4.612890 0.000000 
#    z 0.129120 0.000000 3.774960 
# 
# 
# High freq. dielectric constant tensor:
#      x y z
#    x 1.983910 0.000000 0.009510 
#    y 0.000000 1.966100 0.000000 
#    z 0.009510 0.000000 1.966880 
# 
# From -- ./inp_files/3902.got.cif
#   From: 2010.06.25/outbox.cif.g09.slc.cpg/sg12_2_cif.got.tgz:3902.got - 2010.06.28 00:19:55.
