data_PCOD8111294
_publ_section_title
;
Structure prediction by ZEFSAII (Michael W. Deem and Ramdas Pophale) SiO2 
 PCOD8111294
Probable space group: C 2/M
;
_chemical_formula_sum "Si O2"
_cell_formula_units_Z 52
_cell_length_a 14.592913
_cell_length_b 19.002325
_cell_length_c 13.263444
_cell_angle_alpha 90.000000
_cell_angle_beta 41.267267
_cell_angle_gamma 90.000000
_cell_volume 2425.869831
_symmetry_space_group_name_H-M "C 2/M"
_symmetry_group_IT_number 12
_symmetry_cell_setting 'monoclinic'
loop_
_space_group_symop_operation_xyz
x,y,z
-x,y,-z
-x,-y,-z
x,-y,z
1/2+x,1/2+y,z
1/2-x,1/2+y,-z
1/2-x,1/2-y,-z
1/2+x,1/2-y,z
loop_
_atom_site_type_symbol
_atom_site_label
_atom_site_fract_x
_atom_site_fract_y
_atom_site_fract_z
Si Si1 0.784728 0.500000 0.451388
Si Si2 0.067258 0.146449 0.245580
Si Si3 0.979046 0.500000 0.896262
Si Si4 0.522491 0.500000 0.364864
Si Si5 0.735548 0.362037 0.598805
Si Si6 0.996151 0.287691 0.388587
Si Si7 0.654280 0.577879 0.861720
Si Si8 0.817499 0.618499 0.911321
O O1 0.622349 0.500000 0.569938
O O2 0.818393 0.429303 0.484931
O O3 0.867164 0.500000 0.278098
O O4 0.103156 0.070843 0.266078
O O5 0.048859 0.207064 0.344535
O O6 0.922687 0.146056 0.304686
O O7 0.200470 0.164508 0.066529
O O8 0.900502 0.569941 0.922115
O O9 0.000000 0.500000 0.000000
O O10 0.500000 0.500000 0.500000
O O11 0.736112 0.370713 0.719320
O O12 0.832986 0.295144 0.491549
O O13 0.083901 0.330223 0.233243
O O14 0.000000 0.316591 0.500000
O O15 0.643586 0.500000 0.821620
O O16 0.732907 0.570512 0.902694
O O17 0.500000 0.609136 0.000000
#
# Coordination Sequence:
#
# PCOD8111294 Si02
#       8
#     4   8   4   4   8   8   8   8
#     4  10  22  39  64  96 133 164 222 274 325 400
#     4  11  25  43  65  96 131 178 227 271 340 401
#     4  12  27  45  67  99 138 182 223 271 340 404
#     4  10  23  42  69  92 121 167 232 287 322 389
#     4  11  21  41  66  97 138 173 211 281 335 392
#     4  12  25  42  66  97 135 179 223 278 341 404
#     4  11  21  35  69 108 135 166 215 274 337 395
#     4  12  24  43  69  96 137 177 219 282 330 401
#
# _framework density 21.435611000000002
#
# number of rings (size 3 to 8) (size 9 to 14) (size 15 to 20)
#    0.000    0.769    6.154    1.846    2.154    0.000 
#    0.000    2.308    0.000    0.000    0.000    0.000 
#    0.000    0.000    0.000    0.000    0.000    0.000 
#
# Total GULP energy -322224.506444 kJ/mol
# GULP energy per Si atom -12393.250248 kJ/mol
# Density = 2.138682 g / cm^3
# Si number density = 21.435611 Si / 1000 Ang^3
#
#
#
# Elastic Constant Matrix: (Units=GPa)
#
#
# Indices 1 2 3 4 5 6 
#
# 1 91.1816 24.6971 40.3635 -0.0016 16.6924 0.0007
# 2 24.6971 101.9426 55.7862 -0.0020 1.5676 0.0012
# 3 40.3635 55.7862 165.5989 -0.0048 8.2498 0.0030
# 4 -0.0016 -0.0020 -0.0048 23.7122 0.0022 5.3316
# 5 16.6924 1.5676 8.2498 0.0022 33.1115 -0.0011
# 6 0.0007 0.0012 0.0030 5.3316 -0.0011 25.4083
#
#
#
# Elastic Compliance Matrix: (Units=1/GPa)
#
#
# Indices 1 2 3 4 5 6 
#
# 1 0.013676 -0.001916 -0.002379 0.000001 -0.006211 0.000000
# 2 -0.001916 0.012301 -0.003743 0.000000 0.001316 0.000000
# 3 -0.002379 -0.003743 0.007909 0.000001 -0.000594 -0.000001
# 4 0.000001 0.000000 0.000001 0.044261 -0.000004 -0.009287
# 5 -0.006211 0.001316 -0.000594 -0.000004 0.033418 0.000002
# 6 0.000000 0.000000 -0.000001 -0.009287 0.000002 0.041306
#
#
# Mechanical properties :
#
#
# Convention : Reuss Voigt Hill
#
# Bulk Modulus (GPa) = 56.14217 66.71296 61.42757
# Shear Modulus (GPa) = 28.59055 32.30479 30.44767
#
# Velocity S-wave (km/s) = 3.65607 3.88630 3.77294
# Velocity P-wave (km/s) = 6.63855 7.16434 6.90645
#
# Compressibility (1/GPa) = 0.01781192
#
# Stress axis : x y z
#
# Youngs Moduli (GPa) = 73.12031 81.29101 126.44096
#
# Poissons Ratio (x) = 0.15576 0.30074
# Poissons Ratio (y) = 0.14011 0.47322
# Poissons Ratio (z) = 0.17392 0.30424
#
# Static dielectric constant tensor:
#      x y z
#    x 3.585780 0.000000 -0.008880 
#    y 0.000000 3.850790 0.000000 
#    z -0.008880 0.000000 4.021380 
# 
# 
# High freq. dielectric constant tensor:
#      x y z
#    x 1.827980 0.000000 -0.002640 
#    y 0.000000 1.827010 0.000000 
#    z -0.002640 0.000000 1.865250 
# 
# From -- ./inp_files/216757.got.cif
#   From: 2010.06.25/outbox.cif.g09.slc.cpg/sg12_109_cif.got.tgz:216757.got - 2010.06.28 00:19:55.
