data_PCOD8111734
_publ_section_title
;
Structure prediction by ZEFSAII (Michael W. Deem and Ramdas Pophale) SiO2 
 PCOD8111734
Probable space group: C 2/M
;
_chemical_formula_sum "Si O2"
_cell_formula_units_Z 64
_cell_length_a 18.407461
_cell_length_b 18.587471
_cell_length_c 14.154738
_cell_angle_alpha 90.000000
_cell_angle_beta 40.335436
_cell_angle_gamma 90.000000
_cell_volume 3134.697956
_symmetry_space_group_name_H-M "C 2/M"
_symmetry_group_IT_number 12
_symmetry_cell_setting 'monoclinic'
loop_
_space_group_symop_operation_xyz
x,y,z
-x,y,-z
-x,-y,-z
x,-y,z
1/2+x,1/2+y,z
1/2-x,1/2+y,-z
1/2-x,1/2-y,-z
1/2+x,1/2-y,z
loop_
_atom_site_type_symbol
_atom_site_label
_atom_site_fract_x
_atom_site_fract_y
_atom_site_fract_z
Si Si1 0.496864 0.419497 0.699297
Si Si2 0.140639 0.583186 0.600836
Si Si3 0.275834 0.351704 0.837970
Si Si4 0.210411 0.851657 0.398433
Si Si5 0.380327 0.084677 0.866827
Si Si6 0.252919 0.311376 0.137492
Si Si7 0.761557 0.191472 0.342817
Si Si8 0.501394 0.364252 0.103166
O O1 0.511499 0.500000 0.647288
O O2 0.376282 0.390467 0.791426
O O3 0.588075 0.371101 0.557165
O O4 0.509551 0.421060 0.800749
O O5 0.157698 0.500000 0.557935
O O6 0.193857 0.598417 0.650672
O O7 0.207247 0.629292 0.458519
O O8 0.010661 0.604376 0.729778
O O9 0.281752 0.362461 0.720744
O O10 0.280149 0.268282 0.864387
O O11 0.162353 0.389535 0.988056
O O12 0.226602 0.769571 0.414717
O O13 0.312062 0.127531 0.855009
O O14 0.358946 0.000000 0.873626
O O15 0.216508 0.321098 0.281942
O O16 0.386515 0.318066 0.993195
O O17 0.896473 0.189893 0.213033
O O18 0.500000 0.402138 0.000000
#
# Coordination Sequence:
#
# PCOD8111734 Si02
#       8
#     8   8   8   8   8   8   8   8
#     4  12  25  41  66  97 129 168 211 260 319 378
#     4  11  25  42  64  94 127 168 212 257 317 382
#     4  11  25  42  65  94 127 169 214 264 315 373
#     4  11  25  42  65  94 127 169 214 264 315 373
#     4  11  25  42  64  94 127 168 212 257 317 382
#     4  10  23  42  67  96 126 163 212 262 318 379
#     4  10  23  42  67  96 126 163 212 262 318 379
#     4  10  22  40  67 100 126 159 208 261 317 376
#
# _framework density 20.416639
#
# number of rings (size 3 to 8) (size 9 to 14) (size 15 to 20)
#    0.000    1.250    2.500    1.875    3.500    4.250 
#    0.000    5.000    0.000    0.000    0.000    0.000 
#    0.000    0.000    0.000    0.000    0.000    0.000 
#
# Total GULP energy -396862.984376 kJ/mol
# GULP energy per Si atom -12401.968262 kJ/mol
# Density = 2.037017 g / cm^3
# Si number density = 20.416639 Si / 1000 Ang^3
#
#
#
# Elastic Constant Matrix: (Units=GPa)
#
#
# Indices 1 2 3 4 5 6 
#
# 1 75.4682 28.8577 41.2167 0.0001 -0.2649 0.0000
# 2 28.8577 100.7348 45.1360 0.0001 -1.0391 0.0000
# 3 41.2167 45.1360 117.1640 0.0001 -2.8854 -0.0001
# 4 0.0001 0.0001 0.0001 28.0717 -0.0001 -2.8940
# 5 -0.2649 -1.0391 -2.8854 -0.0001 31.7840 0.0000
# 6 0.0000 0.0000 -0.0001 -2.8940 0.0000 23.3934
#
#
#
# Elastic Compliance Matrix: (Units=1/GPa)
#
#
# Indices 1 2 3 4 5 6 
#
# 1 0.016969 -0.002642 -0.004961 0.000000 -0.000395 0.000000
# 2 -0.002642 0.012410 -0.003850 0.000000 0.000034 0.000000
# 3 -0.004961 -0.003850 0.011786 0.000000 0.000903 0.000000
# 4 0.000000 0.000000 0.000000 0.036083 0.000000 0.004464
# 5 -0.000395 0.000034 0.000903 0.000000 0.031542 0.000000
# 6 0.000000 0.000000 0.000000 0.004464 0.000000 0.043299
#
#
# Mechanical properties :
#
#
# Convention : Reuss Voigt Hill
#
# Bulk Modulus (GPa) = 54.77403 58.19865 56.48634
# Shear Modulus (GPa) = 27.61167 28.52691 28.06929
#
# Velocity S-wave (km/s) = 3.68150 3.74202 3.71189
# Velocity P-wave (km/s) = 6.70505 6.87297 6.78953
#
# Compressibility (1/GPa) = 0.01825683
#
# Stress axis : x y z
#
# Youngs Moduli (GPa) = 58.93022 80.58332 84.84728
#
# Poissons Ratio (x) = 0.21292 0.42096
# Poissons Ratio (y) = 0.15571 0.32668
# Poissons Ratio (z) = 0.29238 0.31027
#
# Static dielectric constant tensor:
#      x y z
#    x 3.892160 0.000000 0.051710 
#    y 0.000000 3.664790 0.000000 
#    z 0.051710 0.000000 3.878100 
# 
# 
# High freq. dielectric constant tensor:
#      x y z
#    x 1.809140 0.000000 0.002760 
#    y 0.000000 1.796610 0.000000 
#    z 0.002760 0.000000 1.813530 
# 
# From -- ./inp_files/226837.got.cif
#   From: 2010.06.25/outbox.cif.g09.slc.cpg/sg12_114_cif.got.tgz:226837.got - 2010.06.28 00:19:55.
