data_PCOD8111949
_publ_section_title
;
Structure prediction by ZEFSAII (Michael W. Deem and Ramdas Pophale) SiO2 
 PCOD8111949
Probable space group: C 2/M
;
_chemical_formula_sum "Si O2"
_cell_formula_units_Z 48
_cell_length_a 15.046108
_cell_length_b 21.389713
_cell_length_c 8.581024
_cell_angle_alpha 90.000000
_cell_angle_beta 128.083411
_cell_angle_gamma 90.000000
_cell_volume 2173.730444
_symmetry_space_group_name_H-M "C 2/M"
_symmetry_group_IT_number 12
_symmetry_cell_setting 'monoclinic'
loop_
_space_group_symop_operation_xyz
x,y,z
-x,y,-z
-x,-y,-z
x,-y,z
1/2+x,1/2+y,z
1/2-x,1/2+y,-z
1/2-x,1/2-y,-z
1/2+x,1/2-y,z
loop_
_atom_site_type_symbol
_atom_site_label
_atom_site_fract_x
_atom_site_fract_y
_atom_site_fract_z
Si Si1 0.381848 0.428599 0.179479
Si Si2 0.010667 0.666354 0.187240
Si Si3 0.862772 0.895437 0.504528
Si Si4 0.616156 0.257147 0.537652
Si Si5 0.805004 0.349837 0.184351
Si Si6 0.340939 0.929537 0.517122
O O1 0.366699 0.500000 0.101126
O O2 0.341935 0.428135 0.315691
O O3 0.509759 0.405920 0.301732
O O4 0.312714 0.378548 0.001611
O O5 0.888011 0.657094 0.128863
O O6 0.088152 0.717741 0.354531
O O7 0.075343 0.600218 0.264966
O O8 0.000000 0.688847 0.000000
O O9 0.829116 0.822446 0.453659
O O10 0.786419 0.925783 0.555570
O O11 0.500000 0.272462 0.500000
O O12 0.704251 0.218928 0.744152
O O13 0.858344 0.395547 0.370702
O O14 0.377480 0.000000 0.529760
#
# Coordination Sequence:
#
# PCOD8111949 Si02
#       6
#     8   8   8   8   8   8
#     4  11  22  39  63  94 128 169 214 258 311 372
#     4  10  22  41  64  94 121 161 211 267 317 374
#     4  11  22  40  61  92 126 172 209 260 310 370
#     4   9  19  42  62  90 129 162 214 254 320 370
#     4  10  23  40  64  91 126 167 206 266 314 376
#     4  11  23  40  62  90 127 168 209 257 315 377
#
# _framework density 22.081855000000001
#
# number of rings (size 3 to 8) (size 9 to 14) (size 15 to 20)
#    0.000    1.667    1.667    5.000    0.000    6.333 
#    6.000    1.667    0.000    0.000    0.000    0.000 
#    0.000    0.000    0.000    0.000    0.000    0.000 
#
# Total GULP energy -297636.204907 kJ/mol
# GULP energy per Si atom -12401.508538 kJ/mol
# Density = 2.203160 g / cm^3
# Si number density = 22.081855 Si / 1000 Ang^3
#
#
#
# Elastic Constant Matrix: (Units=GPa)
#
#
# Indices 1 2 3 4 5 6 
#
# 1 60.7322 13.6058 24.9277 0.0000 -18.7440 0.0000
# 2 13.6058 129.6759 17.8698 0.0000 5.1712 0.0000
# 3 24.9277 17.8698 102.4058 0.0000 -0.2602 0.0000
# 4 0.0000 0.0000 0.0000 25.7291 0.0000 4.8527
# 5 -18.7440 5.1712 -0.2602 0.0000 33.3546 0.0000
# 6 0.0000 0.0000 0.0000 4.8527 0.0000 26.7789
#
#
#
# Elastic Compliance Matrix: (Units=1/GPa)
#
#
# Indices 1 2 3 4 5 6 
#
# 1 0.023244 -0.002251 -0.005231 0.000000 0.013370 0.000000
# 2 -0.002251 0.008171 -0.000884 0.000000 -0.002539 0.000000
# 3 -0.005231 -0.000884 0.011186 0.000000 -0.002715 0.000000
# 4 0.000000 0.000000 0.000000 0.040242 0.000000 -0.007292
# 5 0.013370 -0.002539 -0.002715 0.000000 0.037867 0.000000
# 6 0.000000 0.000000 0.000000 -0.007292 0.000000 0.038664
#
#
# Mechanical properties :
#
#
# Convention : Reuss Voigt Hill
#
# Bulk Modulus (GPa) = 38.65895 45.06893 41.86394
# Shear Modulus (GPa) = 27.06666 32.93321 29.99994
#
# Velocity S-wave (km/s) = 3.50486 3.86607 3.68989
# Velocity P-wave (km/s) = 5.82442 6.35476 6.09536
#
# Compressibility (1/GPa) = 0.02586723
#
# Stress axis : x y z
#
# Youngs Moduli (GPa) = 43.02244 122.38681 89.39854
#
# Poissons Ratio (x) = 0.27550 0.46766
# Poissons Ratio (y) = 0.09685 0.07906
# Poissons Ratio (z) = 0.22506 0.10823
#
# Static dielectric constant tensor:
#      x y z
#    x 3.801060 0.000000 -0.050080 
#    y 0.000000 4.191270 0.000000 
#    z -0.050080 0.000000 3.907810 
# 
# 
# High freq. dielectric constant tensor:
#      x y z
#    x 1.863660 0.000000 -0.004260 
#    y 0.000000 1.878700 0.000000 
#    z -0.004260 0.000000 1.859690 
# 
# From -- ./inp_files/77669.got.cif
#   From: 2010.06.25/outbox.cif.g09.slc.cpg/sg12_39_cif.got.tgz:77669.got - 2010.06.28 00:19:55.
