data_PCOD8111094
_publ_section_title
;
Structure prediction by ZEFSAII (Michael W. Deem and Ramdas Pophale) SiO2 
 PCOD8111094
Probable space group: C 2/M
;
_chemical_formula_sum "Si O2"
_cell_formula_units_Z 48
_cell_length_a 10.334732
_cell_length_b 13.404014
_cell_length_c 28.945179
_cell_angle_alpha 90.000000
_cell_angle_beta 143.725114
_cell_angle_gamma 90.000000
_cell_volume 2372.370102
_symmetry_space_group_name_H-M "C 2/M"
_symmetry_group_IT_number 12
_symmetry_cell_setting 'monoclinic'
loop_
_space_group_symop_operation_xyz
x,y,z
-x,y,-z
-x,-y,-z
x,-y,z
1/2+x,1/2+y,z
1/2-x,1/2+y,-z
1/2-x,1/2-y,-z
1/2+x,1/2-y,z
loop_
_atom_site_type_symbol
_atom_site_label
_atom_site_fract_x
_atom_site_fract_y
_atom_site_fract_z
Si Si1 0.458561 0.385487 0.935426
Si Si2 0.493283 0.259403 0.551910
Si Si3 0.564186 0.747881 0.807394
Si Si4 0.252923 0.885558 0.937090
Si Si5 0.864776 0.886669 0.673810
Si Si6 0.323821 0.387806 0.319185
O O1 0.377476 0.500000 0.910489
O O2 0.276684 0.315770 0.859778
O O3 0.683275 0.373121 0.970787
O O4 0.500000 0.351933 0.000000
O O5 0.500000 0.283437 0.500000
O O6 0.620442 0.157489 0.601298
O O7 0.615783 0.350675 0.612283
O O8 0.250000 0.250000 0.500000
O O9 0.588562 0.679411 0.859361
O O10 0.525589 0.676413 0.752681
O O11 0.360146 0.820080 0.757444
O O12 0.232450 0.000000 0.915237
O O13 0.500000 0.847561 0.000000
O O14 0.959736 0.882339 0.649603
O O15 0.850578 0.000000 0.688083
O O16 0.233648 0.500000 0.296961
#
# Coordination Sequence:
#
# PCOD8111094 Si02
#       6
#     8   8   8   8   8   8
#     4  10  22  39  59  86 119 156 198 247 303 353
#     4  11  22  40  66  93 121 154 196 243 291 346
#     4  11  21  36  61  87 119 154 199 248 295 346
#     4  10  22  39  59  86 118 155 201 250 297 350
#     4  10  22  39  61  89 121 159 196 236 293 355
#     4  10  22  39  60  89 123 157 195 239 293 354
#
# _framework density 20.232931000000001
#
# number of rings (size 3 to 8) (size 9 to 14) (size 15 to 20)
#    0.000    1.667    1.667    2.500    0.000    5.333 
#    0.000    3.333    0.000    0.000    0.000    0.000 
#    0.000    0.000    0.000    0.000    0.000    0.000 
#
# Total GULP energy -297664.336396 kJ/mol
# GULP energy per Si atom -12402.680683 kJ/mol
# Density = 2.018688 g / cm^3
# Si number density = 20.232931 Si / 1000 Ang^3
#
#
#
# Elastic Constant Matrix: (Units=GPa)
#
#
# Indices 1 2 3 4 5 6 
#
# 1 129.5870 50.0494 63.2890 0.0000 -0.4186 0.0000
# 2 50.0494 146.4942 72.8155 0.0000 -1.1261 0.0000
# 3 63.2890 72.8155 131.3789 0.0001 -1.5383 0.0000
# 4 0.0000 0.0000 0.0001 27.6413 0.0000 1.0362
# 5 -0.4186 -1.1261 -1.5383 0.0000 37.8154 0.0000
# 6 0.0000 0.0000 0.0000 1.0362 0.0000 20.2421
#
#
#
# Elastic Compliance Matrix: (Units=1/GPa)
#
#
# Indices 1 2 3 4 5 6 
#
# 1 0.010311 -0.001455 -0.004162 0.000000 -0.000098 0.000000
# 2 -0.001455 0.009627 -0.004634 0.000000 0.000082 0.000000
# 3 -0.004162 -0.004634 0.012189 0.000000 0.000312 0.000000
# 4 0.000000 0.000000 0.000000 0.036247 0.000000 -0.001855
# 5 -0.000098 0.000082 0.000312 0.000000 0.026458 0.000000
# 6 0.000000 0.000000 0.000000 -0.001855 0.000000 0.049497
#
#
# Mechanical properties :
#
#
# Convention : Reuss Voigt Hill
#
# Bulk Modulus (GPa) = 86.01982 86.64089 86.33035
# Shear Modulus (GPa) = 29.63738 31.89352 30.76545
#
# Velocity S-wave (km/s) = 3.83143 3.97459 3.90367
# Velocity P-wave (km/s) = 7.88545 7.99862 7.94223
#
# Compressibility (1/GPa) = 0.01162523
#
# Stress axis : x y z
#
# Youngs Moduli (GPa) = 96.98341 103.87214 82.04426
#
# Poissons Ratio (x) = 0.15111 0.34147
# Poissons Ratio (y) = 0.14109 0.38020
# Poissons Ratio (z) = 0.40364 0.48135
#
# Static dielectric constant tensor:
#      x y z
#    x 3.537390 0.000000 0.007200 
#    y 0.000000 3.863320 0.000000 
#    z 0.007200 0.000000 3.635320 
# 
# 
# High freq. dielectric constant tensor:
#      x y z
#    x 1.786900 0.000000 -0.000380 
#    y 0.000000 1.806280 0.000000 
#    z -0.000380 0.000000 1.787910 
# 
# From -- ./inp_files/251415.got.cif
#   From: 2010.06.25/outbox.cif.g09.slc.cpg/sg12_126_cif.got.tgz:251415.got - 2010.06.28 00:19:55.
