data_PCOD8111644
_publ_section_title
;
Structure prediction by ZEFSAII (Michael W. Deem and Ramdas Pophale) SiO2 
 PCOD8111644
Probable space group: C 2/M
;
_chemical_formula_sum "Si O2"
_cell_formula_units_Z 48
_cell_length_a 17.009406
_cell_length_b 10.110402
_cell_length_c 28.880500
_cell_angle_alpha 90.000000
_cell_angle_beta 29.121143
_cell_angle_gamma 90.000000
_cell_volume 2417.051767
_symmetry_space_group_name_H-M "C 2/M"
_symmetry_group_IT_number 12
_symmetry_cell_setting 'monoclinic'
loop_
_space_group_symop_operation_xyz
x,y,z
-x,y,-z
-x,-y,-z
x,-y,z
1/2+x,1/2+y,z
1/2-x,1/2+y,-z
1/2-x,1/2-y,-z
1/2+x,1/2-y,z
loop_
_atom_site_type_symbol
_atom_site_label
_atom_site_fract_x
_atom_site_fract_y
_atom_site_fract_z
Si Si1 0.425460 0.000000 0.893261
Si Si2 0.660264 0.267320 0.208040
Si Si3 0.845615 0.151267 0.417879
Si Si4 0.596993 0.000000 0.902882
Si Si5 0.823134 0.648351 0.592583
Si Si6 0.017029 0.235888 0.796250
Si Si7 0.645160 0.500000 0.888424
Si Si8 0.443905 0.500000 0.900811
O O1 0.478459 0.000000 0.919633
O O2 0.492289 0.122705 0.830769
O O3 0.234066 0.000000 0.986804
O O4 0.519559 0.282189 0.318634
O O5 0.796653 0.369328 0.152906
O O6 0.591203 0.297795 0.192740
O O7 0.737246 0.123598 0.166546
O O8 0.750000 0.250000 0.500000
O O9 0.744821 0.143149 0.423446
O O10 0.864266 0.000000 0.428139
O O11 0.500000 0.000000 0.000000
O O12 0.836751 0.500000 0.606140
O O13 0.706529 0.730520 0.686200
O O14 0.000000 0.715939 0.500000
O O15 0.968179 0.130322 0.859085
O O16 0.572763 0.500000 0.875012
O O17 0.500000 0.500000 0.000000
#
# Coordination Sequence:
#
# PCOD8111644 Si02
#       8
#     4   8   8   4   8   8   4   4
#     4  12  26  40  61  96 129 158 205 272 318 366
#     4  11  23  43  65  91 129 168 210 261 318 378
#     4  10  22  40  64  94 126 163 206 255 312 375
#     4  12  24  42  65  90 125 172 211 254 326 386
#     4   9  19  39  65  90 118 160 207 247 298 370
#     4  11  22  42  65  91 124 165 208 260 313 368
#     4  12  26  42  63  96 129 164 213 268 316 370
#     4  12  24  42  65  90 121 168 219 248 306 382
#
# _framework density 19.858905
#
# number of rings (size 3 to 8) (size 9 to 14) (size 15 to 20)
#    0.000    1.167    1.667    5.000    1.167    2.667 
#    1.500    0.417    0.000    0.000    0.000    0.000 
#    0.000    0.000    0.000    0.000    0.000    0.000 
#
# Total GULP energy -297622.992092 kJ/mol
# GULP energy per Si atom -12400.958004 kJ/mol
# Density = 1.981371 g / cm^3
# Si number density = 19.858905 Si / 1000 Ang^3
#
#
#
# Elastic Constant Matrix: (Units=GPa)
#
#
# Indices 1 2 3 4 5 6 
#
# 1 47.2149 2.9978 22.7235 0.0001 -2.5491 0.0002
# 2 2.9978 135.4187 67.3900 0.0002 6.5452 0.0004
# 3 22.7235 67.3900 163.9938 0.0004 -3.9423 0.0013
# 4 0.0001 0.0002 0.0004 45.3849 0.0000 -6.2976
# 5 -2.5491 6.5452 -3.9423 0.0000 37.0607 -0.0003
# 6 0.0002 0.0004 0.0013 -6.2976 -0.0003 44.8374
#
#
#
# Elastic Compliance Matrix: (Units=1/GPa)
#
#
# Indices 1 2 3 4 5 6 
#
# 1 0.022920 0.001276 -0.003677 0.000000 0.000960 0.000000
# 2 0.001276 0.009512 -0.004134 0.000000 -0.002032 0.000000
# 3 -0.003677 -0.004134 0.008339 0.000000 0.001364 0.000000
# 4 0.000000 0.000000 0.000000 0.022472 0.000000 0.003156
# 5 0.000960 -0.002032 0.001364 0.000000 0.027553 0.000000
# 6 0.000000 0.000000 0.000000 0.003156 0.000000 0.022746
#
#
# Mechanical properties :
#
#
# Convention : Reuss Voigt Hill
#
# Bulk Modulus (GPa) = 36.10065 59.20555 47.65310
# Shear Modulus (GPa) = 36.80628 42.35767 39.58198
#
# Velocity S-wave (km/s) = 4.30977 4.62338 4.46933
# Velocity P-wave (km/s) = 6.55618 7.64059 7.11907
#
# Compressibility (1/GPa) = 0.02770033
#
# Stress axis : x y z
#
# Youngs Moduli (GPa) = 43.62936 105.13132 119.91744
#
# Poissons Ratio (x) = -0.13416 0.44097
# Poissons Ratio (y) = -0.05568 0.49579
# Poissons Ratio (z) = 0.16044 0.43466
#
# Static dielectric constant tensor:
#      x y z
#    x 3.713960 0.000000 -0.077290 
#    y 0.000000 3.594900 0.000000 
#    z -0.077290 0.000000 4.000170 
# 
# 
# High freq. dielectric constant tensor:
#      x y z
#    x 1.777250 0.000000 -0.005200 
#    y 0.000000 1.780740 0.000000 
#    z -0.005200 0.000000 1.792660 
# 
# From -- ./inp_files/377945.got.cif
#   From: 2010.06.25/outbox.cif.g09.slc.cpg/sg12_189_cif.got.tgz:377945.got - 2010.06.28 00:19:55.
