data_PCOD8111154
_publ_section_title
;
Structure prediction by ZEFSAII (Michael W. Deem and Ramdas Pophale) SiO2 
 PCOD8111154
Probable space group: C 2/M
;
_chemical_formula_sum "Si O2"
_cell_formula_units_Z 40
_cell_length_a 25.781501
_cell_length_b 11.281744
_cell_length_c 9.455973
_cell_angle_alpha 90.000000
_cell_angle_beta 133.779846
_cell_angle_gamma 90.000000
_cell_volume 1985.775070
_symmetry_space_group_name_H-M "C 2/M"
_symmetry_group_IT_number 12
_symmetry_cell_setting 'monoclinic'
loop_
_space_group_symop_operation_xyz
x,y,z
-x,y,-z
-x,-y,-z
x,-y,z
1/2+x,1/2+y,z
1/2-x,1/2+y,-z
1/2-x,1/2-y,-z
1/2+x,1/2-y,z
loop_
_atom_site_type_symbol
_atom_site_label
_atom_site_fract_x
_atom_site_fract_y
_atom_site_fract_z
Si Si1 0.713412 0.864303 0.601338
Si Si2 0.407501 0.861864 0.416517
Si Si3 0.643421 0.736779 0.223147
Si Si4 0.512795 0.500000 0.688961
Si Si5 0.923360 0.000000 0.781073
Si Si6 0.948894 0.742151 0.205855
O O1 0.670450 0.838047 0.664814
O O2 0.660504 0.835148 0.371736
O O3 0.785069 0.785956 0.734953
O O4 0.736100 0.000000 0.633407
O O5 0.467856 0.794306 0.623221
O O6 0.404544 0.813683 0.251464
O O7 0.427863 0.000000 0.454915
O O8 0.619858 0.616808 0.257488
O O9 0.583885 0.795469 0.007282
O O10 0.500000 0.500000 0.500000
O O11 0.438545 0.500000 0.640174
O O12 0.559670 0.384449 0.812511
O O13 0.000000 0.000000 0.000000
#
# Coordination Sequence:
#
# PCOD8111154 Si02
#       6
#     8   8   8   4   4   8
#     4  10  23  42  58  85 122 161 203 243 301 357
#     4  10  22  39  61  85 122 160 197 249 293 351
#     4  11  23  39  64  87 120 159 199 249 301 360
#     4  12  22  34  58  96 122 146 188 248 301 358
#     4  12  22  38  64  94 120 152 194 257 307 344
#     4  11  21  37  60  92 117 151 204 244 300 345
#
# _framework density 20.143270000000001
#
# number of rings (size 3 to 8) (size 9 to 14) (size 15 to 20)
#    0.000    1.200    5.000    2.400    0.000    2.400 
#    0.000    2.000    0.000    0.000    0.000    0.000 
#    0.000    0.000    0.000    0.000    0.000    0.000 
#
# Total GULP energy -248000.894102 kJ/mol
# GULP energy per Si atom -12400.044705 kJ/mol
# Density = 2.009742 g / cm^3
# Si number density = 20.143270 Si / 1000 Ang^3
#
#
#
# Elastic Constant Matrix: (Units=GPa)
#
#
# Indices 1 2 3 4 5 6 
#
# 1 112.6457 16.1747 7.9700 0.0000 -14.8662 0.0000
# 2 16.1747 62.1029 -7.2309 0.0000 -2.7253 0.0000
# 3 7.9700 -7.2309 68.0331 0.0000 -13.3842 0.0000
# 4 0.0000 0.0000 0.0000 24.0799 0.0000 -1.2135
# 5 -14.8662 -2.7253 -13.3842 0.0000 21.9460 0.0000
# 6 0.0000 0.0000 0.0000 -1.2135 0.0000 32.4923
#
#
#
# Elastic Compliance Matrix: (Units=1/GPa)
#
#
# Indices 1 2 3 4 5 6 
#
# 1 0.010077 -0.002362 -0.000166 0.000000 0.006431 0.000000
# 2 -0.002362 0.017098 0.002496 0.000000 0.002046 0.000000
# 3 -0.000166 0.002496 0.017070 0.000000 0.010608 0.000000
# 4 0.000000 0.000000 0.000000 0.041607 0.000000 0.001554
# 5 0.006431 0.002046 0.010608 0.000000 0.056647 0.000000
# 6 0.000000 0.000000 0.000000 0.001554 0.000000 0.030835
#
#
# Mechanical properties :
#
#
# Convention : Reuss Voigt Hill
#
# Bulk Modulus (GPa) = 22.63353 30.73439 26.68396
# Shear Modulus (GPa) = 26.57825 30.76151 28.66988
#
# Velocity S-wave (km/s) = 3.63638 3.91210 3.77676
# Velocity P-wave (km/s) = 5.37510 5.97470 5.68281
#
# Compressibility (1/GPa) = 0.04418224
#
# Stress axis : x y z
#
# Youngs Moduli (GPa) = 99.23543 58.48690 58.58072
#
# Poissons Ratio (x) = 0.13813 0.00974
# Poissons Ratio (y) = 0.23436 -0.14624
# Poissons Ratio (z) = 0.01650 -0.14601
#
# Static dielectric constant tensor:
#      x y z
#    x 3.975000 0.000000 -0.162620 
#    y 0.000000 2.930250 0.000000 
#    z -0.162620 0.000000 3.550270 
# 
# 
# High freq. dielectric constant tensor:
#      x y z
#    x 1.799830 0.000000 -0.010960 
#    y 0.000000 1.788740 0.000000 
#    z -0.010960 0.000000 1.768630 
# 
# From -- ./inp_files/102887.got.cif
#   From: 2010.06.25/outbox.cif.g09.slc.cpg/sg12_52_cif.got.tgz:102887.got - 2010.06.28 00:19:55.
