data_PCOD8111584
_publ_section_title
;
Structure prediction by ZEFSAII (Michael W. Deem and Ramdas Pophale) SiO2 
 PCOD8111584
Probable space group: C 2/M
;
_chemical_formula_sum "Si O2"
_cell_formula_units_Z 64
_cell_length_a 9.094849
_cell_length_b 15.146680
_cell_length_c 31.660272
_cell_angle_alpha 90.000000
_cell_angle_beta 135.531979
_cell_angle_gamma 90.000000
_cell_volume 3055.220665
_symmetry_space_group_name_H-M "C 2/M"
_symmetry_group_IT_number 12
_symmetry_cell_setting 'monoclinic'
loop_
_space_group_symop_operation_xyz
x,y,z
-x,y,-z
-x,-y,-z
x,-y,z
1/2+x,1/2+y,z
1/2-x,1/2+y,-z
1/2-x,1/2-y,-z
1/2+x,1/2-y,z
loop_
_atom_site_type_symbol
_atom_site_label
_atom_site_fract_x
_atom_site_fract_y
_atom_site_fract_z
Si Si1 0.595636 0.647157 0.614203
Si Si2 0.268346 0.599762 0.739627
Si Si3 0.057814 0.404585 0.255526
Si Si4 0.584025 0.748906 0.821563
Si Si5 0.953821 0.749981 0.092644
Si Si6 0.669693 0.104487 0.997692
Si Si7 0.649106 0.901233 0.494020
Si Si8 0.565304 0.176226 0.386807
O O1 0.733912 0.587038 0.673372
O O2 0.390785 0.595015 0.557473
O O3 0.528868 0.726882 0.630608
O O4 0.729901 0.675311 0.600740
O O5 0.350843 0.500000 0.755466
O O6 0.474496 0.659862 0.783039
O O7 0.135396 0.620687 0.753958
O O8 0.120489 0.613868 0.668411
O O9 0.022881 0.500000 0.226908
O O10 0.068454 0.330757 0.221460
O O11 0.660816 0.752262 0.885806
O O12 0.805367 0.758500 0.843476
O O13 0.917424 0.657055 0.060915
O O14 0.876802 0.839129 0.052882
O O15 0.721231 0.000000 0.998413
O O16 0.500000 0.109314 0.000000
O O17 0.500000 0.859144 0.500000
O O18 0.631168 0.846231 0.447816
O O19 0.570761 0.000000 0.468708
#
# Coordination Sequence:
#
# PCOD8111584 Si02
#       8
#     8   8   8   8   8   8   8   8
#     4  11  22  39  64  88 121 162 212 262 324 390
#     4  10  22  40  64  92 125 171 217 260 316 386
#     4  10  22  40  63  92 127 169 213 264 322 379
#     4  12  22  41  65  94 135 166 213 262 312 374
#     4  11  24  40  67 100 130 169 210 263 311 364
#     4  10  22  43  69  97 131 172 213 256 309 369
#     4  11  24  41  60  87 121 158 208 271 330 388
#     4  11  22  39  64  89 121 161 212 265 322 389
#
# _framework density 20.947752000000001
#
# number of rings (size 3 to 8) (size 9 to 14) (size 15 to 20)
#    0.000    1.250    3.750    2.250    0.000    4.000 
#    2.250    0.625    0.000    0.000    0.000    0.000 
#    0.000    0.000    0.000    0.000    0.000    0.000 
#
# Total GULP energy -396690.387736 kJ/mol
# GULP energy per Si atom -12396.574617 kJ/mol
# Density = 2.090007 g / cm^3
# Si number density = 20.947752 Si / 1000 Ang^3
#
#
#
# Elastic Constant Matrix: (Units=GPa)
#
#
# Indices 1 2 3 4 5 6 
#
# 1 72.8951 22.4173 25.8380 0.0000 12.4695 0.0000
# 2 22.4173 136.2656 50.4040 0.0000 4.2234 0.0000
# 3 25.8380 50.4040 106.8150 0.0000 8.0008 0.0000
# 4 0.0000 0.0000 0.0000 23.1139 0.0000 2.5176
# 5 12.4695 4.2234 8.0008 0.0000 35.8060 0.0000
# 6 0.0000 0.0000 0.0000 2.5176 0.0000 25.9934
#
#
#
# Elastic Compliance Matrix: (Units=1/GPa)
#
#
# Indices 1 2 3 4 5 6 
#
# 1 0.015978 -0.001433 -0.002832 0.000000 -0.004762 0.000000
# 2 -0.001433 0.009019 -0.003933 0.000000 0.000314 0.000000
# 3 -0.002832 -0.003933 0.011995 0.000000 -0.001230 0.000000
# 4 0.000000 0.000000 0.000000 0.043725 0.000000 -0.004235
# 5 -0.004762 0.000314 -0.001230 0.000000 0.029825 0.000000
# 6 0.000000 0.000000 0.000000 -0.004235 0.000000 0.038882
#
#
# Mechanical properties :
#
#
# Convention : Reuss Voigt Hill
#
# Bulk Modulus (GPa) = 48.55360 57.03271 52.79315
# Shear Modulus (GPa) = 28.95448 31.47042 30.21245
#
# Velocity S-wave (km/s) = 3.72186 3.88019 3.80185
# Velocity P-wave (km/s) = 6.45743 6.88185 6.67301
#
# Compressibility (1/GPa) = 0.02059580
#
# Stress axis : x y z
#
# Youngs Moduli (GPa) = 62.58779 110.87146 83.36826
#
# Poissons Ratio (x) = 0.15893 0.23608
# Poissons Ratio (y) = 0.08972 0.32788
# Poissons Ratio (z) = 0.17723 0.43605
#
# Static dielectric constant tensor:
#      x y z
#    x 3.671750 0.000000 0.024410 
#    y 0.000000 3.780240 0.000000 
#    z 0.024410 0.000000 3.715250 
# 
# 
# High freq. dielectric constant tensor:
#      x y z
#    x 1.812090 0.000000 0.003810 
#    y 0.000000 1.824460 0.000000 
#    z 0.003810 0.000000 1.827350 
# 
# From -- ./inp_files/372601.got.cif
#   From: 2010.06.25/outbox.cif.g09.slc.cpg/sg12_187_cif.got.tgz:372601.got - 2010.06.28 00:19:55.
