data_PCOD8111271
_publ_section_title
;
Structure prediction by ZEFSAII (Michael W. Deem and Ramdas Pophale) SiO2 
 PCOD8111271
Probable space group: C 2/M
;
_chemical_formula_sum "Si O2"
_cell_formula_units_Z 36
_cell_length_a 10.302057
_cell_length_b 14.098815
_cell_length_c 22.134305
_cell_angle_alpha 90.000000
_cell_angle_beta 145.380122
_cell_angle_gamma 90.000000
_cell_volume 1826.499796
_symmetry_space_group_name_H-M "C 2/M"
_symmetry_group_IT_number 12
_symmetry_cell_setting 'monoclinic'
loop_
_space_group_symop_operation_xyz
x,y,z
-x,y,-z
-x,-y,-z
x,-y,z
1/2+x,1/2+y,z
1/2-x,1/2+y,-z
1/2-x,1/2-y,-z
1/2+x,1/2-y,z
loop_
_atom_site_type_symbol
_atom_site_label
_atom_site_fract_x
_atom_site_fract_y
_atom_site_fract_z
Si Si1 0.309687 0.699332 0.774768
Si Si2 0.262082 0.186241 0.875605
Si Si3 0.153682 0.500000 0.675749
Si Si4 0.625726 0.500000 0.456923
Si Si5 0.972383 0.206730 0.555827
Si Si6 0.435934 0.500000 0.253586
O O1 0.276494 0.731114 0.831129
O O2 0.573225 0.704197 0.855050
O O3 0.205624 0.593468 0.734973
O O4 0.184046 0.767528 0.679070
O O5 0.211332 0.090390 0.820644
O O6 0.500000 0.176429 0.000000
O O7 0.314823 0.500000 0.679779
O O8 0.897958 0.500000 0.552435
O O9 0.550133 0.594203 0.463029
O O10 0.481325 0.500000 0.341030
O O11 0.750000 0.250000 0.500000
O O12 0.000000 0.253117 0.500000
#
# Coordination Sequence:
#
# PCOD8111271 Si02
#       6
#     8   8   4   4   8   4
#     4  11  23  42  62  94 124 164 211 257 311 371
#     4  11  23  43  67  90 122 163 215 269 312 357
#     4  10  23  36  63  90 132 163 201 251 310 383
#     4  12  22  39  61  94 134 165 201 246 320 368
#     4  12  25  40  63  95 130 171 206 247 309 382
#     4  10  22  39  63  96 121 162 212 256 311 374
#
# _framework density 19.70983
#
# number of rings (size 3 to 8) (size 9 to 14) (size 15 to 20)
#    0.000    0.889    4.444    3.000    3.111    0.000 
#    0.000    1.667    0.000    0.000    0.000    0.000 
#    0.000    0.000    0.000    0.000    0.000    0.000 
#
# Total GULP energy -223219.231994 kJ/mol
# GULP energy per Si atom -12401.068444 kJ/mol
# Density = 1.966497 g / cm^3
# Si number density = 19.709830 Si / 1000 Ang^3
#
#
#
# Elastic Constant Matrix: (Units=GPa)
#
#
# Indices 1 2 3 4 5 6 
#
# 1 81.1732 43.5055 39.9503 -0.0001 -11.0809 0.0002
# 2 43.5055 124.7543 35.1296 0.0000 6.6429 0.0000
# 3 39.9503 35.1296 140.0071 -0.0005 10.0082 0.0001
# 4 -0.0001 0.0000 -0.0005 35.7481 -0.0002 -16.7026
# 5 -11.0809 6.6429 10.0082 -0.0002 32.2743 0.0002
# 6 0.0002 0.0000 0.0001 -16.7026 0.0002 38.7470
#
#
#
# Elastic Compliance Matrix: (Units=1/GPa)
#
#
# Indices 1 2 3 4 5 6 
#
# 1 0.018933 -0.005793 -0.004601 0.000000 0.009119 0.000000
# 2 -0.005793 0.010438 -0.000686 0.000000 -0.003925 0.000000
# 3 -0.004601 -0.000686 0.008928 0.000000 -0.004207 0.000000
# 4 0.000000 0.000000 0.000000 0.035028 0.000000 0.015100
# 5 0.009119 -0.003925 -0.004207 0.000000 0.036228 0.000000
# 6 0.000000 0.000000 0.000000 0.015100 0.000000 0.032317
#
#
# Mechanical properties :
#
#
# Convention : Reuss Voigt Hill
#
# Bulk Modulus (GPa) = 61.95416 64.78949 63.37182
# Shear Modulus (GPa) = 29.51394 36.51050 33.01222
#
# Velocity S-wave (km/s) = 3.87385 4.30862 4.09701
# Velocity P-wave (km/s) = 7.17707 7.59574 7.38937
#
# Compressibility (1/GPa) = 0.01614097
#
# Stress axis : x y z
#
# Youngs Moduli (GPa) = 52.81720 95.80544 112.00573
#
# Poissons Ratio (x) = 0.55496 0.51533
# Poissons Ratio (y) = 0.30595 0.07679
# Poissons Ratio (z) = 0.24301 0.06568
#
# Static dielectric constant tensor:
#      x y z
#    x 3.391990 0.000000 -0.061850 
#    y 0.000000 3.521320 0.000000 
#    z -0.061850 0.000000 3.384230 
# 
# 
# High freq. dielectric constant tensor:
#      x y z
#    x 1.770920 0.000000 0.004960 
#    y 0.000000 1.780770 0.000000 
#    z 0.004960 0.000000 1.772020 
# 
# From -- ./inp_files/127968.got.cif
#   From: 2010.06.25/outbox.cif.g09.slc.cpg/sg12_64_cif.got.tgz:127968.got - 2010.06.28 00:19:55.
