data_PCOD8111727
_publ_section_title
;
Structure prediction by ZEFSAII (Michael W. Deem and Ramdas Pophale) SiO2 
 PCOD8111727
Probable space group: C 2/M
;
_chemical_formula_sum "Si O2"
_cell_formula_units_Z 64
_cell_length_a 31.045709
_cell_length_b 8.759390
_cell_length_c 13.262954
_cell_angle_alpha 90.000000
_cell_angle_beta 52.703794
_cell_angle_gamma 90.000000
_cell_volume 2869.216509
_symmetry_space_group_name_H-M "C 2/M"
_symmetry_group_IT_number 12
_symmetry_cell_setting 'monoclinic'
loop_
_space_group_symop_operation_xyz
x,y,z
-x,y,-z
-x,-y,-z
x,-y,z
1/2+x,1/2+y,z
1/2-x,1/2+y,-z
1/2-x,1/2-y,-z
1/2+x,1/2-y,z
loop_
_atom_site_type_symbol
_atom_site_label
_atom_site_fract_x
_atom_site_fract_y
_atom_site_fract_z
Si Si1 0.160846 0.820053 0.156915
Si Si2 0.821379 0.327291 0.200110
Si Si3 0.563248 0.819235 0.399679
Si Si4 0.693785 0.823653 0.553930
Si Si5 0.075327 0.177191 0.967584
Si Si6 0.037017 0.176564 0.807527
Si Si7 0.611156 0.318630 0.529382
Si Si8 0.756521 0.178068 0.135151
O O1 0.099949 0.746162 0.254111
O O2 0.201078 0.766468 0.189115
O O3 0.152272 0.000000 0.175836
O O4 0.192573 0.773744 0.008912
O O5 0.805876 0.500000 0.197353
O O6 0.836905 0.303136 0.295597
O O7 0.874749 0.275887 0.063405
O O8 0.772069 0.223840 0.228017
O O9 0.500000 0.759360 0.500000
O O10 0.598708 0.766385 0.444225
O O11 0.561973 0.000000 0.392566
O O12 0.750000 0.750000 0.500000
O O13 0.668079 0.729767 0.498076
O O14 0.698698 0.000000 0.515563
O O15 0.056079 0.243544 0.887034
O O16 0.092361 0.000000 0.937244
O O17 0.027117 0.200704 0.115963
O O18 0.066595 0.249611 0.670178
O O19 0.052381 0.000000 0.787972
O O20 0.609137 0.500000 0.514886
O O21 0.744241 0.000000 0.143792
#
# Coordination Sequence:
#
# PCOD8111727 Si02
#       8
#     8   8   8   8   8   8   8   8
#     4  10  22  43  69  96 125 158 208 266 320 381
#     4  11  23  37  56  89 128 162 204 252 302 367
#     4  11  26  46  67  93 128 171 216 266 325 387
#     4  11  25  42  60  87 126 169 213 258 309 373
#     4   9  16  32  55  80 114 155 200 244 292 355
#     4   8  16  31  55  83 112 151 197 244 295 354
#     4  11  22  40  66  93 124 165 211 262 316 370
#     4  10  22  40  66  96 126 165 205 255 321 383
#
# _framework density 22.305741000000001
#
# number of rings (size 3 to 8) (size 9 to 14) (size 15 to 20)
#    0.000    1.875    1.250    3.000    1.750    5.000 
#    0.000    6.250    0.000    0.000    0.000    0.000 
#    0.000    0.000    0.000    0.000    0.000    0.000 
#
# Total GULP energy -396509.930098 kJ/mol
# GULP energy per Si atom -12390.935316 kJ/mol
# Density = 2.225497 g / cm^3
# Si number density = 22.305741 Si / 1000 Ang^3
#
#
#
# Elastic Constant Matrix: (Units=GPa)
#
#
# Indices 1 2 3 4 5 6 
#
# 1 89.1356 22.5261 11.2294 0.0000 -10.5219 0.0000
# 2 22.5261 70.0287 25.0413 0.0000 -11.2178 0.0000
# 3 11.2294 25.0413 72.3472 0.0000 -29.1741 0.0000
# 4 0.0000 0.0000 0.0000 30.2004 0.0000 -5.5233
# 5 -10.5219 -11.2178 -29.1741 0.0000 37.5375 0.0000
# 6 0.0000 0.0000 0.0000 -5.5233 0.0000 35.5494
#
#
#
# Elastic Compliance Matrix: (Units=1/GPa)
#
#
# Indices 1 2 3 4 5 6 
#
# 1 0.012424 -0.003724 0.000460 0.000000 0.002727 0.000000
# 2 -0.003724 0.017426 -0.005498 0.000000 -0.000109 0.000000
# 3 0.000460 -0.005498 0.021910 0.000000 0.015515 0.000000
# 4 0.000000 0.000000 0.000000 0.034081 0.000000 0.005295
# 5 0.002727 -0.000109 0.015515 0.000000 0.039430 0.000000
# 6 0.000000 0.000000 0.000000 0.005295 0.000000 0.028953
#
#
# Mechanical properties :
#
#
# Convention : Reuss Voigt Hill
#
# Bulk Modulus (GPa) = 29.20765 38.78944 33.99854
# Shear Modulus (GPa) = 27.29881 32.17177 29.73529
#
# Velocity S-wave (km/s) = 3.50215 3.80189 3.65509
# Velocity P-wave (km/s) = 5.42918 6.05807 5.75223
#
# Compressibility (1/GPa) = 0.03423760
#
# Stress axis : x y z
#
# Youngs Moduli (GPa) = 80.48961 57.38478 45.64150
#
# Poissons Ratio (x) = 0.21371 -0.02102
# Poissons Ratio (y) = 0.29976 0.25092
# Poissons Ratio (z) = -0.03707 0.31548
#
# Static dielectric constant tensor:
#      x y z
#    x 3.957180 0.000000 0.015020 
#    y 0.000000 3.752990 0.000000 
#    z 0.015020 0.000000 4.627990 
# 
# 
# High freq. dielectric constant tensor:
#      x y z
#    x 1.871860 0.000000 -0.011680 
#    y 0.000000 1.858930 0.000000 
#    z -0.011680 0.000000 1.889980 
# 
# From -- ./inp_files/249671.got.cif
#   From: 2010.06.25/outbox.cif.g09.slc.cpg/sg12_125_cif.got.tgz:249671.got - 2010.06.28 00:19:55.
