data_PCOD8111653
_publ_section_title
;
Structure prediction by ZEFSAII (Michael W. Deem and Ramdas Pophale) SiO2 
 PCOD8111653
Probable space group: C 2/M
;
_chemical_formula_sum "Si O2"
_cell_formula_units_Z 56
_cell_length_a 18.600188
_cell_length_b 22.035701
_cell_length_c 8.845622
_cell_angle_alpha 90.000000
_cell_angle_beta 133.832692
_cell_angle_gamma 90.000000
_cell_volume 2615.337614
_symmetry_space_group_name_H-M "C 2/M"
_symmetry_group_IT_number 12
_symmetry_cell_setting 'monoclinic'
loop_
_space_group_symop_operation_xyz
x,y,z
-x,y,-z
-x,-y,-z
x,-y,z
1/2+x,1/2+y,z
1/2-x,1/2+y,-z
1/2-x,1/2-y,-z
1/2+x,1/2-y,z
loop_
_atom_site_type_symbol
_atom_site_label
_atom_site_fract_x
_atom_site_fract_y
_atom_site_fract_z
Si Si1 0.170594 0.375883 0.931362
Si Si2 0.480883 0.070614 0.799874
Si Si3 0.303785 0.432116 0.887500
Si Si4 0.205736 0.352456 0.522701
Si Si5 0.479802 0.430856 0.794994
Si Si6 0.816742 0.151663 0.393172
Si Si7 0.615828 0.226988 0.641845
O O1 0.057757 0.393512 0.805240
O O2 0.212179 0.421981 0.867163
O O3 0.171654 0.307079 0.862792
O O4 0.240197 0.385780 0.178238
O O5 0.369371 0.091508 0.605704
O O6 0.491878 0.000000 0.781129
O O7 0.500000 0.087244 0.000000
O O8 0.296698 0.500000 0.810051
O O9 0.298890 0.382917 0.745313
O O10 0.411400 0.423762 0.125979
O O11 0.248437 0.323080 0.430954
O O12 0.149333 0.300156 0.530414
O O13 0.440009 0.500000 0.726603
O O14 0.404625 0.388575 0.592201
O O15 0.500000 0.412961 0.000000
O O16 0.858660 0.202356 0.339344
O O17 0.500000 0.218324 0.500000
#
# Coordination Sequence:
#
# PCOD8111653 Si02
#       7
#     8   8   8   8   8   8   8
#     4  11  24  43  65  97 138 172 217 277 335 394
#     4  11  22  38  65 101 135 171 217 270 332 401
#     4  10  22  40  64  95 133 172 214 265 332 399
#     4  11  22  43  65  94 129 172 222 273 328 393
#     4  10  22  42  67 100 135 171 218 277 332 399
#     4  12  25  42  69  97 131 175 225 270 336 396
#     4  11  25  45  67  90 130 175 224 280 331 389
#
# _framework density 21.412148999999999
#
# number of rings (size 3 to 8) (size 9 to 14) (size 15 to 20)
#    0.000    1.143    4.286    1.714    2.000    1.714 
#    0.000    4.286    0.000    0.000    0.000    0.000 
#    0.000    0.000    0.000    0.000    0.000    0.000 
#
# Total GULP energy -347062.495116 kJ/mol
# GULP energy per Si atom -12395.089111 kJ/mol
# Density = 2.136341 g / cm^3
# Si number density = 21.412149 Si / 1000 Ang^3
#
#
#
# Elastic Constant Matrix: (Units=GPa)
#
#
# Indices 1 2 3 4 5 6 
#
# 1 86.5454 39.9922 28.9350 0.0000 10.6659 0.0000
# 2 39.9922 73.5793 25.4648 0.0000 4.3241 0.0000
# 3 28.9350 25.4648 94.1427 0.0000 8.4894 0.0000
# 4 0.0000 0.0000 0.0000 28.6198 0.0000 2.4676
# 5 10.6659 4.3241 8.4894 0.0000 32.3096 0.0000
# 6 0.0000 0.0000 0.0000 2.4676 0.0000 25.2385
#
#
#
# Elastic Compliance Matrix: (Units=1/GPa)
#
#
# Indices 1 2 3 4 5 6 
#
# 1 0.016516 -0.007853 -0.002617 0.000000 -0.003714 0.000000
# 2 -0.007853 0.018758 -0.002732 0.000000 0.000800 0.000000
# 3 -0.002617 -0.002732 0.012347 0.000000 -0.002015 0.000000
# 4 0.000000 0.000000 0.000000 0.035238 0.000000 -0.003445
# 5 -0.003714 0.000800 -0.002015 0.000000 0.032599 0.000000
# 6 0.000000 0.000000 0.000000 -0.003445 0.000000 0.039959
#
#
# Mechanical properties :
#
#
# Convention : Reuss Voigt Hill
#
# Bulk Modulus (GPa) = 47.13388 49.22794 48.18091
# Shear Modulus (GPa) = 26.46995 27.89194 27.18095
#
# Velocity S-wave (km/s) = 3.51979 3.61310 3.56675
# Velocity P-wave (km/s) = 6.21121 6.35976 6.28592
#
# Compressibility (1/GPa) = 0.02121616
#
# Stress axis : x y z
#
# Youngs Moduli (GPa) = 60.54697 53.31171 80.98923
#
# Poissons Ratio (x) = 0.41865 0.21197
# Poissons Ratio (y) = 0.47547 0.22129
# Poissons Ratio (z) = 0.15847 0.14566
#
# Static dielectric constant tensor:
#      x y z
#    x 4.132690 0.000000 0.034880 
#    y 0.000000 3.613150 0.000000 
#    z 0.034880 0.000000 3.898940 
# 
# 
# High freq. dielectric constant tensor:
#      x y z
#    x 1.860230 0.000000 0.008310 
#    y 0.000000 1.824910 0.000000 
#    z 0.008310 0.000000 1.838470 
# 
# From -- ./inp_files/79178.got.cif
#   From: 2010.06.25/outbox.cif.g09.slc.cpg/sg12_40_cif.got.tgz:79178.got - 2010.06.28 00:19:55.
