data_PCOD8111050
_publ_section_title
;
Structure prediction by ZEFSAII (Michael W. Deem and Ramdas Pophale) SiO2 
 PCOD8111050
Probable space group: C 2/M
;
_chemical_formula_sum "Si O2"
_cell_formula_units_Z 56
_cell_length_a 10.076217
_cell_length_b 28.201117
_cell_length_c 12.354997
_cell_angle_alpha 90.000000
_cell_angle_beta 114.581461
_cell_angle_gamma 90.000000
_cell_volume 3192.621620
_symmetry_space_group_name_H-M "C 2/M"
_symmetry_group_IT_number 12
_symmetry_cell_setting 'monoclinic'
loop_
_space_group_symop_operation_xyz
x,y,z
-x,y,-z
-x,-y,-z
x,-y,z
1/2+x,1/2+y,z
1/2-x,1/2+y,-z
1/2-x,1/2-y,-z
1/2+x,1/2-y,z
loop_
_atom_site_type_symbol
_atom_site_label
_atom_site_fract_x
_atom_site_fract_y
_atom_site_fract_z
Si Si1 0.045136 0.051463 0.342505
Si Si2 0.153577 0.706266 0.002955
Si Si3 0.124562 0.691156 0.756417
Si Si4 0.231712 0.948244 0.622143
Si Si5 0.683871 0.151092 0.393036
Si Si6 0.648494 0.697186 0.743346
Si Si7 0.653535 0.648087 0.326009
O O1 0.132200 0.052973 0.483203
O O2 0.100373 0.094193 0.286334
O O3 0.873581 0.058508 0.309913
O O4 0.069571 0.000000 0.294029
O O5 0.123777 0.676685 0.883320
O O6 0.250000 0.750000 0.000000
O O7 0.243911 0.677541 0.125076
O O8 0.000000 0.723713 0.000000
O O9 0.155915 0.746051 0.743325
O O10 0.252662 0.661204 0.746065
O O11 0.968881 0.677774 0.653923
O O12 0.342440 0.903779 0.653648
O O13 0.312106 0.000000 0.656758
O O14 0.798713 0.176669 0.352961
O O15 0.749786 0.153435 0.534513
O O16 0.484018 0.682543 0.711518
#
# Coordination Sequence:
#
# PCOD8111050 Si02
#       7
#     8   8   8   8   8   8   8
#     4   8  14  28  49  74 103 134 174 219 253 302
#     4  10  22  39  58  75  97 137 190 234 258 290
#     4  11  24  36  51  75 111 144 176 218 263 309
#     4   8  14  27  50  75 100 135 177 216 254 301
#     4  11  20  35  52  79 114 141 173 214 261 327
#     4  11  22  36  56  75 104 144 185 220 250 305
#     4  11  22  33  52  83 111 142 174 208 270 326
#
# _framework density 17.540444000000001
#
# number of rings (size 3 to 8) (size 9 to 14) (size 15 to 20)
#    0.000    2.000    2.857    2.571    6.000    3.429 
#    0.000    0.714    0.000    3.429    0.000    6.000 
#    0.000    0.000    0.000    0.000    0.000    0.000 
#
# Total GULP energy -347030.562582 kJ/mol
# GULP energy per Si atom -12393.948664 kJ/mol
# Density = 1.750052 g / cm^3
# Si number density = 17.540444 Si / 1000 Ang^3
#
#
#
# Elastic Constant Matrix: (Units=GPa)
#
#
# Indices 1 2 3 4 5 6 
#
# 1 112.7087 31.0419 26.7024 0.0000 -8.8962 0.0000
# 2 31.0419 97.4761 33.0828 0.0000 -9.4072 0.0000
# 3 26.7024 33.0828 48.5228 0.0000 -1.0802 0.0000
# 4 0.0000 0.0000 0.0000 1.8879 0.0000 -1.7411
# 5 -8.8962 -9.4072 -1.0802 0.0000 25.9103 0.0000
# 6 0.0000 0.0000 0.0000 -1.7411 0.0000 10.4147
#
#
#
# Elastic Compliance Matrix: (Units=1/GPa)
#
#
# Indices 1 2 3 4 5 6 
#
# 1 0.010644 -0.001486 -0.004779 0.000000 0.002916 0.000000
# 2 -0.001486 0.014093 -0.008696 0.000000 0.004244 0.000000
# 3 -0.004779 -0.008696 0.029088 0.000000 -0.003586 0.000000
# 4 0.000000 0.000000 0.000000 0.626247 0.000000 0.104693
# 5 0.002916 0.004244 -0.003586 0.000000 0.040987 0.000000
# 6 0.000000 0.000000 0.000000 0.104693 0.000000 0.113520
#
#
# Mechanical properties :
#
#
# Convention : Reuss Voigt Hill
#
# Bulk Modulus (GPa) = 41.83778 48.92908 45.38343
# Shear Modulus (GPa) = 5.73085 18.83463 12.28274
#
# Velocity S-wave (km/s) = 1.80951 3.28042 2.64910
# Velocity P-wave (km/s) = 5.31693 6.50413 5.94026
#
# Compressibility (1/GPa) = 0.02390184
#
# Stress axis : x y z
#
# Youngs Moduli (GPa) = 93.94776 70.95561 34.37805
#
# Poissons Ratio (x) = 0.10546 0.16430
# Poissons Ratio (y) = 0.13963 0.29897
# Poissons Ratio (z) = 0.44901 0.61706
#
# Static dielectric constant tensor:
#      x y z
#    x 3.250800 0.000000 -0.051270 
#    y 0.000000 3.666930 0.000000 
#    z -0.051270 0.000000 3.459970 
# 
# 
# High freq. dielectric constant tensor:
#      x y z
#    x 1.676890 0.000000 -0.000160 
#    y 0.000000 1.672620 0.000000 
#    z -0.000160 0.000000 1.653020 
# 
# From -- ./inp_files/125598.got.cif
#   From: 2010.06.25/outbox.cif.g09.slc.cpg/sg12_63_cif.got.tgz:125598.got - 2010.06.28 00:19:55.
