data_PCOD8111848
_publ_section_title
;
Structure prediction by ZEFSAII (Michael W. Deem and Ramdas Pophale) SiO2 
 PCOD8111848
Probable space group: C 2/M
;
_chemical_formula_sum "Si O2"
_cell_formula_units_Z 48
_cell_length_a 16.188238
_cell_length_b 13.796024
_cell_length_c 10.482364
_cell_angle_alpha 90.000000
_cell_angle_beta 71.027172
_cell_angle_gamma 90.000000
_cell_volume 2213.878013
_symmetry_space_group_name_H-M "C 2/M"
_symmetry_group_IT_number 12
_symmetry_cell_setting 'monoclinic'
loop_
_space_group_symop_operation_xyz
x,y,z
-x,y,-z
-x,-y,-z
x,-y,z
1/2+x,1/2+y,z
1/2-x,1/2+y,-z
1/2-x,1/2-y,-z
1/2+x,1/2-y,z
loop_
_atom_site_type_symbol
_atom_site_label
_atom_site_fract_x
_atom_site_fract_y
_atom_site_fract_z
Si Si1 0.061951 0.889064 0.077810
Si Si2 0.749291 0.222278 0.644172
Si Si3 0.424247 0.614773 0.641030
Si Si4 0.735981 0.612471 0.843034
Si Si5 0.596615 0.114223 0.097162
Si Si6 0.593244 0.886022 0.816415
O O1 0.048281 0.849049 0.229439
O O2 0.033313 0.000000 0.097863
O O3 0.162787 0.875550 0.988497
O O4 0.000000 0.838878 0.000000
O O5 0.750000 0.250000 0.500000
O O6 0.839238 0.175260 0.644724
O O7 0.718164 0.319526 0.731939
O O8 0.672492 0.143572 0.688358
O O9 0.500000 0.637188 0.500000
O O10 0.401829 0.500000 0.653944
O O11 0.740828 0.500000 0.795745
O O12 0.827232 0.654198 0.851710
O O13 0.500669 0.147055 0.195070
O O14 0.607481 0.000000 0.087104
O O15 0.608355 0.158792 0.949919
O O16 0.589541 0.000000 0.832834
#
# Coordination Sequence:
#
# PCOD8111848 Si02
#       6
#     8   8   8   8   8   8
#     4   9  19  38  67  98 124 162 214 260 315 384
#     4  12  27  40  57  90 125 170 218 255 308 380
#     4  10  23  43  68  95 131 171 206 259 323 381
#     4  10  22  41  63  88 124 160 207 268 315 360
#     4   8  16  35  65  94 116 148 192 248 319 380
#     4   9  18  37  64  91 120 150 192 252 314 378
#
# _framework density 21.681411000000001
#
# number of rings (size 3 to 8) (size 9 to 14) (size 15 to 20)
#    0.000    2.333    0.000    2.500    2.333    8.000 
#    3.000    0.000    0.000    3.500    0.000    0.000 
#    0.000    0.000    0.000    0.000    0.000    0.000 
#
# Total GULP energy -297420.571130 kJ/mol
# GULP energy per Si atom -12392.523797 kJ/mol
# Density = 2.163206 g / cm^3
# Si number density = 21.681411 Si / 1000 Ang^3
#
#
#
# Elastic Constant Matrix: (Units=GPa)
#
#
# Indices 1 2 3 4 5 6 
#
# 1 142.8854 16.9620 68.5094 0.0000 -0.5209 0.0000
# 2 16.9620 45.3630 20.6626 0.0000 2.3032 0.0000
# 3 68.5094 20.6626 149.4932 0.0000 5.4694 0.0000
# 4 0.0000 0.0000 0.0000 -14.4967 0.0000 49.1949
# 5 -0.5209 2.3032 5.4694 0.0000 39.6220 0.0000
# 6 0.0000 0.0000 0.0000 49.1949 0.0000 -31.9239
#
#
#
# Elastic Compliance Matrix: (Units=1/GPa)
#
#
# Indices 1 2 3 4 5 6 
#
# 1 0.009100 -0.001632 -0.003973 0.000000 0.000763 0.000000
# 2 -0.001632 0.023852 -0.002510 0.000000 -0.001061 0.000000
# 3 -0.003973 -0.002510 0.008898 0.000000 -0.001135 0.000000
# 4 0.000000 0.000000 0.000000 0.016310 0.000000 0.025134
# 5 0.000763 -0.001061 -0.001135 0.000000 0.025467 0.000000
# 6 0.000000 0.000000 0.000000 0.025134 0.000000 0.007406
#
#
# Mechanical properties :
#
#
# Convention : Reuss Voigt Hill
#
# Bulk Modulus (GPa) = 39.03069 61.11218 50.07144
# Shear Modulus (GPa) = 43.17704 14.08078 28.62891
#
# Velocity S-wave (km/s) = 4.46739 2.55118 3.63772
# Velocity P-wave (km/s) = 6.68214 6.07665 6.38658
#
# Compressibility (1/GPa) = 0.02562086
#
# Stress axis : x y z
#
# Youngs Moduli (GPa) = 109.89161 41.92563 112.38112
#
# Poissons Ratio (x) = 0.06841 0.44645
# Poissons Ratio (y) = 0.17932 0.28209
# Poissons Ratio (z) = 0.43656 0.10524
#
# Static dielectric constant tensor:
#      x y z
#    x 4.145180 0.000000 0.010590 
#    y 0.000000 3.865880 0.000000 
#    z 0.010590 0.000000 3.858980 
# 
# 
# High freq. dielectric constant tensor:
#      x y z
#    x 1.862800 0.000000 -0.008990 
#    y 0.000000 1.855720 0.000000 
#    z -0.008990 0.000000 1.834560 
# 
# From -- ./inp_files/143533.got.cif
#   From: 2010.06.25/outbox.cif.g09.slc.cpg/sg12_72_cif.got.tgz:143533.got - 2010.06.28 00:19:55.
