data_PCOD8111297
_publ_section_title
;
Structure prediction by ZEFSAII (Michael W. Deem and Ramdas Pophale) SiO2 
 PCOD8111297
Probable space group: C 2/M
;
_chemical_formula_sum "Si O2"
_cell_formula_units_Z 48
_cell_length_a 27.889739
_cell_length_b 12.738717
_cell_length_c 8.991637
_cell_angle_alpha 90.000000
_cell_angle_beta 137.002889
_cell_angle_gamma 90.000000
_cell_volume 2178.556118
_symmetry_space_group_name_H-M "C 2/M"
_symmetry_group_IT_number 12
_symmetry_cell_setting 'monoclinic'
loop_
_space_group_symop_operation_xyz
x,y,z
-x,y,-z
-x,-y,-z
x,-y,z
1/2+x,1/2+y,z
1/2-x,1/2+y,-z
1/2-x,1/2-y,-z
1/2+x,1/2-y,z
loop_
_atom_site_type_symbol
_atom_site_label
_atom_site_fract_x
_atom_site_fract_y
_atom_site_fract_z
Si Si1 0.825056 0.793014 0.710630
Si Si2 0.069514 0.118165 0.251019
Si Si3 0.148235 0.234919 0.683059
Si Si4 0.067596 0.380675 0.055836
Si Si5 0.226025 0.876176 0.105645
Si Si6 0.573851 0.887358 0.735198
O O1 0.750000 0.750000 0.500000
O O2 0.859657 0.885776 0.690430
O O3 0.870954 0.695291 0.757225
O O4 0.825862 0.831672 0.883168
O O5 0.087286 0.189148 0.437178
O O6 0.053934 0.000000 0.270627
O O7 0.000000 0.158709 0.000000
O O8 0.200945 0.311614 0.713341
O O9 0.116154 0.300029 0.745314
O O10 0.191494 0.141963 0.864232
O O11 0.092279 0.500000 0.135196
O O12 0.054851 0.350635 0.856819
O O13 0.000000 0.355867 0.000000
O O14 0.240154 0.000000 0.160360
O O15 0.500000 0.909780 0.500000
O O16 0.615636 0.000000 0.829413
#
# Coordination Sequence:
#
# PCOD8111297 Si02
#       6
#     8   8   8   8   8   8
#     4  12  24  44  65  99 136 182 228 284 344 405
#     4  11  26  46  70 100 138 183 232 288 345 411
#     4  11  23  44  69 101 137 183 230 281 351 413
#     4  10  23  43  68  99 134 175 227 281 340 406
#     4  11  24  43  69 101 138 180 232 288 345 415
#     4  10  22  39  64  98 132 169 216 276 338 399
#
# _framework density 22.032941999999998
#
# number of rings (size 3 to 8) (size 9 to 14) (size 15 to 20)
#    0.000    1.167    3.333    2.000    4.667    1.333 
#    0.000    0.000    0.000    6.000    0.000    0.000 
#    0.000    0.000    0.000    0.000    0.000    0.000 
#
# Total GULP energy -297339.817495 kJ/mol
# GULP energy per Si atom -12389.159062 kJ/mol
# Density = 2.198279 g / cm^3
# Si number density = 22.032942 Si / 1000 Ang^3
#
#
#
# Elastic Constant Matrix: (Units=GPa)
#
#
# Indices 1 2 3 4 5 6 
#
# 1 132.1437 50.3356 20.4973 0.0000 -7.6387 0.0000
# 2 50.3356 127.6560 37.1020 0.0000 -1.9528 0.0000
# 3 20.4973 37.1020 102.4446 0.0000 -2.5182 0.0000
# 4 0.0000 0.0000 0.0000 5.0310 0.0000 0.7063
# 5 -7.6387 -1.9528 -2.5182 0.0000 37.9378 0.0000
# 6 0.0000 0.0000 0.0000 0.7063 0.0000 37.5648
#
#
#
# Elastic Compliance Matrix: (Units=1/GPa)
#
#
# Indices 1 2 3 4 5 6 
#
# 1 0.009032 -0.003379 -0.000544 0.000000 0.001609 0.000000
# 2 -0.003379 0.010021 -0.002962 0.000000 -0.000361 0.000000
# 3 -0.000544 -0.002962 0.010954 0.000000 0.000465 0.000000
# 4 0.000000 0.000000 0.000000 0.199294 0.000000 -0.003747
# 5 0.001609 -0.000361 0.000465 0.000000 0.026695 0.000000
# 6 0.000000 0.000000 0.000000 -0.003747 0.000000 0.026691
#
#
# Mechanical properties :
#
#
# Convention : Reuss Voigt Hill
#
# Bulk Modulus (GPa) = 61.58421 64.23490 62.90955
# Shear Modulus (GPa) = 16.56344 33.06068 24.81206
#
# Velocity S-wave (km/s) = 2.74479 3.87785 3.35943
# Velocity P-wave (km/s) = 6.16902 7.01909 6.60774
#
# Compressibility (1/GPa) = 0.01623793
#
# Stress axis : x y z
#
# Youngs Moduli (GPa) = 110.71937 99.78870 91.28701
#
# Poissons Ratio (x) = 0.33715 0.04966
# Poissons Ratio (y) = 0.37408 0.27041
# Poissons Ratio (z) = 0.06023 0.29560
#
# Static dielectric constant tensor:
#      x y z
#    x 4.094450 0.000000 -0.077970 
#    y 0.000000 4.297680 0.000000 
#    z -0.077970 0.000000 3.841100 
# 
# 
# High freq. dielectric constant tensor:
#      x y z
#    x 1.875150 0.000000 -0.008910 
#    y 0.000000 1.877750 0.000000 
#    z -0.008910 0.000000 1.858890 
# 
# From -- ./inp_files/105049.got.cif
#   From: 2010.06.25/outbox.cif.g09.slc.cpg/sg12_53_cif.got.tgz:105049.got - 2010.06.28 00:19:55.
