data_PCOD8111709
_publ_section_title
;
Structure prediction by ZEFSAII (Michael W. Deem and Ramdas Pophale) SiO2 
 PCOD8111709
Probable space group: C 2/M
;
_chemical_formula_sum "Si O2"
_cell_formula_units_Z 56
_cell_length_a 27.365511
_cell_length_b 14.843374
_cell_length_c 9.139809
_cell_angle_alpha 90.000000
_cell_angle_beta 50.151885
_cell_angle_gamma 90.000000
_cell_volume 2850.300910
_symmetry_space_group_name_H-M "C 2/M"
_symmetry_group_IT_number 12
_symmetry_cell_setting 'monoclinic'
loop_
_space_group_symop_operation_xyz
x,y,z
-x,y,-z
-x,-y,-z
x,-y,z
1/2+x,1/2+y,z
1/2-x,1/2+y,-z
1/2-x,1/2-y,-z
1/2+x,1/2-y,z
loop_
_atom_site_type_symbol
_atom_site_label
_atom_site_fract_x
_atom_site_fract_y
_atom_site_fract_z
Si Si1 0.608342 0.260236 0.044529
Si Si2 0.927117 0.395795 0.098865
Si Si3 0.002882 0.896103 0.163134
Si Si4 0.359521 0.601912 0.511550
Si Si5 0.667260 0.100222 0.466607
Si Si6 0.179787 0.252409 0.198709
Si Si7 0.211496 0.833841 0.634065
O O1 0.551248 0.331847 0.154954
O O2 0.626503 0.241200 0.176553
O O3 0.588699 0.165470 0.010141
O O4 0.668931 0.303390 0.850651
O O5 0.911975 0.500000 0.088934
O O6 0.884236 0.362610 0.317562
O O7 0.000000 0.381926 0.000000
O O8 0.934710 0.881244 0.367286
O O9 0.025402 0.000000 0.133219
O O10 0.000000 0.866421 0.000000
O O11 0.343373 0.500000 0.584619
O O12 0.326413 0.661575 0.697074
O O13 0.332575 0.621515 0.402723
O O14 0.667433 0.162590 0.325226
O O15 0.736810 0.095164 0.407080
O O16 0.647776 0.000000 0.454261
O O17 0.250000 0.250000 0.000000
O O18 0.250000 0.750000 0.500000
#
# Coordination Sequence:
#
# PCOD8111709 Si02
#       7
#     8   8   8   8   8   8   8
#     4  12  23  38  68  91 131 169 202 261 321 370
#     4  10  23  43  68  97 121 158 217 269 312 366
#     4  10  22  40  66 100 127 159 212 261 315 380
#     4  11  24  43  67  94 129 169 210 261 317 377
#     4  11  24  43  67  92 125 167 211 262 315 369
#     4  12  26  44  58  92 135 169 209 252 310 384
#     4  12  20  39  66  96 123 159 216 264 308 372
#
# _framework density 19.647048000000002
#
# number of rings (size 3 to 8) (size 9 to 14) (size 15 to 20)
#    0.000    0.857    5.714    0.857    2.000    2.857 
#    0.000    1.429    0.000    2.571    0.000    0.000 
#    0.000    0.000    0.000    0.000    0.000    0.000 
#
# Total GULP energy -347345.699573 kJ/mol
# GULP energy per Si atom -12405.203556 kJ/mol
# Density = 1.960233 g / cm^3
# Si number density = 19.647048 Si / 1000 Ang^3
#
#
#
# Elastic Constant Matrix: (Units=GPa)
#
#
# Indices 1 2 3 4 5 6 
#
# 1 124.5111 49.1854 36.4938 0.0000 11.5756 0.0000
# 2 49.1854 107.2947 41.9570 0.0000 9.4350 0.0000
# 3 36.4938 41.9570 72.7094 0.0000 5.7982 0.0000
# 4 0.0000 0.0000 0.0000 25.8204 0.0000 -6.3136
# 5 11.5756 9.4350 5.7982 0.0000 36.8013 0.0000
# 6 0.0000 0.0000 0.0000 -6.3136 0.0000 27.3104
#
#
#
# Elastic Compliance Matrix: (Units=1/GPa)
#
#
# Indices 1 2 3 4 5 6 
#
# 1 0.010476 -0.003405 -0.003139 0.000000 -0.001927 0.000000
# 2 -0.003405 0.013293 -0.005849 0.000000 -0.001415 0.000000
# 3 -0.003139 -0.005849 0.018741 0.000000 -0.000466 0.000000
# 4 0.000000 0.000000 0.000000 0.041050 0.000000 0.009490
# 5 -0.001927 -0.001415 -0.000466 0.000000 0.028215 0.000000
# 6 0.000000 0.000000 0.000000 0.009490 0.000000 0.038810
#
#
# Mechanical properties :
#
#
# Convention : Reuss Voigt Hill
#
# Bulk Modulus (GPa) = 56.42222 62.19865 59.31044
# Shear Modulus (GPa) = 27.58188 29.77835 28.68011
#
# Velocity S-wave (km/s) = 3.75089 3.89738 3.82483
# Velocity P-wave (km/s) = 6.89486 7.20968 7.05403
#
# Compressibility (1/GPa) = 0.01772351
#
# Stress axis : x y z
#
# Youngs Moduli (GPa) = 95.45741 75.22977 53.35869
#
# Poissons Ratio (x) = 0.25617 0.16751
# Poissons Ratio (y) = 0.32505 0.31207
# Poissons Ratio (z) = 0.29967 0.43998
#
# Static dielectric constant tensor:
#      x y z
#    x 3.973410 0.000000 -0.177140 
#    y 0.000000 3.658660 0.000000 
#    z -0.177140 0.000000 3.622260 
# 
# 
# High freq. dielectric constant tensor:
#      x y z
#    x 1.768540 0.000000 -0.013930 
#    y 0.000000 1.776850 0.000000 
#    z -0.013930 0.000000 1.767800 
# 
# From -- ./inp_files/111571.got.cif
#   From: 2010.06.25/outbox.cif.g09.slc.cpg/sg12_56_cif.got.tgz:111571.got - 2010.06.28 00:19:55.
