data_PCOD8111151
_publ_section_title
;
Structure prediction by ZEFSAII (Michael W. Deem and Ramdas Pophale) SiO2 
 PCOD8111151
Probable space group: C 2/M
;
_chemical_formula_sum "Si O2"
_cell_formula_units_Z 40
_cell_length_a 22.318314
_cell_length_b 10.154009
_cell_length_c 19.208453
_cell_angle_alpha 90.000000
_cell_angle_beta 152.304686
_cell_angle_gamma 90.000000
_cell_volume 2023.154548
_symmetry_space_group_name_H-M "C 2/M"
_symmetry_group_IT_number 12
_symmetry_cell_setting 'monoclinic'
loop_
_space_group_symop_operation_xyz
x,y,z
-x,y,-z
-x,-y,-z
x,-y,z
1/2+x,1/2+y,z
1/2-x,1/2+y,-z
1/2-x,1/2-y,-z
1/2+x,1/2-y,z
loop_
_atom_site_type_symbol
_atom_site_label
_atom_site_fract_x
_atom_site_fract_y
_atom_site_fract_z
Si Si1 0.136602 0.500000 0.103742
Si Si2 0.604403 0.500000 0.546194
Si Si3 0.291716 0.000000 0.262158
Si Si4 0.377101 0.730692 0.541279
Si Si5 0.410020 0.279713 0.974915
Si Si6 0.612352 0.350915 0.295101
Si Si7 0.450567 0.000000 0.559364
O O1 0.250721 0.500000 0.276924
O O2 0.143509 0.632575 0.064707
O O3 0.000000 0.500000 0.000000
O O4 0.500000 0.500000 0.500000
O O5 0.583915 0.631050 0.479701
O O6 0.329602 0.000000 0.382203
O O7 0.416295 0.000000 0.343453
O O8 0.212530 0.869440 0.164931
O O9 0.425909 0.672546 0.664330
O O10 0.222140 0.749152 0.383354
O O11 0.446622 0.870223 0.602633
O O12 0.484571 0.330430 0.118873
O O13 0.500000 0.285151 0.000000
O O14 0.663884 0.500000 0.339056
#
# Coordination Sequence:
#
# PCOD8111151 Si02
#       7
#     4   4   4   8   8   8   4
#     4  10  22  39  60  95 127 163 215 264 320 373
#     4  12  26  42  67  96 137 174 216 263 327 394
#     4  11  23  37  64  91 127 164 210 261 315 373
#     4  11  24  42  66  95 129 170 211 266 325 379
#     4  11  22  39  66  94 125 161 209 266 318 371
#     4  11  22  42  69  97 127 162 217 273 321 380
#     4  11  24  40  61  94 128 164 217 258 314 389
#
# _framework density 19.771104000000001
#
# number of rings (size 3 to 8) (size 9 to 14) (size 15 to 20)
#    0.000    1.000    3.000    5.100    5.600    0.800 
#    0.000    1.000    4.400    0.000    0.000    0.000 
#    0.000    0.000    0.000    0.000    0.000    0.000 
#
# Total GULP energy -248084.823161 kJ/mol
# GULP energy per Si atom -12404.241158 kJ/mol
# Density = 1.972610 g / cm^3
# Si number density = 19.771104 Si / 1000 Ang^3
#
#
#
# Elastic Constant Matrix: (Units=GPa)
#
#
# Indices 1 2 3 4 5 6 
#
# 1 104.7306 49.0199 45.0134 0.0000 -10.9972 0.0000
# 2 49.0199 166.6152 43.9900 0.0000 -7.0620 0.0000
# 3 45.0134 43.9900 110.8487 0.0000 -11.2658 0.0000
# 4 0.0000 0.0000 0.0000 25.1870 0.0000 -1.7471
# 5 -10.9972 -7.0620 -11.2658 0.0000 23.9201 0.0000
# 6 0.0000 0.0000 0.0000 -1.7471 0.0000 43.0228
#
#
#
# Elastic Compliance Matrix: (Units=1/GPa)
#
#
# Indices 1 2 3 4 5 6 
#
# 1 0.012752 -0.002606 -0.003809 0.000000 0.003299 0.000000
# 2 -0.002606 0.007250 -0.001810 0.000000 0.000090 0.000000
# 3 -0.003809 -0.001810 0.011610 0.000000 0.003183 0.000000
# 4 0.000000 0.000000 0.000000 0.039815 0.000000 0.001617
# 5 0.003299 0.000090 0.003183 0.000000 0.044848 0.000000
# 6 0.000000 0.000000 0.000000 0.001617 0.000000 0.023309
#
#
# Mechanical properties :
#
#
# Convention : Reuss Voigt Hill
#
# Bulk Modulus (GPa) = 65.95338 73.13790 69.54564
# Shear Modulus (GPa) = 31.03912 34.70405 32.87159
#
# Velocity S-wave (km/s) = 3.96652 4.19416 4.08193
# Velocity P-wave (km/s) = 7.37622 7.77993 7.58076
#
# Compressibility (1/GPa) = 0.01516223
#
# Stress axis : x y z
#
# Youngs Moduli (GPa) = 78.42189 137.92586 86.13618
#
# Poissons Ratio (x) = 0.35947 0.32805
# Poissons Ratio (y) = 0.20439 0.15589
# Poissons Ratio (z) = 0.29867 0.24961
#
# Static dielectric constant tensor:
#      x y z
#    x 3.438760 0.000000 -0.101170 
#    y 0.000000 4.184740 0.000000 
#    z -0.101170 0.000000 3.586530 
# 
# 
# High freq. dielectric constant tensor:
#      x y z
#    x 1.755540 0.000000 -0.005490 
#    y 0.000000 1.796020 0.000000 
#    z -0.005490 0.000000 1.767410 
# 
# From -- ./inp_files/283454.got.cif
#   From: 2010.06.25/outbox.cif.g09.slc.cpg/sg12_142_cif.got.tgz:283454.got - 2010.06.28 00:19:55.
