data_PCOD8111672
_publ_section_title
;
Structure prediction by ZEFSAII (Michael W. Deem and Ramdas Pophale) SiO2 
 PCOD8111672
Probable space group: C 2/M
;
_chemical_formula_sum "Si O2"
_cell_formula_units_Z 48
_cell_length_a 20.121020
_cell_length_b 8.481701
_cell_length_c 17.225633
_cell_angle_alpha 90.000000
_cell_angle_beta 54.334783
_cell_angle_gamma 90.000000
_cell_volume 2388.351113
_symmetry_space_group_name_H-M "C 2/M"
_symmetry_group_IT_number 12
_symmetry_cell_setting 'monoclinic'
loop_
_space_group_symop_operation_xyz
x,y,z
-x,y,-z
-x,-y,-z
x,-y,z
1/2+x,1/2+y,z
1/2-x,1/2+y,-z
1/2-x,1/2-y,-z
1/2+x,1/2-y,z
loop_
_atom_site_type_symbol
_atom_site_label
_atom_site_fract_x
_atom_site_fract_y
_atom_site_fract_z
Si Si1 0.340039 0.184050 0.937387
Si Si2 0.464565 0.182013 0.442428
Si Si3 0.732868 0.812975 0.755101
Si Si4 0.290374 0.317409 0.548906
Si Si5 0.608957 0.682993 0.253246
Si Si6 0.094385 0.817423 0.952304
O O1 0.387453 0.283151 0.840315
O O2 0.339849 0.000000 0.916730
O O3 0.250000 0.250000 0.000000
O O4 0.381938 0.209251 0.991453
O O5 0.500000 0.237709 0.500000
O O6 0.386286 0.286802 0.478088
O O7 0.533541 0.212208 0.332167
O O8 0.438379 0.000000 0.460296
O O9 0.752285 0.748311 0.655031
O O10 0.807766 0.763914 0.760397
O O11 0.649859 0.730187 0.840658
O O12 0.720426 0.000000 0.765086
O O13 0.272844 0.500000 0.561680
O O14 0.250000 0.250000 0.500000
O O15 0.591205 0.500000 0.281396
O O16 0.109331 0.000000 0.962046
O O17 0.000000 0.782803 0.000000
#
# Coordination Sequence:
#
# PCOD8111672 Si02
#       6
#     8   8   8   8   8   8
#     4  12  24  40  64  94 127 165 210 260 313 373
#     4  11  23  39  63  95 127 164 212 260 312 374
#     4  10  22  40  65  92 123 167 212 260 320 381
#     4  11  24  43  65  93 130 169 213 264 322 381
#     4  11  22  39  65  96 128 165 213 263 317 373
#     4  11  25  43  65  94 129 168 212 262 318 378
#
# _framework density 20.097546000000001
#
# number of rings (size 3 to 8) (size 9 to 14) (size 15 to 20)
#    0.000    1.000    3.333    3.500    0.000    5.333 
#    0.000    3.333    0.000    0.000    0.000    0.000 
#    0.000    0.000    0.000    0.000    0.000    0.000 
#
# Total GULP energy -297722.102961 kJ/mol
# GULP energy per Si atom -12405.087623 kJ/mol
# Density = 2.005180 g / cm^3
# Si number density = 20.097546 Si / 1000 Ang^3
#
#
#
# Elastic Constant Matrix: (Units=GPa)
#
#
# Indices 1 2 3 4 5 6 
#
# 1 112.7421 28.6316 58.1877 -0.0001 0.9367 0.0003
# 2 28.6316 57.9332 15.8664 -0.0005 -0.1146 0.0006
# 3 58.1877 15.8664 150.2314 -0.0001 -3.0426 0.0001
# 4 -0.0001 -0.0005 -0.0001 35.9132 0.0000 0.8472
# 5 0.9367 -0.1146 -3.0426 0.0000 37.1699 0.0000
# 6 0.0003 0.0006 0.0001 0.8472 0.0000 27.1313
#
#
#
# Elastic Compliance Matrix: (Units=1/GPa)
#
#
# Indices 1 2 3 4 5 6 
#
# 1 0.012330 -0.004926 -0.004269 0.000000 -0.000675 0.000000
# 2 -0.004926 0.019744 -0.000174 0.000000 0.000171 0.000000
# 3 -0.004269 -0.000174 0.008344 0.000000 0.000790 0.000000
# 4 0.000000 0.000000 0.000000 0.027865 0.000000 -0.000870
# 5 -0.000675 0.000171 0.000790 0.000000 0.026986 0.000000
# 6 0.000000 0.000000 0.000000 -0.000870 0.000000 0.036885
#
#
# Mechanical properties :
#
#
# Convention : Reuss Voigt Hill
#
# Bulk Modulus (GPa) = 46.12479 58.47533 52.30006
# Shear Modulus (GPa) = 31.62208 34.59095 33.10652
#
# Velocity S-wave (km/s) = 3.97095 4.15318 4.06309
# Velocity P-wave (km/s) = 6.63513 7.22201 6.93478
#
# Compressibility (1/GPa) = 0.02168031
#
# Stress axis : x y z
#
# Youngs Moduli (GPa) = 81.10578 50.64935 119.84346
#
# Poissons Ratio (x) = 0.24948 0.51161
# Poissons Ratio (y) = 0.39950 0.02084
# Poissons Ratio (z) = 0.34624 0.00881
#
# Static dielectric constant tensor:
#      x y z
#    x 3.487090 0.000000 0.225750 
#    y 0.000000 3.665990 0.000000 
#    z 0.225750 0.000000 3.783910 
# 
# 
# High freq. dielectric constant tensor:
#      x y z
#    x 1.779990 0.000000 0.001710 
#    y 0.000000 1.789270 0.000000 
#    z 0.001710 0.000000 1.801640 
# 
# From -- ./inp_files/280761.got.cif
#   From: 2010.06.25/outbox.cif.g09.slc.cpg/sg12_141_cif.got.tgz:280761.got - 2010.06.28 00:19:55.
