data_PCOD8111461
_publ_section_title
;
Structure prediction by ZEFSAII (Michael W. Deem and Ramdas Pophale) SiO2 
 PCOD8111461
Probable space group: C 2/M
;
_chemical_formula_sum "Si O2"
_cell_formula_units_Z 64
_cell_length_a 15.317296
_cell_length_b 8.676451
_cell_length_c 33.158003
_cell_angle_alpha 90.000000
_cell_angle_beta 45.965520
_cell_angle_gamma 90.000000
_cell_volume 3168.065422
_symmetry_space_group_name_H-M "C 2/M"
_symmetry_group_IT_number 12
_symmetry_cell_setting 'monoclinic'
loop_
_space_group_symop_operation_xyz
x,y,z
-x,y,-z
-x,-y,-z
x,-y,z
1/2+x,1/2+y,z
1/2-x,1/2+y,-z
1/2-x,1/2-y,-z
1/2+x,1/2-y,z
loop_
_atom_site_type_symbol
_atom_site_label
_atom_site_fract_x
_atom_site_fract_y
_atom_site_fract_z
Si Si1 0.400456 0.323713 0.132511
Si Si2 0.842992 0.680157 0.938941
Si Si3 0.193810 0.321790 0.139725
Si Si4 0.056551 0.323287 0.360528
Si Si5 0.087528 0.819435 0.436158
Si Si6 0.364347 0.823669 0.357745
Si Si7 0.282677 0.179470 0.245883
Si Si8 0.034104 0.821586 0.751708
O O1 0.439906 0.500000 0.126354
O O2 0.519970 0.220630 0.093234
O O3 0.330227 0.302040 0.112738
O O4 0.309208 0.275828 0.197293
O O5 0.825891 0.500000 0.946012
O O6 0.811595 0.740886 0.904234
O O7 0.750000 0.750000 0.000000
O O8 0.152450 0.500000 0.155391
O O9 0.105689 0.218884 0.195484
O O10 0.100318 0.500000 0.345196
O O11 0.046680 0.269895 0.409525
O O12 0.151881 0.221665 0.305253
O O13 0.924473 0.303058 0.382452
O O14 0.223979 0.774783 0.405133
O O15 0.000000 0.764590 0.500000
O O16 0.074222 0.000000 0.431899
O O17 0.435083 0.713223 0.304406
O O18 0.376625 0.000000 0.338841
O O19 0.383887 0.214991 0.246507
O O20 0.286534 0.000000 0.233916
O O21 0.058878 0.000000 0.753136
#
# Coordination Sequence:
#
# PCOD8111461 Si02
#       8
#     8   8   8   8   8   8   8   8
#     4  11  23  41  65  94 124 160 205 252 302 365
#     4  11  24  43  65  89 122 166 209 258 309 359
#     4  10  23  42  64  90 126 165 199 245 311 367
#     4  11  23  39  61  91 122 159 204 250 304 360
#     4  10  22  41  63  86 117 163 210 252 304 363
#     4  10  22  40  61  87 125 163 196 247 309 363
#     4  12  23  38  61  90 126 163 196 244 310 366
#     4  12  23  36  62  95 124 158 203 249 297 363
#
# _framework density 20.201602000000001
#
# number of rings (size 3 to 8) (size 9 to 14) (size 15 to 20)
#    0.000    1.125    2.500    4.125    0.000    6.750 
#    0.000    2.500    0.000    0.000    0.000    0.000 
#    0.000    0.000    0.000    0.000    0.000    0.000 
#
# Total GULP energy -396991.194109 kJ/mol
# GULP energy per Si atom -12405.974816 kJ/mol
# Density = 2.015562 g / cm^3
# Si number density = 20.201602 Si / 1000 Ang^3
#
#
#
# Elastic Constant Matrix: (Units=GPa)
#
#
# Indices 1 2 3 4 5 6 
#
# 1 134.8206 28.9088 54.7797 0.0002 6.5561 0.0009
# 2 28.9088 57.4118 26.3801 0.0026 0.3764 0.0019
# 3 54.7797 26.3801 133.6796 0.0017 -3.7711 0.0008
# 4 0.0002 0.0026 0.0017 32.3745 0.0009 3.5409
# 5 6.5561 0.3764 -3.7711 0.0009 11.7465 0.0005
# 6 0.0009 0.0019 0.0008 3.5409 0.0005 28.0229
#
#
#
# Elastic Compliance Matrix: (Units=1/GPa)
#
#
# Indices 1 2 3 4 5 6 
#
# 1 0.009903 -0.003292 -0.003594 0.000001 -0.006576 0.000000
# 2 -0.003292 0.020289 -0.002645 -0.000001 0.000338 -0.000001
# 3 -0.003594 -0.002645 0.009621 0.000000 0.005180 0.000000
# 4 0.000001 -0.000001 0.000000 0.031321 -0.000003 -0.003958
# 5 -0.006576 0.000338 0.005180 -0.000003 0.090454 -0.000001
# 6 0.000000 -0.000001 0.000000 -0.003958 -0.000001 0.036185
#
#
# Mechanical properties :
#
#
# Convention : Reuss Voigt Hill
#
# Bulk Modulus (GPa) = 48.19049 60.67215 54.43132
# Shear Modulus (GPa) = 22.34596 28.81831 25.58214
#
# Velocity S-wave (km/s) = 3.32949 3.78105 3.56243
# Velocity P-wave (km/s) = 6.21991 7.01144 6.62750
#
# Compressibility (1/GPa) = 0.02075098
#
# Stress axis : x y z
#
# Youngs Moduli (GPa) = 100.97705 49.28794 103.93427
#
# Poissons Ratio (x) = 0.16226 0.37354
# Poissons Ratio (y) = 0.33243 0.27493
# Poissons Ratio (z) = 0.36291 0.13038
#
# Static dielectric constant tensor:
#      x y z
#    x 3.701450 -0.000010 0.072260 
#    y -0.000010 3.677260 0.000000 
#    z 0.072260 0.000000 3.649410 
# 
# 
# High freq. dielectric constant tensor:
#      x y z
#    x 1.802960 0.000000 0.002020 
#    y 0.000000 1.791020 0.000000 
#    z 0.002020 0.000000 1.780890 
# 
# From -- ./inp_files/375492.got.cif
#   From: 2010.06.25/outbox.cif.g09.slc.cpg/sg12_188_cif.got.tgz:375492.got - 2010.06.28 00:19:55.
