data_PCOD8111350
_publ_section_title
;
Structure prediction by ZEFSAII (Michael W. Deem and Ramdas Pophale) SiO2 
 PCOD8111350
Probable space group: C 2/M
;
_chemical_formula_sum "Si O2"
_cell_formula_units_Z 44
_cell_length_a 5.102685
_cell_length_b 22.968708
_cell_length_c 21.430541
_cell_angle_alpha 90.000000
_cell_angle_beta 95.228894
_cell_angle_gamma 90.000000
_cell_volume 2501.251729
_symmetry_space_group_name_H-M "C 2/M"
_symmetry_group_IT_number 12
_symmetry_cell_setting 'monoclinic'
loop_
_space_group_symop_operation_xyz
x,y,z
-x,y,-z
-x,-y,-z
x,-y,z
1/2+x,1/2+y,z
1/2-x,1/2+y,-z
1/2-x,1/2-y,-z
1/2+x,1/2-y,z
loop_
_atom_site_type_symbol
_atom_site_label
_atom_site_fract_x
_atom_site_fract_y
_atom_site_fract_z
Si Si1 0.551499 0.933068 0.284484
Si Si2 0.268822 0.500000 0.543407
Si Si3 0.092580 0.097700 0.358555
Si Si4 0.534312 0.287049 0.571812
Si Si5 0.958095 0.069464 0.929454
Si Si6 0.928341 0.569297 0.855742
O O1 0.322894 0.895240 0.312265
O O2 0.582446 0.907850 0.215366
O O3 0.831317 0.930786 0.324691
O O4 0.454721 0.000000 0.281918
O O5 0.500000 0.500000 0.500000
O O6 0.284570 0.557723 0.585060
O O7 0.000000 0.500000 0.500000
O O8 0.012627 0.160053 0.382909
O O9 0.500000 0.308557 0.500000
O O10 0.331041 0.236025 0.585553
O O11 0.182043 0.094200 0.888662
O O12 0.685032 0.093063 0.896411
O O13 0.963476 0.000000 0.930965
O O14 0.000000 0.094120 0.000000
O O15 0.923216 0.500000 0.855328
#
# Coordination Sequence:
#
# PCOD8111350 Si02
#       6
#     8   4   8   8   8   8
#     4  11  20  34  49  72 104 135 171 204 248 306
#     4  12  24  36  52  76 104 128 157 204 259 302
#     4  12  22  37  55  76 102 133 167 209 256 307
#     4  10  22  40  59  77  97 126 167 212 257 310
#     4   9  15  24  37  57  83 119 170 216 242 266
#     4   9  17  26  40  59  87 127 164 205 242 281
#
# _framework density 17.591193000000001
#
# number of rings (size 3 to 8) (size 9 to 14) (size 15 to 20)
#    0.000    1.636    1.818    4.364    0.000    7.273 
#    0.000    0.000    0.000    0.000    0.000    0.000 
#    0.000    0.000    0.000    0.000    0.000  229.091 
#
# Total GULP energy -272839.249411 kJ/mol
# GULP energy per Si atom -12401.784064 kJ/mol
# Density = 1.755115 g / cm^3
# Si number density = 17.591193 Si / 1000 Ang^3
#
#
#
# Elastic Constant Matrix: (Units=GPa)
#
#
# Indices 1 2 3 4 5 6 
#
# 1 115.9081 5.6346 38.9503 0.0000 -12.9816 0.0000
# 2 5.6346 34.8363 26.4722 0.0000 -5.6859 0.0000
# 3 38.9503 26.4722 112.3453 0.0000 -14.9195 0.0000
# 4 0.0000 0.0000 0.0000 8.8630 0.0000 -6.0500
# 5 -12.9816 -5.6859 -14.9195 0.0000 41.0090 0.0000
# 6 0.0000 0.0000 0.0000 -6.0500 0.0000 15.7519
#
#
#
# Elastic Compliance Matrix: (Units=1/GPa)
#
#
# Indices 1 2 3 4 5 6 
#
# 1 0.009971 0.001393 -0.003510 0.000000 0.002073 0.000000
# 2 0.001393 0.035310 -0.008505 0.000000 0.002242 0.000000
# 3 -0.003510 -0.008505 0.012418 0.000000 0.002227 0.000000
# 4 0.000000 0.000000 0.000000 0.152922 0.000000 0.058734
# 5 0.002073 0.002242 0.002227 0.000000 0.026162 0.000000
# 6 0.000000 0.000000 0.000000 0.058734 0.000000 0.086043
#
#
# Mechanical properties :
#
#
# Convention : Reuss Voigt Hill
#
# Bulk Modulus (GPa) = 27.43181 45.02265 36.22723
# Shear Modulus (GPa) = 14.03616 25.92696 19.98156
#
# Velocity S-wave (km/s) = 2.82779 3.84325 3.37394
# Velocity P-wave (km/s) = 5.12736 6.73376 5.98470
#
# Compressibility (1/GPa) = 0.03645403
#
# Stress axis : x y z
#
# Youngs Moduli (GPa) = 100.28594 28.32098 80.52843
#
# Poissons Ratio (x) = -0.03944 0.28266
# Poissons Ratio (y) = -0.13968 0.68491
# Poissons Ratio (z) = 0.35201 0.24088
#
# Static dielectric constant tensor:
#      x y z
#    x 3.516070 0.000000 -0.101080 
#    y 0.000000 2.669890 0.000000 
#    z -0.101080 0.000000 3.487970 
# 
# 
# High freq. dielectric constant tensor:
#      x y z
#    x 1.706820 0.000000 -0.005560 
#    y 0.000000 1.606470 0.000000 
#    z -0.005560 0.000000 1.691240 
# 
# From -- ./inp_files/252905.got.cif
#   From: 2010.06.25/outbox.cif.g09.slc.cpg/sg12_127_cif.got.tgz:252905.got - 2010.06.28 00:19:55.
