data_PCOD8111886
_publ_section_title
;
Structure prediction by ZEFSAII (Michael W. Deem and Ramdas Pophale) SiO2 
 PCOD8111886
Probable space group: C 2/M
;
_chemical_formula_sum "Si O2"
_cell_formula_units_Z 56
_cell_length_a 19.720843
_cell_length_b 28.337889
_cell_length_c 8.720156
_cell_angle_alpha 90.000000
_cell_angle_beta 149.542186
_cell_angle_gamma 90.000000
_cell_volume 2470.260704
_symmetry_space_group_name_H-M "C 2/M"
_symmetry_group_IT_number 12
_symmetry_cell_setting 'monoclinic'
loop_
_space_group_symop_operation_xyz
x,y,z
-x,y,-z
-x,-y,-z
x,-y,z
1/2+x,1/2+y,z
1/2-x,1/2+y,-z
1/2-x,1/2-y,-z
1/2+x,1/2-y,z
loop_
_atom_site_type_symbol
_atom_site_label
_atom_site_fract_x
_atom_site_fract_y
_atom_site_fract_z
Si Si1 0.262796 0.294360 0.140998
Si Si2 0.202042 0.446116 0.074881
Si Si3 0.026907 0.360109 0.731175
Si Si4 0.640186 0.386407 0.832204
Si Si5 0.643444 0.713492 0.347278
Si Si6 0.854352 0.947104 0.671037
Si Si7 0.753724 0.630421 0.367042
O O1 0.332438 0.335896 0.186770
O O2 0.359169 0.283386 0.472636
O O3 0.250000 0.250000 0.000000
O O4 0.120897 0.313691 0.932252
O O5 0.147359 0.500000 0.950831
O O6 0.251543 0.425880 0.007515
O O7 0.327214 0.444813 0.436041
O O8 0.088842 0.409473 0.913721
O O9 0.000000 0.366467 0.500000
O O10 0.892849 0.350568 0.568059
O O11 0.500000 0.405869 0.500000
O O12 0.644482 0.378144 0.021364
O O13 0.750000 0.750000 0.500000
O O14 0.691376 0.663547 0.375481
O O15 0.500000 0.727168 0.000000
O O16 0.734390 0.919492 0.523314
O O17 0.846590 0.000000 0.718438
O O18 0.000000 0.925772 0.000000
#
# Coordination Sequence:
#
# PCOD8111886 Si02
#       7
#     8   8   8   8   8   8   8
#     4  11  25  46  71  95 137 183 229 284 346 417
#     4  10  22  41  63  94 136 177 224 285 341 411
#     4  11  24  44  67 100 134 184 227 282 350 415
#     4  11  22  40  64  96 128 177 230 279 346 413
#     4  12  29  47  71 107 140 179 231 288 349 415
#     4  10  22  41  66  97 134 178 226 282 348 414
#     4  12  23  43  69  98 138 176 229 288 347 410
#
# _framework density 22.669671999999998
#
# number of rings (size 3 to 8) (size 9 to 14) (size 15 to 20)
#    0.000    1.000    2.857    4.714    2.000    4.000 
#    0.000    1.429    0.000    0.000    0.000    0.000 
#    0.000    0.000    0.000    0.000    0.000    0.000 
#
# Total GULP energy -347073.586826 kJ/mol
# GULP energy per Si atom -12395.485244 kJ/mol
# Density = 2.261807 g / cm^3
# Si number density = 22.669672 Si / 1000 Ang^3
#
#
#
# Elastic Constant Matrix: (Units=GPa)
#
#
# Indices 1 2 3 4 5 6 
#
# 1 96.9044 42.3718 32.0063 0.0000 -11.6137 0.0000
# 2 42.3718 122.6419 40.6851 0.0000 -4.7622 0.0000
# 3 32.0063 40.6851 124.8433 0.0000 -10.4614 0.0000
# 4 0.0000 0.0000 0.0000 31.7114 0.0000 -6.0726
# 5 -11.6137 -4.7622 -10.4614 0.0000 49.1136 0.0000
# 6 0.0000 0.0000 0.0000 -6.0726 0.0000 24.0756
#
#
#
# Elastic Compliance Matrix: (Units=1/GPa)
#
#
# Indices 1 2 3 4 5 6 
#
# 1 0.012844 -0.003722 -0.001889 0.000000 0.002274 0.000000
# 2 -0.003722 0.010224 -0.002411 0.000000 -0.000402 0.000000
# 3 -0.001889 -0.002411 0.009391 0.000000 0.001320 0.000000
# 4 0.000000 0.000000 0.000000 0.033135 0.000000 0.008358
# 5 0.002274 -0.000402 0.001320 0.000000 0.021141 0.000000
# 6 0.000000 0.000000 0.000000 0.008358 0.000000 0.043644
#
#
# Mechanical properties :
#
#
# Convention : Reuss Voigt Hill
#
# Bulk Modulus (GPa) = 60.92801 63.83512 62.38156
# Shear Modulus (GPa) = 32.91757 36.26855 34.59306
#
# Velocity S-wave (km/s) = 3.81472 4.00418 3.91059
# Velocity P-wave (km/s) = 6.80717 7.04258 6.92587
#
# Compressibility (1/GPa) = 0.01641281
#
# Stress axis : x y z
#
# Youngs Moduli (GPa) = 77.86030 97.80729 106.48736
#
# Poissons Ratio (x) = 0.36407 0.20117
# Poissons Ratio (y) = 0.28982 0.25678
# Poissons Ratio (z) = 0.14709 0.23585
#
# Static dielectric constant tensor:
#      x y z
#    x 4.061840 0.000000 0.127050 
#    y 0.000000 4.280440 0.000000 
#    z 0.127050 0.000000 4.185180 
# 
# 
# High freq. dielectric constant tensor:
#      x y z
#    x 1.886990 0.000000 -0.011490 
#    y 0.000000 1.899470 0.000000 
#    z -0.011490 0.000000 1.901150 
# 
# From -- ./inp_files/91623.got.cif
#   From: 2010.06.25/outbox.cif.g09.slc.cpg/sg12_46_cif.got.tgz:91623.got - 2010.06.28 00:19:55.
