data_PCOD8111443
_publ_section_title
;
Structure prediction by ZEFSAII (Michael W. Deem and Ramdas Pophale) SiO2 
 PCOD8111443
Probable space group: C 2/M
;
_chemical_formula_sum "Si O2"
_cell_formula_units_Z 64
_cell_length_a 9.551449
_cell_length_b 31.341041
_cell_length_c 14.845388
_cell_angle_alpha 90.000000
_cell_angle_beta 136.991443
_cell_angle_gamma 90.000000
_cell_volume 3031.287344
_symmetry_space_group_name_H-M "C 2/M"
_symmetry_group_IT_number 12
_symmetry_cell_setting 'monoclinic'
loop_
_space_group_symop_operation_xyz
x,y,z
-x,y,-z
-x,-y,-z
x,-y,z
1/2+x,1/2+y,z
1/2-x,1/2+y,-z
1/2-x,1/2-y,-z
1/2+x,1/2-y,z
loop_
_atom_site_type_symbol
_atom_site_label
_atom_site_fract_x
_atom_site_fract_y
_atom_site_fract_z
Si Si1 0.156328 0.688626 0.000757
Si Si2 0.076498 0.951559 0.660818
Si Si3 0.600047 0.211737 0.640493
Si Si4 0.050426 0.114913 0.920303
Si Si5 0.832622 0.449292 0.618181
Si Si6 0.789897 0.548564 0.942130
Si Si7 0.893024 0.387588 0.355729
Si Si8 0.020162 0.252766 0.790455
O O1 0.333237 0.655565 0.062350
O O2 0.261456 0.729588 0.096256
O O3 0.000000 0.668513 0.000000
O O4 0.033021 0.703066 0.853082
O O5 0.270751 0.936330 0.691700
O O6 0.117323 0.945979 0.784705
O O7 0.856436 0.931698 0.532574
O O8 0.049270 0.000000 0.618224
O O9 0.500000 0.226601 0.500000
O O10 0.560434 0.161927 0.641923
O O11 0.840445 0.222772 0.744952
O O12 0.491864 0.236992 0.671375
O O13 0.852661 0.106714 0.764083
O O14 0.206998 0.074853 0.987999
O O15 0.000000 0.122873 0.000000
O O16 0.885865 0.500000 0.631200
O O17 0.024100 0.419767 0.681887
O O18 0.822749 0.500000 0.989295
O O19 0.000000 0.566966 0.000000
O O20 0.000000 0.401259 0.500000
#
# Coordination Sequence:
#
# PCOD8111443 Si02
#       8
#     8   8   8   8   8   8   8   8
#     4  11  23  41  69  93 121 159 215 269 311 377
#     4   8  16  35  63  90 118 162 220 265 299 362
#     4  11  23  42  66  92 135 166 206 260 327 392
#     4  12  26  42  63  94 130 165 213 266 317 374
#     4   9  18  35  63  93 123 168 217 258 306 373
#     4  10  22  40  61  86 126 174 211 253 314 378
#     4  11  24  40  61  92 133 167 200 266 327 372
#     4  11  22  42  68  96 116 167 210 259 321 389
#
# _framework density 21.113142
#
# number of rings (size 3 to 8) (size 9 to 14) (size 15 to 20)
#    0.000    1.625    2.500    3.000    1.750    1.000 
#    2.250    0.000    8.250    0.000    0.000    0.000 
#    0.000    0.000    0.000    0.000    0.000    0.000 
#
# Total GULP energy -396678.950974 kJ/mol
# GULP energy per Si atom -12396.217218 kJ/mol
# Density = 2.106509 g / cm^3
# Si number density = 21.113142 Si / 1000 Ang^3
#
#
#
# Elastic Constant Matrix: (Units=GPa)
#
#
# Indices 1 2 3 4 5 6 
#
# 1 138.8356 58.6051 34.9202 0.0000 -0.9019 0.0000
# 2 58.6051 82.7710 21.2161 0.0000 1.3620 0.0000
# 3 34.9202 21.2161 77.0780 0.0000 -0.3961 0.0000
# 4 0.0000 0.0000 0.0000 23.7427 0.0000 6.5664
# 5 -0.9019 1.3620 -0.3961 0.0000 32.1010 0.0000
# 6 0.0000 0.0000 0.0000 6.5664 0.0000 36.4464
#
#
#
# Elastic Compliance Matrix: (Units=1/GPa)
#
#
# Indices 1 2 3 4 5 6 
#
# 1 0.010902 -0.006954 -0.003022 0.000000 0.000564 0.000000
# 2 -0.006954 0.017445 -0.001657 0.000000 -0.000956 0.000000
# 3 -0.003022 -0.001657 0.014800 0.000000 0.000168 0.000000
# 4 0.000000 0.000000 0.000000 0.044327 0.000000 -0.007986
# 5 0.000564 -0.000956 0.000168 0.000000 0.031210 0.000000
# 6 0.000000 0.000000 0.000000 -0.007986 0.000000 0.028876
#
#
# Mechanical properties :
#
#
# Convention : Reuss Voigt Hill
#
# Bulk Modulus (GPa) = 50.29544 58.68524 54.49034
# Shear Modulus (GPa) = 28.17663 30.72092 29.44878
#
# Velocity S-wave (km/s) = 3.65712 3.81867 3.73876
# Velocity P-wave (km/s) = 6.45804 6.87742 6.67102
#
# Compressibility (1/GPa) = 0.01988252
#
# Stress axis : x y z
#
# Youngs Moduli (GPa) = 91.72823 57.32237 67.56811
#
# Poissons Ratio (x) = 0.39859 0.20420
# Poissons Ratio (y) = 0.63783 0.11193
# Poissons Ratio (z) = 0.27722 0.09495
#
# Static dielectric constant tensor:
#      x y z
#    x 3.796650 0.000000 0.006560 
#    y 0.000000 3.581220 0.000000 
#    z 0.006560 0.000000 3.816180 
# 
# 
# High freq. dielectric constant tensor:
#      x y z
#    x 1.830910 0.000000 0.001840 
#    y 0.000000 1.809800 0.000000 
#    z 0.001840 0.000000 1.831580 
# 
# From -- ./inp_files/201331.got.cif
#   From: 2010.06.25/outbox.cif.g09.slc.cpg/sg12_101_cif.got.tgz:201331.got - 2010.06.28 00:19:55.
