data_PCOD8111371
_publ_section_title
;
Structure prediction by ZEFSAII (Michael W. Deem and Ramdas Pophale) SiO2 
 PCOD8111371
Probable space group: C 2/M
;
_chemical_formula_sum "Si O2"
_cell_formula_units_Z 56
_cell_length_a 23.123129
_cell_length_b 13.865123
_cell_length_c 9.739968
_cell_angle_alpha 90.000000
_cell_angle_beta 66.383324
_cell_angle_gamma 90.000000
_cell_volume 2861.146070
_symmetry_space_group_name_H-M "C 2/M"
_symmetry_group_IT_number 12
_symmetry_cell_setting 'monoclinic'
loop_
_space_group_symop_operation_xyz
x,y,z
-x,y,-z
-x,-y,-z
x,-y,z
1/2+x,1/2+y,z
1/2-x,1/2+y,-z
1/2-x,1/2-y,-z
1/2+x,1/2-y,z
loop_
_atom_site_type_symbol
_atom_site_label
_atom_site_fract_x
_atom_site_fract_y
_atom_site_fract_z
Si Si1 0.483055 0.613442 0.292764
Si Si2 0.407645 0.388581 0.621133
Si Si3 0.218226 0.887695 0.118855
Si Si4 0.085224 0.388732 0.288758
Si Si5 0.837216 0.728254 0.003947
Si Si6 0.938459 0.610174 0.384747
Si Si7 0.059472 0.733840 0.867733
O O1 0.480245 0.500000 0.266079
O O2 0.551297 0.649793 0.287032
O O3 0.431231 0.652403 0.452825
O O4 0.467878 0.665490 0.164512
O O5 0.425843 0.500000 0.597748
O O6 0.333498 0.371052 0.712068
O O7 0.284897 0.847353 0.109435
O O8 0.223396 0.000000 0.074050
O O9 0.196636 0.828300 0.004838
O O10 0.106377 0.500000 0.251233
O O11 0.091004 0.354856 0.442214
O O12 0.013517 0.376656 0.310582
O O13 0.129829 0.319616 0.159419
O O14 0.884769 0.753452 0.079548
O O15 0.919422 0.500000 0.380920
O O16 0.911519 0.669232 0.281834
O O17 0.000000 0.681763 0.000000
#
# Coordination Sequence:
#
# PCOD8111371 Si02
#       7
#     8   8   8   8   8   8   8
#     4   9  19  34  57  88 119 150 185 227 287 343
#     4   8  16  34  59  84 107 148 198 232 268 328
#     4  10  22  40  60  80 110 152 199 240 273 330
#     4   9  18  36  59  82 111 153 196 232 272 332
#     4  11  23  37  58  88 113 151 194 230 286 342
#     4   9  20  35  55  83 116 152 188 232 284 329
#     4  12  23  34  53  91 124 147 176 233 299 341
#
# _framework density 19.572575000000001
#
# number of rings (size 3 to 8) (size 9 to 14) (size 15 to 20)
#    0.000    2.286    1.429    3.000    2.000    3.429 
#    0.000    0.714    0.000    0.000    0.000    0.000 
#    0.000    0.000    0.000    0.000    0.000    0.000 
#
# Total GULP energy -347108.070017 kJ/mol
# GULP energy per Si atom -12396.716786 kJ/mol
# Density = 1.952803 g / cm^3
# Si number density = 19.572575 Si / 1000 Ang^3
#
#
#
# Elastic Constant Matrix: (Units=GPa)
#
#
# Indices 1 2 3 4 5 6 
#
# 1 94.3349 20.5223 43.1442 0.0000 -0.6762 0.0000
# 2 20.5223 61.4007 29.9312 0.0000 0.5563 0.0000
# 3 43.1442 29.9312 95.7629 0.0000 3.6326 0.0000
# 4 0.0000 0.0000 0.0000 23.3440 0.0000 2.3521
# 5 -0.6762 0.5563 3.6326 0.0000 34.6842 0.0000
# 6 0.0000 0.0000 0.0000 2.3521 0.0000 23.4130
#
#
#
# Elastic Compliance Matrix: (Units=1/GPa)
#
#
# Indices 1 2 3 4 5 6 
#
# 1 0.013550 -0.001822 -0.005568 0.000000 0.000877 0.000000
# 2 -0.001822 0.019463 -0.005270 0.000000 0.000204 0.000000
# 3 -0.005568 -0.005270 0.014657 0.000000 -0.001559 0.000000
# 4 0.000000 0.000000 0.000000 0.043276 0.000000 -0.004348
# 5 0.000877 0.000204 -0.001559 0.000000 0.029009 0.000000
# 6 0.000000 0.000000 0.000000 -0.004348 0.000000 0.043148
#
#
# Mechanical properties :
#
#
# Convention : Reuss Voigt Hill
#
# Bulk Modulus (GPa) = 44.74504 48.74377 46.74441
# Shear Modulus (GPa) = 25.52673 26.81497 26.17085
#
# Velocity S-wave (km/s) = 3.61530 3.70540 3.66063
# Velocity P-wave (km/s) = 6.35121 6.57760 6.46540
#
# Compressibility (1/GPa) = 0.02234884
#
# Stress axis : x y z
#
# Youngs Moduli (GPa) = 73.80103 51.38050 68.22478
#
# Poissons Ratio (x) = 0.09364 0.37990
# Poissons Ratio (y) = 0.13450 0.35953
# Poissons Ratio (z) = 0.41095 0.27077
#
# Static dielectric constant tensor:
#      x y z
#    x 3.329530 0.000000 -0.111020 
#    y 0.000000 3.663580 0.000000 
#    z -0.111020 0.000000 3.631490 
# 
# 
# High freq. dielectric constant tensor:
#      x y z
#    x 1.730240 0.000000 -0.009610 
#    y 0.000000 1.776260 0.000000 
#    z -0.009610 0.000000 1.759690 
# 
# From -- ./inp_files/96301.got.cif
#   From: 2010.06.25/outbox.cif.g09.slc.cpg/sg12_49_cif.got.tgz:96301.got - 2010.06.28 00:19:55.
