data_PCOD8111977
_publ_section_title
;
Structure prediction by ZEFSAII (Michael W. Deem and Ramdas Pophale) SiO2 
 PCOD8111977
Probable space group: C 2/M
;
_chemical_formula_sum "Si O2"
_cell_formula_units_Z 56
_cell_length_a 8.472114
_cell_length_b 18.330336
_cell_length_c 28.497416
_cell_angle_alpha 90.000000
_cell_angle_beta 143.903851
_cell_angle_gamma 90.000000
_cell_volume 2607.280279
_symmetry_space_group_name_H-M "C 2/M"
_symmetry_group_IT_number 12
_symmetry_cell_setting 'monoclinic'
loop_
_space_group_symop_operation_xyz
x,y,z
-x,y,-z
-x,-y,-z
x,-y,z
1/2+x,1/2+y,z
1/2-x,1/2+y,-z
1/2-x,1/2-y,-z
1/2+x,1/2-y,z
loop_
_atom_site_type_symbol
_atom_site_label
_atom_site_fract_x
_atom_site_fract_y
_atom_site_fract_z
Si Si1 0.190083 0.082095 0.914615
Si Si2 0.519841 0.311392 0.951673
Si Si3 0.412772 0.193418 0.790609
Si Si4 0.854411 0.829686 0.513707
Si Si5 0.624257 0.415676 0.658975
Si Si6 0.328088 0.080974 0.374177
Si Si7 0.522332 0.336198 0.780682
O O1 0.054521 0.119569 0.926657
O O2 0.139063 0.127052 0.855269
O O3 0.076689 0.000000 0.882101
O O4 0.500000 0.080639 0.000000
O O5 0.223471 0.281974 0.869987
O O6 0.500000 0.340129 0.000000
O O7 0.750000 0.250000 0.000000
O O8 0.364287 0.122189 0.746550
O O9 0.320034 0.268060 0.742692
O O10 0.273062 0.184512 0.807328
O O11 0.750000 0.750000 0.500000
O O12 0.595709 0.878500 0.450366
O O13 0.000000 0.826272 0.500000
O O14 0.070562 0.865468 0.600975
O O15 0.703315 0.500000 0.665824
O O16 0.355707 0.413530 0.624423
O O17 0.171621 0.107669 0.291175
O O18 0.416750 0.000000 0.383990
#
# Coordination Sequence:
#
# PCOD8111977 Si02
#       7
#     8   8   8   8   8   8   8
#     4  11  24  41  62  89 123 162 204 256 317 379
#     4  12  24  41  65  93 125 165 211 260 317 381
#     4  11  23  39  65  94 124 164 211 261 314 380
#     4  12  25  41  64  94 127 167 217 267 316 376
#     4  10  23  43  65  93 130 169 210 263 326 385
#     4  10  22  41  65  91 126 169 208 256 320 383
#     4  11  22  40  63  93 126 163 211 260 314 376
#
# _framework density 21.478318999999999
#
# number of rings (size 3 to 8) (size 9 to 14) (size 15 to 20)
#    0.000    1.000    0.000    7.714    0.000    8.286 
#    0.000    0.000    0.000    0.000    0.000    0.000 
#    0.000    0.000    0.000    0.000    0.000    0.000 
#
# Total GULP energy -347110.896045 kJ/mol
# GULP energy per Si atom -12396.817716 kJ/mol
# Density = 2.142943 g / cm^3
# Si number density = 21.478319 Si / 1000 Ang^3
#
#
#
# Elastic Constant Matrix: (Units=GPa)
#
#
# Indices 1 2 3 4 5 6 
#
# 1 87.4145 56.5351 50.9091 0.0029 -28.0679 0.0006
# 2 56.5351 178.2447 52.6799 -0.0038 -21.8506 -0.0039
# 3 50.9091 52.6799 102.2577 -0.0007 -16.5711 -0.0037
# 4 0.0029 -0.0038 -0.0007 38.7747 0.0005 -4.7571
# 5 -28.0679 -21.8506 -16.5711 0.0005 42.3274 -0.0037
# 6 0.0006 -0.0039 -0.0037 -4.7571 -0.0037 23.9971
#
#
#
# Elastic Compliance Matrix: (Units=1/GPa)
#
#
# Indices 1 2 3 4 5 6 
#
# 1 0.020684 -0.003336 -0.007085 -0.000002 0.009220 -0.000001
# 2 -0.003336 0.007358 -0.001999 0.000001 0.000803 0.000001
# 3 -0.007085 -0.001999 0.014316 0.000001 -0.000125 0.000002
# 4 -0.000002 0.000001 0.000001 0.026433 0.000000 0.005240
# 5 0.009220 0.000803 -0.000125 0.000000 0.030105 0.000004
# 6 -0.000001 0.000001 0.000002 0.005240 0.000004 0.042711
#
#
# Mechanical properties :
#
#
# Convention : Reuss Voigt Hill
#
# Bulk Modulus (GPa) = 57.08713 76.46278 66.77496
# Shear Modulus (GPa) = 29.02156 34.87269 31.94713
#
# Velocity S-wave (km/s) = 3.67986 4.03379 3.86088
# Velocity P-wave (km/s) = 6.68519 7.57447 7.14368
#
# Compressibility (1/GPa) = 0.01751708
#
# Stress axis : x y z
#
# Youngs Moduli (GPa) = 48.34665 135.90923 69.85191
#
# Poissons Ratio (x) = 0.45344 0.49488
# Poissons Ratio (y) = 0.16130 0.13966
# Poissons Ratio (z) = 0.34252 0.27173
#
# Static dielectric constant tensor:
#      x y z
#    x 3.796230 0.000000 -0.052830 
#    y 0.000000 4.305070 0.000000 
#    z -0.052830 0.000000 4.060350 
# 
# 
# High freq. dielectric constant tensor:
#      x y z
#    x 1.847010 0.000000 -0.009240 
#    y 0.000000 1.857170 0.000000 
#    z -0.009240 0.000000 1.854710 
# 
# From -- ./inp_files/356763.got.cif
#   From: 2010.06.25/outbox.cif.g09.slc.cpg/sg12_179_cif.got.tgz:356763.got - 2010.06.28 00:19:55.
