data_PCOD8111953
_publ_section_title
;
Structure prediction by ZEFSAII (Michael W. Deem and Ramdas Pophale) SiO2 
 PCOD8111953
Probable space group: C 2/M
;
_chemical_formula_sum "Si O2"
_cell_formula_units_Z 64
_cell_length_a 30.481292
_cell_length_b 8.729262
_cell_length_c 26.038260
_cell_angle_alpha 90.000000
_cell_angle_beta 153.240446
_cell_angle_gamma 90.000000
_cell_volume 3119.421154
_symmetry_space_group_name_H-M "C 2/M"
_symmetry_group_IT_number 12
_symmetry_cell_setting 'monoclinic'
loop_
_space_group_symop_operation_xyz
x,y,z
-x,y,-z
-x,-y,-z
x,-y,z
1/2+x,1/2+y,z
1/2-x,1/2+y,-z
1/2-x,1/2-y,-z
1/2+x,1/2-y,z
loop_
_atom_site_type_symbol
_atom_site_label
_atom_site_fract_x
_atom_site_fract_y
_atom_site_fract_z
Si Si1 0.739050 0.175840 0.757379
Si Si2 0.717397 0.320103 0.629320
Si Si3 0.950458 0.679569 0.610392
Si Si4 0.847926 0.324793 0.227299
Si Si5 0.702903 0.820406 0.000682
Si Si6 0.093057 0.178945 0.220199
Si Si7 0.442937 0.177194 0.992451
Si Si8 0.982640 0.679150 0.762175
O O1 0.690391 0.237142 0.654432
O O2 0.658144 0.191662 0.717537
O O3 0.831879 0.276144 0.869111
O O4 0.771380 0.000000 0.784031
O O5 0.716385 0.500000 0.637539
O O6 0.639725 0.274021 0.505388
O O7 0.824233 0.271704 0.723027
O O8 0.932939 0.500000 0.582733
O O9 0.048096 0.736446 0.683653
O O10 0.957375 0.720011 0.677399
O O11 0.835242 0.500000 0.196005
O O12 0.760184 0.228534 0.111332
O O13 0.591798 0.765036 0.888722
O O14 0.706494 0.000000 0.997768
O O15 0.750000 0.750000 0.000000
O O16 0.090315 0.227717 0.277091
O O17 0.115106 0.000000 0.238723
O O18 0.989911 0.221639 0.086658
O O19 0.447971 0.000000 0.014079
O O20 0.500000 0.209683 0.000000
O O21 0.969261 0.500000 0.758998
#
# Coordination Sequence:
#
# PCOD8111953 Si02
#       8
#     8   8   8   8   8   8   8   8
#     4  11  23  40  66  96 126 162 206 253 307 369
#     4  12  26  44  64  89 123 162 209 259 309 365
#     4  10  22  44  67  88 121 164 210 256 307 363
#     4  10  22  41  64  94 127 162 204 254 309 366
#     4  11  21  36  62  94 129 167 204 248 305 367
#     4  12  25  41  65  94 125 162 206 254 309 372
#     4  11  22  38  63  93 128 165 200 249 309 365
#     4  10  22  41  65  92 126 165 205 254 310 367
#
# _framework density 20.516627
#
# number of rings (size 3 to 8) (size 9 to 14) (size 15 to 20)
#    0.000    1.125    2.500    4.125    0.000    6.500 
#    0.000    2.500    0.000    0.000    0.000    0.000 
#    0.000    0.000    0.000    0.000    0.000    0.000 
#
# Total GULP energy -397016.067882 kJ/mol
# GULP energy per Si atom -12406.752121 kJ/mol
# Density = 2.046993 g / cm^3
# Si number density = 20.516627 Si / 1000 Ang^3
#
#
#
# Elastic Constant Matrix: (Units=GPa)
#
#
# Indices 1 2 3 4 5 6 
#
# 1 109.1882 38.4664 23.7726 0.0000 -24.3321 0.0000
# 2 38.4664 67.6377 19.3821 0.0000 -8.9660 0.0000
# 3 23.7726 19.3821 87.6025 0.0000 -13.1090 0.0000
# 4 0.0000 0.0000 0.0000 35.8236 0.0000 -3.2197
# 5 -24.3321 -8.9660 -13.1090 0.0000 19.8687 0.0000
# 6 0.0000 0.0000 0.0000 -3.2197 0.0000 30.6319
#
#
#
# Elastic Compliance Matrix: (Units=1/GPa)
#
#
# Indices 1 2 3 4 5 6 
#
# 1 0.014823 -0.006329 -0.000370 0.000000 0.015053 0.000000
# 2 -0.006329 0.019017 -0.002625 0.000000 -0.000901 0.000000
# 3 -0.000370 -0.002625 0.013150 0.000000 0.007039 0.000000
# 4 0.000000 0.000000 0.000000 0.028181 0.000000 0.002962
# 5 0.015053 -0.000901 0.007039 0.000000 0.073003 0.000000
# 6 0.000000 0.000000 0.000000 0.002962 0.000000 0.032957
#
#
# Mechanical properties :
#
#
# Convention : Reuss Voigt Hill
#
# Bulk Modulus (GPa) = 35.28226 47.51895 41.40061
# Shear Modulus (GPa) = 23.89785 29.45200 26.67492
#
# Velocity S-wave (km/s) = 3.41663 3.79293 3.60969
# Velocity P-wave (km/s) = 5.72701 6.51101 6.13156
#
# Compressibility (1/GPa) = 0.02834286
#
# Stress axis : x y z
#
# Youngs Moduli (GPa) = 67.46234 52.58566 76.04829
#
# Poissons Ratio (x) = 0.33280 0.02812
# Poissons Ratio (y) = 0.42695 0.19961
# Poissons Ratio (z) = 0.02494 0.13803
#
# Static dielectric constant tensor:
#      x y z
#    x 3.908090 0.000000 -0.074290 
#    y 0.000000 3.720750 0.000000 
#    z -0.074290 0.000000 3.653250 
# 
# 
# High freq. dielectric constant tensor:
#      x y z
#    x 1.818470 0.000000 -0.007680 
#    y 0.000000 1.801520 0.000000 
#    z -0.007680 0.000000 1.795970 
# 
# From -- ./inp_files/353515.got.cif
#   From: 2010.06.25/outbox.cif.g09.slc.cpg/sg12_177_cif.got.tgz:353515.got - 2010.06.28 00:19:55.
