data_PCOD8111172
_publ_section_title
;
Structure prediction by ZEFSAII (Michael W. Deem and Ramdas Pophale) SiO2 
 PCOD8111172
Probable space group: C 2/M
;
_chemical_formula_sum "Si O2"
_cell_formula_units_Z 56
_cell_length_a 17.791801
_cell_length_b 17.316666
_cell_length_c 9.349041
_cell_angle_alpha 90.000000
_cell_angle_beta 111.297453
_cell_angle_gamma 90.000000
_cell_volume 2683.680374
_symmetry_space_group_name_H-M "C 2/M"
_symmetry_group_IT_number 12
_symmetry_cell_setting 'monoclinic'
loop_
_space_group_symop_operation_xyz
x,y,z
-x,y,-z
-x,-y,-z
x,-y,z
1/2+x,1/2+y,z
1/2-x,1/2+y,-z
1/2-x,1/2-y,-z
1/2+x,1/2-y,z
loop_
_atom_site_type_symbol
_atom_site_label
_atom_site_fract_x
_atom_site_fract_y
_atom_site_fract_z
Si Si1 0.780051 0.681484 0.419533
Si Si2 0.444943 0.911533 0.094532
Si Si3 0.865075 0.089884 0.057765
Si Si4 0.126507 0.911677 0.250913
Si Si5 0.709817 0.175277 0.906438
Si Si6 0.456921 0.165224 0.619633
Si Si7 0.993935 0.167476 0.326323
O O1 0.750000 0.750000 0.500000
O O2 0.708043 0.621479 0.373595
O O3 0.802785 0.698283 0.269180
O O4 0.861598 0.649307 0.546436
O O5 0.372779 0.850411 0.072412
O O6 0.505863 0.906208 0.269340
O O7 0.413885 0.000000 0.058140
O O8 0.500000 0.885240 0.000000
O O9 0.904835 0.145413 0.206153
O O10 0.881894 0.000000 0.105306
O O11 0.898773 0.116794 0.925594
O O12 0.769181 0.103507 0.978659
O O13 0.052863 0.896986 0.304655
O O14 0.146210 0.000000 0.251404
O O15 0.750000 0.250000 0.000000
O O16 0.500000 0.166903 0.500000
O O17 0.476878 0.248266 0.707581
O O18 0.000000 0.162014 0.500000
#
# Coordination Sequence:
#
# PCOD8111172 Si02
#       7
#     8   8   8   8   8   8   8
#     4  11  23  42  65  98 128 164 219 273 321 392
#     4  11  26  46  67  99 137 175 224 278 331 397
#     4  10  22  39  61  89 124 166 208 257 316 385
#     4  10  22  40  62  89 124 164 209 258 315 385
#     4  11  24  42  69  95 128 172 219 268 331 389
#     4  11  23  43  67  93 128 172 216 266 325 391
#     4  11  23  38  62  93 130 161 209 259 317 380
#
# _framework density 20.866866000000002
#
# number of rings (size 3 to 8) (size 9 to 14) (size 15 to 20)
#    0.000    1.286    2.857    2.143    4.000    4.857 
#    0.000    0.000    0.000    0.000    0.000    0.000 
#    0.000    0.000    0.000    0.000    0.000    0.000 
#
# Total GULP energy -347011.996920 kJ/mol
# GULP energy per Si atom -12393.285604 kJ/mol
# Density = 2.081937 g / cm^3
# Si number density = 20.866866 Si / 1000 Ang^3
#
#
#
# Elastic Constant Matrix: (Units=GPa)
#
#
# Indices 1 2 3 4 5 6 
#
# 1 122.1805 27.9324 48.5043 0.0000 -2.7609 0.0000
# 2 27.9324 58.8112 44.6703 0.0000 -2.9201 0.0000
# 3 48.5043 44.6703 102.5529 0.0000 8.1141 0.0000
# 4 0.0000 0.0000 0.0000 33.5881 0.0000 6.6164
# 5 -2.7609 -2.9201 8.1141 0.0000 33.3048 0.0000
# 6 0.0000 0.0000 0.0000 6.6164 0.0000 40.2753
#
#
#
# Elastic Compliance Matrix: (Units=1/GPa)
#
#
# Indices 1 2 3 4 5 6 
#
# 1 0.010297 -0.001488 -0.004364 0.000000 0.001786 0.000000
# 2 -0.001488 0.026477 -0.011219 0.000000 0.004932 0.000000
# 3 -0.004364 -0.011219 0.017139 0.000000 -0.005521 0.000000
# 4 0.000000 0.000000 0.000000 0.030768 0.000000 -0.005055
# 5 0.001786 0.004932 -0.005521 0.000000 0.031951 0.000000
# 6 0.000000 0.000000 0.000000 -0.005055 0.000000 0.025659
#
#
# Mechanical properties :
#
#
# Convention : Reuss Voigt Hill
#
# Bulk Modulus (GPa) = 50.57794 58.41761 54.49778
# Shear Modulus (GPa) = 27.31887 32.26282 29.79085
#
# Velocity S-wave (km/s) = 3.62221 3.93635 3.78254
# Velocity P-wave (km/s) = 6.46412 6.97968 6.72684
#
# Compressibility (1/GPa) = 0.01977146
#
# Stress axis : x y z
#
# Youngs Moduli (GPa) = 97.11178 37.76905 58.34713
#
# Poissons Ratio (x) = 0.05618 0.25461
# Poissons Ratio (y) = 0.14446 0.65462
# Poissons Ratio (z) = 0.42377 0.42375
#
# Static dielectric constant tensor:
#      x y z
#    x 4.076860 0.000000 -0.038260 
#    y 0.000000 3.874170 0.000000 
#    z -0.038260 0.000000 4.535010 
# 
# 
# High freq. dielectric constant tensor:
#      x y z
#    x 1.829170 0.000000 0.008110 
#    y 0.000000 1.810100 0.000000 
#    z 0.008110 0.000000 1.822410 
# 
# From -- ./inp_files/75975.got.cif
#   From: 2010.06.25/outbox.cif.g09.slc.cpg/sg12_38_cif.got.tgz:75975.got - 2010.06.28 00:19:55.
