data_PCOD8111626
_publ_section_title
;
Structure prediction by ZEFSAII (Michael W. Deem and Ramdas Pophale) SiO2 
 PCOD8111626
Probable space group: C 2/M
;
_chemical_formula_sum "Si O2"
_cell_formula_units_Z 52
_cell_length_a 14.683393
_cell_length_b 10.574800
_cell_length_c 17.539961
_cell_angle_alpha 90.000000
_cell_angle_beta 83.353455
_cell_angle_gamma 90.000000
_cell_volume 2705.194474
_symmetry_space_group_name_H-M "C 2/M"
_symmetry_group_IT_number 12
_symmetry_cell_setting 'monoclinic'
loop_
_space_group_symop_operation_xyz
x,y,z
-x,y,-z
-x,-y,-z
x,-y,z
1/2+x,1/2+y,z
1/2-x,1/2+y,-z
1/2-x,1/2-y,-z
1/2+x,1/2-y,z
loop_
_atom_site_type_symbol
_atom_site_label
_atom_site_fract_x
_atom_site_fract_y
_atom_site_fract_z
Si Si1 0.539857 0.000000 0.580347
Si Si2 0.849156 0.643656 0.780479
Si Si3 0.818459 0.262686 0.264981
Si Si4 0.940780 0.000000 0.581628
Si Si5 0.600173 0.149283 0.898797
Si Si6 0.767565 0.500000 0.369383
Si Si7 0.500697 0.742832 0.330114
Si Si8 0.605668 0.852188 0.062870
O O1 0.500000 0.000000 0.500000
O O2 0.651422 0.000000 0.574620
O O3 0.501915 0.126371 0.623127
O O4 0.885045 0.500000 0.772049
O O5 0.760137 0.657173 0.735777
O O6 0.828581 0.679902 0.871496
O O7 0.928611 0.737517 0.745271
O O8 0.845011 0.292972 0.176240
O O9 0.775574 0.380707 0.313302
O O10 0.902314 0.206386 0.304828
O O11 0.830642 0.000000 0.577720
O O12 0.000000 0.000000 0.500000
O O13 0.966590 0.126889 0.622779
O O14 0.495597 0.198400 0.906277
O O15 0.607150 0.000000 0.888296
O O16 0.641282 0.198716 0.976977
O O17 0.595429 0.000000 0.050962
#
# Coordination Sequence:
#
# PCOD8111626 Si02
#       8
#     4   8   8   4   8   4   8   8
#     4  10  22  44  66  91 117 153 195 243 289 357
#     4  11  21  36  57  87 123 156 205 252 296 348
#     4  11  21  35  61  89 118 157 200 251 291 354
#     4  12  26  48  64  90 126 158 187 246 312 373
#     4   9  15  28  53  83 116 155 206 250 296 338
#     4  10  22  40  64  92 113 151 206 231 290 371
#     4  11  23  41  65  89 121 157 198 242 303 357
#     4   8  16  28  49  82 117 158 203 253 293 341
#
# _framework density 19.222276999999998
#
# number of rings (size 3 to 8) (size 9 to 14) (size 15 to 20)
#    0.000    1.846    4.615    1.385    1.077    0.615 
#    2.769    2.308    0.000    0.000    0.000    2.154 
#    0.000    0.000    0.000    0.000    0.000    0.000 
#
# Total GULP energy -322156.529166 kJ/mol
# GULP energy per Si atom -12390.635737 kJ/mol
# Density = 1.917853 g / cm^3
# Si number density = 19.222277 Si / 1000 Ang^3
#
#
#
# Elastic Constant Matrix: (Units=GPa)
#
#
# Indices 1 2 3 4 5 6 
#
# 1 96.3477 22.4512 44.2786 0.0000 11.3470 0.0000
# 2 22.4512 70.2819 30.5807 0.0000 7.6832 0.0000
# 3 44.2786 30.5807 119.4488 0.0000 6.7819 0.0000
# 4 0.0000 0.0000 0.0000 35.9486 0.0000 16.1629
# 5 11.3470 7.6832 6.7819 0.0000 37.3645 0.0000
# 6 0.0000 0.0000 0.0000 16.1629 0.0000 40.4369
#
#
#
# Elastic Compliance Matrix: (Units=1/GPa)
#
#
# Indices 1 2 3 4 5 6 
#
# 1 0.013107 -0.002066 -0.004171 0.000000 -0.002798 0.000000
# 2 -0.002066 0.016587 -0.003357 0.000000 -0.002174 0.000000
# 3 -0.004171 -0.003357 0.010777 0.000000 0.000001 0.000000
# 4 0.000000 0.000000 0.000000 0.033912 0.000000 -0.013555
# 5 -0.002798 -0.002174 0.000001 0.000000 0.028060 0.000000
# 6 0.000000 0.000000 0.000000 -0.013555 0.000000 0.030148
#
#
# Mechanical properties :
#
#
# Convention : Reuss Voigt Hill
#
# Bulk Modulus (GPa) = 46.98631 53.41106 50.19869
# Shear Modulus (GPa) = 31.47163 35.33452 33.40308
#
# Velocity S-wave (km/s) = 4.05068 4.29208 4.17313
# Velocity P-wave (km/s) = 6.80985 7.23940 7.02791
#
# Compressibility (1/GPa) = 0.02128279
#
# Stress axis : x y z
#
# Youngs Moduli (GPa) = 76.29580 60.28874 92.78790
#
# Poissons Ratio (x) = 0.12457 0.38699
# Poissons Ratio (y) = 0.15765 0.31150
# Poissons Ratio (z) = 0.31821 0.20240
#
# Static dielectric constant tensor:
#      x y z
#    x 3.570820 0.000000 0.090580 
#    y 0.000000 3.205110 0.000000 
#    z 0.090580 0.000000 3.705930 
# 
# 
# High freq. dielectric constant tensor:
#      x y z
#    x 1.747520 0.000000 0.007650 
#    y 0.000000 1.717130 0.000000 
#    z 0.007650 0.000000 1.758520 
# 
# From -- ./inp_files/268141.got.cif
#   From: 2010.06.25/outbox.cif.g09.slc.cpg/sg12_135_cif.got.tgz:268141.got - 2010.06.28 00:19:55.
