data_PCOD8111324
_publ_section_title
;
Structure prediction by ZEFSAII (Michael W. Deem and Ramdas Pophale) SiO2 
 PCOD8111324
Probable space group: C 2/M
;
_chemical_formula_sum "Si O2"
_cell_formula_units_Z 32
_cell_length_a 8.538700
_cell_length_b 33.361427
_cell_length_c 11.006000
_cell_angle_alpha 90.000000
_cell_angle_beta 27.587839
_cell_angle_gamma 90.000000
_cell_volume 1451.938090
_symmetry_space_group_name_H-M "C 2/M"
_symmetry_group_IT_number 12
_symmetry_cell_setting 'monoclinic'
loop_
_space_group_symop_operation_xyz
x,y,z
-x,y,-z
-x,-y,-z
x,-y,z
1/2+x,1/2+y,z
1/2-x,1/2+y,-z
1/2-x,1/2-y,-z
1/2+x,1/2-y,z
loop_
_atom_site_type_symbol
_atom_site_label
_atom_site_fract_x
_atom_site_fract_y
_atom_site_fract_z
Si Si1 0.594874 0.000000 0.795306
Si Si2 0.729472 0.919691 0.077409
Si Si3 0.118899 0.784387 0.677760
Si Si4 0.256630 0.375661 0.429581
Si Si5 0.500000 0.750850 0.000000
O O1 0.417253 0.962553 0.854468
O O2 0.000000 0.000000 0.500000
O O3 0.500000 0.000000 0.000000
O O4 0.402819 0.893239 0.338163
O O5 0.000000 0.923954 0.000000
O O6 0.893011 0.897617 0.847408
O O7 0.250000 0.750000 0.500000
O O8 0.214181 0.828339 0.569837
O O9 0.714195 0.779889 0.939976
O O10 0.212675 0.777681 0.757807
O O11 0.000000 0.385614 0.500000
#
# Coordination Sequence:
#
# PCOD8111324 Si02
#       5
#     4   8   8   8   4
#     4  12  25  46  69 100 138 170 204 266 347 398
#     4  10  23  44  69  98 124 175 220 267 317 403
#     4  11  23  41  61  92 129 176 224 274 331 386
#     4  10  22  39  68  96 128 166 224 274 321 374
#     4  10  24  38  62  88 124 178 222 270 330 390
#
# _framework density 22.039507
#
# number of rings (size 3 to 8) (size 9 to 14) (size 15 to 20)
#    0.000    1.500    0.000    4.125   12.250    0.000 
#    6.750    5.000    0.000    0.000    0.000    0.000 
#    0.000    0.000    0.000    0.000    0.000    0.000 
#
# Total GULP energy -198338.437843 kJ/mol
# GULP energy per Si atom -12396.152365 kJ/mol
# Density = 2.198934 g / cm^3
# Si number density = 22.039507 Si / 1000 Ang^3
#
#
#
# Elastic Constant Matrix: (Units=GPa)
#
#
# Indices 1 2 3 4 5 6 
#
# 1 76.8327 47.3952 37.9305 0.0000 12.2753 0.0000
# 2 47.3952 203.7159 93.7997 0.0000 14.1013 0.0000
# 3 37.9305 93.7997 173.4265 0.0000 34.1244 0.0000
# 4 0.0000 0.0000 0.0000 41.9471 0.0000 2.3139
# 5 12.2753 14.1013 34.1244 0.0000 28.7314 0.0000
# 6 0.0000 0.0000 0.0000 2.3139 0.0000 28.8454
#
#
#
# Elastic Compliance Matrix: (Units=1/GPa)
#
#
# Indices 1 2 3 4 5 6 
#
# 1 0.016027 -0.002932 -0.001116 0.000000 -0.004083 0.000000
# 2 -0.002932 0.007110 -0.003607 0.000000 0.002047 0.000000
# 3 -0.001116 -0.003607 0.009812 0.000000 -0.009407 0.000000
# 4 0.000000 0.000000 0.000000 0.023945 0.000000 -0.001921
# 5 -0.004083 0.002047 -0.009407 0.000000 0.046717 0.000000
# 6 0.000000 0.000000 0.000000 -0.001921 0.000000 0.034822
#
#
# Mechanical properties :
#
#
# Convention : Reuss Voigt Hill
#
# Bulk Modulus (GPa) = 56.69362 90.24732 73.47047
# Shear Modulus (GPa) = 31.32356 38.22811 34.77583
#
# Velocity S-wave (km/s) = 3.77403 4.16928 3.97657
# Velocity P-wave (km/s) = 6.69108 8.01337 7.38189
#
# Compressibility (1/GPa) = 0.01763867
#
# Stress axis : x y z
#
# Youngs Moduli (GPa) = 62.39311 140.64355 101.91525
#
# Poissons Ratio (x) = 0.41241 0.11374
# Poissons Ratio (y) = 0.18296 0.36762
# Poissons Ratio (z) = 0.06963 0.50732
#
# Static dielectric constant tensor:
#      x y z
#    x 4.363220 0.000000 -0.258410 
#    y 0.000000 4.063620 0.000000 
#    z -0.258410 0.000000 4.742020 
# 
# 
# High freq. dielectric constant tensor:
#      x y z
#    x 1.858820 0.000000 -0.003130 
#    y 0.000000 1.864180 0.000000 
#    z -0.003130 0.000000 1.895370 
# 
# From -- ./inp_files/125562.got.cif
#   From: 2010.06.25/outbox.cif.g09.slc.cpg/sg12_63_cif.got.tgz:125562.got - 2010.06.28 00:19:55.
