data_PCOD8111760
_publ_section_title
;
Structure prediction by ZEFSAII (Michael W. Deem and Ramdas Pophale) SiO2 
 PCOD8111760
Probable space group: C 2/M
;
_chemical_formula_sum "Si O2"
_cell_formula_units_Z 56
_cell_length_a 14.134115
_cell_length_b 17.226239
_cell_length_c 18.092507
_cell_angle_alpha 90.000000
_cell_angle_beta 140.850240
_cell_angle_gamma 90.000000
_cell_volume 2781.171124
_symmetry_space_group_name_H-M "C 2/M"
_symmetry_group_IT_number 12
_symmetry_cell_setting 'monoclinic'
loop_
_space_group_symop_operation_xyz
x,y,z
-x,y,-z
-x,-y,-z
x,-y,z
1/2+x,1/2+y,z
1/2-x,1/2+y,-z
1/2-x,1/2-y,-z
1/2+x,1/2-y,z
loop_
_atom_site_type_symbol
_atom_site_label
_atom_site_fract_x
_atom_site_fract_y
_atom_site_fract_z
Si Si1 0.365052 0.850710 0.623842
Si Si2 0.844768 0.000000 0.311292
Si Si3 0.195767 0.000000 0.546348
Si Si4 0.856273 0.840287 0.254807
Si Si5 0.058968 0.724673 0.116012
Si Si6 0.645206 0.321870 0.919125
Si Si7 0.417359 0.091944 0.122189
Si Si8 0.409317 0.254947 0.517761
O O1 0.512901 0.870546 0.760900
O O2 0.412729 0.819950 0.572528
O O3 0.259916 0.785818 0.601665
O O4 0.268043 0.926602 0.550838
O O5 0.794231 0.926016 0.233641
O O6 0.762808 0.000000 0.341094
O O7 0.020996 0.000000 0.429027
O O8 0.738323 0.779454 0.218124
O O9 0.883885 0.831221 0.184983
O O10 0.010920 0.826412 0.391553
O O11 0.013494 0.799374 0.139158
O O12 0.990744 0.641133 0.099833
O O13 0.000000 0.743277 0.000000
O O14 0.750000 0.250000 0.000000
O O15 0.735517 0.395702 0.008480
O O16 0.452543 0.000000 0.137516
O O17 0.500000 0.232130 0.500000
#
# Coordination Sequence:
#
# PCOD8111760 Si02
#       8
#     8   4   4   8   8   8   8   8
#     4  11  23  39  63  93 122 162 203 247 310 365
#     4  11  24  34  64  93 127 159 184 254 315 377
#     4  11  20  44  56  88 133 159 189 245 325 359
#     4  12  23  38  63  92 126 154 202 248 307 365
#     4  11  22  37  59  89 118 161 198 244 299 355
#     4  10  22  41  56  88 122 162 195 247 304 348
#     4  11  22  38  62  88 125 160 197 249 306 366
#     4  11  23  40  63  92 120 163 208 253 297 367
#
# _framework density 20.135403
#
# number of rings (size 3 to 8) (size 9 to 14) (size 15 to 20)
#    0.000    1.000    5.000    4.286    2.000    1.429 
#    0.000    0.357    0.000    0.429    1.857    0.000 
#    0.000    0.000    0.000    0.000    0.000    0.000 
#
# Total GULP energy -347065.042776 kJ/mol
# GULP energy per Si atom -12395.180099 kJ/mol
# Density = 2.008957 g / cm^3
# Si number density = 20.135403 Si / 1000 Ang^3
#
#
#
# Elastic Constant Matrix: (Units=GPa)
#
#
# Indices 1 2 3 4 5 6 
#
# 1 133.4697 63.0580 47.6381 -0.0005 -17.7486 -0.0001
# 2 63.0580 78.2206 23.0769 -0.0003 -6.1184 -0.0001
# 3 47.6381 23.0769 75.2757 -0.0012 -6.3328 -0.0006
# 4 -0.0005 -0.0003 -0.0012 22.9658 -0.0006 -6.2877
# 5 -17.7486 -6.1184 -6.3328 -0.0006 28.4008 -0.0002
# 6 -0.0001 -0.0001 -0.0006 -6.2877 -0.0002 10.7054
#
#
#
# Elastic Compliance Matrix: (Units=1/GPa)
#
#
# Indices 1 2 3 4 5 6 
#
# 1 0.015146 -0.009964 -0.006028 0.000000 0.005974 0.000000
# 2 -0.009964 0.020736 -0.000203 0.000000 -0.001805 0.000000
# 3 -0.006028 -0.000203 0.017163 0.000001 0.000016 0.000002
# 4 0.000000 0.000000 0.000001 0.051887 0.000002 0.030475
# 5 0.005974 -0.001805 0.000016 0.000002 0.038559 0.000002
# 6 0.000000 0.000000 0.000002 0.030475 0.000002 0.111311
#
#
# Mechanical properties :
#
#
# Convention : Reuss Voigt Hill
#
# Bulk Modulus (GPa) = 48.41526 61.61242 55.01384
# Shear Modulus (GPa) = 17.00245 22.62725 19.81485
#
# Velocity S-wave (km/s) = 2.90902 3.35588 3.14041
# Velocity P-wave (km/s) = 5.94813 6.75880 6.36638
#
# Compressibility (1/GPa) = 0.02065465
#
# Stress axis : x y z
#
# Youngs Moduli (GPa) = 66.02453 48.22579 58.26596
#
# Poissons Ratio (x) = 0.48054 0.35121
# Poissons Ratio (y) = 0.65789 0.01182
# Poissons Ratio (z) = 0.39798 0.00978
#
# Static dielectric constant tensor:
#      x y z
#    x 3.779080 0.000000 0.283740 
#    y 0.000000 4.171910 0.000000 
#    z 0.283740 0.000000 3.892740 
# 
# 
# High freq. dielectric constant tensor:
#      x y z
#    x 1.774370 0.000000 0.004760 
#    y 0.000000 1.765420 0.000000 
#    z 0.004760 0.000000 1.799790 
# 
# From -- ./inp_files/271478.got.cif
#   From: 2010.06.25/outbox.cif.g09.slc.cpg/sg12_136_cif.got.tgz:271478.got - 2010.06.28 00:19:55.
