data_PCOD8111534
_publ_section_title
;
Structure prediction by ZEFSAII (Michael W. Deem and Ramdas Pophale) SiO2 
 PCOD8111534
Probable space group: C 2/M
;
_chemical_formula_sum "Si O2"
_cell_formula_units_Z 48
_cell_length_a 18.689706
_cell_length_b 8.576620
_cell_length_c 29.679958
_cell_angle_alpha 90.000000
_cell_angle_beta 29.778476
_cell_angle_gamma 90.000000
_cell_volume 2362.819553
_symmetry_space_group_name_H-M "C 2/M"
_symmetry_group_IT_number 12
_symmetry_cell_setting 'monoclinic'
loop_
_space_group_symop_operation_xyz
x,y,z
-x,y,-z
-x,-y,-z
x,-y,z
1/2+x,1/2+y,z
1/2-x,1/2+y,-z
1/2-x,1/2-y,-z
1/2+x,1/2-y,z
loop_
_atom_site_type_symbol
_atom_site_label
_atom_site_fract_x
_atom_site_fract_y
_atom_site_fract_z
Si Si1 0.848888 0.671371 0.559335
Si Si2 0.679935 0.816290 0.082802
Si Si3 0.890392 0.180340 0.445265
Si Si4 0.337175 0.314846 0.086142
Si Si5 0.150696 0.682771 0.741751
Si Si6 0.304884 0.183669 0.743215
O O1 0.804022 0.500000 0.564690
O O2 0.867598 0.800121 0.510796
O O3 0.731072 0.725101 0.659031
O O4 0.000000 0.653683 0.500000
O O5 0.758492 0.747675 0.084489
O O6 0.514127 0.766227 0.173150
O O7 0.697187 0.000000 0.072651
O O8 0.750000 0.750000 0.000000
O O9 0.750000 0.250000 0.500000
O O10 0.027789 0.274684 0.352445
O O11 0.910962 0.000000 0.422168
O O12 0.340317 0.500000 0.081961
O O13 0.249341 0.260708 0.178193
O O14 0.500000 0.248668 0.000000
O O15 0.173612 0.500000 0.722007
O O16 0.209738 0.728106 0.758358
O O17 0.284547 0.000000 0.747279
#
# Coordination Sequence:
#
# PCOD8111534 Si02
#       6
#     8   8   8   8   8   8
#     4  11  23  41  65  93 124 163 214 259 308 371
#     4  10  22  40  62  92 122 157 203 253 312 376
#     4  12  26  43  64  91 128 167 210 259 313 371
#     4   9  19  37  62  89 119 158 203 250 306 368
#     4  11  23  38  61  91 126 165 206 257 316 374
#     4  11  22  39  64  91 122 163 210 257 310 371
#
# _framework density 20.314713000000001
#
# number of rings (size 3 to 8) (size 9 to 14) (size 15 to 20)
#    0.000    1.333    1.667    4.000    2.333    3.333 
#    0.000    1.667    0.000    4.500    0.000    0.000 
#    0.000    0.000    0.000    0.000    0.000    0.000 
#
# Total GULP energy -297658.377601 kJ/mol
# GULP energy per Si atom -12402.432400 kJ/mol
# Density = 2.026848 g / cm^3
# Si number density = 20.314713 Si / 1000 Ang^3
#
#
#
# Elastic Constant Matrix: (Units=GPa)
#
#
# Indices 1 2 3 4 5 6 
#
# 1 127.2391 5.8352 85.8574 0.0034 -6.6628 0.0031
# 2 5.8352 48.3289 28.2866 0.0062 -6.6258 0.0087
# 3 85.8574 28.2866 175.4749 0.0002 -0.4282 -0.0065
# 4 0.0034 0.0062 0.0002 43.5327 0.0000 4.0397
# 5 -6.6628 -6.6258 -0.4282 0.0000 44.9969 -0.0017
# 6 0.0031 0.0087 -0.0065 4.0397 -0.0017 31.9858
#
#
#
# Elastic Compliance Matrix: (Units=1/GPa)
#
#
# Indices 1 2 3 4 5 6 
#
# 1 0.012131 0.002535 -0.006339 -0.000001 0.002109 -0.000003
# 2 0.002535 0.023887 -0.005081 -0.000003 0.003844 -0.000007
# 3 -0.006339 -0.005081 0.009616 0.000001 -0.001595 0.000004
# 4 -0.000001 -0.000003 0.000001 0.023244 -0.000001 -0.002936
# 5 0.002109 0.003844 -0.001595 -0.000001 0.023087 0.000000
# 6 -0.000003 -0.000007 0.000004 -0.002936 0.000000 0.031635
#
#
# Mechanical properties :
#
#
# Convention : Reuss Voigt Hill
#
# Bulk Modulus (GPa) = 35.89144 65.66681 50.77913
# Shear Modulus (GPa) = 33.18813 39.50733 36.34773
#
# Velocity S-wave (km/s) = 4.04629 4.41473 4.23452
# Velocity P-wave (km/s) = 6.28777 7.64077 6.99705
#
# Compressibility (1/GPa) = 0.02786179
#
# Stress axis : x y z
#
# Youngs Moduli (GPa) = 82.43575 41.86442 103.99864
#
# Poissons Ratio (x) = -0.10611 0.65923
# Poissons Ratio (y) = -0.20894 0.52845
# Poissons Ratio (z) = 0.52254 0.21272
#
# Static dielectric constant tensor:
#      x y z
#    x 3.826170 -0.000050 -0.013520 
#    y -0.000050 3.430430 0.000010 
#    z -0.013520 0.000010 3.802290 
# 
# 
# High freq. dielectric constant tensor:
#      x y z
#    x 1.806080 0.000000 -0.000520 
#    y 0.000000 1.783850 0.000000 
#    z -0.000520 0.000000 1.810980 
# 
# From -- ./inp_files/377898.got.cif
#   From: 2010.06.25/outbox.cif.g09.slc.cpg/sg12_189_cif.got.tgz:377898.got - 2010.06.28 00:19:55.
