data_PCOD8111142
_publ_section_title
;
Structure prediction by ZEFSAII (Michael W. Deem and Ramdas Pophale) SiO2 
 PCOD8111142
Probable space group: C 2/M
;
_chemical_formula_sum "Si O2"
_cell_formula_units_Z 56
_cell_length_a 9.347018
_cell_length_b 28.341932
_cell_length_c 12.950451
_cell_angle_alpha 90.000000
_cell_angle_beta 128.547750
_cell_angle_gamma 90.000000
_cell_volume 2683.141944
_symmetry_space_group_name_H-M "C 2/M"
_symmetry_group_IT_number 12
_symmetry_cell_setting 'monoclinic'
loop_
_space_group_symop_operation_xyz
x,y,z
-x,y,-z
-x,-y,-z
x,-y,z
1/2+x,1/2+y,z
1/2-x,1/2+y,-z
1/2-x,1/2-y,-z
1/2+x,1/2-y,z
loop_
_atom_site_type_symbol
_atom_site_label
_atom_site_fract_x
_atom_site_fract_y
_atom_site_fract_z
Si Si1 0.697962 0.254364 0.095999
Si Si2 0.461798 0.894508 0.716947
Si Si3 0.844748 0.050924 0.512993
Si Si4 0.824359 0.647583 0.860936
Si Si5 0.684888 0.445639 0.143123
Si Si6 0.926512 0.882286 0.725412
Si Si7 0.383108 0.816219 0.350974
O O1 0.676141 0.203917 0.139809
O O2 0.841620 0.282056 0.234102
O O3 0.500000 0.280215 0.000000
O O4 0.750000 0.250000 0.000000
O O5 0.350750 0.939567 0.627102
O O6 0.345042 0.869102 0.752929
O O7 0.656746 0.915371 0.842748
O O8 0.493258 0.858544 0.636441
O O9 0.894449 0.097586 0.598093
O O10 0.000000 0.045045 0.500000
O O11 0.830252 0.000000 0.565584
O O12 0.641630 0.628614 0.834399
O O13 0.000000 0.627366 0.000000
O O14 0.742530 0.500000 0.177022
O O15 0.646411 0.424817 0.237874
O O16 0.500000 0.438017 0.000000
O O17 0.811988 0.834473 0.693535
O O18 0.500000 0.793289 0.500000
#
# Coordination Sequence:
#
# PCOD8111142 Si02
#       7
#     8   8   8   8   8   8   8
#     4  11  24  45  66  95 130 176 219 263 327 398
#     4  11  22  40  63  91 126 166 213 258 324 380
#     4  11  22  39  63  91 128 166 209 262 319 383
#     4  11  23  41  64  91 123 165 213 265 314 388
#     4  10  22  39  60  90 126 164 210 263 318 382
#     4  11  22  40  64  93 124 166 211 263 324 376
#     4  11  23  41  65  97 132 168 216 275 321 386
#
# _framework density 20.871054999999998
#
# number of rings (size 3 to 8) (size 9 to 14) (size 15 to 20)
#    0.000    1.143    2.857    4.286    0.000    3.429 
#    2.571    4.286    0.000    3.429    0.000    0.000 
#    0.000    0.000    0.000    0.000    0.000    0.000 
#
# Total GULP energy -347022.237657 kJ/mol
# GULP energy per Si atom -12393.651345 kJ/mol
# Density = 2.082355 g / cm^3
# Si number density = 20.871055 Si / 1000 Ang^3
#
#
#
# Elastic Constant Matrix: (Units=GPa)
#
#
# Indices 1 2 3 4 5 6 
#
# 1 119.4606 31.2235 39.1375 0.0000 10.3998 0.0000
# 2 31.2235 82.0993 41.5846 0.0000 4.3006 0.0000
# 3 39.1375 41.5846 116.9838 0.0000 7.3685 0.0000
# 4 0.0000 0.0000 0.0000 38.2139 0.0000 0.2221
# 5 10.3998 4.3006 7.3685 0.0000 32.1817 0.0000
# 6 0.0000 0.0000 0.0000 0.2221 0.0000 50.9283
#
#
#
# Elastic Compliance Matrix: (Units=1/GPa)
#
#
# Indices 1 2 3 4 5 6 
#
# 1 0.009986 -0.002509 -0.002300 0.000000 -0.002365 0.000000
# 2 -0.002509 0.015505 -0.004660 0.000000 -0.000194 0.000000
# 3 -0.002300 -0.004660 0.011047 0.000000 -0.001163 0.000000
# 4 0.000000 0.000000 0.000000 0.026169 0.000000 -0.000114
# 5 -0.002365 -0.000194 -0.001163 0.000000 0.032130 0.000000
# 6 0.000000 0.000000 0.000000 -0.000114 0.000000 0.019636
#
#
# Mechanical properties :
#
#
# Convention : Reuss Voigt Hill
#
# Bulk Modulus (GPa) = 56.81608 60.27053 58.54330
# Shear Modulus (GPa) = 35.89910 38.03797 36.96854
#
# Velocity S-wave (km/s) = 4.15184 4.27373 4.21323
# Velocity P-wave (km/s) = 7.08980 7.30023 7.19578
#
# Compressibility (1/GPa) = 0.01760065
#
# Stress axis : x y z
#
# Youngs Moduli (GPa) = 100.13842 64.49478 90.51827
#
# Poissons Ratio (x) = 0.16181 0.20820
# Poissons Ratio (y) = 0.25124 0.42182
# Poissons Ratio (z) = 0.23033 0.30055
#
# Static dielectric constant tensor:
#      x y z
#    x 3.915700 0.000000 0.168480 
#    y 0.000000 3.738210 0.000000 
#    z 0.168480 0.000000 3.832850 
# 
# 
# High freq. dielectric constant tensor:
#      x y z
#    x 1.832760 0.000000 0.008350 
#    y 0.000000 1.809870 0.000000 
#    z 0.008350 0.000000 1.815330 
# 
# From -- ./inp_files/125831.got.cif
#   From: 2010.06.25/outbox.cif.g09.slc.cpg/sg12_63_cif.got.tgz:125831.got - 2010.06.28 00:19:55.
