data_PCOD8111208
_publ_section_title
;
Structure prediction by ZEFSAII (Michael W. Deem and Ramdas Pophale) SiO2 
 PCOD8111208
Probable space group: C 2/M
;
_chemical_formula_sum "Si O2"
_cell_formula_units_Z 40
_cell_length_a 20.654893
_cell_length_b 9.265417
_cell_length_c 10.384296
_cell_angle_alpha 90.000000
_cell_angle_beta 82.517094
_cell_angle_gamma 90.000000
_cell_volume 1970.382689
_symmetry_space_group_name_H-M "C 2/M"
_symmetry_group_IT_number 12
_symmetry_cell_setting 'monoclinic'
loop_
_space_group_symop_operation_xyz
x,y,z
-x,y,-z
-x,-y,-z
x,-y,z
1/2+x,1/2+y,z
1/2-x,1/2+y,-z
1/2-x,1/2-y,-z
1/2+x,1/2-y,z
loop_
_atom_site_type_symbol
_atom_site_label
_atom_site_fract_x
_atom_site_fract_y
_atom_site_fract_z
Si Si1 0.314228 0.334072 0.441842
Si Si2 0.943174 0.669719 0.413154
Si Si3 0.291266 0.662479 0.153538
Si Si4 0.344040 0.168218 0.913060
Si Si5 0.512998 0.170561 0.140155
O O1 0.311419 0.500000 0.491072
O O2 0.250000 0.250000 0.500000
O O3 0.379080 0.255517 0.477476
O O4 0.318355 0.326058 0.288103
O O5 0.926573 0.500000 0.415472
O O6 0.000000 0.702835 0.500000
O O7 0.964972 0.727092 0.265277
O O8 0.295207 0.500000 0.099289
O O9 0.215160 0.714520 0.166054
O O10 0.336741 0.760860 0.054625
O O11 0.413483 0.215045 0.835468
O O12 0.344586 0.000000 0.940223
O O13 0.505049 0.000000 0.135928
O O14 0.500000 0.235885 0.000000
#
# Coordination Sequence:
#
# PCOD8111208 Si02
#       5
#     8   8   8   8   8
#     4  11  24  40  60  84 116 156 200 246 292 348
#     4  10  22  39  62  88 117 155 198 243 296 356
#     4   9  19  34  53  80 113 147 188 238 291 341
#     4   9  17  31  55  81 110 145 186 237 287 345
#     4   9  17  30  53  83 111 145 189 234 284 345
#
# _framework density 20.300626000000001
#
# number of rings (size 3 to 8) (size 9 to 14) (size 15 to 20)
#    0.000    2.400    0.000    1.800    2.800    3.600 
#    0.000    1.000    0.000    3.600    0.000    0.000 
#    0.000    0.000    0.000    0.000    0.000    0.000 
#
# Total GULP energy -247909.319299 kJ/mol
# GULP energy per Si atom -12395.465965 kJ/mol
# Density = 2.025442 g / cm^3
# Si number density = 20.300626 Si / 1000 Ang^3
#
#
#
# Elastic Constant Matrix: (Units=GPa)
#
#
# Indices 1 2 3 4 5 6 
#
# 1 133.8521 58.9290 37.0338 0.0000 -17.5081 0.0000
# 2 58.9290 69.2722 23.3194 0.0000 -8.4391 0.0000
# 3 37.0338 23.3194 60.0402 0.0000 -3.2604 0.0000
# 4 0.0000 0.0000 0.0000 23.3080 0.0000 -4.4398
# 5 -17.5081 -8.4391 -3.2604 0.0000 33.5361 0.0000
# 6 0.0000 0.0000 0.0000 -4.4398 0.0000 30.4197
#
#
#
# Elastic Compliance Matrix: (Units=1/GPa)
#
#
# Indices 1 2 3 4 5 6 
#
# 1 0.013358 -0.009383 -0.004368 0.000000 0.004188 0.000000
# 2 -0.009383 0.023635 -0.003353 0.000000 0.000723 0.000000
# 3 -0.004368 -0.003353 0.020591 0.000000 -0.001122 0.000000
# 4 0.000000 0.000000 0.000000 0.044131 0.000000 0.006441
# 5 0.004188 0.000723 -0.001122 0.000000 0.032078 0.000000
# 6 0.000000 0.000000 0.000000 0.006441 0.000000 0.033813
#
#
# Mechanical properties :
#
#
# Convention : Reuss Voigt Hill
#
# Bulk Modulus (GPa) = 42.77796 55.74767 49.26281
# Shear Modulus (GPa) = 23.85442 27.04490 25.44966
#
# Velocity S-wave (km/s) = 3.43163 3.65392 3.54452
# Velocity P-wave (km/s) = 6.06790 6.73217 6.40865
#
# Compressibility (1/GPa) = 0.02337653
#
# Stress axis : x y z
#
# Youngs Moduli (GPa) = 74.86088 42.31093 48.56526
#
# Poissons Ratio (x) = 0.39701 0.21212
# Poissons Ratio (y) = 0.70242 0.16283
# Poissons Ratio (z) = 0.32697 0.14186
#
# Static dielectric constant tensor:
#      x y z
#    x 3.936500 0.000000 -0.009500 
#    y 0.000000 3.506760 0.000000 
#    z -0.009500 0.000000 3.722610 
# 
# 
# High freq. dielectric constant tensor:
#      x y z
#    x 1.811250 0.000000 0.000040 
#    y 0.000000 1.761000 0.000000 
#    z 0.000040 0.000000 1.784440 
# 
# From -- ./inp_files/162495.got.cif
#   From: 2010.06.25/outbox.cif.g09.slc.cpg/sg12_82_cif.got.tgz:162495.got - 2010.06.28 00:19:55.
