data_PCOD8111998
_publ_section_title
;
Structure prediction by ZEFSAII (Michael W. Deem and Ramdas Pophale) SiO2 
 PCOD8111998
Probable space group: C 2/M
;
_chemical_formula_sum "Si O2"
_cell_formula_units_Z 48
_cell_length_a 28.616064
_cell_length_b 8.497894
_cell_length_c 15.877928
_cell_angle_alpha 90.000000
_cell_angle_beta 37.207529
_cell_angle_gamma 90.000000
_cell_volume 2334.843191
_symmetry_space_group_name_H-M "C 2/M"
_symmetry_group_IT_number 12
_symmetry_cell_setting 'monoclinic'
loop_
_space_group_symop_operation_xyz
x,y,z
-x,y,-z
-x,-y,-z
x,-y,z
1/2+x,1/2+y,z
1/2-x,1/2+y,-z
1/2-x,1/2-y,-z
1/2+x,1/2-y,z
loop_
_atom_site_type_symbol
_atom_site_label
_atom_site_fract_x
_atom_site_fract_y
_atom_site_fract_z
Si Si1 0.230632 0.316708 0.118641
Si Si2 0.490791 0.317197 0.757248
Si Si3 0.357828 0.182016 0.054508
Si Si4 0.190286 0.818228 0.704812
Si Si5 0.355024 0.817564 0.400777
Si Si6 0.430715 0.316745 0.661163
O O1 0.250481 0.500000 0.093296
O O2 0.280484 0.229946 0.117196
O O3 0.141187 0.286068 0.267187
O O4 0.250000 0.250000 0.000000
O O5 0.512319 0.500000 0.726449
O O6 0.569245 0.219308 0.654070
O O7 0.452043 0.266495 0.725129
O O8 0.431282 0.280434 0.917286
O O9 0.346086 0.213122 0.169819
O O10 0.375642 0.000000 0.013528
O O11 0.280176 0.771967 0.563602
O O12 0.143266 0.783969 0.686984
O O13 0.181137 0.000000 0.742624
O O14 0.351704 0.000000 0.380602
O O15 0.500000 0.274557 0.500000
O O16 0.408524 0.500000 0.688679
#
# Coordination Sequence:
#
# PCOD8111998 Si02
#       6
#     8   8   8   8   8   8
#     4  12  24  41  64  91 125 165 207 253 306 363
#     4  11  23  40  63  91 127 164 205 257 311 365
#     4  12  25  41  64  92 125 164 208 255 307 366
#     4  10  22  42  66  94 125 160 205 253 307 369
#     4  10  22  41  65  93 127 162 203 253 308 368
#     4  10  23  42  63  92 126 164 208 255 308 364
#
# _framework density 20.558125
#
# number of rings (size 3 to 8) (size 9 to 14) (size 15 to 20)
#    0.000    1.167    1.667    4.500    2.333    3.667 
#    0.000    3.333    0.000    0.000    0.000    0.000 
#    0.000    0.000    0.000    0.000    0.000    0.000 
#
# Total GULP energy -297799.045217 kJ/mol
# GULP energy per Si atom -12408.293551 kJ/mol
# Density = 2.051133 g / cm^3
# Si number density = 20.558125 Si / 1000 Ang^3
#
#
#
# Elastic Constant Matrix: (Units=GPa)
#
#
# Indices 1 2 3 4 5 6 
#
# 1 46.6977 14.8708 16.1842 0.0001 -8.9020 -0.0002
# 2 14.8708 58.6611 17.2034 -0.0006 3.7448 0.0008
# 3 16.1842 17.2034 95.9073 0.0001 3.4679 -0.0001
# 4 0.0001 -0.0006 0.0001 31.0811 -0.0001 -2.9431
# 5 -8.9020 3.7448 3.4679 -0.0001 36.4413 -0.0001
# 6 -0.0002 0.0008 -0.0001 -2.9431 -0.0001 35.4312
#
#
#
# Elastic Compliance Matrix: (Units=1/GPa)
#
#
# Indices 1 2 3 4 5 6 
#
# 1 0.025951 -0.005998 -0.003567 0.000000 0.007295 0.000000
# 2 -0.005998 0.019467 -0.002363 0.000000 -0.003241 0.000000
# 3 -0.003567 -0.002363 0.011515 0.000000 -0.001724 0.000000
# 4 0.000000 0.000000 0.000000 0.032429 0.000000 0.002694
# 5 0.007295 -0.003241 -0.001724 0.000000 0.029721 0.000000
# 6 0.000000 0.000000 0.000000 0.002694 0.000000 0.028447
#
#
# Mechanical properties :
#
#
# Convention : Reuss Voigt Hill
#
# Bulk Modulus (GPa) = 30.23193 33.08700 31.65946
# Shear Modulus (GPa) = 27.41034 30.79124 29.10079
#
# Velocity S-wave (km/s) = 3.65541 3.87430 3.76644
# Velocity P-wave (km/s) = 5.70557 6.01189 5.86073
#
# Compressibility (1/GPa) = 0.03307761
#
# Stress axis : x y z
#
# Youngs Moduli (GPa) = 38.53344 51.36776 86.84456
#
# Poissons Ratio (x) = 0.30812 0.30978
# Poissons Ratio (y) = 0.23114 0.20518
# Poissons Ratio (z) = 0.13745 0.12136
#
# Static dielectric constant tensor:
#      x y z
#    x 3.769070 0.000000 -0.076670 
#    y 0.000000 3.911750 0.000000 
#    z -0.076670 0.000000 3.748760 
# 
# 
# High freq. dielectric constant tensor:
#      x y z
#    x 1.806020 0.000000 -0.002580 
#    y 0.000000 1.809830 0.000000 
#    z -0.002580 0.000000 1.811490 
# 
# From -- ./inp_files/244681.got.cif
#   From: 2010.06.25/outbox.cif.g09.slc.cpg/sg12_123_cif.got.tgz:244681.got - 2010.06.28 00:19:55.
