data_PCOD8111108
_publ_section_title
;
Structure prediction by ZEFSAII (Michael W. Deem and Ramdas Pophale) SiO2 
 PCOD8111108
Probable space group: C 2/M
;
_chemical_formula_sum "Si O2"
_cell_formula_units_Z 56
_cell_length_a 12.251451
_cell_length_b 28.386417
_cell_length_c 8.896811
_cell_angle_alpha 90.000000
_cell_angle_beta 74.212534
_cell_angle_gamma 90.000000
_cell_volume 2977.370062
_symmetry_space_group_name_H-M "C 2/M"
_symmetry_group_IT_number 12
_symmetry_cell_setting 'monoclinic'
loop_
_space_group_symop_operation_xyz
x,y,z
-x,y,-z
-x,-y,-z
x,-y,z
1/2+x,1/2+y,z
1/2-x,1/2+y,-z
1/2-x,1/2-y,-z
1/2+x,1/2-y,z
loop_
_atom_site_type_symbol
_atom_site_label
_atom_site_fract_x
_atom_site_fract_y
_atom_site_fract_z
Si Si1 0.224931 0.134014 0.829495
Si Si2 0.597095 0.945535 0.755706
Si Si3 0.158307 0.725551 0.640618
Si Si4 0.118604 0.629944 0.513284
Si Si5 0.983211 0.196597 0.165730
Si Si6 0.264564 0.299224 0.914041
Si Si7 0.341160 0.053598 0.931128
O O1 0.290068 0.137899 0.649383
O O2 0.096399 0.150759 0.839590
O O3 0.238429 0.081131 0.887153
O O4 0.283241 0.164816 0.941711
O O5 0.659339 0.909838 0.617055
O O6 0.464345 0.931888 0.819883
O O7 0.609909 0.000000 0.698457
O O8 0.660350 0.938024 0.889958
O O9 0.250000 0.750000 0.500000
O O10 0.096389 0.681551 0.589214
O O11 0.068958 0.767113 0.697945
O O12 0.202156 0.703442 0.779632
O O13 0.000000 0.609971 0.500000
O O14 0.107977 0.183318 0.177038
O O15 0.000000 0.223401 0.000000
O O16 0.250000 0.250000 0.000000
O O17 0.316455 0.000000 0.901596
#
# Coordination Sequence:
#
# PCOD8111108 Si02
#       7
#     8   8   8   8   8   8   8
#     4  11  21  39  54  86 117 151 201 234 291 353
#     4   9  19  36  56  86 121 158 193 236 299 359
#     4  12  24  38  56  85 117 149 201 243 292 346
#     4  12  24  34  53  87 123 159 189 242 292 350
#     4  10  22  39  60  79 111 153 195 249 286 346
#     4  11  22  40  60  78 107 154 199 242 293 346
#     4   9  18  35  60  85 117 156 196 238 294 361
#
# _framework density 18.808544999999999
#
# number of rings (size 3 to 8) (size 9 to 14) (size 15 to 20)
#    0.000    1.429    5.714    1.714    4.000    0.857 
#    2.571    0.000    0.000    3.857    0.000    0.000 
#    0.000   22.857    0.000    0.000    0.000    0.000 
#
# Total GULP energy -346913.311921 kJ/mol
# GULP energy per Si atom -12389.761140 kJ/mol
# Density = 1.876574 g / cm^3
# Si number density = 18.808545 Si / 1000 Ang^3
#
#
#
# Elastic Constant Matrix: (Units=GPa)
#
#
# Indices 1 2 3 4 5 6 
#
# 1 64.5537 30.9211 22.0605 0.0000 -0.8516 0.0000
# 2 30.9211 107.8602 45.1976 0.0000 1.8246 0.0000
# 3 22.0605 45.1976 116.4500 0.0000 -6.8976 0.0000
# 4 0.0000 0.0000 0.0000 33.9776 0.0000 2.3331
# 5 -0.8516 1.8246 -6.8976 0.0000 25.0216 0.0000
# 6 0.0000 0.0000 0.0000 2.3331 0.0000 29.8328
#
#
#
# Elastic Compliance Matrix: (Units=1/GPa)
#
#
# Indices 1 2 3 4 5 6 
#
# 1 0.018241 -0.004540 -0.001664 0.000000 0.000493 0.000000
# 2 -0.004540 0.012304 -0.004044 0.000000 -0.002166 0.000000
# 3 -0.001664 -0.004044 0.010660 0.000000 0.003177 0.000000
# 4 0.000000 0.000000 0.000000 0.029590 0.000000 -0.002314
# 5 0.000493 -0.002166 0.003177 0.000000 0.041016 0.000000
# 6 0.000000 0.000000 0.000000 -0.002314 0.000000 0.033701
#
#
# Mechanical properties :
#
#
# Convention : Reuss Voigt Hill
#
# Bulk Modulus (GPa) = 48.28844 53.91358 51.10101
# Shear Modulus (GPa) = 28.91647 30.47871 29.69759
#
# Velocity S-wave (km/s) = 3.92524 4.02987 3.97790
# Velocity P-wave (km/s) = 6.80241 7.09787 6.95171
#
# Compressibility (1/GPa) = 0.02070889
#
# Stress axis : x y z
#
# Youngs Moduli (GPa) = 54.82166 81.27450 93.80587
#
# Poissons Ratio (x) = 0.36901 0.15611
# Poissons Ratio (y) = 0.24890 0.37933
# Poissons Ratio (z) = 0.09123 0.32865
#
# Static dielectric constant tensor:
#      x y z
#    x 2.944150 0.000000 -0.506220 
#    y 0.000000 3.503170 0.000000 
#    z -0.506220 0.000000 3.186860 
# 
# 
# High freq. dielectric constant tensor:
#      x y z
#    x 1.701900 0.000000 0.009800 
#    y 0.000000 1.726560 0.000000 
#    z 0.009800 0.000000 1.745670 
# 
# From -- ./inp_files/54147.got.cif
#   From: 2010.06.25/outbox.cif.g09.slc.cpg/sg12_28_cif.got.tgz:54147.got - 2010.06.28 00:19:55.
