data_PCOD8111703
_publ_section_title
;
Structure prediction by ZEFSAII (Michael W. Deem and Ramdas Pophale) SiO2 
 PCOD8111703
Probable space group: C 2/M
;
_chemical_formula_sum "Si O2"
_cell_formula_units_Z 44
_cell_length_a 12.826844
_cell_length_b 17.664763
_cell_length_c 10.696117
_cell_angle_alpha 90.000000
_cell_angle_beta 56.578361
_cell_angle_gamma 90.000000
_cell_volume 2022.799868
_symmetry_space_group_name_H-M "C 2/M"
_symmetry_group_IT_number 12
_symmetry_cell_setting 'monoclinic'
loop_
_space_group_symop_operation_xyz
x,y,z
-x,y,-z
-x,-y,-z
x,-y,z
1/2+x,1/2+y,z
1/2-x,1/2+y,-z
1/2-x,1/2-y,-z
1/2+x,1/2-y,z
loop_
_atom_site_type_symbol
_atom_site_label
_atom_site_fract_x
_atom_site_fract_y
_atom_site_fract_z
Si Si1 0.752216 0.085914 0.449935
Si Si2 0.747422 0.337229 0.047159
Si Si3 0.505166 0.349816 0.638161
Si Si4 0.000000 0.319407 0.000000
Si Si5 0.568128 0.193001 0.686558
Si Si6 0.841452 0.587682 0.761462
O O1 0.696757 0.146159 0.586720
O O2 0.704088 0.109532 0.345624
O O3 0.902130 0.093215 0.351127
O O4 0.713338 0.000000 0.508904
O O5 0.631327 0.353195 0.212213
O O6 0.874870 0.363367 0.036332
O O7 0.750000 0.250000 0.000000
O O8 0.734805 0.389393 0.932193
O O9 0.500000 0.377740 0.500000
O O10 0.564214 0.265831 0.601559
O O11 0.952910 0.275694 0.156543
O O12 0.463754 0.134578 0.712065
O O13 0.874727 0.500000 0.749284
#
# Coordination Sequence:
#
# PCOD8111703 Si02
#       6
#     8   8   8   4   8   8
#     4  11  25  42  65  95 132 175 214 269 330 385
#     4  11  23  41  64  96 132 167 212 266 320 377
#     4  12  25  41  65  97 129 172 220 265 328 385
#     4  10  22  40  65  98 123 172 214 262 328 374
#     4  11  22  40  67  95 132 166 224 270 318 383
#     4  10  22  41  67  96 127 171 220 269 325 381
#
# _framework density 21.752029
#
# number of rings (size 3 to 8) (size 9 to 14) (size 15 to 20)
#    0.000    1.091    3.636    3.818    2.545    3.273 
#    0.000   16.818    0.000    0.000    0.000    0.000 
#    0.000    0.000    0.000    0.000    0.000    0.000 
#
# Total GULP energy -272635.423303 kJ/mol
# GULP energy per Si atom -12392.519241 kJ/mol
# Density = 2.170252 g / cm^3
# Si number density = 21.752029 Si / 1000 Ang^3
#
#
#
# Elastic Constant Matrix: (Units=GPa)
#
#
# Indices 1 2 3 4 5 6 
#
# 1 108.9481 29.2430 51.3575 0.0000 -3.7704 0.0000
# 2 29.2430 65.1855 19.9062 0.0000 6.4900 0.0000
# 3 51.3575 19.9062 127.1638 0.0000 -8.2008 0.0000
# 4 0.0000 0.0000 0.0000 16.0673 0.0000 -1.9489
# 5 -3.7704 6.4900 -8.2008 0.0000 39.4407 0.0000
# 6 0.0000 0.0000 0.0000 -1.9489 0.0000 28.0433
#
#
#
# Elastic Compliance Matrix: (Units=1/GPa)
#
#
# Indices 1 2 3 4 5 6 
#
# 1 0.012390 -0.004360 -0.004256 0.000000 0.001017 0.000000
# 2 -0.004360 0.018059 -0.001302 0.000000 -0.003659 0.000000
# 3 -0.004256 -0.001302 0.009907 0.000000 0.001867 0.000000
# 4 0.000000 0.000000 0.000000 0.062767 0.000000 0.004362
# 5 0.001017 -0.003659 0.001867 0.000000 0.026442 0.000000
# 6 0.000000 0.000000 0.000000 0.004362 0.000000 0.035962
#
#
# Mechanical properties :
#
#
# Convention : Reuss Voigt Hill
#
# Bulk Modulus (GPa) = 48.73287 55.81231 52.27259
# Shear Modulus (GPa) = 26.01404 30.09630 28.05517
#
# Velocity S-wave (km/s) = 3.46198 3.72372 3.59524
# Velocity P-wave (km/s) = 6.19943 6.64848 6.42788
#
# Compressibility (1/GPa) = 0.02052003
#
# Stress axis : x y z
#
# Youngs Moduli (GPa) = 80.70752 55.37487 100.93903
#
# Poissons Ratio (x) = 0.24144 0.42960
# Poissons Ratio (y) = 0.35189 0.13142
# Poissons Ratio (z) = 0.34349 0.07210
#
# Static dielectric constant tensor:
#      x y z
#    x 4.129800 0.000000 0.019330 
#    y 0.000000 3.709910 0.000000 
#    z 0.019330 0.000000 4.409200 
# 
# 
# High freq. dielectric constant tensor:
#      x y z
#    x 1.865290 0.000000 -0.000260 
#    y 0.000000 1.826110 0.000000 
#    z -0.000260 0.000000 1.869370 
# 
# From -- ./inp_files/145349.got.cif
#   From: 2010.06.25/outbox.cif.g09.slc.cpg/sg12_73_cif.got.tgz:145349.got - 2010.06.28 00:19:55.
