data_PCOD8111491
_publ_section_title
;
Structure prediction by ZEFSAII (Michael W. Deem and Ramdas Pophale) SiO2 
 PCOD8111491
Probable space group: C 2/M
;
_chemical_formula_sum "Si O2"
_cell_formula_units_Z 40
_cell_length_a 17.760944
_cell_length_b 16.255904
_cell_length_c 13.037233
_cell_angle_alpha 90.000000
_cell_angle_beta 151.318673
_cell_angle_gamma 90.000000
_cell_volume 1806.539153
_symmetry_space_group_name_H-M "C 2/M"
_symmetry_group_IT_number 12
_symmetry_cell_setting 'monoclinic'
loop_
_space_group_symop_operation_xyz
x,y,z
-x,y,-z
-x,-y,-z
x,-y,z
1/2+x,1/2+y,z
1/2-x,1/2+y,-z
1/2-x,1/2-y,-z
1/2+x,1/2-y,z
loop_
_atom_site_type_symbol
_atom_site_label
_atom_site_fract_x
_atom_site_fract_y
_atom_site_fract_z
Si Si1 0.760512 0.156622 0.476695
Si Si2 0.918298 0.654683 0.106289
Si Si3 0.547732 0.665633 0.941765
Si Si4 0.864296 0.405042 0.261878
Si Si5 0.164993 0.094327 0.651267
O O1 0.750000 0.250000 0.500000
O O2 0.592325 0.115096 0.299456
O O3 0.794661 0.151741 0.396728
O O4 0.904881 0.117548 0.713441
O O5 0.911826 0.749499 0.066499
O O6 0.869368 0.649501 0.165979
O O7 0.798481 0.601640 0.896178
O O8 0.500000 0.686231 0.000000
O O9 0.698118 0.606859 0.119439
O O10 0.888371 0.500000 0.261619
O O11 0.000000 0.373960 0.500000
O O12 0.000000 0.124650 0.500000
O O13 0.153392 0.000000 0.600388
#
# Coordination Sequence:
#
# PCOD8111491 Si02
#       5
#     8   8   8   8   8
#     4  10  22  40  61  92 127 161 202 250 309 370
#     4  11  22  41  66  94 125 160 207 259 312 367
#     4  11  23  42  67  93 123 162 210 259 308 366
#     4  11  25  43  63  91 128 168 208 252 306 370
#     4  11  24  41  64  95 128 162 204 258 315 367
#
# _framework density 22.141784999999999
#
# number of rings (size 3 to 8) (size 9 to 14) (size 15 to 20)
#    0.000    1.200    0.000    6.600    0.000    9.200 
#    0.000    0.000    0.000    0.000    0.000    0.000 
#    0.000    0.000    0.000    0.000    0.000    0.000 
#
# Total GULP energy -248087.571569 kJ/mol
# GULP energy per Si atom -12404.378578 kJ/mol
# Density = 2.209139 g / cm^3
# Si number density = 22.141785 Si / 1000 Ang^3
#
#
#
# Elastic Constant Matrix: (Units=GPa)
#
#
# Indices 1 2 3 4 5 6 
#
# 1 161.9127 44.6629 72.1136 0.0000 -8.2560 0.0000
# 2 44.6629 50.1519 25.1084 0.0000 -7.4763 0.0000
# 3 72.1136 25.1084 196.1940 0.0000 11.7711 0.0000
# 4 0.0000 0.0000 0.0000 16.7964 0.0000 -3.3956
# 5 -8.2560 -7.4763 11.7711 0.0000 57.0338 0.0000
# 6 0.0000 0.0000 0.0000 -3.3956 0.0000 22.0362
#
#
#
# Elastic Compliance Matrix: (Units=1/GPa)
#
#
# Indices 1 2 3 4 5 6 
#
# 1 0.009256 -0.006799 -0.002591 0.000000 0.000983 0.000000
# 2 -0.006799 0.026969 -0.001119 0.000000 0.002782 0.000000
# 3 -0.002591 -0.001119 0.006302 0.000000 -0.001822 0.000000
# 4 0.000000 0.000000 0.000000 0.061451 0.000000 0.009469
# 5 0.000983 0.002782 -0.001822 0.000000 0.018417 0.000000
# 6 0.000000 0.000000 0.000000 0.009469 0.000000 0.046839
#
#
# Mechanical properties :
#
#
# Convention : Reuss Voigt Hill
#
# Bulk Modulus (GPa) = 46.49318 76.89204 61.69261
# Shear Modulus (GPa) = 25.32653 36.93153 31.12903
#
# Velocity S-wave (km/s) = 3.38573 4.08849 3.75359
# Velocity P-wave (km/s) = 6.02725 7.55581 6.83440
#
# Compressibility (1/GPa) = 0.02150853
#
# Stress axis : x y z
#
# Youngs Moduli (GPa) = 108.04102 37.07903 158.68179
#
# Poissons Ratio (x) = 0.25210 0.41114
# Poissons Ratio (y) = 0.73457 0.17762
# Poissons Ratio (z) = 0.27993 0.04150
#
# Static dielectric constant tensor:
#      x y z
#    x 4.050820 0.000000 0.338090 
#    y 0.000000 3.545670 0.000000 
#    z 0.338090 0.000000 4.770390 
# 
# 
# High freq. dielectric constant tensor:
#      x y z
#    x 1.882560 0.000000 0.007090 
#    y 0.000000 1.844900 0.000000 
#    z 0.007090 0.000000 1.899400 
# 
# From -- ./inp_files/61405.got.cif
#   From: 2010.06.25/outbox.cif.g09.slc.cpg/sg12_31_cif.got.tgz:61405.got - 2010.06.28 00:19:55.
