data_PCOD8111375
_publ_section_title
;
Structure prediction by ZEFSAII (Michael W. Deem and Ramdas Pophale) SiO2 
 PCOD8111375
Probable space group: C 2/M
;
_chemical_formula_sum "Si O2"
_cell_formula_units_Z 56
_cell_length_a 17.919560
_cell_length_b 8.886005
_cell_length_c 28.769993
_cell_angle_alpha 90.000000
_cell_angle_beta 39.055139
_cell_angle_gamma 90.000000
_cell_volume 2886.430258
_symmetry_space_group_name_H-M "C 2/M"
_symmetry_group_IT_number 12
_symmetry_cell_setting 'monoclinic'
loop_
_space_group_symop_operation_xyz
x,y,z
-x,y,-z
-x,-y,-z
x,-y,z
1/2+x,1/2+y,z
1/2-x,1/2+y,-z
1/2-x,1/2-y,-z
1/2+x,1/2-y,z
loop_
_atom_site_type_symbol
_atom_site_label
_atom_site_fract_x
_atom_site_fract_y
_atom_site_fract_z
Si Si1 0.050937 0.322160 0.796368
Si Si2 0.653574 0.822604 0.648529
Si Si3 0.697659 0.673555 0.070543
Si Si4 0.212320 0.822285 0.794921
Si Si5 0.133333 0.672068 0.924558
Si Si6 0.974852 0.324487 0.656729
Si Si7 0.175703 0.675630 0.495454
O O1 0.038898 0.500000 0.806438
O O2 0.121960 0.273897 0.715872
O O3 0.117613 0.260040 0.808766
O O4 0.921363 0.253531 0.855623
O O5 0.553052 0.758586 0.661717
O O6 0.781948 0.749842 0.573545
O O7 0.666197 0.000000 0.637100
O O8 0.670899 0.500000 0.072666
O O9 0.792979 0.693481 0.064570
O O10 0.750000 0.750000 0.000000
O O11 0.185094 0.784103 0.861243
O O12 0.342992 0.756108 0.719678
O O13 0.203447 0.000000 0.791016
O O14 0.139010 0.500000 0.903729
O O15 0.000000 0.720577 0.000000
O O16 0.962269 0.500000 0.672710
O O17 0.037999 0.294233 0.576006
O O18 0.202537 0.500000 0.480480
O O19 0.250000 0.750000 0.500000
#
# Coordination Sequence:
#
# PCOD8111375 Si02
#       7
#     8   8   8   8   8   8   8
#     4  11  23  39  57  79 114 153 188 233 283 328
#     4   9  18  34  55  78 106 143 186 230 279 332
#     4  11  23  39  62  90 118 149 186 226 272 331
#     4  11  22  37  58  82 110 146 190 233 276 334
#     4  10  22  40  60  84 115 146 177 221 276 328
#     4   8  16  32  53  78 106 138 178 225 277 331
#     4   9  16  29  51  78 108 140 178 226 279 335
#
# _framework density 19.401126999999999
#
# number of rings (size 3 to 8) (size 9 to 14) (size 15 to 20)
#    0.000    2.143    0.000    4.286    0.000    4.857 
#    0.000    9.286    0.000    4.286    0.000    0.000 
#    0.000    0.000    0.000    0.000    0.000    0.000 
#
# Total GULP energy -347157.118296 kJ/mol
# GULP energy per Si atom -12398.468511 kJ/mol
# Density = 1.935697 g / cm^3
# Si number density = 19.401127 Si / 1000 Ang^3
#
#
#
# Elastic Constant Matrix: (Units=GPa)
#
#
# Indices 1 2 3 4 5 6 
#
# 1 69.5535 28.7819 44.9437 0.0004 -4.6650 0.0018
# 2 28.7819 76.1274 60.5919 0.0008 3.7812 0.0030
# 3 44.9437 60.5919 159.2727 -0.0002 -2.7038 -0.0006
# 4 0.0004 0.0008 -0.0002 37.1000 0.0000 2.3940
# 5 -4.6650 3.7812 -2.7038 0.0000 33.2440 0.0009
# 6 0.0018 0.0030 -0.0006 2.3940 0.0009 22.5245
#
#
#
# Elastic Compliance Matrix: (Units=1/GPa)
#
#
# Indices 1 2 3 4 5 6 
#
# 1 0.018675 -0.004367 -0.003560 0.000000 0.002828 -0.000001
# 2 -0.004367 0.020113 -0.006477 0.000000 -0.003427 -0.000002
# 3 -0.003560 -0.006477 0.009765 0.000000 0.001031 0.000001
# 4 0.000000 0.000000 0.000000 0.027140 0.000000 -0.002885
# 5 0.002828 -0.003427 0.001031 0.000000 0.030951 -0.000001
# 6 -0.000001 -0.000002 0.000001 -0.002885 -0.000001 0.044703
#
#
# Mechanical properties :
#
#
# Convention : Reuss Voigt Hill
#
# Bulk Modulus (GPa) = 50.65134 63.73207 57.19171
# Shear Modulus (GPa) = 26.77562 29.94943 28.36252
#
# Velocity S-wave (km/s) = 3.71901 3.93325 3.82763
# Velocity P-wave (km/s) = 6.67873 7.31767 7.00549
#
# Compressibility (1/GPa) = 0.01974281
#
# Stress axis : x y z
#
# Youngs Moduli (GPa) = 53.54804 49.71987 102.40840
#
# Poissons Ratio (x) = 0.21714 0.36460
# Poissons Ratio (y) = 0.23386 0.66333
# Poissons Ratio (z) = 0.19064 0.32205
#
# Static dielectric constant tensor:
#      x y z
#    x 3.436030 0.000070 -0.148880 
#    y 0.000070 3.114340 0.000080 
#    z -0.148880 0.000080 4.043620 
# 
# 
# High freq. dielectric constant tensor:
#      x y z
#    x 1.737950 0.000000 -0.002720 
#    y 0.000000 1.748150 0.000000 
#    z -0.002720 0.000000 1.778090 
# 
# From -- ./inp_files/275144.got.cif
#   From: 2010.06.25/outbox.cif.g09.slc.cpg/sg12_138_cif.got.tgz:275144.got - 2010.06.28 00:19:55.
