data_PCOD8111984
_publ_section_title
;
Structure prediction by ZEFSAII (Michael W. Deem and Ramdas Pophale) SiO2 
 PCOD8111984
Probable space group: C 2/M
;
_chemical_formula_sum "Si O2"
_cell_formula_units_Z 56
_cell_length_a 9.568034
_cell_length_b 13.005556
_cell_length_c 25.604072
_cell_angle_alpha 90.000000
_cell_angle_beta 129.433918
_cell_angle_gamma 90.000000
_cell_volume 2460.816035
_symmetry_space_group_name_H-M "C 2/M"
_symmetry_group_IT_number 12
_symmetry_cell_setting 'monoclinic'
loop_
_space_group_symop_operation_xyz
x,y,z
-x,y,-z
-x,-y,-z
x,-y,z
1/2+x,1/2+y,z
1/2-x,1/2+y,-z
1/2-x,1/2-y,-z
1/2+x,1/2-y,z
loop_
_atom_site_type_symbol
_atom_site_label
_atom_site_fract_x
_atom_site_fract_y
_atom_site_fract_z
Si Si1 0.708930 0.880018 0.794134
Si Si2 0.494857 0.382579 0.333535
Si Si3 0.229831 0.617149 0.075504
Si Si4 0.811019 0.620521 0.664503
Si Si5 0.789833 0.267941 0.450401
Si Si6 0.016315 0.799248 0.060786
Si Si7 0.035669 0.884967 0.230819
O O1 0.497049 0.858792 0.739777
O O2 0.796179 0.833409 0.867326
O O3 0.806696 0.831652 0.766060
O O4 0.758187 0.000000 0.807598
O O5 0.439333 0.500000 0.313192
O O6 0.342765 0.332056 0.334289
O O7 0.690128 0.371244 0.407214
O O8 0.502399 0.326385 0.278251
O O9 0.183620 0.500000 0.046670
O O10 0.048383 0.677409 0.053097
O O11 0.338824 0.678718 0.054757
O O12 0.351995 0.612788 0.155466
O O13 0.785920 0.500000 0.646979
O O14 0.791908 0.675265 0.603980
O O15 0.750000 0.250000 0.500000
O O16 0.000000 0.284576 0.500000
O O17 0.000000 0.856054 0.000000
O O18 0.100265 0.000000 0.260914
#
# Coordination Sequence:
#
# PCOD8111984 Si02
#       7
#     8   8   8   8   8   8   8
#     4   9  20  39  65  97 128 169 221 272 330 396
#     4  10  22  41  65  92 125 161 209 266 321 383
#     4  10  23  43  65  97 140 179 227 288 344 407
#     4  10  23  43  66  92 125 167 217 267 321 386
#     4  12  26  43  61  92 128 164 207 256 322 390
#     4  11  23  42  68 101 138 183 233 280 348 415
#     4   8  17  36  61  89 121 161 206 262 326 378
#
# _framework density 22.756678000000001
#
# number of rings (size 3 to 8) (size 9 to 14) (size 15 to 20)
#    0.000    2.000    1.429    1.714    4.000    3.714 
#    0.000    2.857    0.000    0.000    0.000    0.000 
#    0.000    0.000    0.000    0.000    0.000    0.000 
#
# Total GULP energy -346923.463746 kJ/mol
# GULP energy per Si atom -12390.123705 kJ/mol
# Density = 2.270488 g / cm^3
# Si number density = 22.756678 Si / 1000 Ang^3
#
#
#
# Elastic Constant Matrix: (Units=GPa)
#
#
# Indices 1 2 3 4 5 6 
#
# 1 151.2424 42.7007 64.6690 0.0000 -14.2918 0.0000
# 2 42.7007 83.7143 25.5272 0.0000 -6.6013 0.0000
# 3 64.6690 25.5272 133.6180 0.0000 -37.1130 0.0000
# 4 0.0000 0.0000 0.0000 30.8214 0.0000 -0.0502
# 5 -14.2918 -6.6013 -37.1130 0.0000 41.5909 0.0000
# 6 0.0000 0.0000 0.0000 -0.0502 0.0000 28.9218
#
#
#
# Elastic Compliance Matrix: (Units=1/GPa)
#
#
# Indices 1 2 3 4 5 6 
#
# 1 0.009270 -0.003562 -0.004093 0.000000 -0.001032 0.000000
# 2 -0.003562 0.014054 -0.000906 0.000000 0.000198 0.000000
# 3 -0.004093 -0.000906 0.012241 0.000000 0.009373 0.000000
# 4 0.000000 0.000000 0.000000 0.032445 0.000000 0.000056
# 5 -0.001032 0.000198 0.009373 0.000000 0.032085 0.000000
# 6 0.000000 0.000000 0.000000 0.000056 0.000000 0.034576
#
#
# Mechanical properties :
#
#
# Convention : Reuss Voigt Hill
#
# Bulk Modulus (GPa) = 54.21714 70.48537 62.35125
# Shear Modulus (GPa) = 31.65750 35.97867 33.81809
#
# Velocity S-wave (km/s) = 3.73383 3.98051 3.85914
# Velocity P-wave (km/s) = 6.51653 7.22265 6.87866
#
# Compressibility (1/GPa) = 0.01844435
#
# Stress axis : x y z
#
# Youngs Moduli (GPa) = 107.87533 71.15369 81.69017
#
# Poissons Ratio (x) = 0.25343 0.33433
# Poissons Ratio (y) = 0.38423 0.07402
# Poissons Ratio (z) = 0.44150 0.06447
#
# Static dielectric constant tensor:
#      x y z
#    x 4.154760 0.000000 -0.130740 
#    y 0.000000 4.131460 0.000000 
#    z -0.130740 0.000000 4.329810 
# 
# 
# High freq. dielectric constant tensor:
#      x y z
#    x 1.902780 0.000000 -0.002530 
#    y 0.000000 1.889550 0.000000 
#    z -0.002530 0.000000 1.915210 
# 
# From -- ./inp_files/333000.got.cif
#   From: 2010.06.25/outbox.cif.g09.slc.cpg/sg12_167_cif.got.tgz:333000.got - 2010.06.28 00:19:55.
