data_PCOD8111939
_publ_section_title
;
Structure prediction by ZEFSAII (Michael W. Deem and Ramdas Pophale) SiO2 
 PCOD8111939
Probable space group: C 2/M
;
_chemical_formula_sum "Si O2"
_cell_formula_units_Z 48
_cell_length_a 23.496466
_cell_length_b 12.889895
_cell_length_c 7.673412
_cell_angle_alpha 90.000000
_cell_angle_beta 80.438003
_cell_angle_gamma 90.000000
_cell_volume 2291.734148
_symmetry_space_group_name_H-M "C 2/M"
_symmetry_group_IT_number 12
_symmetry_cell_setting 'monoclinic'
loop_
_space_group_symop_operation_xyz
x,y,z
-x,y,-z
-x,-y,-z
x,-y,z
1/2+x,1/2+y,z
1/2-x,1/2+y,-z
1/2-x,1/2-y,-z
1/2+x,1/2-y,z
loop_
_atom_site_type_symbol
_atom_site_label
_atom_site_fract_x
_atom_site_fract_y
_atom_site_fract_z
Si Si1 0.713156 0.116715 0.630810
Si Si2 0.381772 0.230623 0.767421
Si Si3 0.758854 0.316685 0.759359
Si Si4 0.994218 0.382017 0.798791
Si Si5 0.638207 0.619244 0.921961
Si Si6 0.601977 0.761000 0.633381
O O1 0.747641 0.193609 0.740050
O O2 0.740104 0.124106 0.424731
O O3 0.645687 0.146869 0.663257
O O4 0.719752 0.000000 0.698127
O O5 0.319831 0.173926 0.828522
O O6 0.429555 0.142915 0.771856
O O7 0.385525 0.276753 0.569887
O O8 0.390994 0.323145 0.899640
O O9 0.707595 0.367280 0.897316
O O10 0.008123 0.500000 0.738853
O O11 0.037511 0.304930 0.678040
O O12 0.000000 0.364144 0.000000
O O13 0.620483 0.500000 0.943115
O O14 0.612419 0.663857 0.754977
#
# Coordination Sequence:
#
# PCOD8111939 Si02
#       6
#     8   8   8   8   8   8
#     4   9  17  33  60  90 124 163 200 246 305 362
#     4  11  23  40  62  92 126 158 205 252 300 365
#     4   9  20  35  56  90 127 160 203 251 296 362
#     4  11  23  42  68  94 124 160 198 247 310 369
#     4  11  23  41  63  87 125 166 204 253 305 355
#     4  10  22  41  64  93 124 158 203 254 304 364
#
# _framework density 20.944839000000002
#
# number of rings (size 3 to 8) (size 9 to 14) (size 15 to 20)
#    0.000    1.833    1.667    3.000    0.000    6.000 
#    0.000    1.667    0.000    2.000    0.000    0.000 
#    0.000    0.000    0.000    0.000    0.000    0.000 
#
# Total GULP energy -297679.175042 kJ/mol
# GULP energy per Si atom -12403.298960 kJ/mol
# Density = 2.089717 g / cm^3
# Si number density = 20.944839 Si / 1000 Ang^3
#
#
#
# Elastic Constant Matrix: (Units=GPa)
#
#
# Indices 1 2 3 4 5 6 
#
# 1 116.9085 23.3508 16.4056 0.0000 2.3429 0.0000
# 2 23.3508 106.3587 23.6165 0.0000 -2.2912 0.0000
# 3 16.4056 23.6165 83.3196 0.0000 6.3516 0.0000
# 4 0.0000 0.0000 0.0000 13.4013 0.0000 -3.2618
# 5 2.3429 -2.2912 6.3516 0.0000 29.2369 0.0000
# 6 0.0000 0.0000 0.0000 -3.2618 0.0000 19.3884
#
#
#
# Elastic Compliance Matrix: (Units=1/GPa)
#
#
# Indices 1 2 3 4 5 6 
#
# 1 0.009087 -0.001729 -0.001254 0.000000 -0.000591 0.000000
# 2 -0.001729 0.010422 -0.002732 0.000000 0.001549 0.000000
# 3 -0.001254 -0.002732 0.013251 0.000000 -0.002992 0.000000
# 4 0.000000 0.000000 0.000000 0.077805 0.000000 0.013090
# 5 -0.000591 0.001549 -0.002992 0.000000 0.035022 0.000000
# 6 0.000000 0.000000 0.000000 0.013090 0.000000 0.053779
#
#
# Mechanical properties :
#
#
# Convention : Reuss Voigt Hill
#
# Bulk Modulus (GPa) = 46.88185 48.14807 47.51496
# Shear Modulus (GPa) = 22.94561 28.61959 25.78260
#
# Velocity S-wave (km/s) = 3.31346 3.70053 3.51233
# Velocity P-wave (km/s) = 6.08858 6.42624 6.25968
#
# Compressibility (1/GPa) = 0.02133022
#
# Stress axis : x y z
#
# Youngs Moduli (GPa) = 110.04830 95.95354 75.46464
#
# Poissons Ratio (x) = 0.16593 0.09463
# Poissons Ratio (y) = 0.19031 0.20614
# Poissons Ratio (z) = 0.13800 0.26210
#
# Static dielectric constant tensor:
#      x y z
#    x 3.879130 0.000000 -0.073080 
#    y 0.000000 3.486700 0.000000 
#    z -0.073080 0.000000 3.857020 
# 
# 
# High freq. dielectric constant tensor:
#      x y z
#    x 1.821890 0.000000 -0.004000 
#    y 0.000000 1.795090 0.000000 
#    z -0.004000 0.000000 1.825690 
# 
# From -- ./inp_files/94331.got.cif
#   From: 2010.06.25/outbox.cif.g09.slc.cpg/sg12_48_cif.got.tgz:94331.got - 2010.06.28 00:19:55.
