data_PCOD8111455
_publ_section_title
;
Structure prediction by ZEFSAII (Michael W. Deem and Ramdas Pophale) SiO2 
 PCOD8111455
Probable space group: C 2/M
;
_chemical_formula_sum "Si O2"
_cell_formula_units_Z 48
_cell_length_a 17.680249
_cell_length_b 8.501372
_cell_length_c 15.386158
_cell_angle_alpha 90.000000
_cell_angle_beta 89.917279
_cell_angle_gamma 90.000000
_cell_volume 2312.635205
_symmetry_space_group_name_H-M "C 2/M"
_symmetry_group_IT_number 12
_symmetry_cell_setting 'monoclinic'
loop_
_space_group_symop_operation_xyz
x,y,z
-x,y,-z
-x,-y,-z
x,-y,z
1/2+x,1/2+y,z
1/2-x,1/2+y,-z
1/2-x,1/2-y,-z
1/2+x,1/2-y,z
loop_
_atom_site_type_symbol
_atom_site_label
_atom_site_fract_x
_atom_site_fract_y
_atom_site_fract_z
Si Si1 0.211400 0.682998 0.085184
Si Si2 0.787320 0.318607 0.253164
Si Si3 0.049864 0.181896 0.083667
Si Si4 0.792011 0.682730 0.582474
Si Si5 0.050165 0.818048 0.751101
Si Si6 0.462116 0.182830 0.592660
O O1 0.231046 0.500000 0.095513
O O2 0.242767 0.777792 0.166528
O O3 0.121978 0.706093 0.079336
O O4 0.250000 0.750000 0.000000
O O5 0.774540 0.500000 0.276247
O O6 0.755478 0.215534 0.331531
O O7 0.875582 0.286988 0.240573
O O8 0.003758 0.227770 0.169371
O O9 0.075537 0.000000 0.085290
O O10 0.000000 0.218747 0.000000
O O11 0.799430 0.500000 0.566531
O O12 0.750000 0.750000 0.500000
O O13 0.876864 0.751036 0.590463
O O14 0.007990 0.784406 0.661592
O O15 0.073820 0.000000 0.755534
O O16 0.500000 0.209712 0.500000
O O17 0.464268 0.000000 0.620148
#
# Coordination Sequence:
#
# PCOD8111455 Si02
#       6
#     8   8   8   8   8   8
#     4  12  25  42  65  93 126 163 207 256 308 368
#     4  12  25  42  64  90 125 166 209 257 308 365
#     4  10  22  41  64  91 125 162 201 249 306 368
#     4  11  23  40  64  94 128 165 207 255 308 368
#     4  11  23  39  63  93 123 158 203 255 309 365
#     4  10  22  40  61  87 121 161 203 250 306 366
#
# _framework density 20.755541999999998
#
# number of rings (size 3 to 8) (size 9 to 14) (size 15 to 20)
#    0.000    1.000    0.000    7.000    0.000    8.667 
#    0.000    0.000    0.000    0.000    0.000    0.000 
#    0.000    0.000    0.000    0.000    0.000    0.000 
#
# Total GULP energy -297796.637455 kJ/mol
# GULP energy per Si atom -12408.193227 kJ/mol
# Density = 2.070830 g / cm^3
# Si number density = 20.755542 Si / 1000 Ang^3
#
#
#
# Elastic Constant Matrix: (Units=GPa)
#
#
# Indices 1 2 3 4 5 6 
#
# 1 128.4647 23.8368 41.9841 0.0000 1.8549 0.0000
# 2 23.8368 54.4267 8.3507 0.0000 1.4047 0.0000
# 3 41.9841 8.3507 130.7994 0.0000 1.0630 0.0000
# 4 0.0000 0.0000 0.0000 26.5217 0.0000 3.6529
# 5 1.8549 1.4047 1.0630 0.0000 39.6860 0.0000
# 6 0.0000 0.0000 0.0000 3.6529 0.0000 39.6603
#
#
#
# Elastic Compliance Matrix: (Units=1/GPa)
#
#
# Indices 1 2 3 4 5 6 
#
# 1 0.009376 -0.003675 -0.002773 0.000000 -0.000234 0.000000
# 2 -0.003675 0.020011 -0.000094 0.000000 -0.000534 0.000000
# 3 -0.002773 -0.000094 0.008542 0.000000 -0.000096 0.000000
# 4 0.000000 0.000000 0.000000 0.038189 0.000000 -0.003517
# 5 -0.000234 -0.000534 -0.000096 0.000000 0.025230 0.000000
# 6 0.000000 0.000000 0.000000 -0.003517 0.000000 0.025538
#
#
# Mechanical properties :
#
#
# Convention : Reuss Voigt Hill
#
# Bulk Modulus (GPa) = 40.24791 51.33710 45.79250
# Shear Modulus (GPa) = 33.72658 37.14156 35.43407
#
# Velocity S-wave (km/s) = 4.03543 4.23481 4.13632
# Velocity P-wave (km/s) = 6.41455 6.97849 6.70245
#
# Compressibility (1/GPa) = 0.02484601
#
# Stress axis : x y z
#
# Youngs Moduli (GPa) = 106.65879 49.97286 117.06715
#
# Poissons Ratio (x) = 0.18364 0.32462
# Poissons Ratio (y) = 0.39194 0.01097
# Poissons Ratio (z) = 0.29576 0.00468
#
# Static dielectric constant tensor:
#      x y z
#    x 4.016750 0.000000 0.104320 
#    y 0.000000 3.746580 0.000000 
#    z 0.104320 0.000000 3.747130 
# 
# 
# High freq. dielectric constant tensor:
#      x y z
#    x 1.830520 0.000000 0.000020 
#    y 0.000000 1.813060 0.000000 
#    z 0.000020 0.000000 1.831040 
# 
# From -- ./inp_files/221674.got.cif
#   From: 2010.06.25/outbox.cif.g09.slc.cpg/sg12_111_cif.got.tgz:221674.got - 2010.06.28 00:19:55.
