data_PCOD8111524
_publ_section_title
;
Structure prediction by ZEFSAII (Michael W. Deem and Ramdas Pophale) SiO2 
 PCOD8111524
Probable space group: C 2/M
;
_chemical_formula_sum "Si O2"
_cell_formula_units_Z 56
_cell_length_a 14.591081
_cell_length_b 18.944281
_cell_length_c 11.002558
_cell_angle_alpha 90.000000
_cell_angle_beta 120.252859
_cell_angle_gamma 90.000000
_cell_volume 2627.106467
_symmetry_space_group_name_H-M "C 2/M"
_symmetry_group_IT_number 12
_symmetry_cell_setting 'monoclinic'
loop_
_space_group_symop_operation_xyz
x,y,z
-x,y,-z
-x,-y,-z
x,-y,z
1/2+x,1/2+y,z
1/2-x,1/2+y,-z
1/2-x,1/2-y,-z
1/2+x,1/2-y,z
loop_
_atom_site_type_symbol
_atom_site_label
_atom_site_fract_x
_atom_site_fract_y
_atom_site_fract_z
Si Si1 0.330834 0.713269 0.835255
Si Si2 0.048999 0.789449 0.847158
Si Si3 0.300581 0.918637 0.174717
Si Si4 0.003879 0.333519 0.647009
Si Si5 0.721353 0.813328 0.395951
Si Si6 0.379927 0.421505 0.436916
Si Si7 0.665215 0.576754 0.859774
O O1 0.431106 0.703503 0.816026
O O2 0.264836 0.639612 0.789828
O O3 0.271830 0.781512 0.737555
O O4 0.366805 0.735185 0.994323
O O5 0.060223 0.735399 0.742789
O O6 0.072888 0.868128 0.821808
O O7 0.425019 0.901923 0.274028
O O8 0.279602 0.000000 0.204006
O O9 0.269604 0.909356 0.011715
O O10 0.000000 0.322000 0.500000
O O11 0.890823 0.346321 0.636421
O O12 0.750000 0.750000 0.500000
O O13 0.813232 0.870856 0.480065
O O14 0.500000 0.392805 0.500000
O O15 0.385937 0.500000 0.497655
O O16 0.309813 0.422291 0.266494
O O17 0.618050 0.500000 0.863714
#
# Coordination Sequence:
#
# PCOD8111524 Si02
#       7
#     8   8   8   8   8   8   8
#     4   9  20  38  58  95 122 162 210 255 320 368
#     4   9  20  36  62  89 128 161 204 263 312 375
#     4  10  22  40  62  90 127 169 213 255 314 382
#     4  11  25  41  61  94 124 170 214 255 319 371
#     4  11  25  40  64  94 127 162 213 264 314 378
#     4  10  24  43  65  92 126 166 210 264 322 375
#     4   9  20  37  62  94 123 165 210 258 318 375
#
# _framework density 21.316229
#
# number of rings (size 3 to 8) (size 9 to 14) (size 15 to 20)
#    0.000    2.143    0.000    0.857   10.000    2.571 
#    0.000    5.000    0.000    2.571    0.000    0.000 
#    0.000    0.000    0.000    0.000    0.000    0.000 
#
# Total GULP energy -347020.278585 kJ/mol
# GULP energy per Si atom -12393.581378 kJ/mol
# Density = 2.126771 g / cm^3
# Si number density = 21.316229 Si / 1000 Ang^3
#
#
#
# Elastic Constant Matrix: (Units=GPa)
#
#
# Indices 1 2 3 4 5 6 
#
# 1 86.5251 62.0478 36.8716 0.0000 12.6613 0.0000
# 2 62.0478 124.1601 43.5940 0.0000 8.7888 0.0000
# 3 36.8716 43.5940 100.2099 0.0000 3.4749 0.0000
# 4 0.0000 0.0000 0.0000 26.9705 0.0000 3.2732
# 5 12.6613 8.7888 3.4749 0.0000 28.5432 0.0000
# 6 0.0000 0.0000 0.0000 3.2732 0.0000 34.9040
#
#
#
# Elastic Compliance Matrix: (Units=1/GPa)
#
#
# Indices 1 2 3 4 5 6 
#
# 1 0.019830 -0.008270 -0.003497 0.000000 -0.005824 0.000000
# 2 -0.008270 0.013126 -0.002666 0.000000 -0.000049 0.000000
# 3 -0.003497 -0.002666 0.012395 0.000000 0.000863 0.000000
# 4 0.000000 0.000000 0.000000 0.037504 0.000000 -0.003517
# 5 -0.005824 -0.000049 0.000863 0.000000 0.037528 0.000000
# 6 0.000000 0.000000 0.000000 -0.003517 0.000000 0.028980
#
#
# Mechanical properties :
#
#
# Convention : Reuss Voigt Hill
#
# Bulk Modulus (GPa) = 60.65373 66.21355 63.43364
# Shear Modulus (GPa) = 27.21461 29.30897 28.26179
#
# Velocity S-wave (km/s) = 3.57698 3.71207 3.64515
# Velocity P-wave (km/s) = 6.75098 7.03580 6.89486
#
# Compressibility (1/GPa) = 0.01648703
#
# Stress axis : x y z
#
# Youngs Moduli (GPa) = 50.42838 76.18265 80.67485
#
# Poissons Ratio (x) = 0.63002 0.28210
# Poissons Ratio (y) = 0.41704 0.21506
# Poissons Ratio (z) = 0.17634 0.20309
#
# Static dielectric constant tensor:
#      x y z
#    x 3.961080 0.000000 0.075620 
#    y 0.000000 4.068780 0.000000 
#    z 0.075620 0.000000 4.446410 
# 
# 
# High freq. dielectric constant tensor:
#      x y z
#    x 1.813320 0.000000 0.008810 
#    y 0.000000 1.837180 0.000000 
#    z 0.008810 0.000000 1.852350 
# 
# From -- ./inp_files/146218.got.cif
#   From: 2010.06.25/outbox.cif.g09.slc.cpg/sg12_74_cif.got.tgz:146218.got - 2010.06.28 00:19:55.
