data_PCOD8111516
_publ_section_title
;
Structure prediction by ZEFSAII (Michael W. Deem and Ramdas Pophale) SiO2 
 PCOD8111516
Probable space group: C 2/M
;
_chemical_formula_sum "Si O2"
_cell_formula_units_Z 40
_cell_length_a 9.804895
_cell_length_b 13.881274
_cell_length_c 15.599099
_cell_angle_alpha 90.000000
_cell_angle_beta 62.636615
_cell_angle_gamma 90.000000
_cell_volume 1885.550654
_symmetry_space_group_name_H-M "C 2/M"
_symmetry_group_IT_number 12
_symmetry_cell_setting 'monoclinic'
loop_
_space_group_symop_operation_xyz
x,y,z
-x,y,-z
-x,-y,-z
x,-y,z
1/2+x,1/2+y,z
1/2-x,1/2+y,-z
1/2-x,1/2-y,-z
1/2+x,1/2-y,z
loop_
_atom_site_type_symbol
_atom_site_label
_atom_site_fract_x
_atom_site_fract_y
_atom_site_fract_z
Si Si1 0.046864 0.385566 0.119377
Si Si2 0.072669 0.233864 0.565996
Si Si3 0.618192 0.113679 0.287958
Si Si4 0.551162 0.386525 0.739910
Si Si5 0.737431 0.885434 0.906789
O O1 0.054510 0.500000 0.120860
O O2 0.077164 0.345055 0.205611
O O3 0.880147 0.351149 0.133892
O O4 0.179354 0.347421 0.016216
O O5 0.250000 0.250000 0.500000
O O6 0.042850 0.156266 0.647778
O O7 0.000000 0.192228 0.500000
O O8 0.993467 0.335682 0.611867
O O9 0.793664 0.142704 0.256279
O O10 0.591305 0.000000 0.304178
O O11 0.537930 0.500000 0.732446
O O12 0.408192 0.346206 0.837620
O O13 0.737667 0.000000 0.908751
#
# Coordination Sequence:
#
# PCOD8111516 Si02
#       5
#     8   8   8   8   8
#     4   8  15  30  55  88 122 156 190 231 287 346
#     4  12  26  44  62  85 117 154 197 251 303 348
#     4  10  22  40  63  89 119 156 195 239 296 353
#     4  10  22  40  62  90 120 153 196 243 292 350
#     4   8  15  30  55  88 123 154 190 235 283 344
#
# _framework density 21.213961000000001
#
# number of rings (size 3 to 8) (size 9 to 14) (size 15 to 20)
#    0.000    2.400    2.000    1.200    2.800    2.400 
#    0.000    5.000    0.000    0.000    0.000    0.000 
#    0.000    0.000    0.000    0.000    0.000    0.000 
#
# Total GULP energy -247997.609501 kJ/mol
# GULP energy per Si atom -12399.880475 kJ/mol
# Density = 2.116568 g / cm^3
# Si number density = 21.213961 Si / 1000 Ang^3
#
#
#
# Elastic Constant Matrix: (Units=GPa)
#
#
# Indices 1 2 3 4 5 6 
#
# 1 150.3549 19.9293 71.4805 0.0000 -19.0778 0.0000
# 2 19.9293 28.7691 16.4674 0.0000 -8.2765 0.0000
# 3 71.4805 16.4674 128.4513 0.0000 -12.7426 0.0000
# 4 0.0000 0.0000 0.0000 25.8692 0.0000 0.3837
# 5 -19.0778 -8.2765 -12.7426 0.0000 53.9064 0.0000
# 6 0.0000 0.0000 0.0000 0.3837 0.0000 19.8455
#
#
#
# Elastic Compliance Matrix: (Units=1/GPa)
#
#
# Indices 1 2 3 4 5 6 
#
# 1 0.009566 -0.003428 -0.004711 0.000000 0.001746 0.000000
# 2 -0.003428 0.039959 -0.002792 0.000000 0.004262 0.000000
# 3 -0.004711 -0.002792 0.010810 0.000000 0.000459 0.000000
# 4 0.000000 0.000000 0.000000 0.038667 0.000000 -0.000748
# 5 0.001746 0.004262 0.000459 0.000000 0.019931 0.000000
# 6 0.000000 0.000000 0.000000 -0.000748 0.000000 0.050404
#
#
# Mechanical properties :
#
#
# Convention : Reuss Voigt Hill
#
# Bulk Modulus (GPa) = 25.99252 58.14775 42.07014
# Shear Modulus (GPa) = 24.50692 33.23742 28.87217
#
# Velocity S-wave (km/s) = 3.40255 3.96254 3.69317
# Velocity P-wave (km/s) = 5.26456 6.95739 6.16931
#
# Compressibility (1/GPa) = 0.03847260
#
# Stress axis : x y z
#
# Youngs Moduli (GPa) = 104.53203 25.02586 92.50631
#
# Poissons Ratio (x) = 0.08580 0.43578
# Poissons Ratio (y) = 0.35837 0.25829
# Poissons Ratio (z) = 0.49243 0.06988
#
# Static dielectric constant tensor:
#      x y z
#    x 4.087470 0.000000 -0.059590 
#    y 0.000000 3.492000 0.000000 
#    z -0.059590 0.000000 4.139010 
# 
# 
# High freq. dielectric constant tensor:
#      x y z
#    x 1.839580 0.000000 -0.001830 
#    y 0.000000 1.819520 0.000000 
#    z -0.001830 0.000000 1.837990 
# 
# From -- ./inp_files/119025.got.cif
#   From: 2010.06.25/outbox.cif.g09.slc.cpg/sg12_60_cif.got.tgz:119025.got - 2010.06.28 00:19:55.
