data_PCOD8111802
_publ_section_title
;
Structure prediction by ZEFSAII (Michael W. Deem and Ramdas Pophale) SiO2 
 PCOD8111802
Probable space group: C 2/M
;
_chemical_formula_sum "Si O2"
_cell_formula_units_Z 56
_cell_length_a 15.280083
_cell_length_b 8.498258
_cell_length_c 20.966374
_cell_angle_alpha 90.000000
_cell_angle_beta 91.839674
_cell_angle_gamma 90.000000
_cell_volume 2721.166074
_symmetry_space_group_name_H-M "C 2/M"
_symmetry_group_IT_number 12
_symmetry_cell_setting 'monoclinic'
loop_
_space_group_symop_operation_xyz
x,y,z
-x,y,-z
-x,-y,-z
x,-y,z
1/2+x,1/2+y,z
1/2-x,1/2+y,-z
1/2-x,1/2-y,-z
1/2+x,1/2-y,z
loop_
_atom_site_type_symbol
_atom_site_label
_atom_site_fract_x
_atom_site_fract_y
_atom_site_fract_z
Si Si1 0.756488 0.182519 0.145237
Si Si2 0.897970 0.184188 0.939699
Si Si3 0.653734 0.316054 0.494725
Si Si4 0.073753 0.816153 0.362234
Si Si5 0.103617 0.317223 0.623784
Si Si6 0.082615 0.685692 0.922764
Si Si7 0.239326 0.183562 0.281713
O O1 0.683948 0.284566 0.107327
O O2 0.852555 0.237230 0.126548
O O3 0.747598 0.210143 0.219869
O O4 0.742661 0.000000 0.128863
O O5 0.986573 0.242881 0.907738
O O6 0.905141 0.000000 0.954762
O O7 0.884163 0.276454 0.005365
O O8 0.661256 0.500000 0.486308
O O9 0.750000 0.250000 0.500000
O O10 0.605801 0.248058 0.431079
O O11 0.600043 0.274032 0.556671
O O12 0.145418 0.781075 0.310167
O O13 0.985425 0.724128 0.340629
O O14 0.052716 0.000000 0.365787
O O15 0.111785 0.500000 0.609113
O O16 0.186029 0.261516 0.667327
O O17 0.079532 0.500000 0.912481
O O18 0.250366 0.000000 0.264403
#
# Coordination Sequence:
#
# PCOD8111802 Si02
#       7
#     8   8   8   8   8   8   8
#     4  12  25  41  62  91 124 164 210 252 304 364
#     4  11  22  40  65  95 128 163 202 252 307 361
#     4  11  21  37  62  90 121 156 194 246 305 361
#     4  10  22  41  62  86 119 158 197 245 304 362
#     4  11  23  40  62  90 120 155 199 249 301 361
#     4  11  22  40  65  95 128 163 203 253 305 359
#     4  10  23  44  61  81 120 163 203 251 305 357
#
# _framework density 20.579412999999999
#
# number of rings (size 3 to 8) (size 9 to 14) (size 15 to 20)
#    0.000    1.143    1.429    6.429    0.000    5.714 
#    0.000    2.857    0.000    0.000    0.000    0.000 
#    0.000    0.000    0.000    0.000    0.000    0.000 
#
# Total GULP energy -347384.195017 kJ/mol
# GULP energy per Si atom -12406.578393 kJ/mol
# Density = 2.053257 g / cm^3
# Si number density = 20.579413 Si / 1000 Ang^3
#
#
#
# Elastic Constant Matrix: (Units=GPa)
#
#
# Indices 1 2 3 4 5 6 
#
# 1 106.0930 19.0029 20.0534 0.0000 -21.3705 0.0000
# 2 19.0029 66.7060 8.9498 0.0000 -2.9396 0.0000
# 3 20.0534 8.9498 63.0033 0.0000 -19.6402 0.0000
# 4 0.0000 0.0000 0.0000 31.5868 0.0000 -0.1819
# 5 -21.3705 -2.9396 -19.6402 0.0000 23.1650 0.0000
# 6 0.0000 0.0000 0.0000 -0.1819 0.0000 35.9339
#
#
#
# Elastic Compliance Matrix: (Units=1/GPa)
#
#
# Indices 1 2 3 4 5 6 
#
# 1 0.012140 -0.002972 -0.000093 0.000000 0.010744 0.000000
# 2 -0.002972 0.016011 -0.002106 0.000000 -0.002496 0.000000
# 3 -0.000093 -0.002106 0.021872 0.000000 0.018191 0.000000
# 4 0.000000 0.000000 0.000000 0.031660 0.000000 0.000160
# 5 0.010744 -0.002496 0.018191 0.000000 0.068186 0.000000
# 6 0.000000 0.000000 0.000000 0.000160 0.000000 0.027830
#
#
# Mechanical properties :
#
#
# Convention : Reuss Voigt Hill
#
# Bulk Modulus (GPa) = 25.20235 36.86830 31.03533
# Shear Modulus (GPa) = 24.84268 30.65687 27.74977
#
# Velocity S-wave (km/s) = 3.47819 3.86383 3.67607
# Velocity P-wave (km/s) = 5.32948 6.15302 5.75600
#
# Compressibility (1/GPa) = 0.03967883
#
# Stress axis : x y z
#
# Youngs Moduli (GPa) = 82.37436 62.45887 45.72147
#
# Poissons Ratio (x) = 0.18565 0.00423
# Poissons Ratio (y) = 0.24485 0.09631
# Poissons Ratio (z) = 0.00763 0.13157
#
# Static dielectric constant tensor:
#      x y z
#    x 3.902580 0.000000 -0.053760 
#    y 0.000000 3.704340 0.000000 
#    z -0.053760 0.000000 3.621380 
# 
# 
# High freq. dielectric constant tensor:
#      x y z
#    x 1.822640 0.000000 -0.005510 
#    y 0.000000 1.808420 0.000000 
#    z -0.005510 0.000000 1.796540 
# 
# From -- ./inp_files/308998.got.cif
#   From: 2010.06.25/outbox.cif.g09.slc.cpg/sg12_155_cif.got.tgz:308998.got - 2010.06.28 00:19:55.
