data_PCOD8111477
_publ_section_title
;
Structure prediction by ZEFSAII (Michael W. Deem and Ramdas Pophale) SiO2 
 PCOD8111477
Probable space group: C 2/M
;
_chemical_formula_sum "Si O2"
_cell_formula_units_Z 48
_cell_length_a 18.793108
_cell_length_b 8.867696
_cell_length_c 29.559568
_cell_angle_alpha 90.000000
_cell_angle_beta 29.763877
_cell_angle_gamma 90.000000
_cell_volume 2445.471908
_symmetry_space_group_name_H-M "C 2/M"
_symmetry_group_IT_number 12
_symmetry_cell_setting 'monoclinic'
loop_
_space_group_symop_operation_xyz
x,y,z
-x,y,-z
-x,-y,-z
x,-y,z
1/2+x,1/2+y,z
1/2-x,1/2+y,-z
1/2-x,1/2-y,-z
1/2+x,1/2-y,z
loop_
_atom_site_type_symbol
_atom_site_label
_atom_site_fract_x
_atom_site_fract_y
_atom_site_fract_z
Si Si1 0.906060 0.178417 0.916843
Si Si2 0.606454 0.178578 0.252728
Si Si3 0.856725 0.169446 0.558287
Si Si4 0.607140 0.331968 0.566411
Si Si5 0.430422 0.679017 0.084223
Si Si6 0.056009 0.177709 0.741015
O O1 0.987546 0.241244 0.916586
O O2 0.999207 0.225626 0.821757
O O3 0.887390 0.000000 0.929883
O O4 0.750000 0.250000 0.000000
O O5 0.522769 0.234674 0.342751
O O6 0.767183 0.234105 0.173111
O O7 0.545136 0.246664 0.240399
O O8 0.593848 0.000000 0.255480
O O9 0.898086 0.160536 0.483729
O O10 0.719557 0.270465 0.644953
O O11 0.000000 0.243003 0.500000
O O12 0.828233 0.000000 0.592750
O O13 0.603203 0.500000 0.589859
O O14 0.750000 0.250000 0.500000
O O15 0.438765 0.500000 0.080235
O O16 0.500000 0.744208 0.000000
O O17 0.049807 0.000000 0.737681
#
# Coordination Sequence:
#
# PCOD8111477 Si02
#       6
#     8   8   8   8   8   8
#     4  10  22  40  61  89 119 152 193 238 293 353
#     4  11  22  37  62  88 116 157 201 244 293 350
#     4  10  23  41  60  84 117 159 203 242 289 351
#     4  11  22  38  60  87 120 157 198 244 291 346
#     4   9  19  37  61  87 115 150 194 240 287 348
#     4  11  23  38  59  87 121 156 195 246 297 349
#
# _framework density 19.628114
#
# number of rings (size 3 to 8) (size 9 to 14) (size 15 to 20)
#    0.000    1.667    1.667    2.500    2.333    3.667 
#    0.000    1.667    0.000    4.500    0.000    0.000 
#    0.000    0.000    0.000    0.000    0.000    0.000 
#
# Total GULP energy -297585.436377 kJ/mol
# GULP energy per Si atom -12399.393182 kJ/mol
# Density = 1.958344 g / cm^3
# Si number density = 19.628114 Si / 1000 Ang^3
#
#
#
# Elastic Constant Matrix: (Units=GPa)
#
#
# Indices 1 2 3 4 5 6 
#
# 1 146.0254 42.8596 88.3169 -0.0001 -18.7652 -0.0001
# 2 42.8596 69.0113 49.6465 -0.0002 -6.1206 0.0006
# 3 88.3169 49.6465 178.8271 -0.0010 -9.8093 0.0000
# 4 -0.0001 -0.0002 -0.0010 31.3344 0.0000 0.4963
# 5 -18.7652 -6.1206 -9.8093 0.0000 43.3716 -0.0001
# 6 -0.0001 0.0006 0.0000 0.4963 -0.0001 19.6511
#
#
#
# Elastic Compliance Matrix: (Units=1/GPa)
#
#
# Indices 1 2 3 4 5 6 
#
# 1 0.010813 -0.003391 -0.004221 0.000000 0.003245 0.000000
# 2 -0.003391 0.019259 -0.003649 0.000000 0.000425 -0.000001
# 3 -0.004221 -0.003649 0.008669 0.000000 -0.000381 0.000000
# 4 0.000000 0.000000 0.000000 0.031927 0.000000 -0.000806
# 5 0.003245 0.000425 -0.000381 0.000000 0.024435 0.000000
# 6 0.000000 -0.000001 0.000000 -0.000806 0.000000 0.050908
#
#
# Mechanical properties :
#
#
# Convention : Reuss Voigt Hill
#
# Bulk Modulus (GPa) = 61.65414 83.94553 72.79984
# Shear Modulus (GPa) = 28.74583 33.07414 30.90998
#
# Velocity S-wave (km/s) = 3.83106 4.10938 3.97266
# Velocity P-wave (km/s) = 7.14484 8.08559 7.62973
#
# Compressibility (1/GPa) = 0.01621951
#
# Stress axis : x y z
#
# Youngs Moduli (GPa) = 92.47854 51.92359 115.35941
#
# Poissons Ratio (x) = 0.17609 0.48691
# Poissons Ratio (y) = 0.31363 0.42089
# Poissons Ratio (z) = 0.39033 0.18945
#
# Static dielectric constant tensor:
#      x y z
#    x 3.777190 0.000000 0.076870 
#    y 0.000000 3.604670 0.000000 
#    z 0.076870 0.000000 3.760720 
# 
# 
# High freq. dielectric constant tensor:
#      x y z
#    x 1.779690 0.000000 0.000630 
#    y 0.000000 1.751850 0.000000 
#    z 0.000630 0.000000 1.780100 
# 
# From -- ./inp_files/295353.got.cif
#   From: 2010.06.25/outbox.cif.g09.slc.cpg/sg12_148_cif.got.tgz:295353.got - 2010.06.28 00:19:55.
