data_PCOD8111335
_publ_section_title
;
Structure prediction by ZEFSAII (Michael W. Deem and Ramdas Pophale) SiO2 
 PCOD8111335
Probable space group: C 2/M
;
_chemical_formula_sum "Si O2"
_cell_formula_units_Z 64
_cell_length_a 14.477511
_cell_length_b 9.294674
_cell_length_c 26.539123
_cell_angle_alpha 90.000000
_cell_angle_beta 104.280027
_cell_angle_gamma 90.000000
_cell_volume 3460.859924
_symmetry_space_group_name_H-M "C 2/M"
_symmetry_group_IT_number 12
_symmetry_cell_setting 'monoclinic'
loop_
_space_group_symop_operation_xyz
x,y,z
-x,y,-z
-x,-y,-z
x,-y,z
1/2+x,1/2+y,z
1/2-x,1/2+y,-z
1/2-x,1/2-y,-z
1/2+x,1/2-y,z
loop_
_atom_site_type_symbol
_atom_site_label
_atom_site_fract_x
_atom_site_fract_y
_atom_site_fract_z
Si Si1 0.026031 0.329122 0.058064
Si Si2 0.285297 0.170067 0.862074
Si Si3 0.870040 0.667438 0.391866
Si Si4 0.828658 0.162858 0.677294
Si Si5 0.590980 0.169708 0.862418
Si Si6 0.662523 0.665746 0.510889
Si Si7 0.901145 0.668359 0.780735
Si Si8 0.542720 0.338714 0.398192
O O1 0.025341 0.500000 0.056957
O O2 0.132527 0.279331 0.087728
O O3 0.946158 0.279053 0.087563
O O4 0.000000 0.263282 0.000000
O O5 0.187457 0.249433 0.861277
O O6 0.322579 0.214912 0.811630
O O7 0.267868 0.000000 0.863255
O O8 0.875386 0.500000 0.407520
O O9 0.782938 0.697750 0.342422
O O10 0.867499 0.763442 0.441172
O O11 0.963124 0.720048 0.374379
O O12 0.879236 0.261111 0.724707
O O13 0.869730 0.191590 0.627249
O O14 0.845612 0.000000 0.697029
O O15 0.507912 0.211809 0.811827
O O16 0.611108 0.000000 0.864289
O O17 0.691095 0.500000 0.523777
O O18 0.750000 0.750000 0.500000
O O19 0.575601 0.677472 0.460214
O O20 0.895641 0.500000 0.772398
O O21 0.502407 0.500000 0.384053
#
# Coordination Sequence:
#
# PCOD8111335 Si02
#       8
#     8   8   8   8   8   8   8   8
#     4   8  15  30  51  75 107 146 180 212 258 315
#     4   9  18  33  53  77 105 138 178 221 262 313
#     4  11  23  39  57  83 111 138 176 218 261 318
#     4  10  22  40  57  77 109 139 171 221 272 313
#     4   9  18  33  53  77 105 137 177 222 262 309
#     4  11  21  37  60  82 110 144 176 214 262 315
#     4   9  20  37  54  74 102 137 178 217 261 319
#     4  10  22  40  57  79 110 141 172 213 264 316
#
# _framework density 18.492512999999999
#
# number of rings (size 3 to 8) (size 9 to 14) (size 15 to 20)
#    0.000    2.375    1.250    2.625    0.000    6.500 
#    0.000    6.875    0.000    0.750    0.000    0.000 
#    0.000    0.000    0.000    0.000    0.000    0.000 
#
# Total GULP energy -396741.728044 kJ/mol
# GULP energy per Si atom -12398.179001 kJ/mol
# Density = 1.845042 g / cm^3
# Si number density = 18.492513 Si / 1000 Ang^3
#
#
#
# Elastic Constant Matrix: (Units=GPa)
#
#
# Indices 1 2 3 4 5 6 
#
# 1 124.7486 49.8800 31.2975 0.0000 9.4933 0.0000
# 2 49.8800 68.5625 36.4650 0.0000 8.1572 0.0000
# 3 31.2975 36.4650 104.0278 0.0000 11.4632 0.0000
# 4 0.0000 0.0000 0.0000 24.2793 0.0000 -0.9783
# 5 9.4933 8.1572 11.4632 0.0000 17.2590 0.0000
# 6 0.0000 0.0000 0.0000 -0.9783 0.0000 39.7024
#
#
#
# Elastic Compliance Matrix: (Units=1/GPa)
#
#
# Indices 1 2 3 4 5 6 
#
# 1 0.011421 -0.007796 -0.000450 0.000000 -0.002299 0.000000
# 2 -0.007796 0.023600 -0.005579 0.000000 -0.003161 0.000000
# 3 -0.000450 -0.005579 0.012285 0.000000 -0.005275 0.000000
# 4 0.000000 0.000000 0.000000 0.041228 0.000000 0.001016
# 5 -0.002299 -0.003161 -0.005275 0.000000 0.064203 0.000000
# 6 0.000000 0.000000 0.000000 0.001016 0.000000 0.025212
#
#
# Mechanical properties :
#
#
# Convention : Reuss Voigt Hill
#
# Bulk Modulus (GPa) = 50.87418 59.18043 55.02731
# Shear Modulus (GPa) = 23.56801 28.22790 25.89795
#
# Velocity S-wave (km/s) = 3.57383 3.91122 3.74633
# Velocity P-wave (km/s) = 6.67833 7.24353 6.96666
#
# Compressibility (1/GPa) = 0.01965634
#
# Stress axis : x y z
#
# Youngs Moduli (GPa) = 87.55625 42.37256 81.39974
#
# Poissons Ratio (x) = 0.33035 0.03663
# Poissons Ratio (y) = 0.68261 0.45411
# Poissons Ratio (z) = 0.03940 0.23639
#
# Static dielectric constant tensor:
#      x y z
#    x 3.600690 0.000000 -0.093880 
#    y 0.000000 7.740360 0.000000 
#    z -0.093880 0.000000 3.602300 
# 
# 
# High freq. dielectric constant tensor:
#      x y z
#    x 1.726060 0.000000 0.000680 
#    y 0.000000 1.703800 0.000000 
#    z 0.000680 0.000000 1.713460 
# 
# From -- ./inp_files/359911.got.cif
#   From: 2010.06.25/outbox.cif.g09.slc.cpg/sg12_180_cif.got.tgz:359911.got - 2010.06.28 00:19:55.
