data_PCOD8111402
_publ_section_title
;
Structure prediction by ZEFSAII (Michael W. Deem and Ramdas Pophale) SiO2 
 PCOD8111402
Probable space group: C 2/M
;
_chemical_formula_sum "Si O2"
_cell_formula_units_Z 48
_cell_length_a 23.492742
_cell_length_b 14.112256
_cell_length_c 11.037228
_cell_angle_alpha 90.000000
_cell_angle_beta 143.080413
_cell_angle_gamma 90.000000
_cell_volume 2198.078263
_symmetry_space_group_name_H-M "C 2/M"
_symmetry_group_IT_number 12
_symmetry_cell_setting 'monoclinic'
loop_
_space_group_symop_operation_xyz
x,y,z
-x,y,-z
-x,-y,-z
x,-y,z
1/2+x,1/2+y,z
1/2-x,1/2+y,-z
1/2-x,1/2-y,-z
1/2+x,1/2-y,z
loop_
_atom_site_type_symbol
_atom_site_label
_atom_site_fract_x
_atom_site_fract_y
_atom_site_fract_z
Si Si1 0.478658 0.892766 0.094739
Si Si2 0.559974 0.887886 0.486945
Si Si3 0.887026 0.891861 0.710790
Si Si4 0.756008 0.395093 0.730594
Si Si5 0.411996 0.388049 0.019111
Si Si6 0.253186 0.784097 0.139984
O O1 0.526011 0.846645 0.296895
O O2 0.517201 0.000000 0.150709
O O3 0.500000 0.841946 0.000000
O O4 0.367482 0.888792 0.921986
O O5 0.500000 0.847288 0.500000
O O6 0.669252 0.863377 0.696812
O O7 0.547221 0.000000 0.461073
O O8 0.786336 0.878355 0.475256
O O9 0.876450 0.850161 0.827181
O O10 0.914570 0.000000 0.780635
O O11 0.977312 0.854708 0.785118
O O12 0.723853 0.500000 0.722745
O O13 0.714023 0.311649 0.738256
O O14 0.396568 0.500000 0.018255
O O15 0.350252 0.326452 0.006786
O O16 0.250000 0.750000 0.000000
#
# Coordination Sequence:
#
# PCOD8111402 Si02
#       6
#     8   8   8   8   8   8
#     4   9  19  37  62  91 122 158 204 258 312 371
#     4  10  22  42  66  90 125 170 209 255 316 379
#     4   8  17  37  65  91 120 157 197 252 317 379
#     4  10  22  40  60  85 124 161 200 255 315 364
#     4   9  19  39  64  91 121 156 202 255 314 375
#     4  12  26  39  60  91 123 166 216 256 302 373
#
# _framework density 21.837259
#
# number of rings (size 3 to 8) (size 9 to 14) (size 15 to 20)
#    0.000    2.333    0.000    2.500    2.333    6.000 
#    3.000    0.000    0.000    3.500    0.000    0.000 
#    0.000    0.000    0.000    0.000    0.000    0.000 
#
# Total GULP energy -297327.613580 kJ/mol
# GULP energy per Si atom -12388.650566 kJ/mol
# Density = 2.178756 g / cm^3
# Si number density = 21.837259 Si / 1000 Ang^3
#
#
#
# Elastic Constant Matrix: (Units=GPa)
#
#
# Indices 1 2 3 4 5 6 
#
# 1 120.5042 22.0440 34.5108 0.0000 -19.9950 0.0000
# 2 22.0440 54.1165 3.4391 0.0000 -7.8107 0.0000
# 3 34.5108 3.4391 124.3937 0.0000 -16.3867 0.0000
# 4 0.0000 0.0000 0.0000 2.7150 0.0000 3.4595
# 5 -19.9950 -7.8107 -16.3867 0.0000 35.7799 0.0000
# 6 0.0000 0.0000 0.0000 3.4595 0.0000 29.0489
#
#
#
# Elastic Compliance Matrix: (Units=1/GPa)
#
#
# Indices 1 2 3 4 5 6 
#
# 1 0.010220 -0.003453 -0.002221 0.000000 0.003940 0.000000
# 2 -0.003453 0.020247 0.000773 0.000000 0.002844 0.000000
# 3 -0.002221 0.000773 0.009038 0.000000 0.003067 0.000000
# 4 0.000000 0.000000 0.000000 0.434216 0.000000 -0.051712
# 5 0.003940 0.002844 0.003067 0.000000 0.032176 0.000000
# 6 0.000000 0.000000 0.000000 -0.051712 0.000000 0.040583
#
#
# Mechanical properties :
#
#
# Convention : Reuss Voigt Hill
#
# Bulk Modulus (GPa) = 33.66750 46.55580 40.11165
# Shear Modulus (GPa) = 8.83107 29.44345 19.13726
#
# Velocity S-wave (km/s) = 2.01316 3.67592 2.96355
# Velocity P-wave (km/s) = 4.56669 6.27553 5.48803
#
# Compressibility (1/GPa) = 0.02970224
#
# Stress axis : x y z
#
# Youngs Moduli (GPa) = 97.84747 49.39082 110.64703
#
# Poissons Ratio (x) = 0.17056 0.24573
# Poissons Ratio (y) = 0.33789 -0.08552
# Poissons Ratio (z) = 0.21730 -0.03818
#
# Static dielectric constant tensor:
#      x y z
#    x 3.926420 0.000000 -0.144870 
#    y 0.000000 3.868580 0.000000 
#    z -0.144870 0.000000 4.040320 
# 
# 
# High freq. dielectric constant tensor:
#      x y z
#    x 1.845670 0.000000 -0.001490 
#    y 0.000000 1.851610 0.000000 
#    z -0.001490 0.000000 1.864400 
# 
# From -- ./inp_files/183896.got.cif
#   From: 2010.06.25/outbox.cif.g09.slc.cpg/sg12_92_cif.got.tgz:183896.got - 2010.06.28 00:19:55.
