data_PCOD8111127
_publ_section_title
;
Structure prediction by ZEFSAII (Michael W. Deem and Ramdas Pophale) SiO2 
 PCOD8111127
Probable space group: C 2/M
;
_chemical_formula_sum "Si O2"
_cell_formula_units_Z 56
_cell_length_a 16.682930
_cell_length_b 15.015646
_cell_length_c 13.765811
_cell_angle_alpha 90.000000
_cell_angle_beta 127.255018
_cell_angle_gamma 90.000000
_cell_volume 2744.753741
_symmetry_space_group_name_H-M "C 2/M"
_symmetry_group_IT_number 12
_symmetry_cell_setting 'monoclinic'
loop_
_space_group_symop_operation_xyz
x,y,z
-x,y,-z
-x,-y,-z
x,-y,z
1/2+x,1/2+y,z
1/2-x,1/2+y,-z
1/2-x,1/2-y,-z
1/2+x,1/2-y,z
loop_
_atom_site_type_symbol
_atom_site_label
_atom_site_fract_x
_atom_site_fract_y
_atom_site_fract_z
Si Si1 0.756238 0.745031 0.231751
Si Si2 0.820300 0.192472 0.482915
Si Si3 0.341689 0.500000 0.456086
Si Si4 0.887454 0.397384 0.957214
Si Si5 0.148191 0.292968 0.889636
Si Si6 0.075835 0.000000 0.686348
Si Si7 0.497622 0.651942 0.258194
Si Si8 0.589656 0.400882 0.135606
O O1 0.819362 0.768021 0.374197
O O2 0.692866 0.832033 0.152662
O O3 0.837956 0.702807 0.216702
O O4 0.681341 0.665119 0.195677
O O5 0.750000 0.250000 0.500000
O O6 0.785088 0.088217 0.453710
O O7 0.933145 0.195658 0.607400
O O8 0.457787 0.500000 0.572755
O O9 0.343748 0.500000 0.340502
O O10 0.857805 0.500000 0.914685
O O11 0.879010 0.381578 0.068588
O O12 0.000000 0.378038 0.000000
O O13 0.054516 0.228656 0.842795
O O14 0.250000 0.250000 0.000000
O O15 0.090809 0.909402 0.759126
O O16 0.559801 0.593908 0.226978
O O17 0.623012 0.500000 0.127485
O O18 0.500000 0.367449 0.000000
#
# Coordination Sequence:
#
# PCOD8111127 Si02
#       8
#     8   8   4   8   8   4   8   8
#     4  11  22  39  60  93 127 158 204 252 313 366
#     4  11  23  37  62  93 125 169 204 247 313 368
#     4   9  20  36  56  86 128 149 203 253 299 361
#     4  10  22  41  65  88 117 164 212 255 301 357
#     4  10  22  39  60  88 121 159 197 250 308 360
#     4   9  18  34  59  90 115 155 192 258 318 352
#     4  11  20  39  61  87 128 157 203 254 305 374
#     4  11  22  37  61  89 122 163 206 255 316 368
#
# _framework density 20.402557999999999
#
# number of rings (size 3 to 8) (size 9 to 14) (size 15 to 20)
#    0.000    1.571    2.143    3.857    1.000    2.286 
#    5.143    0.000    0.000    0.000    0.000    2.000 
#    0.000    0.000    0.000    0.000    0.000    0.000 
#
# Total GULP energy -346991.561471 kJ/mol
# GULP energy per Si atom -12392.555767 kJ/mol
# Density = 2.035612 g / cm^3
# Si number density = 20.402558 Si / 1000 Ang^3
#
#
#
# Elastic Constant Matrix: (Units=GPa)
#
#
# Indices 1 2 3 4 5 6 
#
# 1 98.7685 50.9930 28.1945 0.0000 -22.5751 0.0000
# 2 50.9930 112.4381 34.3946 0.0000 -1.9756 0.0000
# 3 28.1945 34.3946 106.5761 0.0000 -12.9339 0.0000
# 4 0.0000 0.0000 0.0000 26.6069 0.0000 -10.0213
# 5 -22.5751 -1.9756 -12.9339 0.0000 33.1588 0.0000
# 6 0.0000 0.0000 0.0000 -10.0213 0.0000 28.4671
#
#
#
# Elastic Compliance Matrix: (Units=1/GPa)
#
#
# Indices 1 2 3 4 5 6 
#
# 1 0.016332 -0.006977 -0.000808 0.000000 0.010388 0.000000
# 2 -0.006977 0.012864 -0.002928 0.000000 -0.005126 0.000000
# 3 -0.000808 -0.002928 0.010973 0.000000 0.003555 0.000000
# 4 0.000000 0.000000 0.000000 0.043329 0.000000 0.015253
# 5 0.010388 -0.005126 0.003555 0.000000 0.038312 0.000000
# 6 0.000000 0.000000 0.000000 0.015253 0.000000 0.040498
#
#
# Mechanical properties :
#
#
# Convention : Reuss Voigt Hill
#
# Bulk Modulus (GPa) = 53.35423 60.54964 56.95194
# Shear Modulus (GPa) = 26.31837 31.25992 28.78915
#
# Velocity S-wave (km/s) = 3.59549 3.91852 3.76048
# Velocity P-wave (km/s) = 6.59123 7.08626 6.84322
#
# Compressibility (1/GPa) = 0.01874266
#
# Stress axis : x y z
#
# Youngs Moduli (GPa) = 61.22949 77.73894 91.13215
#
# Poissons Ratio (x) = 0.54240 0.07365
# Poissons Ratio (y) = 0.42721 0.26680
# Poissons Ratio (z) = 0.04949 0.22759
#
# Static dielectric constant tensor:
#      x y z
#    x 3.832700 0.000000 -0.366690 
#    y 0.000000 3.801600 0.000000 
#    z -0.366690 0.000000 3.902890 
# 
# 
# High freq. dielectric constant tensor:
#      x y z
#    x 1.790720 0.000000 -0.017930 
#    y 0.000000 1.795710 0.000000 
#    z -0.017930 0.000000 1.798030 
# 
# From -- ./inp_files/225416.got.cif
#   From: 2010.06.25/outbox.cif.g09.slc.cpg/sg12_113_cif.got.tgz:225416.got - 2010.06.28 00:19:55.
