data_PCOD8111255
_publ_section_title
;
Structure prediction by ZEFSAII (Michael W. Deem and Ramdas Pophale) SiO2 
 PCOD8111255
Probable space group: C 2/M
;
_chemical_formula_sum "Si O2"
_cell_formula_units_Z 48
_cell_length_a 9.932932
_cell_length_b 16.840507
_cell_length_c 28.803868
_cell_angle_alpha 90.000000
_cell_angle_beta 150.864053
_cell_angle_gamma 90.000000
_cell_volume 2345.894511
_symmetry_space_group_name_H-M "C 2/M"
_symmetry_group_IT_number 12
_symmetry_cell_setting 'monoclinic'
loop_
_space_group_symop_operation_xyz
x,y,z
-x,y,-z
-x,-y,-z
x,-y,z
1/2+x,1/2+y,z
1/2-x,1/2+y,-z
1/2-x,1/2-y,-z
1/2+x,1/2-y,z
loop_
_atom_site_type_symbol
_atom_site_label
_atom_site_fract_x
_atom_site_fract_y
_atom_site_fract_z
Si Si1 0.827486 0.175085 0.493031
Si Si2 0.768282 0.172876 0.709097
Si Si3 0.798162 0.090143 0.222153
Si Si4 0.693380 0.406123 0.017874
Si Si5 0.833190 0.092373 0.823531
Si Si6 0.246501 0.360375 0.308049
O O1 0.750000 0.250000 0.500000
O O2 0.538724 0.134779 0.390449
O O3 0.000000 0.202153 0.500000
O O4 0.018997 0.118720 0.582791
O O5 0.885995 0.143754 0.793618
O O6 0.759048 0.267514 0.705790
O O7 0.961496 0.144594 0.725687
O O8 0.817825 0.090828 0.283618
O O9 0.836668 0.000000 0.216213
O O10 0.504896 0.126513 0.116888
O O11 0.700990 0.500000 0.027259
O O12 0.575676 0.383002 0.932124
O O13 0.500000 0.368785 0.000000
O O14 0.543280 0.110596 0.759879
O O15 0.851388 0.000000 0.816014
#
# Coordination Sequence:
#
# PCOD8111255 Si02
#       6
#     8   8   8   8   8   8
#     4  10  22  39  63  89 121 165 205 239 297 376
#     4  11  24  40  60  92 126 154 197 257 305 353
#     4  11  23  41  63  90 123 160 203 251 301 358
#     4   9  18  36  62  87 116 162 207 238 291 374
#     4  11  21  39  64  89 119 160 204 247 299 359
#     4  11  22  40  65  89 118 161 206 244 297 363
#
# _framework density 20.461278
#
# number of rings (size 3 to 8) (size 9 to 14) (size 15 to 20)
#    0.000    1.500    3.333    2.000    7.000    0.667 
#    0.000   12.500    0.000    0.000    0.000    0.000 
#    0.000    0.000    0.000    0.000    0.000    0.000 
#
# Total GULP energy -297623.771540 kJ/mol
# GULP energy per Si atom -12400.990481 kJ/mol
# Density = 2.041471 g / cm^3
# Si number density = 20.461278 Si / 1000 Ang^3
#
#
#
# Elastic Constant Matrix: (Units=GPa)
#
#
# Indices 1 2 3 4 5 6 
#
# 1 98.1034 -1.9741 39.7126 0.0008 -4.2325 -0.0104
# 2 -1.9741 42.8051 13.8310 -0.0012 -5.8533 -0.0002
# 3 39.7126 13.8310 136.0608 0.0001 -5.6210 -0.0070
# 4 0.0008 -0.0012 0.0001 17.0988 -0.0019 4.5834
# 5 -4.2325 -5.8533 -5.6210 -0.0019 41.3466 -0.0019
# 6 -0.0104 -0.0002 -0.0070 4.5834 -0.0019 2.6682
#
#
#
# Elastic Compliance Matrix: (Units=1/GPa)
#
#
# Indices 1 2 3 4 5 6 
#
# 1 0.011715 0.001825 -0.003565 -0.000019 0.000973 0.000070
# 2 0.001825 0.024842 -0.002921 0.000002 0.003306 0.000000
# 3 -0.003565 -0.002921 0.008704 -0.000005 0.000405 0.000017
# 4 -0.000019 0.000002 -0.000005 0.108395 -0.000006 -0.186199
# 5 0.000973 0.003306 0.000405 -0.000006 0.024808 0.000034
# 6 0.000070 0.000000 0.000017 -0.186199 0.000034 0.694627
#
#
# Mechanical properties :
#
#
# Convention : Reuss Voigt Hill
#
# Bulk Modulus (GPa) = 27.82496 42.23426 35.02961
# Shear Modulus (GPa) = 5.59038 27.24938 16.41988
#
# Velocity S-wave (km/s) = 1.65472 3.65328 2.83589
# Velocity P-wave (km/s) = 4.15682 6.20332 5.28017
#
# Compressibility (1/GPa) = 0.03593896
#
# Stress axis : x y z
#
# Youngs Moduli (GPa) = 85.36057 40.25447 114.89275
#
# Poissons Ratio (x) = -0.07347 0.40955
# Poissons Ratio (y) = -0.15579 0.33564
# Poissons Ratio (z) = 0.30428 0.11760
#
# Static dielectric constant tensor:
#      x y z
#    x 3.328550 0.000060 -0.018900 
#    y 0.000060 3.508910 -0.000010 
#    z -0.018900 -0.000010 4.420330 
# 
# 
# High freq. dielectric constant tensor:
#      x y z
#    x 1.811930 0.000000 -0.005280 
#    y 0.000000 1.765870 0.000000 
#    z -0.005280 0.000000 1.818140 
# 
# From -- ./inp_files/356886.got.cif
#   From: 2010.06.25/outbox.cif.g09.slc.cpg/sg12_179_cif.got.tgz:356886.got - 2010.06.28 00:19:55.
