data_PCOD8111682
_publ_section_title
;
Structure prediction by ZEFSAII (Michael W. Deem and Ramdas Pophale) SiO2 
 PCOD8111682
Probable space group: C 2/M
;
_chemical_formula_sum "Si O2"
_cell_formula_units_Z 40
_cell_length_a 9.907455
_cell_length_b 16.848420
_cell_length_c 12.540287
_cell_angle_alpha 90.000000
_cell_angle_beta 66.637595
_cell_angle_gamma 90.000000
_cell_volume 1921.668853
_symmetry_space_group_name_H-M "C 2/M"
_symmetry_group_IT_number 12
_symmetry_cell_setting 'monoclinic'
loop_
_space_group_symop_operation_xyz
x,y,z
-x,y,-z
-x,-y,-z
x,-y,z
1/2+x,1/2+y,z
1/2-x,1/2+y,-z
1/2-x,1/2-y,-z
1/2+x,1/2-y,z
loop_
_atom_site_type_symbol
_atom_site_label
_atom_site_fract_x
_atom_site_fract_y
_atom_site_fract_z
Si Si1 0.115365 0.838035 0.246397
Si Si2 0.856059 0.652791 0.755052
Si Si3 0.155059 0.174286 0.001930
Si Si4 0.827463 0.409565 0.339761
Si Si5 0.810942 0.093442 0.394073
O O1 0.091616 0.743642 0.250246
O O2 0.129569 0.872683 0.120961
O O3 0.263383 0.856391 0.264694
O O4 0.980804 0.881474 0.346476
O O5 0.770658 0.642227 0.671706
O O6 0.997334 0.596970 0.713764
O O7 0.747972 0.625001 0.885194
O O8 0.250000 0.250000 0.000000
O O9 0.000000 0.200058 0.000000
O O10 0.781759 0.500000 0.333241
O O11 0.762869 0.380368 0.472342
O O12 0.794915 0.000000 0.378179
#
# Coordination Sequence:
#
# PCOD8111682 Si02
#       5
#     8   8   8   8   8
#     4  11  23  40  66  94 123 159 211 260 302 368
#     4  11  23  40  66  94 123 159 211 260 302 368
#     4  10  22  40  65  94 126 162 200 256 320 366
#     4  11  25  42  61  90 130 169 204 251 318 369
#     4  11  23  42  63  88 128 171 204 251 314 371
#
# _framework density 20.815241
#
# number of rings (size 3 to 8) (size 9 to 14) (size 15 to 20)
#    0.000    1.200    2.000    3.600    8.400    8.000 
#    0.000    6.000    0.000    0.000    0.000    0.000 
#    0.000    0.000    0.000    0.000    0.000    0.000 
#
# Total GULP energy -248073.068458 kJ/mol
# GULP energy per Si atom -12403.653423 kJ/mol
# Density = 2.076786 g / cm^3
# Si number density = 20.815241 Si / 1000 Ang^3
#
#
#
# Elastic Constant Matrix: (Units=GPa)
#
#
# Indices 1 2 3 4 5 6 
#
# 1 111.6664 7.8482 54.8210 0.0000 -4.8166 0.0000
# 2 7.8482 43.7490 36.6459 0.0000 -0.5493 0.0000
# 3 54.8210 36.6459 161.9089 0.0000 -1.6492 0.0000
# 4 0.0000 0.0000 0.0000 4.9650 0.0000 0.6378
# 5 -4.8166 -0.5493 -1.6492 0.0000 43.1495 0.0000
# 6 0.0000 0.0000 0.0000 0.6378 0.0000 32.2847
#
#
#
# Elastic Compliance Matrix: (Units=1/GPa)
#
#
# Indices 1 2 3 4 5 6 
#
# 1 0.010859 0.001402 -0.003983 0.000000 0.001078 0.000000
# 2 0.001402 0.028387 -0.006897 0.000000 0.000254 0.000000
# 3 -0.003983 -0.006897 0.009084 0.000000 -0.000185 0.000000
# 4 0.000000 0.000000 0.000000 0.201923 0.000000 -0.003989
# 5 0.001078 0.000254 -0.000185 0.000000 0.023292 0.000000
# 6 0.000000 0.000000 0.000000 -0.003989 0.000000 0.031053
#
#
# Mechanical properties :
#
#
# Convention : Reuss Voigt Hill
#
# Bulk Modulus (GPa) = 34.04477 57.32828 45.68652
# Shear Modulus (GPa) = 14.99949 30.61377 22.80663
#
# Velocity S-wave (km/s) = 2.68731 3.83918 3.31368
# Velocity P-wave (km/s) = 5.10099 6.87413 6.05284
#
# Compressibility (1/GPa) = 0.02937309
#
# Stress axis : x y z
#
# Youngs Moduli (GPa) = 92.09320 35.22788 110.08293
#
# Poissons Ratio (x) = -0.04938 0.43845
# Poissons Ratio (y) = -0.12910 0.75924
# Poissons Ratio (z) = 0.36680 0.24297
#
# Static dielectric constant tensor:
#      x y z
#    x 3.739430 0.000000 -0.117840 
#    y 0.000000 3.413450 0.000000 
#    z -0.117840 0.000000 4.517040 
# 
# 
# High freq. dielectric constant tensor:
#      x y z
#    x 1.831730 0.000000 0.000260 
#    y 0.000000 1.788220 0.000000 
#    z 0.000260 0.000000 1.836530 
# 
# From -- ./inp_files/118911.got.cif
#   From: 2010.06.25/outbox.cif.g09.slc.cpg/sg12_60_cif.got.tgz:118911.got - 2010.06.28 00:19:55.
