data_PCOD8111861
_publ_section_title
;
Structure prediction by ZEFSAII (Michael W. Deem and Ramdas Pophale) SiO2 
 PCOD8111861
Probable space group: C 2/M
;
_chemical_formula_sum "Si O2"
_cell_formula_units_Z 40
_cell_length_a 19.219439
_cell_length_b 10.442041
_cell_length_c 19.309671
_cell_angle_alpha 90.000000
_cell_angle_beta 150.488738
_cell_angle_gamma 90.000000
_cell_volume 1908.932823
_symmetry_space_group_name_H-M "C 2/M"
_symmetry_group_IT_number 12
_symmetry_cell_setting 'monoclinic'
loop_
_space_group_symop_operation_xyz
x,y,z
-x,y,-z
-x,-y,-z
x,-y,z
1/2+x,1/2+y,z
1/2-x,1/2+y,-z
1/2-x,1/2-y,-z
1/2+x,1/2-y,z
loop_
_atom_site_type_symbol
_atom_site_label
_atom_site_fract_x
_atom_site_fract_y
_atom_site_fract_z
Si Si1 0.362010 0.641975 0.336759
Si Si2 0.400767 0.642479 0.070161
Si Si3 0.886008 0.776281 0.208032
Si Si4 0.164038 0.356761 0.466694
Si Si5 0.200442 0.853535 0.270432
O O1 0.500000 0.674970 0.500000
O O2 0.304833 0.500000 0.307622
O O3 0.400148 0.637839 0.288624
O O4 0.247323 0.753301 0.252012
O O5 0.363810 0.500000 0.014442
O O6 0.424812 0.642492 0.173724
O O7 0.543970 0.688469 0.157574
O O8 0.275176 0.732380 0.937314
O O9 0.996572 0.659012 0.309149
O O10 0.207742 0.500000 0.479713
O O11 0.250000 0.250000 0.500000
O O12 0.193654 0.341167 0.573493
O O13 0.202868 0.000000 0.243845
#
# Coordination Sequence:
#
# PCOD8111861 Si02
#       5
#     8   8   8   8   8
#     4  11  24  41  64  95 128 165 205 258 316 367
#     4  10  22  41  63  89 124 165 207 254 311 371
#     4  11  22  40  63  93 125 162 210 256 309 371
#     4  11  22  37  62  94 125 163 210 260 309 363
#     4  10  22  41  63  91 125 165 207 254 309 371
#
# _framework density 20.954115999999999
#
# number of rings (size 3 to 8) (size 9 to 14) (size 15 to 20)
#    0.000    1.400    4.000    1.200    0.000    4.400 
#    0.000    5.000    0.000    0.000    0.000    0.000 
#    0.000    0.000    0.000    0.000    0.000    0.000 
#
# Total GULP energy -247986.466386 kJ/mol
# GULP energy per Si atom -12399.323319 kJ/mol
# Density = 2.090642 g / cm^3
# Si number density = 20.954116 Si / 1000 Ang^3
#
#
#
# Elastic Constant Matrix: (Units=GPa)
#
#
# Indices 1 2 3 4 5 6 
#
# 1 98.1022 53.9840 21.6990 0.0001 7.3917 0.0000
# 2 53.9840 127.3111 25.7038 0.0001 16.7731 0.0001
# 3 21.6990 25.7038 83.1072 0.0001 10.6923 0.0001
# 4 0.0001 0.0001 0.0001 17.6687 0.0001 4.6420
# 5 7.3917 16.7731 10.6923 0.0001 33.6264 0.0001
# 6 0.0000 0.0001 0.0001 4.6420 0.0001 31.5860
#
#
#
# Elastic Compliance Matrix: (Units=1/GPa)
#
#
# Indices 1 2 3 4 5 6 
#
# 1 0.013569 -0.005411 -0.001911 0.000000 0.000324 0.000000
# 2 -0.005411 0.010949 -0.001485 0.000000 -0.003800 0.000000
# 3 -0.001911 -0.001485 0.013389 0.000000 -0.003097 0.000000
# 4 0.000000 0.000000 0.000000 0.058870 0.000000 -0.008652
# 5 0.000324 -0.003800 -0.003097 0.000000 0.032548 0.000000
# 6 0.000000 0.000000 0.000000 -0.008652 0.000000 0.032931
#
#
# Mechanical properties :
#
#
# Convention : Reuss Voigt Hill
#
# Bulk Modulus (GPa) = 49.27379 56.81045 53.04212
# Shear Modulus (GPa) = 26.79028 30.38514 28.58771
#
# Velocity S-wave (km/s) = 3.57952 3.81212 3.69765
# Velocity P-wave (km/s) = 6.37574 6.82254 6.60292
#
# Compressibility (1/GPa) = 0.02029477
#
# Stress axis : x y z
#
# Youngs Moduli (GPa) = 73.69685 91.32852 74.68655
#
# Poissons Ratio (x) = 0.49414 0.14273
# Poissons Ratio (y) = 0.39874 0.11090
# Poissons Ratio (z) = 0.14084 0.13561
#
# Static dielectric constant tensor:
#      x y z
#    x 3.704800 0.000000 -0.035070 
#    y 0.000000 3.708540 0.000000 
#    z -0.035070 0.000000 3.816570 
# 
# 
# High freq. dielectric constant tensor:
#      x y z
#    x 1.815190 0.000000 -0.000240 
#    y 0.000000 1.816500 0.000000 
#    z -0.000240 0.000000 1.827380 
# 
# From -- ./inp_files/277225.got.cif
#   From: 2010.06.25/outbox.cif.g09.slc.cpg/sg12_139_cif.got.tgz:277225.got - 2010.06.28 00:19:55.
