data_PCOD8111730
_publ_section_title
;
Structure prediction by ZEFSAII (Michael W. Deem and Ramdas Pophale) SiO2 
 PCOD8111730
Probable space group: C 2/M
;
_chemical_formula_sum "Si O2"
_cell_formula_units_Z 56
_cell_length_a 25.455230
_cell_length_b 17.442175
_cell_length_c 8.597157
_cell_angle_alpha 90.000000
_cell_angle_beta 42.509045
_cell_angle_gamma 90.000000
_cell_volume 2579.233595
_symmetry_space_group_name_H-M "C 2/M"
_symmetry_group_IT_number 12
_symmetry_cell_setting 'monoclinic'
loop_
_space_group_symop_operation_xyz
x,y,z
-x,y,-z
-x,-y,-z
x,-y,z
1/2+x,1/2+y,z
1/2-x,1/2+y,-z
1/2-x,1/2-y,-z
1/2+x,1/2-y,z
loop_
_atom_site_type_symbol
_atom_site_label
_atom_site_fract_x
_atom_site_fract_y
_atom_site_fract_z
Si Si1 0.651626 0.413850 0.408049
Si Si2 0.315917 0.147807 0.017377
Si Si3 0.662128 0.153739 0.398040
Si Si4 0.076590 0.085605 0.254407
Si Si5 0.409953 0.000000 0.844851
Si Si6 0.417215 0.712349 0.261133
Si Si7 0.828857 0.804403 0.151009
Si Si8 0.420859 0.000000 0.451691
O O1 0.657439 0.500000 0.463746
O O2 0.642264 0.418168 0.243168
O O3 0.581938 0.368378 0.646579
O O4 0.728803 0.364746 0.267246
O O5 0.320586 0.156120 0.822247
O O6 0.364405 0.077755 0.984118
O O7 0.346003 0.226970 0.020419
O O8 0.600931 0.219618 0.577829
O O9 0.742381 0.162533 0.317506
O O10 0.622274 0.073055 0.527894
O O11 0.000000 0.122555 0.500000
O O12 0.056578 0.000000 0.236136
O O13 0.106756 0.134793 0.045318
O O14 0.420603 0.000000 0.637599
O O15 0.486907 0.000000 0.785013
O O16 0.346118 0.710113 0.293792
O O17 0.500000 0.726386 0.000000
#
# Coordination Sequence:
#
# PCOD8111730 Si02
#       8
#     8   8   8   8   4   8   8   4
#     4  11  22  42  68  95 128 168 218 277 334 395
#     4  11  21  39  72 100 129 164 225 284 335 395
#     4  11  23  43  68  98 132 173 224 282 332 400
#     4  10  22  40  66  98 128 162 220 281 335 389
#     4   9  20  40  65 104 134 162 211 282 350 389
#     4  12  28  45  60  92 141 183 223 270 332 402
#     4  12  24  40  66  96 131 180 227 267 334 399
#     4   9  22  40  66 101 133 167 216 277 339 395
#
# _framework density 21.711876
#
# number of rings (size 3 to 8) (size 9 to 14) (size 15 to 20)
#    0.000    1.143    3.571    2.571    3.000    0.857 
#    2.571    1.071    0.000    0.000    0.000    0.000 
#    0.000    0.000    0.000    0.000    0.000    0.000 
#
# Total GULP energy -347241.977181 kJ/mol
# GULP energy per Si atom -12401.499185 kJ/mol
# Density = 2.166246 g / cm^3
# Si number density = 21.711876 Si / 1000 Ang^3
#
#
#
# Elastic Constant Matrix: (Units=GPa)
#
#
# Indices 1 2 3 4 5 6 
#
# 1 74.5494 32.3084 10.8385 0.0000 -6.8881 0.0000
# 2 32.3084 142.5354 53.2817 0.0000 -3.2377 0.0000
# 3 10.8385 53.2817 98.3354 0.0000 -19.9214 0.0000
# 4 0.0000 0.0000 0.0000 26.7622 0.0000 -11.7716
# 5 -6.8881 -3.2377 -19.9214 0.0000 28.2119 0.0000
# 6 0.0000 0.0000 0.0000 -11.7716 0.0000 9.2059
#
#
#
# Elastic Compliance Matrix: (Units=1/GPa)
#
#
# Indices 1 2 3 4 5 6 
#
# 1 0.015279 -0.003830 0.001235 0.000000 0.004163 0.000000
# 2 -0.003830 0.009945 -0.005746 0.000000 -0.003852 0.000000
# 3 0.001235 -0.005746 0.015257 0.000000 0.010415 0.000000
# 4 0.000000 0.000000 0.000000 0.085398 0.000000 0.109198
# 5 0.004163 -0.003852 0.010415 0.000000 0.043375 0.000000
# 6 0.000000 0.000000 0.000000 0.109198 0.000000 0.248258
#
#
# Mechanical properties :
#
#
# Convention : Reuss Voigt Hill
#
# Bulk Modulus (GPa) = 42.02341 56.47526 49.24933
# Shear Modulus (GPa) = 11.30895 27.43544 19.37219
#
# Velocity S-wave (km/s) = 2.28472 3.55859 2.99028
# Velocity P-wave (km/s) = 5.13391 6.55381 5.88683
#
# Compressibility (1/GPa) = 0.02379626
#
# Stress axis : x y z
#
# Youngs Moduli (GPa) = 65.44929 100.55692 65.54425
#
# Poissons Ratio (x) = 0.38516 -0.08092
# Poissons Ratio (y) = 0.25069 0.37665
# Poissons Ratio (z) = -0.08080 0.57785
#
# Static dielectric constant tensor:
#      x y z
#    x 3.815400 0.000000 -0.143030 
#    y 0.000000 4.077850 0.000000 
#    z -0.143030 0.000000 3.772770 
# 
# 
# High freq. dielectric constant tensor:
#      x y z
#    x 1.843010 0.000000 -0.013810 
#    y 0.000000 1.866020 0.000000 
#    z -0.013810 0.000000 1.848800 
# 
# From -- ./inp_files/105993.got.cif
#   From: 2010.06.25/outbox.cif.g09.slc.cpg/sg12_53_cif.got.tgz:105993.got - 2010.06.28 00:19:55.
