data_PCOD8111872
_publ_section_title
;
Structure prediction by ZEFSAII (Michael W. Deem and Ramdas Pophale) SiO2 
 PCOD8111872
Probable space group: C 2/M
;
_chemical_formula_sum "Si O2"
_cell_formula_units_Z 56
_cell_length_a 25.967894
_cell_length_b 17.685661
_cell_length_c 9.374389
_cell_angle_alpha 90.000000
_cell_angle_beta 36.815788
_cell_angle_gamma 90.000000
_cell_volume 2579.911749
_symmetry_space_group_name_H-M "C 2/M"
_symmetry_group_IT_number 12
_symmetry_cell_setting 'monoclinic'
loop_
_space_group_symop_operation_xyz
x,y,z
-x,y,-z
-x,-y,-z
x,-y,z
1/2+x,1/2+y,z
1/2-x,1/2+y,-z
1/2-x,1/2-y,-z
1/2+x,1/2-y,z
loop_
_atom_site_type_symbol
_atom_site_label
_atom_site_fract_x
_atom_site_fract_y
_atom_site_fract_z
Si Si1 0.157214 0.587579 0.318259
Si Si2 0.463955 0.339243 0.933223
Si Si3 0.667805 0.783814 0.763288
Si Si4 0.097949 0.584633 0.745711
Si Si5 0.723892 0.817007 0.951529
Si Si6 0.893761 0.090017 0.576354
Si Si7 0.652642 0.584881 0.013277
O O1 0.144100 0.500000 0.308829
O O2 0.099489 0.614878 0.578481
O O3 0.144599 0.636774 0.202616
O O4 0.253220 0.609988 0.152285
O O5 0.537149 0.355349 0.653499
O O6 0.376316 0.374075 0.066281
O O7 0.500000 0.375021 0.000000
O O8 0.426676 0.255518 0.051236
O O9 0.750000 0.750000 0.500000
O O10 0.654989 0.867400 0.728273
O O11 0.686902 0.782812 0.888785
O O12 0.137840 0.500000 0.660236
O O13 0.000000 0.583398 0.000000
O O14 0.800682 0.875562 0.743516
O O15 0.750000 0.750000 0.000000
O O16 0.909324 0.097340 0.712150
O O17 0.899369 0.000000 0.519635
O O18 0.651145 0.500000 0.967158
#
# Coordination Sequence:
#
# PCOD8111872 Si02
#       7
#     8   8   8   8   8   8   8
#     4   9  19  39  65  90 118 156 207 259 309 371
#     4  12  24  37  56  86 124 162 201 249 302 361
#     4  12  25  42  62  89 127 166 208 255 307 374
#     4  10  22  42  66  89 120 163 206 255 316 376
#     4  11  22  38  63  91 123 165 211 256 304 367
#     4  10  22  41  63  90 125 159 197 251 314 373
#     4   9  18  35  59  86 121 162 198 239 297 368
#
# _framework density 21.706168999999999
#
# number of rings (size 3 to 8) (size 9 to 14) (size 15 to 20)
#    0.000    1.571    0.000    6.857    0.000    4.571 
#    0.000    4.286    0.000    2.571    0.000    0.000 
#    0.000    0.000    0.000    0.000    0.000    0.000 
#
# Total GULP energy -346876.135399 kJ/mol
# GULP energy per Si atom -12388.433407 kJ/mol
# Density = 2.165676 g / cm^3
# Si number density = 21.706169 Si / 1000 Ang^3
#
#
#
# Elastic Constant Matrix: (Units=GPa)
#
#
# Indices 1 2 3 4 5 6 
#
# 1 87.9606 22.4376 29.8068 0.0000 24.6168 0.0000
# 2 22.4376 83.4693 45.9118 0.0000 10.1231 0.0000
# 3 29.8068 45.9118 145.8625 0.0000 11.4347 0.0000
# 4 0.0000 0.0000 0.0000 33.6485 0.0000 1.1209
# 5 24.6168 10.1231 11.4347 0.0000 38.9225 0.0000
# 6 0.0000 0.0000 0.0000 1.1209 0.0000 35.9218
#
#
#
# Elastic Compliance Matrix: (Units=1/GPa)
#
#
# Indices 1 2 3 4 5 6 
#
# 1 0.014802 -0.002013 -0.001738 0.000000 -0.008327 0.000000
# 2 -0.002013 0.015002 -0.004201 0.000000 -0.001394 0.000000
# 3 -0.001738 -0.004201 0.008559 0.000000 -0.000322 0.000000
# 4 0.000000 0.000000 0.000000 0.029750 0.000000 -0.000928
# 5 -0.008327 -0.001394 -0.000322 0.000000 0.031416 0.000000
# 6 0.000000 0.000000 0.000000 -0.000928 0.000000 0.027867
#
#
# Mechanical properties :
#
#
# Convention : Reuss Voigt Hill
#
# Bulk Modulus (GPa) = 44.52947 57.06720 50.79834
# Shear Modulus (GPa) = 33.15970 36.30766 34.73368
#
# Velocity S-wave (km/s) = 3.91277 4.09429 4.00456
# Velocity P-wave (km/s) = 6.40096 6.97845 6.69593
#
# Compressibility (1/GPa) = 0.02245704
#
# Stress axis : x y z
#
# Youngs Moduli (GPa) = 67.55984 66.65993 116.84081
#
# Poissons Ratio (x) = 0.13417 0.20311
# Poissons Ratio (y) = 0.13598 0.49088
# Poissons Ratio (z) = 0.11744 0.28006
#
# Static dielectric constant tensor:
#      x y z
#    x 3.994630 0.000000 0.356910 
#    y 0.000000 4.246630 0.000000 
#    z 0.356910 0.000000 4.220810 
# 
# 
# High freq. dielectric constant tensor:
#      x y z
#    x 1.833250 0.000000 0.011410 
#    y 0.000000 1.857870 0.000000 
#    z 0.011410 0.000000 1.865180 
# 
# From -- ./inp_files/105985.got.cif
#   From: 2010.06.25/outbox.cif.g09.slc.cpg/sg12_53_cif.got.tgz:105985.got - 2010.06.28 00:19:55.
