data_PCOD8111471
_publ_section_title
;
Structure prediction by ZEFSAII (Michael W. Deem and Ramdas Pophale) SiO2 
 PCOD8111471
Probable space group: C 2/M
;
_chemical_formula_sum "Si O2"
_cell_formula_units_Z 56
_cell_length_a 22.322139
_cell_length_b 16.601161
_cell_length_c 8.693593
_cell_angle_alpha 90.000000
_cell_angle_beta 52.139890
_cell_angle_gamma 90.000000
_cell_volume 2543.501925
_symmetry_space_group_name_H-M "C 2/M"
_symmetry_group_IT_number 12
_symmetry_cell_setting 'monoclinic'
loop_
_space_group_symop_operation_xyz
x,y,z
-x,y,-z
-x,-y,-z
x,-y,z
1/2+x,1/2+y,z
1/2-x,1/2+y,-z
1/2-x,1/2-y,-z
1/2+x,1/2-y,z
loop_
_atom_site_type_symbol
_atom_site_label
_atom_site_fract_x
_atom_site_fract_y
_atom_site_fract_z
Si Si1 0.922956 0.590170 0.185580
Si Si2 0.767661 0.659012 0.436320
Si Si3 0.366195 0.592915 0.528013
Si Si4 0.624539 0.593928 0.135518
Si Si5 0.992561 0.188956 0.189705
Si Si6 0.717125 0.907208 0.259212
Si Si7 0.061851 0.342581 0.529265
O O1 0.909361 0.500000 0.143277
O O2 0.854390 0.648321 0.241377
O O3 0.932743 0.585974 0.354312
O O4 0.000000 0.628776 0.000000
O O5 0.750000 0.750000 0.500000
O O6 0.713554 0.634069 0.383271
O O7 0.756519 0.604382 0.605367
O O8 0.352282 0.500000 0.528891
O O9 0.391613 0.613852 0.660953
O O10 0.430483 0.618829 0.305568
O O11 0.605586 0.500000 0.128304
O O12 0.572933 0.654970 0.119941
O O13 0.711959 0.613630 0.961330
O O14 0.960545 0.260931 0.346941
O O15 0.000000 0.214617 0.000000
O O16 0.647866 0.845244 0.323473
O O17 0.692746 0.000000 0.272460
O O18 0.000000 0.364125 0.500000
#
# Coordination Sequence:
#
# PCOD8111471 Si02
#       7
#     8   8   8   8   8   8   8
#     4  10  22  40  61  88 124 165 211 260 308 364
#     4  11  22  38  60  88 123 163 207 252 304 365
#     4  11  22  39  65  94 125 161 205 257 311 368
#     4  10  23  42  65  95 127 160 203 258 312 366
#     4  12  25  42  63  91 128 166 206 252 311 378
#     4  10  22  42  64  89 124 165 210 255 304 366
#     4  11  23  40  62  91 125 164 209 258 312 367
#
# _framework density 22.016888999999999
#
# number of rings (size 3 to 8) (size 9 to 14) (size 15 to 20)
#    0.000    1.286    0.000    7.286    0.000    6.857 
#    0.000    7.857    0.000    0.000    0.000    0.000 
#    0.000    0.000    0.000    0.000    0.000    0.000 
#
# Total GULP energy -347139.801856 kJ/mol
# GULP energy per Si atom -12397.850066 kJ/mol
# Density = 2.196678 g / cm^3
# Si number density = 22.016889 Si / 1000 Ang^3
#
#
#
# Elastic Constant Matrix: (Units=GPa)
#
#
# Indices 1 2 3 4 5 6 
#
# 1 142.9254 59.1074 39.7912 0.0000 -23.1278 0.0000
# 2 59.1074 110.3691 42.6796 0.0000 -18.1205 0.0000
# 3 39.7912 42.6796 103.1635 0.0000 -36.0112 0.0000
# 4 0.0000 0.0000 0.0000 34.6670 0.0000 -5.7577
# 5 -23.1278 -18.1205 -36.0112 0.0000 36.2092 0.0000
# 6 0.0000 0.0000 0.0000 -5.7577 0.0000 33.9790
#
#
#
# Elastic Compliance Matrix: (Units=1/GPa)
#
#
# Indices 1 2 3 4 5 6 
#
# 1 0.009487 -0.004255 -0.000807 0.000000 0.003127 0.000000
# 2 -0.004255 0.012746 -0.003606 0.000000 0.000075 0.000000
# 3 -0.000807 -0.003606 0.016369 0.000000 0.013960 0.000000
# 4 0.000000 0.000000 0.000000 0.029681 0.000000 0.005029
# 5 0.003127 0.000075 0.013960 0.000000 0.043536 0.000000
# 6 0.000000 0.000000 0.000000 0.005029 0.000000 0.030282
#
#
# Mechanical properties :
#
#
# Convention : Reuss Voigt Hill
#
# Bulk Modulus (GPa) = 47.02300 71.06826 59.04563
# Shear Modulus (GPa) = 30.02520 35.29636 32.66078
#
# Velocity S-wave (km/s) = 3.69688 4.00828 3.85573
# Velocity P-wave (km/s) = 6.29497 7.33286 6.83365
#
# Compressibility (1/GPa) = 0.02126619
#
# Stress axis : x y z
#
# Youngs Moduli (GPa) = 105.40492 78.45627 61.08956
#
# Poissons Ratio (x) = 0.33385 0.04931
# Poissons Ratio (y) = 0.44852 0.22028
# Poissons Ratio (z) = 0.08508 0.28290
#
# Static dielectric constant tensor:
#      x y z
#    x 4.067150 0.000000 -0.186830 
#    y 0.000000 4.046880 0.000000 
#    z -0.186830 0.000000 4.185810 
# 
# 
# High freq. dielectric constant tensor:
#      x y z
#    x 1.864490 0.000000 -0.017410 
#    y 0.000000 1.870560 0.000000 
#    z -0.017410 0.000000 1.868410 
# 
# From -- ./inp_files/98064.got.cif
#   From: 2010.06.25/outbox.cif.g09.slc.cpg/sg12_50_cif.got.tgz:98064.got - 2010.06.28 00:19:55.
