data_PCOD8111721
_publ_section_title
;
Structure prediction by ZEFSAII (Michael W. Deem and Ramdas Pophale) SiO2 
 PCOD8111721
Probable space group: C 2/M
;
_chemical_formula_sum "Si O2"
_cell_formula_units_Z 56
_cell_length_a 18.120337
_cell_length_b 26.835873
_cell_length_c 8.517411
_cell_angle_alpha 90.000000
_cell_angle_beta 139.734470
_cell_angle_gamma 90.000000
_cell_volume 2676.975982
_symmetry_space_group_name_H-M "C 2/M"
_symmetry_group_IT_number 12
_symmetry_cell_setting 'monoclinic'
loop_
_space_group_symop_operation_xyz
x,y,z
-x,y,-z
-x,-y,-z
x,-y,z
1/2+x,1/2+y,z
1/2-x,1/2+y,-z
1/2-x,1/2-y,-z
1/2+x,1/2-y,z
loop_
_atom_site_type_symbol
_atom_site_label
_atom_site_fract_x
_atom_site_fract_y
_atom_site_fract_z
Si Si1 0.318488 0.130295 0.031291
Si Si2 0.908403 0.445724 0.962668
Si Si3 0.958821 0.192323 0.099910
Si Si4 0.186771 0.944103 0.397649
Si Si5 0.005743 0.693534 0.189194
Si Si6 0.770341 0.356562 0.305193
Si Si7 0.576235 0.611650 0.485277
O O1 0.394952 0.083660 0.101601
O O2 0.198064 0.130267 0.746396
O O3 0.392264 0.178423 0.101684
O O4 0.307423 0.123006 0.197377
O O5 0.956649 0.500000 0.087123
O O6 0.792110 0.450041 0.682263
O O7 0.000000 0.417929 0.000000
O O8 0.007926 0.247169 0.208055
O O9 0.007449 0.160303 0.321391
O O10 0.821435 0.187557 0.871997
O O11 0.000000 0.171187 0.000000
O O12 0.215107 0.903540 0.308848
O O13 0.085493 0.924942 0.349110
O O14 0.156450 0.000000 0.280966
O O15 0.121583 0.668557 0.438361
O O16 0.000000 0.676948 0.000000
O O17 0.500000 0.586026 0.500000
#
# Coordination Sequence:
#
# PCOD8111721 Si02
#       7
#     8   8   8   8   8   8   8
#     4  11  23  39  64  94 131 168 214 268 322 386
#     4   9  18  36  63  92 125 168 213 264 326 385
#     4  11  25  43  67  92 128 171 221 265 326 379
#     4  10  22  40  66  94 129 171 214 264 323 385
#     4  11  26  42  66  95 127 173 217 270 327 380
#     4  12  24  43  65  95 137 168 218 269 320 386
#     4  11  22  42  66  92 132 170 214 266 323 379
#
# _framework density 20.919127
#
# number of rings (size 3 to 8) (size 9 to 14) (size 15 to 20)
#    0.000    1.286    2.857    3.429    2.000    3.714 
#    0.000    1.429    0.000    4.286    0.000    0.000 
#    0.000    0.000    0.000    0.000    0.000    0.000 
#
# Total GULP energy -347040.846506 kJ/mol
# GULP energy per Si atom -12394.315947 kJ/mol
# Density = 2.087151 g / cm^3
# Si number density = 20.919127 Si / 1000 Ang^3
#
#
#
# Elastic Constant Matrix: (Units=GPa)
#
#
# Indices 1 2 3 4 5 6 
#
# 1 177.9038 51.8460 38.9852 0.0000 -7.7435 0.0000
# 2 51.8460 107.3515 41.6732 0.0000 -2.5754 0.0000
# 3 38.9852 41.6732 94.4486 0.0000 5.1177 0.0000
# 4 0.0000 0.0000 0.0000 18.8489 0.0000 2.8550
# 5 -7.7435 -2.5754 5.1177 0.0000 39.1972 0.0000
# 6 0.0000 0.0000 0.0000 2.8550 0.0000 16.0666
#
#
#
# Elastic Compliance Matrix: (Units=1/GPa)
#
#
# Indices 1 2 3 4 5 6 
#
# 1 0.006818 -0.002579 -0.001753 0.000000 0.001406 0.000000
# 2 -0.002579 0.012292 -0.004407 0.000000 0.000874 0.000000
# 3 -0.001753 -0.004407 0.013385 0.000000 -0.002383 0.000000
# 4 0.000000 0.000000 0.000000 0.054521 0.000000 -0.009688
# 5 0.001406 0.000874 -0.002383 0.000000 0.026158 0.000000
# 6 0.000000 0.000000 0.000000 -0.009688 0.000000 0.063962
#
#
# Mechanical properties :
#
#
# Convention : Reuss Voigt Hill
#
# Bulk Modulus (GPa) = 66.58257 71.63475 69.10866
# Shear Modulus (GPa) = 25.04782 31.30251 28.17516
#
# Velocity S-wave (km/s) = 3.46405 3.87248 3.67394
# Velocity P-wave (km/s) = 6.92078 7.36972 7.14877
#
# Compressibility (1/GPa) = 0.01501895
#
# Stress axis : x y z
#
# Youngs Moduli (GPa) = 146.67588 81.35313 74.71268
#
# Poissons Ratio (x) = 0.20978 0.13094
# Poissons Ratio (y) = 0.37822 0.32923
# Poissons Ratio (z) = 0.25706 0.35849
#
# Static dielectric constant tensor:
#      x y z
#    x 4.114540 0.000000 0.086430 
#    y 0.000000 4.105090 0.000000 
#    z 0.086430 0.000000 3.721930 
# 
# 
# High freq. dielectric constant tensor:
#      x y z
#    x 1.836230 0.000000 0.007470 
#    y 0.000000 1.815410 0.000000 
#    z 0.007470 0.000000 1.815520 
# 
# From -- ./inp_files/80090.got.cif
#   From: 2010.06.25/outbox.cif.g09.slc.cpg/sg12_41_cif.got.tgz:80090.got - 2010.06.28 00:19:55.
