data_PCOD8111791
_publ_section_title
;
Structure prediction by ZEFSAII (Michael W. Deem and Ramdas Pophale) SiO2 
 PCOD8111791
Probable space group: C 2/M
;
_chemical_formula_sum "Si O2"
_cell_formula_units_Z 52
_cell_length_a 11.140660
_cell_length_b 19.421993
_cell_length_c 12.862315
_cell_angle_alpha 90.000000
_cell_angle_beta 61.298393
_cell_angle_gamma 90.000000
_cell_volume 2441.120142
_symmetry_space_group_name_H-M "C 2/M"
_symmetry_group_IT_number 12
_symmetry_cell_setting 'monoclinic'
loop_
_space_group_symop_operation_xyz
x,y,z
-x,y,-z
-x,-y,-z
x,-y,z
1/2+x,1/2+y,z
1/2-x,1/2+y,-z
1/2-x,1/2-y,-z
1/2+x,1/2-y,z
loop_
_atom_site_type_symbol
_atom_site_label
_atom_site_fract_x
_atom_site_fract_y
_atom_site_fract_z
Si Si1 0.623777 0.573168 0.136464
Si Si2 0.382121 0.686911 0.694538
Si Si3 0.657970 0.919413 0.412209
Si Si4 0.500000 0.637039 0.000000
Si Si5 0.418856 0.075881 0.931619
Si Si6 0.701959 0.165212 0.188770
Si Si7 0.808901 0.176944 0.501768
O O1 0.579949 0.500000 0.206573
O O2 0.654820 0.630676 0.206460
O O3 0.506951 0.592623 0.102167
O O4 0.761824 0.561853 0.017550
O O5 0.354374 0.761457 0.753283
O O6 0.289521 0.669308 0.633499
O O7 0.536835 0.678789 0.598334
O O8 0.500000 0.904645 0.500000
O O9 0.710283 0.884289 0.284972
O O10 0.736440 0.886930 0.477085
O O11 0.691171 0.000000 0.392294
O O12 0.645717 0.677884 0.925900
O O13 0.413344 0.132750 0.841588
O O14 0.481410 0.000000 0.872815
O O15 0.500000 0.103981 0.000000
O O16 0.750000 0.250000 0.500000
#
# Coordination Sequence:
#
# PCOD8111791 Si02
#       7
#     8   8   8   4   8   8   8
#     4  10  22  41  61  89 124 163 212 258 315 384
#     4  11  25  40  64  94 126 172 213 263 328 381
#     4  11  24  43  71 102 128 167 219 267 316 383
#     4  10  23  40  66  94 125 172 212 268 325 368
#     4   9  20  39  61  87 125 170 209 259 322 378
#     4  11  22  42  63  95 133 166 217 268 318 387
#     4  11  23  43  64  90 131 171 210 260 329 382
#
# _framework density 21.301696
#
# number of rings (size 3 to 8) (size 9 to 14) (size 15 to 20)
#    0.000    1.538    1.538    2.538    0.000    9.231 
#    2.769    4.615    0.000    0.000    0.000    0.000 
#    0.000    0.000    0.000    0.000    0.000    0.000 
#
# Total GULP energy -322199.401252 kJ/mol
# GULP energy per Si atom -12392.284664 kJ/mol
# Density = 2.125321 g / cm^3
# Si number density = 21.301696 Si / 1000 Ang^3
#
#
#
# Elastic Constant Matrix: (Units=GPa)
#
#
# Indices 1 2 3 4 5 6 
#
# 1 109.9317 48.2358 36.7444 0.0000 34.5733 0.0000
# 2 48.2358 158.2262 62.9413 0.0000 32.0253 0.0000
# 3 36.7444 62.9413 90.3324 0.0000 27.0757 0.0000
# 4 0.0000 0.0000 0.0000 32.5501 0.0000 6.7540
# 5 34.5733 32.0253 27.0757 0.0000 46.5167 0.0000
# 6 0.0000 0.0000 0.0000 6.7540 0.0000 28.2887
#
#
#
# Elastic Compliance Matrix: (Units=1/GPa)
#
#
# Indices 1 2 3 4 5 6 
#
# 1 0.012722 -0.001686 -0.001834 0.000000 -0.007228 0.000000
# 2 -0.001686 0.009326 -0.005164 0.000000 -0.002161 0.000000
# 3 -0.001834 -0.005164 0.016886 0.000000 -0.004910 0.000000
# 4 0.000000 0.000000 0.000000 0.032323 0.000000 -0.007717
# 5 -0.007228 -0.002161 -0.004910 0.000000 0.031216 0.000000
# 6 0.000000 0.000000 0.000000 -0.007717 0.000000 0.037192
#
#
# Mechanical properties :
#
#
# Convention : Reuss Voigt Hill
#
# Bulk Modulus (GPa) = 46.36909 72.70369 59.53639
# Shear Modulus (GPa) = 30.44635 35.50903 32.97769
#
# Velocity S-wave (km/s) = 3.78470 4.08727 3.93889
# Velocity P-wave (km/s) = 6.39638 7.51525 6.97827
#
# Compressibility (1/GPa) = 0.02156609
#
# Stress axis : x y z
#
# Youngs Moduli (GPa) = 78.60133 107.22842 59.21927
#
# Poissons Ratio (x) = 0.18080 0.10860
# Poissons Ratio (y) = 0.13253 0.30583
# Poissons Ratio (z) = 0.14415 0.55376
#
# Static dielectric constant tensor:
#      x y z
#    x 4.142880 0.000000 0.245150 
#    y 0.000000 3.987890 0.000000 
#    z 0.245150 0.000000 3.997970 
# 
# 
# High freq. dielectric constant tensor:
#      x y z
#    x 1.848750 0.000000 0.006640 
#    y 0.000000 1.836910 0.000000 
#    z 0.006640 0.000000 1.832960 
# 
# From -- ./inp_files/133791.got.cif
#   From: 2010.06.25/outbox.cif.g09.slc.cpg/sg12_67_cif.got.tgz:133791.got - 2010.06.28 00:19:55.
