data_PCOD8111399
_publ_section_title
;
Structure prediction by ZEFSAII (Michael W. Deem and Ramdas Pophale) SiO2 
 PCOD8111399
Probable space group: C 2/M
;
_chemical_formula_sum "Si O2"
_cell_formula_units_Z 56
_cell_length_a 15.898791
_cell_length_b 8.786665
_cell_length_c 22.795499
_cell_angle_alpha 90.000000
_cell_angle_beta 121.749108
_cell_angle_gamma 90.000000
_cell_volume 2707.947928
_symmetry_space_group_name_H-M "C 2/M"
_symmetry_group_IT_number 12
_symmetry_cell_setting 'monoclinic'
loop_
_space_group_symop_operation_xyz
x,y,z
-x,y,-z
-x,-y,-z
x,-y,z
1/2+x,1/2+y,z
1/2-x,1/2+y,-z
1/2-x,1/2-y,-z
1/2+x,1/2-y,z
loop_
_atom_site_type_symbol
_atom_site_label
_atom_site_fract_x
_atom_site_fract_y
_atom_site_fract_z
Si Si1 0.218022 0.676539 0.834184
Si Si2 0.333845 0.177994 0.570414
Si Si3 0.795966 0.174921 0.287799
Si Si4 0.371035 0.678366 0.706354
Si Si5 0.466406 0.823309 0.161936
Si Si6 0.491660 0.674496 0.429279
Si Si7 0.444762 0.679483 0.921414
O O1 0.215430 0.500000 0.815364
O O2 0.168966 0.774798 0.763831
O O3 0.330640 0.732067 0.885894
O O4 0.150680 0.703132 0.867677
O O5 0.250000 0.250000 0.500000
O O6 0.326553 0.245406 0.632367
O O7 0.440343 0.213147 0.582635
O O8 0.315386 0.000000 0.567551
O O9 0.703824 0.283882 0.268423
O O10 0.880726 0.200472 0.366938
O O11 0.761682 0.000000 0.274858
O O12 0.381722 0.500000 0.700341
O O13 0.476721 0.746441 0.762649
O O14 0.498019 0.752208 0.112072
O O15 0.493449 0.000000 0.170488
O O16 0.500000 0.719956 0.500000
O O17 0.525448 0.500000 0.431484
O O18 0.451922 0.500000 0.915847
O O19 0.500000 0.735188 0.000000
#
# Coordination Sequence:
#
# PCOD8111399 Si02
#       7
#     8   8   8   8   8   8   8
#     4  10  22  40  62  91 129 170 211 264 321 381
#     4  12  25  41  61  87 121 161 209 262 318 378
#     4  11  22  37  62  93 123 161 209 261 316 378
#     4  12  24  40  63  90 124 165 209 261 321 378
#     4  11  23  40  64  96 130 167 216 266 320 380
#     4  10  22  40  60  85 120 160 205 257 315 379
#     4  10  22  42  66  93 129 174 218 264 323 387
#
# _framework density 20.679866000000001
#
# number of rings (size 3 to 8) (size 9 to 14) (size 15 to 20)
#    0.000    1.143    1.429    5.143    0.000    6.857 
#    0.000    0.000    0.000    0.000    0.000    0.000 
#    0.000    0.000    0.000    0.000    0.000    0.000 
#
# Total GULP energy -347322.081752 kJ/mol
# GULP energy per Si atom -12404.360063 kJ/mol
# Density = 2.063280 g / cm^3
# Si number density = 20.679866 Si / 1000 Ang^3
#
#
#
# Elastic Constant Matrix: (Units=GPa)
#
#
# Indices 1 2 3 4 5 6 
#
# 1 131.0999 36.0342 52.8648 0.0000 -2.7536 0.0000
# 2 36.0342 77.7020 52.8532 0.0000 -5.2773 0.0000
# 3 52.8648 52.8532 133.7554 0.0000 -4.8169 0.0000
# 4 0.0000 0.0000 0.0000 30.1736 0.0000 -5.3603
# 5 -2.7536 -5.2773 -4.8169 0.0000 26.3658 0.0000
# 6 0.0000 0.0000 0.0000 -5.3603 0.0000 33.9458
#
#
#
# Elastic Compliance Matrix: (Units=1/GPa)
#
#
# Indices 1 2 3 4 5 6 
#
# 1 0.009419 -0.002512 -0.002731 0.000000 -0.000018 0.000000
# 2 -0.002512 0.018406 -0.006198 0.000000 0.002289 0.000000
# 3 -0.002731 -0.006198 0.011022 0.000000 0.000488 0.000000
# 4 0.000000 0.000000 0.000000 0.034098 0.000000 0.005384
# 5 -0.000018 0.002289 0.000488 0.000000 0.038473 0.000000
# 6 0.000000 0.000000 0.000000 0.005384 0.000000 0.030309
#
#
# Mechanical properties :
#
#
# Convention : Reuss Voigt Hill
#
# Bulk Modulus (GPa) = 62.63222 69.56241 66.09732
# Shear Modulus (GPa) = 29.42382 31.48406 30.45394
#
# Velocity S-wave (km/s) = 3.77613 3.90609 3.84166
# Velocity P-wave (km/s) = 7.02599 7.35215 7.19092
#
# Compressibility (1/GPa) = 0.01596622
#
# Stress axis : x y z
#
# Youngs Moduli (GPa) = 106.16897 54.33077 90.72520
#
# Poissons Ratio (x) = 0.13646 0.24776
# Poissons Ratio (y) = 0.26667 0.56230
# Poissons Ratio (z) = 0.28993 0.33673
#
# Static dielectric constant tensor:
#      x y z
#    x 3.852200 0.000000 0.049680 
#    y 0.000000 3.977980 0.000000 
#    z 0.049680 0.000000 3.834580 
# 
# 
# High freq. dielectric constant tensor:
#      x y z
#    x 1.820700 0.000000 -0.000220 
#    y 0.000000 1.809420 0.000000 
#    z -0.000220 0.000000 1.810680 
# 
# From -- ./inp_files/339082.got.cif
#   From: 2010.06.25/outbox.cif.g09.slc.cpg/sg12_170_cif.got.tgz:339082.got - 2010.06.28 00:19:55.
