data_PCOD8111569
_publ_section_title
;
Structure prediction by ZEFSAII (Michael W. Deem and Ramdas Pophale) SiO2 
 PCOD8111569
Probable space group: C 2/M
;
_chemical_formula_sum "Si O2"
_cell_formula_units_Z 48
_cell_length_a 17.507754
_cell_length_b 17.413461
_cell_length_c 14.261501
_cell_angle_alpha 90.000000
_cell_angle_beta 28.856011
_cell_angle_gamma 90.000000
_cell_volume 2098.346366
_symmetry_space_group_name_H-M "C 2/M"
_symmetry_group_IT_number 12
_symmetry_cell_setting 'monoclinic'
loop_
_space_group_symop_operation_xyz
x,y,z
-x,y,-z
-x,-y,-z
x,-y,z
1/2+x,1/2+y,z
1/2-x,1/2+y,-z
1/2-x,1/2-y,-z
1/2+x,1/2-y,z
loop_
_atom_site_type_symbol
_atom_site_label
_atom_site_fract_x
_atom_site_fract_y
_atom_site_fract_z
Si Si1 0.836555 0.170913 0.120457
Si Si2 0.722200 0.087278 0.077231
Si Si3 0.366016 0.086425 0.515569
Si Si4 0.656553 0.588478 0.387748
Si Si5 0.646848 0.835377 0.969543
Si Si6 0.791409 0.667700 0.412779
O O1 0.852201 0.115072 0.013159
O O2 0.697940 0.144664 0.338540
O O3 0.785797 0.253945 0.137032
O O4 0.000000 0.171100 0.000000
O O5 0.554368 0.094468 0.309680
O O6 0.757483 0.000000 0.008286
O O7 0.728683 0.141263 0.979355
O O8 0.293367 0.104949 0.492313
O O9 0.316005 0.000000 0.596732
O O10 0.500000 0.612545 0.500000
O O11 0.653810 0.500000 0.421759
O O12 0.807677 0.602146 0.157980
O O13 0.662974 0.641002 0.474246
O O14 0.458781 0.829556 0.180053
O O15 0.750000 0.750000 0.500000
#
# Coordination Sequence:
#
# PCOD8111569 Si02
#       6
#     8   8   8   8   8   8
#     4  12  24  39  61  96 132 162 202 256 321 381
#     4  10  23  43  66  91 121 164 215 260 308 373
#     4  10  22  40  63  90 122 165 212 257 308 372
#     4  11  25  43  66  98 133 169 213 269 328 384
#     4  11  24  43  66  94 128 171 217 261 318 385
#     4  11  23  43  67  94 128 168 218 267 317 382
#
# _framework density 22.875154999999999
#
# number of rings (size 3 to 8) (size 9 to 14) (size 15 to 20)
#    0.000    1.167    0.000    6.000    0.000   12.000 
#    0.000    0.000    0.000    0.000    0.000    0.000 
#    0.000    0.000    0.000    0.000    0.000    0.000 
#
# Total GULP energy -297715.804800 kJ/mol
# GULP energy per Si atom -12404.825200 kJ/mol
# Density = 2.282309 g / cm^3
# Si number density = 22.875155 Si / 1000 Ang^3
#
#
#
# Elastic Constant Matrix: (Units=GPa)
#
#
# Indices 1 2 3 4 5 6 
#
# 1 177.0708 84.6790 42.6639 0.0150 2.0621 -0.0082
# 2 84.6790 159.2241 56.4950 0.0234 5.7410 -0.0124
# 3 42.6639 56.4950 61.4368 0.0274 15.8499 -0.0204
# 4 0.0150 0.0234 0.0274 33.9201 -0.0204 15.1146
# 5 2.0621 5.7410 15.8499 -0.0204 23.2258 0.0144
# 6 -0.0082 -0.0124 -0.0204 15.1146 0.0144 45.9623
#
#
#
# Elastic Compliance Matrix: (Units=1/GPa)
#
#
# Indices 1 2 3 4 5 6 
#
# 1 0.007891 -0.003160 -0.003150 0.000004 0.002230 -0.000003
# 2 -0.003160 0.010955 -0.008804 0.000005 0.003580 -0.000004
# 3 -0.003150 -0.008804 0.031466 -0.000043 -0.019018 0.000031
# 4 0.000004 0.000005 -0.000043 0.034543 0.000065 -0.011359
# 5 0.002230 0.003580 -0.019018 0.000065 0.054951 -0.000046
# 6 -0.000003 -0.000004 0.000031 -0.011359 -0.000046 0.025492
#
#
# Mechanical properties :
#
#
# Convention : Reuss Voigt Hill
#
# Bulk Modulus (GPa) = 49.78461 85.04527 67.41494
# Shear Modulus (GPa) = 24.72538 34.88123 29.80331
#
# Velocity S-wave (km/s) = 3.29125 3.90917 3.61344
# Velocity P-wave (km/s) = 6.02112 7.59172 6.85157
#
# Compressibility (1/GPa) = 0.02008653
#
# Stress axis : x y z
#
# Youngs Moduli (GPa) = 126.71968 91.27909 31.78000
#
# Poissons Ratio (x) = 0.28841 0.10011
# Poissons Ratio (y) = 0.40038 0.27978
# Poissons Ratio (z) = 0.39916 0.80360
#
# Static dielectric constant tensor:
#      x y z
#    x 4.302860 0.000000 0.134420 
#    y 0.000000 4.174620 0.000000 
#    z 0.134420 0.000000 4.031920 
# 
# 
# High freq. dielectric constant tensor:
#      x y z
#    x 1.921320 0.000000 0.014630 
#    y 0.000000 1.908850 0.000000 
#    z 0.014630 0.000000 1.893950 
# 
# From -- ./inp_files/226753.got.cif
#   From: 2010.06.25/outbox.cif.g09.slc.cpg/sg12_114_cif.got.tgz:226753.got - 2010.06.28 00:19:55.
