data_PCOD8111386
_publ_section_title
;
Structure prediction by ZEFSAII (Michael W. Deem and Ramdas Pophale) SiO2 
 PCOD8111386
Probable space group: C 2/M
;
_chemical_formula_sum "Si O2"
_cell_formula_units_Z 56
_cell_length_a 7.689364
_cell_length_b 22.035170
_cell_length_c 28.264655
_cell_angle_alpha 90.000000
_cell_angle_beta 144.403734
_cell_angle_gamma 90.000000
_cell_volume 2787.569568
_symmetry_space_group_name_H-M "C 2/M"
_symmetry_group_IT_number 12
_symmetry_cell_setting 'monoclinic'
loop_
_space_group_symop_operation_xyz
x,y,z
-x,y,-z
-x,-y,-z
x,-y,z
1/2+x,1/2+y,z
1/2-x,1/2+y,-z
1/2-x,1/2-y,-z
1/2+x,1/2-y,z
loop_
_atom_site_type_symbol
_atom_site_label
_atom_site_fract_x
_atom_site_fract_y
_atom_site_fract_z
Si Si1 0.046698 0.204134 0.893916
Si Si2 0.229456 0.930983 0.825478
Si Si3 0.072694 0.671941 0.941396
Si Si4 0.268690 0.827715 0.408659
Si Si5 0.165345 0.692315 0.407113
Si Si6 0.190602 0.067222 0.705847
Si Si7 0.352850 0.126014 0.255401
O O1 0.319700 0.183545 0.923297
O O2 0.034812 0.277365 0.892055
O O3 0.746720 0.178209 0.803917
O O4 0.105592 0.178230 0.960749
O O5 0.520482 0.895032 0.909014
O O6 0.253442 0.926358 0.774882
O O7 0.922618 0.901658 0.776371
O O8 0.250148 0.000000 0.848039
O O9 0.500000 0.844070 0.500000
O O10 0.115092 0.763205 0.385293
O O11 0.427925 0.827507 0.393496
O O12 0.030295 0.880584 0.359070
O O13 0.500000 0.679743 0.500000
O O14 0.098275 0.653690 0.345446
O O15 0.492801 0.074013 0.741947
O O16 0.058618 0.000000 0.666335
#
# Coordination Sequence:
#
# PCOD8111386 Si02
#       7
#     8   8   8   8   8   8   8
#     4   9  20  34  58  90 115 152 191 247 303 357
#     4  10  22  40  60  84 120 160 202 245 292 356
#     4   9  19  37  56  87 120 150 194 244 303 349
#     4  11  22  40  61  89 123 154 199 249 302 362
#     4  11  22  38  62  94 123 156 194 251 308 358
#     4  11  24  40  60  87 120 162 206 246 292 354
#     4  11  22  39  63  88 118 157 203 247 303 350
#
# _framework density 20.089182999999998
#
# number of rings (size 3 to 8) (size 9 to 14) (size 15 to 20)
#    0.000    1.714    1.429    3.857    4.000    1.429 
#    0.000    6.429    0.000    3.857    0.000    0.000 
#    0.000    0.000    0.000    0.000    0.000    0.000 
#
# Total GULP energy -347118.274038 kJ/mol
# GULP energy per Si atom -12397.081216 kJ/mol
# Density = 2.004346 g / cm^3
# Si number density = 20.089183 Si / 1000 Ang^3
#
#
#
# Elastic Constant Matrix: (Units=GPa)
#
#
# Indices 1 2 3 4 5 6 
#
# 1 78.2464 30.5283 32.8333 0.0052 -9.0305 0.0035
# 2 30.5283 138.3644 73.3072 -0.0017 -12.6213 -0.0008
# 3 32.8333 73.3072 99.2523 0.0125 -12.1569 0.0021
# 4 0.0052 -0.0017 0.0125 36.7153 0.0023 -8.7348
# 5 -9.0305 -12.6213 -12.1569 0.0023 23.4147 0.0032
# 6 0.0035 -0.0008 0.0021 -8.7348 0.0032 21.7660
#
#
#
# Elastic Compliance Matrix: (Units=1/GPa)
#
#
# Indices 1 2 3 4 5 6 
#
# 1 0.015178 -0.000989 -0.003886 -0.000002 0.003303 -0.000003
# 2 -0.000989 0.012024 -0.008337 0.000004 0.001772 0.000003
# 3 -0.003886 -0.008337 0.017924 -0.000007 0.003314 -0.000005
# 4 -0.000002 0.000004 -0.000007 0.030111 -0.000007 0.012084
# 5 0.003303 0.001772 0.003314 -0.000007 0.046657 -0.000010
# 6 -0.000003 0.000003 -0.000005 0.012084 -0.000010 0.050792
#
#
# Mechanical properties :
#
#
# Convention : Reuss Voigt Hill
#
# Bulk Modulus (GPa) = 53.46757 65.46674 59.46715
# Shear Modulus (GPa) = 24.34930 28.32550 26.33740
#
# Velocity S-wave (km/s) = 3.48524 3.75905 3.62473
# Velocity P-wave (km/s) = 6.54742 7.17631 6.86907
#
# Compressibility (1/GPa) = 0.01870293
#
# Stress axis : x y z
#
# Youngs Moduli (GPa) = 65.88597 83.16741 55.79009
#
# Poissons Ratio (x) = 0.08221 0.21681
# Poissons Ratio (y) = 0.06513 0.46511
# Poissons Ratio (z) = 0.25605 0.69335
#
# Static dielectric constant tensor:
#      x y z
#    x 3.909900 -0.000130 -0.077270 
#    y -0.000130 3.896480 -0.000130 
#    z -0.077270 -0.000130 4.108950 
# 
# 
# High freq. dielectric constant tensor:
#      x y z
#    x 1.798190 0.000000 -0.011490 
#    y 0.000000 1.776480 0.000000 
#    z -0.011490 0.000000 1.779660 
# 
# From -- ./inp_files/334018.got.cif
#   From: 2010.06.25/outbox.cif.g09.slc.cpg/sg12_168_cif.got.tgz:334018.got - 2010.06.28 00:19:55.
