data_PCOD8111828
_publ_section_title
;
Structure prediction by ZEFSAII (Michael W. Deem and Ramdas Pophale) SiO2 
 PCOD8111828
Probable space group: C 2/M
;
_chemical_formula_sum "Si O2"
_cell_formula_units_Z 64
_cell_length_a 9.033573
_cell_length_b 17.850594
_cell_length_c 28.615220
_cell_angle_alpha 90.000000
_cell_angle_beta 43.562452
_cell_angle_gamma 90.000000
_cell_volume 3179.946518
_symmetry_space_group_name_H-M "C 2/M"
_symmetry_group_IT_number 12
_symmetry_cell_setting 'monoclinic'
loop_
_space_group_symop_operation_xyz
x,y,z
-x,y,-z
-x,-y,-z
x,-y,z
1/2+x,1/2+y,z
1/2-x,1/2+y,-z
1/2-x,1/2-y,-z
1/2+x,1/2-y,z
loop_
_atom_site_type_symbol
_atom_site_label
_atom_site_fract_x
_atom_site_fract_y
_atom_site_fract_z
Si Si1 0.824082 0.087863 0.502113
Si Si2 0.519131 0.216147 0.048363
Si Si3 0.681839 0.199012 0.181654
Si Si4 0.828972 0.584951 0.247072
Si Si5 0.185537 0.417141 0.858134
Si Si6 0.093872 0.835305 0.774501
Si Si7 0.397459 0.833923 0.624904
Si Si8 0.440523 0.672280 0.381919
O O1 0.585259 0.106538 0.573909
O O2 0.855870 0.128995 0.446074
O O3 0.000000 0.114907 0.500000
O O4 0.845187 0.000000 0.488585
O O5 0.341893 0.278785 0.102637
O O6 0.496385 0.142408 0.085872
O O7 0.500000 0.188979 0.000000
O O8 0.750000 0.250000 0.000000
O O9 0.565852 0.120334 0.198559
O O10 0.809974 0.195188 0.200004
O O11 0.509095 0.264377 0.228488
O O12 0.837588 0.500000 0.264257
O O13 0.767933 0.586522 0.207150
O O14 0.653077 0.631216 0.315346
O O15 0.113034 0.500000 0.890687
O O16 0.413678 0.396377 0.829562
O O17 0.268543 0.868054 0.698733
O O18 0.501481 0.755418 0.615542
O O19 0.246008 0.826057 0.614276
#
# Coordination Sequence:
#
# PCOD8111828 Si02
#       8
#     8   8   8   8   8   8   8   8
#     4  11  27  47  65  92 134 176 215 264 320 383
#     4  11  22  39  64  94 125 171 212 256 313 381
#     4  11  22  39  64  93 130 162 216 261 319 374
#     4  11  23  40  64  92 128 170 212 268 330 378
#     4  10  22  41  62  93 131 167 212 264 319 377
#     4  11  21  38  64  95 125 166 210 272 317 374
#     4  12  24  40  69  96 126 169 219 269 321 379
#     4  12  24  43  66  97 127 168 220 267 324 380
#
# _framework density 20.126124000000001
#
# number of rings (size 3 to 8) (size 9 to 14) (size 15 to 20)
#    0.000    0.875    2.500    6.375    1.750    2.750 
#    0.000    0.625    0.000    2.250    0.000    0.000 
#    0.000    0.000    0.000    0.000    0.000    0.000 
#
# Total GULP energy -396874.409674 kJ/mol
# GULP energy per Si atom -12402.325302 kJ/mol
# Density = 2.008032 g / cm^3
# Si number density = 20.126124 Si / 1000 Ang^3
#
#
#
# Elastic Constant Matrix: (Units=GPa)
#
#
# Indices 1 2 3 4 5 6 
#
# 1 85.5303 24.6532 23.4529 0.0028 -6.0092 -0.0031
# 2 24.6532 81.3856 19.8954 0.0076 -11.9621 0.0051
# 3 23.4529 19.8954 105.7864 0.0185 -7.0573 0.0069
# 4 0.0028 0.0076 0.0185 19.8466 -0.0011 1.8921
# 5 -6.0092 -11.9621 -7.0573 -0.0011 36.1006 -0.0034
# 6 -0.0031 0.0051 0.0069 1.8921 -0.0034 18.7862
#
#
#
# Elastic Compliance Matrix: (Units=1/GPa)
#
#
# Indices 1 2 3 4 5 6 
#
# 1 0.013338 -0.003388 -0.002276 0.000001 0.000653 0.000004
# 2 -0.003388 0.014289 -0.001680 -0.000003 0.003842 -0.000003
# 3 -0.002276 -0.001680 0.010346 -0.000008 0.001087 -0.000003
# 4 0.000001 -0.000003 -0.000008 0.050875 -0.000001 -0.005124
# 5 0.000653 0.003842 0.001087 -0.000001 0.029295 0.000004
# 6 0.000004 -0.000003 -0.000003 -0.005124 0.000004 0.053747
#
#
# Mechanical properties :
#
#
# Convention : Reuss Voigt Hill
#
# Bulk Modulus (GPa) = 42.94646 45.41170 44.17908
# Shear Modulus (GPa) = 25.72814 28.59341 27.16077
#
# Velocity S-wave (km/s) = 3.57927 3.77332 3.67758
# Velocity P-wave (km/s) = 6.20214 6.44953 6.32705
#
# Compressibility (1/GPa) = 0.02328481
#
# Stress axis : x y z
#
# Youngs Moduli (GPa) = 74.97159 69.98438 96.65433
#
# Poissons Ratio (x) = 0.23711 0.22002
# Poissons Ratio (y) = 0.25401 0.16237
# Poissons Ratio (z) = 0.17066 0.11756
#
# Static dielectric constant tensor:
#      x y z
#    x 3.808290 0.000000 -0.064550 
#    y 0.000000 3.791680 0.000020 
#    z -0.064550 0.000020 3.810580 
# 
# 
# High freq. dielectric constant tensor:
#      x y z
#    x 1.795370 0.000000 -0.000240 
#    y 0.000000 1.781540 0.000000 
#    z -0.000240 0.000000 1.796020 
# 
# From -- ./inp_files/372930.got.cif
#   From: 2010.06.25/outbox.cif.g09.slc.cpg/sg12_187_cif.got.tgz:372930.got - 2010.06.28 00:19:55.
