data_PCOD8111982
_publ_section_title
;
Structure prediction by ZEFSAII (Michael W. Deem and Ramdas Pophale) SiO2 
 PCOD8111982
Probable space group: C 2/M
;
_chemical_formula_sum "Si O2"
_cell_formula_units_Z 32
_cell_length_a 26.552245
_cell_length_b 8.394709
_cell_length_c 8.777341
_cell_angle_alpha 90.000000
_cell_angle_beta 130.754214
_cell_angle_gamma 90.000000
_cell_volume 1482.047871
_symmetry_space_group_name_H-M "C 2/M"
_symmetry_group_IT_number 12
_symmetry_cell_setting 'monoclinic'
loop_
_space_group_symop_operation_xyz
x,y,z
-x,y,-z
-x,-y,-z
x,-y,z
1/2+x,1/2+y,z
1/2-x,1/2+y,-z
1/2-x,1/2-y,-z
1/2+x,1/2-y,z
loop_
_atom_site_type_symbol
_atom_site_label
_atom_site_fract_x
_atom_site_fract_y
_atom_site_fract_z
Si Si1 0.243558 0.684442 0.655926
Si Si2 0.637102 0.817293 0.924863
Si Si3 0.381342 0.683146 0.437084
Si Si4 0.983092 0.814339 0.137524
O O1 0.263201 0.500000 0.696585
O O2 0.250000 0.750000 0.500000
O O3 0.168808 0.706773 0.567575
O O4 0.291487 0.780203 0.863084
O O5 0.625111 0.707102 0.755501
O O6 0.580673 0.785822 0.938307
O O7 0.635831 0.000000 0.870191
O O8 0.366489 0.500000 0.448984
O O9 0.455773 0.729593 0.632262
O O10 0.964800 0.000000 0.110186
O O11 0.000000 0.762631 0.000000
#
# Coordination Sequence:
#
# PCOD8111982 Si02
#       4
#     8   8   8   8
#     4  12  25  43  66  93 126 162 206 256 311 372
#     4  12  25  41  63  92 127 166 210 258 309 366
#     4  11  23  41  65  93 127 166 209 257 312 369
#     4  10  22  41  65  92 124 163 207 258 315 372
#
# _framework density 21.591745
#
# number of rings (size 3 to 8) (size 9 to 14) (size 15 to 20)
#    0.000    0.750    0.000    8.250    0.000    7.500 
#    0.000    0.000    0.000    0.000    0.000    0.000 
#    0.000    0.000    0.000    0.000    0.000    0.000 
#
# Total GULP energy -198568.904039 kJ/mol
# GULP energy per Si atom -12410.556502 kJ/mol
# Density = 2.154260 g / cm^3
# Si number density = 21.591745 Si / 1000 Ang^3
#
#
#
# Elastic Constant Matrix: (Units=GPa)
#
#
# Indices 1 2 3 4 5 6 
#
# 1 84.3915 23.2243 -4.8591 0.0000 -4.9240 0.0000
# 2 23.2243 76.8843 17.8625 0.0000 8.1550 0.0000
# 3 -4.8591 17.8625 86.1638 0.0000 -9.6721 0.0000
# 4 0.0000 0.0000 0.0000 29.3936 0.0000 -0.4059
# 5 -4.9240 8.1550 -9.6721 0.0000 40.3815 0.0000
# 6 0.0000 0.0000 0.0000 -0.4059 0.0000 41.0751
#
#
#
# Elastic Compliance Matrix: (Units=1/GPa)
#
#
# Indices 1 2 3 4 5 6 
#
# 1 0.013507 -0.004910 0.002133 0.000000 0.003149 0.000000
# 2 -0.004910 0.015958 -0.004125 0.000000 -0.004809 0.000000
# 3 0.002133 -0.004125 0.013055 0.000000 0.004220 0.000000
# 4 0.000000 0.000000 0.000000 0.034026 0.000000 0.000336
# 5 0.003149 -0.004809 0.004220 0.000000 0.027130 0.000000
# 6 0.000000 0.000000 0.000000 0.000336 0.000000 0.024349
#
#
# Mechanical properties :
#
#
# Convention : Reuss Voigt Hill
#
# Bulk Modulus (GPa) = 34.82256 35.54389 35.18323
# Shear Modulus (GPa) = 33.02497 36.25082 34.63790
#
# Velocity S-wave (km/s) = 3.91515 4.10191 4.00962
# Velocity P-wave (km/s) = 6.04984 6.23953 6.14542
#
# Compressibility (1/GPa) = 0.02871701
#
# Stress axis : x y z
#
# Youngs Moduli (GPa) = 74.03421 62.66404 76.59929
#
# Poissons Ratio (x) = 0.30766 -0.16339
# Poissons Ratio (y) = 0.36349 0.31597
# Poissons Ratio (z) = -0.15792 0.25849
#
# Static dielectric constant tensor:
#      x y z
#    x 3.878400 0.000000 0.282100 
#    y 0.000000 3.800710 0.000000 
#    z 0.282100 0.000000 3.448020 
# 
# 
# High freq. dielectric constant tensor:
#      x y z
#    x 1.860390 0.000000 -0.000250 
#    y 0.000000 1.847990 0.000000 
#    z -0.000250 0.000000 1.862890 
# 
# From -- ./inp_files/81779.got.cif
#   From: 2010.06.25/outbox.cif.g09.slc.cpg/sg12_41_cif.got.tgz:81779.got - 2010.06.28 00:19:55.
