data_PCOD8111173
_publ_section_title
;
Structure prediction by ZEFSAII (Michael W. Deem and Ramdas Pophale) SiO2 
 PCOD8111173
Probable space group: C 2/M
;
_chemical_formula_sum "Si O2"
_cell_formula_units_Z 56
_cell_length_a 9.285324
_cell_length_b 13.635119
_cell_length_c 23.740172
_cell_angle_alpha 90.000000
_cell_angle_beta 117.228428
_cell_angle_gamma 90.000000
_cell_volume 2672.601248
_symmetry_space_group_name_H-M "C 2/M"
_symmetry_group_IT_number 12
_symmetry_cell_setting 'monoclinic'
loop_
_space_group_symop_operation_xyz
x,y,z
-x,y,-z
-x,-y,-z
x,-y,z
1/2+x,1/2+y,z
1/2-x,1/2+y,-z
1/2-x,1/2-y,-z
1/2+x,1/2-y,z
loop_
_atom_site_type_symbol
_atom_site_label
_atom_site_fract_x
_atom_site_fract_y
_atom_site_fract_z
Si Si1 0.153296 0.240106 0.894297
Si Si2 0.260264 0.384705 0.308066
Si Si3 0.988293 0.615134 0.582119
Si Si4 0.591721 0.108992 0.723625
Si Si5 0.697698 0.770179 0.193707
Si Si6 0.855395 0.797229 0.437647
Si Si7 0.332284 0.608589 0.001356
O O1 0.280079 0.211042 0.868658
O O2 0.134315 0.144614 0.929347
O O3 0.994289 0.273412 0.831824
O O4 0.204228 0.328038 0.944128
O O5 0.282586 0.500000 0.315734
O O6 0.296760 0.346974 0.251213
O O7 0.371918 0.337631 0.376613
O O8 0.079512 0.346857 0.287780
O O9 0.958913 0.500000 0.557550
O O10 0.816398 0.673042 0.563673
O O11 0.097824 0.612134 0.657366
O O12 0.099993 0.678959 0.558282
O O13 0.742376 0.163181 0.778075
O O14 0.606231 0.000000 0.749898
O O15 0.000000 0.846293 0.500000
O O16 0.259382 0.500000 0.991826
O O17 0.500000 0.611311 0.000000
#
# Coordination Sequence:
#
# PCOD8111173 Si02
#       7
#     8   8   8   8   8   8   8
#     4  11  24  38  63  96 119 158 200 251 302 362
#     4  10  22  39  61  89 125 166 210 262 323 381
#     4  10  22  41  64  93 128 169 219 273 332 396
#     4   9  19  37  61  84 117 165 204 247 314 383
#     4  12  21  38  62  89 127 154 201 258 310 368
#     4  11  22  41  68  93 129 175 223 276 331 394
#     4  10  22  43  65  88 122 161 203 242 293 366
#
# _framework density 20.953368000000001
#
# number of rings (size 3 to 8) (size 9 to 14) (size 15 to 20)
#    0.000    1.571    4.286    1.714    0.000    3.714 
#    0.000    2.143    0.000    0.000    0.000    0.000 
#    0.000    0.000    0.000    0.000    0.000    0.000 
#
# Total GULP energy -346974.816425 kJ/mol
# GULP energy per Si atom -12391.957729 kJ/mol
# Density = 2.090568 g / cm^3
# Si number density = 20.953368 Si / 1000 Ang^3
#
#
#
# Elastic Constant Matrix: (Units=GPa)
#
#
# Indices 1 2 3 4 5 6 
#
# 1 54.5745 38.4487 14.2896 0.0000 6.1480 0.0000
# 2 38.4487 122.3826 40.2165 0.0000 6.8664 0.0000
# 3 14.2896 40.2165 115.6634 0.0000 11.7765 0.0000
# 4 0.0000 0.0000 0.0000 14.6865 0.0000 8.2148
# 5 6.1480 6.8664 11.7765 0.0000 24.3731 0.0000
# 6 0.0000 0.0000 0.0000 8.2148 0.0000 20.9510
#
#
#
# Elastic Compliance Matrix: (Units=1/GPa)
#
#
# Indices 1 2 3 4 5 6 
#
# 1 0.023906 -0.007282 -0.000017 0.000000 -0.003970 0.000000
# 2 -0.007282 0.011472 -0.003100 0.000000 0.000103 0.000000
# 3 -0.000017 -0.003100 0.010135 0.000000 -0.004019 0.000000
# 4 0.000000 0.000000 0.000000 0.087218 0.000000 -0.034198
# 5 -0.003970 0.000103 -0.004019 0.000000 0.043944 0.000000
# 6 0.000000 0.000000 0.000000 -0.034198 0.000000 0.061140
#
#
# Mechanical properties :
#
#
# Convention : Reuss Voigt Hill
#
# Bulk Modulus (GPa) = 40.46172 53.17002 46.81587
# Shear Modulus (GPa) = 18.73720 25.31316 22.02518
#
# Velocity S-wave (km/s) = 2.99362 3.47950 3.24567
# Velocity P-wave (km/s) = 5.59475 6.44772 6.03632
#
# Compressibility (1/GPa) = 0.02471472
#
# Stress axis : x y z
#
# Youngs Moduli (GPa) = 41.83115 87.17146 98.66933
#
# Poissons Ratio (x) = 0.63478 0.00170
# Poissons Ratio (y) = 0.30461 0.30583
# Poissons Ratio (z) = 0.00072 0.27019
#
# Static dielectric constant tensor:
#      x y z
#    x 3.618010 0.000000 -0.062780 
#    y 0.000000 3.926610 0.000000 
#    z -0.062780 0.000000 3.868730 
# 
# 
# High freq. dielectric constant tensor:
#      x y z
#    x 1.799940 0.000000 -0.007040 
#    y 0.000000 1.813880 0.000000 
#    z -0.007040 0.000000 1.841990 
# 
# From -- ./inp_files/332858.got.cif
#   From: 2010.06.25/outbox.cif.g09.slc.cpg/sg12_167_cif.got.tgz:332858.got - 2010.06.28 00:19:55.
