data_PCOD8111490
_publ_section_title
;
Structure prediction by ZEFSAII (Michael W. Deem and Ramdas Pophale) SiO2 
 PCOD8111490
Probable space group: C 2/M
;
_chemical_formula_sum "Si O2"
_cell_formula_units_Z 48
_cell_length_a 23.235400
_cell_length_b 22.226019
_cell_length_c 5.455227
_cell_angle_alpha 90.000000
_cell_angle_beta 128.404564
_cell_angle_gamma 90.000000
_cell_volume 2207.717301
_symmetry_space_group_name_H-M "C 2/M"
_symmetry_group_IT_number 12
_symmetry_cell_setting 'monoclinic'
loop_
_space_group_symop_operation_xyz
x,y,z
-x,y,-z
-x,-y,-z
x,-y,z
1/2+x,1/2+y,z
1/2-x,1/2+y,-z
1/2-x,1/2-y,-z
1/2+x,1/2-y,z
loop_
_atom_site_type_symbol
_atom_site_label
_atom_site_fract_x
_atom_site_fract_y
_atom_site_fract_z
Si Si1 0.913408 0.428895 0.755843
Si Si2 0.310991 0.636375 0.178968
Si Si3 0.579263 0.322657 0.154225
Si Si4 0.811388 0.243347 0.865331
Si Si5 0.341164 0.877281 0.065233
Si Si6 0.076297 0.932114 0.836069
O O1 0.897793 0.500000 0.706665
O O2 0.883278 0.400021 0.422080
O O3 0.875576 0.402301 0.902520
O O4 0.000000 0.415273 0.000000
O O5 0.366613 0.678192 0.476253
O O6 0.353882 0.585603 0.143478
O O7 0.273960 0.691247 0.930675
O O8 0.245095 0.602460 0.149641
O O9 0.611382 0.283395 0.021285
O O10 0.500000 0.294661 0.000000
O O11 0.573577 0.393041 0.072502
O O12 0.750000 0.250000 0.500000
O O13 0.837726 0.305056 0.058196
O O14 0.000000 0.920695 0.500000
O O15 0.086360 0.000000 0.948436
#
# Coordination Sequence:
#
# PCOD8111490 Si02
#       6
#     8   8   8   8   8   8
#     4  11  27  52  75 103 144 182 227 298 367 423
#     4  11  24  42  65  98 141 179 223 289 348 403
#     4  11  23  41  65  94 138 185 226 283 349 405
#     4  11  24  43  67  97 141 182 227 291 355 414
#     4  12  25  45  77 107 135 184 239 281 354 438
#     4  10  22  40  61  91 134 185 235 279 330 397
#
# _framework density 21.741913
#
# number of rings (size 3 to 8) (size 9 to 14) (size 15 to 20)
#    0.000    1.000    3.333    2.500    4.667    4.333 
#    3.000    0.000    0.000    0.000    0.000    0.000 
#    0.000    0.000    0.000    0.000    0.000    0.000 
#
# Total GULP energy -297374.789275 kJ/mol
# GULP energy per Si atom -12390.616220 kJ/mol
# Density = 2.169243 g / cm^3
# Si number density = 21.741913 Si / 1000 Ang^3
#
#
#
# Elastic Constant Matrix: (Units=GPa)
#
#
# Indices 1 2 3 4 5 6 
#
# 1 150.6303 61.1449 54.5817 0.0000 5.6541 0.0000
# 2 61.1449 108.2011 42.5848 0.0000 6.8876 0.0000
# 3 54.5817 42.5848 125.8256 0.0000 0.0398 0.0000
# 4 0.0000 0.0000 0.0000 59.1734 0.0000 -34.6542
# 5 5.6541 6.8876 0.0398 0.0000 39.2299 0.0000
# 6 0.0000 0.0000 0.0000 -34.6542 0.0000 67.4756
#
#
#
# Elastic Compliance Matrix: (Units=1/GPa)
#
#
# Indices 1 2 3 4 5 6 
#
# 1 0.009313 -0.004193 -0.002621 0.000000 -0.000603 0.000000
# 2 -0.004193 0.012689 -0.002475 0.000000 -0.001621 0.000000
# 3 -0.002621 -0.002475 0.009922 0.000000 0.000802 0.000000
# 4 0.000000 0.000000 0.000000 0.024169 0.000000 0.012413
# 5 -0.000603 -0.001621 0.000802 0.000000 0.025862 0.000000
# 6 0.000000 0.000000 0.000000 0.012413 0.000000 0.021195
#
#
# Mechanical properties :
#
#
# Convention : Reuss Voigt Hill
#
# Bulk Modulus (GPa) = 74.92753 77.91998 76.42375
# Shear Modulus (GPa) = 39.62744 48.26547 43.94646
#
# Velocity S-wave (km/s) = 4.27386 4.71672 4.50074
# Velocity P-wave (km/s) = 7.67408 8.09813 7.88896
#
# Compressibility (1/GPa) = 0.01334623
#
# Stress axis : x y z
#
# Youngs Moduli (GPa) = 107.37572 78.80938 100.78911
#
# Poissons Ratio (x) = 0.33045 0.26413
# Poissons Ratio (y) = 0.45023 0.24946
# Poissons Ratio (z) = 0.28139 0.19506
#
# Static dielectric constant tensor:
#      x y z
#    x 4.584880 0.000000 0.189070 
#    y 0.000000 4.071370 0.000000 
#    z 0.189070 0.000000 3.956270 
# 
# 
# High freq. dielectric constant tensor:
#      x y z
#    x 1.879940 0.000000 0.002820 
#    y 0.000000 1.854070 0.000000 
#    z 0.002820 0.000000 1.857570 
# 
# From -- ./inp_files/25727.got.cif
#   From: 2010.06.25/outbox.cif.g09.slc.cpg/sg12_13_cif.got.tgz:25727.got - 2010.06.28 00:19:55.
