data_PCOD8111595
_publ_section_title
;
Structure prediction by ZEFSAII (Michael W. Deem and Ramdas Pophale) SiO2 
 PCOD8111595
Probable space group: C 2/M
;
_chemical_formula_sum "Si O2"
_cell_formula_units_Z 64
_cell_length_a 15.112817
_cell_length_b 17.162314
_cell_length_c 15.875240
_cell_angle_alpha 90.000000
_cell_angle_beta 133.549082
_cell_angle_gamma 90.000000
_cell_volume 2984.354586
_symmetry_space_group_name_H-M "C 2/M"
_symmetry_group_IT_number 12
_symmetry_cell_setting 'monoclinic'
loop_
_space_group_symop_operation_xyz
x,y,z
-x,y,-z
-x,-y,-z
x,-y,z
1/2+x,1/2+y,z
1/2-x,1/2+y,-z
1/2-x,1/2-y,-z
1/2+x,1/2-y,z
loop_
_atom_site_type_symbol
_atom_site_label
_atom_site_fract_x
_atom_site_fract_y
_atom_site_fract_z
Si Si1 0.284437 0.088136 0.527891
Si Si2 0.687565 0.586303 0.650156
Si Si3 0.773006 0.340814 0.015252
Si Si4 0.502913 0.822125 0.727238
Si Si5 0.865803 0.588595 0.913567
Si Si6 0.337846 0.690311 0.694837
Si Si7 0.397398 0.748448 0.370339
Si Si8 0.972614 0.908676 0.076912
O O1 0.215593 0.096795 0.570877
O O2 0.427344 0.108985 0.632802
O O3 0.221233 0.147853 0.423475
O O4 0.276417 0.000000 0.487920
O O5 0.629928 0.500000 0.629554
O O6 0.812477 0.594673 0.784827
O O7 0.596423 0.654028 0.620367
O O8 0.900608 0.360276 0.145224
O O9 0.750000 0.250000 0.000000
O O10 0.779206 0.366774 0.922248
O O11 0.664987 0.385798 0.990979
O O12 0.406857 0.767499 0.711552
O O13 0.577280 0.771946 0.708311
O O14 0.875476 0.500000 0.951611
O O15 0.000000 0.627345 0.000000
O O16 0.233785 0.717134 0.691250
O O17 0.431662 0.632509 0.799755
O O18 0.500000 0.783246 0.500000
O O19 0.990520 0.000000 0.100823
O O20 0.000000 0.882261 0.000000
#
# Coordination Sequence:
#
# PCOD8111595 Si02
#       8
#     8   8   8   8   8   8   8   8
#     4  11  23  43  70 101 134 177 226 280 350 407
#     4  10  22  40  63  98 135 173 221 274 338 409
#     4  12  24  42  66 102 134 179 233 275 334 408
#     4  12  24  43  69 103 138 180 231 286 341 406
#     4  10  22  40  63  93 135 175 213 270 337 397
#     4  12  24  47  70 100 139 181 231 282 346 417
#     4  12  24  42  68  97 136 177 225 281 341 408
#     4  11  26  48  72 100 138 184 233 286 343 405
#
# _framework density 21.445171999999999
#
# number of rings (size 3 to 8) (size 9 to 14) (size 15 to 20)
#    0.000    0.750    3.750    4.125    0.000    2.750 
#    0.000    2.500    0.000    0.000    0.000    0.000 
#    0.000    0.000    0.000    0.000    0.000    0.000 
#
# Total GULP energy -396968.592469 kJ/mol
# GULP energy per Si atom -12405.268515 kJ/mol
# Density = 2.139636 g / cm^3
# Si number density = 21.445172 Si / 1000 Ang^3
#
#
#
# Elastic Constant Matrix: (Units=GPa)
#
#
# Indices 1 2 3 4 5 6 
#
# 1 98.2712 14.1897 3.5862 0.0000 8.1259 0.0000
# 2 14.1897 67.2307 4.2056 0.0000 -0.0386 0.0000
# 3 3.5862 4.2056 97.0703 0.0000 15.9565 0.0000
# 4 0.0000 0.0000 0.0000 35.1108 0.0000 12.3381
# 5 8.1259 -0.0386 15.9565 0.0000 35.6762 0.0000
# 6 0.0000 0.0000 0.0000 12.3381 0.0000 29.4223
#
#
#
# Elastic Compliance Matrix: (Units=1/GPa)
#
#
# Indices 1 2 3 4 5 6 
#
# 1 0.010705 -0.002268 0.000112 0.000000 -0.002491 0.000000
# 2 -0.002268 0.015399 -0.000724 0.000000 0.000857 0.000000
# 3 0.000112 -0.000724 0.011153 0.000000 -0.005015 0.000000
# 4 0.000000 0.000000 0.000000 0.033404 0.000000 -0.014008
# 5 -0.002491 0.000857 -0.005015 0.000000 0.030841 0.000000
# 6 0.000000 0.000000 0.000000 -0.014008 0.000000 0.039862
#
#
# Mechanical properties :
#
#
# Convention : Reuss Voigt Hill
#
# Bulk Modulus (GPa) = 31.74867 34.05946 32.90406
# Shear Modulus (GPa) = 31.72133 36.08125 33.90129
#
# Velocity S-wave (km/s) = 3.85019 4.10626 3.98029
# Velocity P-wave (km/s) = 5.88234 6.19665 6.04154
#
# Compressibility (1/GPa) = 0.03149739
#
# Stress axis : x y z
#
# Youngs Moduli (GPa) = 93.41194 64.94089 89.65891
#
# Poissons Ratio (x) = 0.14728 -0.01006
# Poissons Ratio (y) = 0.21185 0.06494
# Poissons Ratio (z) = -0.01048 0.04703
#
# Static dielectric constant tensor:
#      x y z
#    x 3.808110 0.000000 0.001330 
#    y 0.000000 4.057980 0.000000 
#    z 0.001330 0.000000 4.000020 
# 
# 
# High freq. dielectric constant tensor:
#      x y z
#    x 1.842070 0.000000 0.001310 
#    y 0.000000 1.846160 0.000000 
#    z 0.001310 0.000000 1.857460 
# 
# From -- ./inp_files/216821.got.cif
#   From: 2010.06.25/outbox.cif.g09.slc.cpg/sg12_109_cif.got.tgz:216821.got - 2010.06.28 00:19:55.
