data_PCOD8111438
_publ_section_title
;
Structure prediction by ZEFSAII (Michael W. Deem and Ramdas Pophale) SiO2 
 PCOD8111438
Probable space group: C 2/M
;
_chemical_formula_sum "Si O2"
_cell_formula_units_Z 64
_cell_length_a 9.325372
_cell_length_b 14.822589
_cell_length_c 22.427700
_cell_angle_alpha 90.000000
_cell_angle_beta 89.425442
_cell_angle_gamma 90.000000
_cell_volume 3099.938898
_symmetry_space_group_name_H-M "C 2/M"
_symmetry_group_IT_number 12
_symmetry_cell_setting 'monoclinic'
loop_
_space_group_symop_operation_xyz
x,y,z
-x,y,-z
-x,-y,-z
x,-y,z
1/2+x,1/2+y,z
1/2-x,1/2+y,-z
1/2-x,1/2-y,-z
1/2+x,1/2-y,z
loop_
_atom_site_type_symbol
_atom_site_label
_atom_site_fract_x
_atom_site_fract_y
_atom_site_fract_z
Si Si1 0.171931 0.107265 0.504330
Si Si2 0.462066 0.899486 0.751002
Si Si3 0.482002 0.599092 0.783354
Si Si4 0.243775 0.161023 0.846024
Si Si5 0.036775 0.398626 0.063247
Si Si6 0.267346 0.744024 0.592932
Si Si7 0.187418 0.638951 0.837908
Si Si8 0.513857 0.742329 0.674757
O O1 0.235539 0.159279 0.561848
O O2 0.257514 0.157563 0.450076
O O3 0.000000 0.120462 0.500000
O O4 0.210114 0.000000 0.506205
O O5 0.372282 0.844740 0.799363
O O6 0.622451 0.901364 0.777077
O O7 0.457363 0.841819 0.691590
O O8 0.404128 0.000000 0.738615
O O9 0.461007 0.500000 0.754453
O O10 0.621649 0.591944 0.825316
O O11 0.355926 0.619445 0.831505
O O12 0.496872 0.670077 0.728512
O O13 0.320028 0.146675 0.909566
O O14 0.161819 0.255089 0.843529
O O15 0.086066 0.500000 0.050608
O O16 0.894073 0.402674 0.104925
O O17 0.000000 0.350890 0.000000
O O18 0.428909 0.723444 0.614164
O O19 0.178295 0.745612 0.654901
#
# Coordination Sequence:
#
# PCOD8111438 Si02
#       8
#     8   8   8   8   8   8   8   8
#     4  10  22  45  70  91 120 167 211 248 310 370
#     4  11  22  39  60  84 123 170 201 239 303 374
#     4  12  23  37  61  92 124 165 205 247 307 372
#     4  11  20  39  61  85 120 160 208 251 302 376
#     4  10  22  40  61  86 118 160 210 261 311 366
#     4  11  24  40  66  94 126 160 203 260 308 354
#     4  11  20  39  61  85 120 160 208 251 302 376
#     4  12  23  39  60  96 133 156 203 257 307 357
#
# _framework density 20.645568000000001
#
# number of rings (size 3 to 8) (size 9 to 14) (size 15 to 20)
#    0.000    1.000    3.750    5.250    0.000    2.500 
#    0.000    1.250    0.000    2.250    0.000    0.000 
#    0.000    0.000    0.000    0.000    0.000    0.000 
#
# Total GULP energy -396446.144625 kJ/mol
# GULP energy per Si atom -12388.942020 kJ/mol
# Density = 2.059858 g / cm^3
# Si number density = 20.645568 Si / 1000 Ang^3
#
#
#
# Elastic Constant Matrix: (Units=GPa)
#
#
# Indices 1 2 3 4 5 6 
#
# 1 84.7797 11.6763 31.3975 0.0000 8.9397 0.0000
# 2 11.6763 121.3881 34.5407 0.0000 2.2983 0.0000
# 3 31.3975 34.5407 93.4559 0.0000 11.2839 0.0000
# 4 0.0000 0.0000 0.0000 22.1701 0.0000 2.0330
# 5 8.9397 2.2983 11.2839 0.0000 25.1353 0.0000
# 6 0.0000 0.0000 0.0000 2.0330 0.0000 24.8676
#
#
#
# Elastic Compliance Matrix: (Units=1/GPa)
#
#
# Indices 1 2 3 4 5 6 
#
# 1 0.013677 -0.000060 -0.004215 0.000000 -0.002967 0.000000
# 2 -0.000060 0.009219 -0.003476 0.000000 0.000739 0.000000
# 3 -0.004215 -0.003476 0.013937 0.000000 -0.004440 0.000000
# 4 0.000000 0.000000 0.000000 0.045446 0.000000 -0.003715
# 5 -0.002967 0.000739 -0.004440 0.000000 0.042765 0.000000
# 6 0.000000 0.000000 0.000000 -0.003715 0.000000 0.040517
#
#
# Mechanical properties :
#
#
# Convention : Reuss Voigt Hill
#
# Bulk Modulus (GPa) = 46.87962 50.53920 48.70941
# Shear Modulus (GPa) = 26.57111 29.23524 27.90317
#
# Velocity S-wave (km/s) = 3.59139 3.76713 3.68031
# Velocity P-wave (km/s) = 6.32088 6.59199 6.45786
#
# Compressibility (1/GPa) = 0.02133123
#
# Stress axis : x y z
#
# Youngs Moduli (GPa) = 73.11412 108.47158 71.75130
#
# Poissons Ratio (x) = 0.00653 0.30240
# Poissons Ratio (y) = 0.00440 0.24943
# Poissons Ratio (z) = 0.30814 0.37708
#
# Static dielectric constant tensor:
#      x y z
#    x 3.763980 0.000000 0.150120 
#    y 0.000000 3.767950 0.000000 
#    z 0.150120 0.000000 3.732080 
# 
# 
# High freq. dielectric constant tensor:
#      x y z
#    x 1.812880 0.000000 0.004320 
#    y 0.000000 1.811390 0.000000 
#    z 0.004320 0.000000 1.793930 
# 
# From -- ./inp_files/332924.got.cif
#   From: 2010.06.25/outbox.cif.g09.slc.cpg/sg12_167_cif.got.tgz:332924.got - 2010.06.28 00:19:55.
