data_PCOD8111499
_publ_section_title
;
Structure prediction by ZEFSAII (Michael W. Deem and Ramdas Pophale) SiO2 
 PCOD8111499
Probable space group: C 2/M
;
_chemical_formula_sum "Si O2"
_cell_formula_units_Z 32
_cell_length_a 14.439510
_cell_length_b 10.357275
_cell_length_c 10.845508
_cell_angle_alpha 90.000000
_cell_angle_beta 65.290505
_cell_angle_gamma 90.000000
_cell_volume 1473.477787
_symmetry_space_group_name_H-M "C 2/M"
_symmetry_group_IT_number 12
_symmetry_cell_setting 'monoclinic'
loop_
_space_group_symop_operation_xyz
x,y,z
-x,y,-z
-x,-y,-z
x,-y,z
1/2+x,1/2+y,z
1/2-x,1/2+y,-z
1/2-x,1/2-y,-z
1/2+x,1/2-y,z
loop_
_atom_site_type_symbol
_atom_site_label
_atom_site_fract_x
_atom_site_fract_y
_atom_site_fract_z
Si Si1 0.619315 0.641755 0.589514
Si Si2 0.543715 0.143494 0.253400
Si Si3 0.226702 0.258676 0.309735
Si Si4 0.683419 0.145944 0.967720
O O1 0.568257 0.500000 0.626582
O O2 0.536951 0.751074 0.661642
O O3 0.711199 0.646037 0.636152
O O4 0.663113 0.657904 0.427728
O O5 0.648846 0.159508 0.270341
O O6 0.499894 0.000000 0.305562
O O7 0.570322 0.155687 0.091890
O O8 0.310229 0.180569 0.180809
O O9 0.725374 0.000000 0.963858
O O10 0.750000 0.250000 0.000000
#
# Coordination Sequence:
#
# PCOD8111499 Si02
#       4
#     8   8   8   8
#     4  11  24  39  60  90 120 154 197 243 291 344
#     4  10  22  40  62  87 118 155 194 239 294 353
#     4  10  22  40  62  85 118 157 197 241 290 346
#     4   9  19  37  61  87 115 153 197 241 291 345
#
# _framework density 21.71733
#
# number of rings (size 3 to 8) (size 9 to 14) (size 15 to 20)
#    0.000    2.000    0.000    2.250    0.000   15.000 
#    0.000    3.750    0.000    0.000    0.000    0.000 
#    0.000    0.000    0.000    0.000    0.000    0.000 
#
# Total GULP energy -198287.650374 kJ/mol
# GULP energy per Si atom -12392.978148 kJ/mol
# Density = 2.166790 g / cm^3
# Si number density = 21.717330 Si / 1000 Ang^3
#
#
#
# Elastic Constant Matrix: (Units=GPa)
#
#
# Indices 1 2 3 4 5 6 
#
# 1 49.4544 27.8173 30.6255 0.0000 -13.6297 0.0000
# 2 27.8173 176.6460 70.5699 0.0000 -10.7639 0.0000
# 3 30.6255 70.5699 180.9842 0.0000 -9.9152 0.0000
# 4 0.0000 0.0000 0.0000 24.2159 0.0000 -14.2368
# 5 -13.6297 -10.7639 -9.9152 0.0000 18.5713 0.0000
# 6 0.0000 0.0000 0.0000 -14.2368 0.0000 19.0037
#
#
#
# Elastic Compliance Matrix: (Units=1/GPa)
#
#
# Indices 1 2 3 4 5 6 
#
# 1 0.028188 -0.002175 -0.002944 0.000000 0.017855 0.000000
# 2 -0.002175 0.006994 -0.002292 0.000000 0.001234 0.000000
# 3 -0.002944 -0.002292 0.006929 0.000000 0.000211 0.000000
# 4 0.000000 0.000000 0.000000 0.073799 0.000000 0.055287
# 5 0.017855 0.001234 0.000211 0.000000 0.067779 0.000000
# 6 0.000000 0.000000 0.000000 0.055287 0.000000 0.094040
#
#
# Mechanical properties :
#
#
# Convention : Reuss Voigt Hill
#
# Bulk Modulus (GPa) = 36.64289 73.90111 55.27200
# Shear Modulus (GPa) = 16.57574 30.89630 23.73602
#
# Velocity S-wave (km/s) = 2.76569 3.77590 3.30957
# Velocity P-wave (km/s) = 5.20654 7.28783 6.33326
#
# Compressibility (1/GPa) = 0.02729042
#
# Stress axis : x y z
#
# Youngs Moduli (GPa) = 35.47634 142.97536 144.33102
#
# Poissons Ratio (x) = 0.31096 0.42485
# Poissons Ratio (y) = 0.07716 0.33074
# Poissons Ratio (z) = 0.10443 0.32764
#
# Static dielectric constant tensor:
#      x y z
#    x 3.586440 0.000000 0.039630 
#    y 0.000000 3.844210 0.000000 
#    z 0.039630 0.000000 4.709290 
# 
# 
# High freq. dielectric constant tensor:
#      x y z
#    x 1.822930 0.000000 0.001330 
#    y 0.000000 1.857710 0.000000 
#    z 0.001330 0.000000 1.879160 
# 
# From -- ./inp_files/138638.got.cif
#   From: 2010.06.25/outbox.cif.g09.slc.cpg/sg12_70_cif.got.tgz:138638.got - 2010.06.28 00:19:55.
