data_PCOD8111224
_publ_section_title
;
Structure prediction by ZEFSAII (Michael W. Deem and Ramdas Pophale) SiO2 
 PCOD8111224
Probable space group: C 2/M
;
_chemical_formula_sum "Si O2"
_cell_formula_units_Z 40
_cell_length_a 13.792228
_cell_length_b 19.219206
_cell_length_c 8.789555
_cell_angle_alpha 90.000000
_cell_angle_beta 51.097761
_cell_angle_gamma 90.000000
_cell_volume 1813.169349
_symmetry_space_group_name_H-M "C 2/M"
_symmetry_group_IT_number 12
_symmetry_cell_setting 'monoclinic'
loop_
_space_group_symop_operation_xyz
x,y,z
-x,y,-z
-x,-y,-z
x,-y,z
1/2+x,1/2+y,z
1/2-x,1/2+y,-z
1/2-x,1/2-y,-z
1/2+x,1/2-y,z
loop_
_atom_site_type_symbol
_atom_site_label
_atom_site_fract_x
_atom_site_fract_y
_atom_site_fract_z
Si Si1 0.248588 0.577785 0.952444
Si Si2 0.474739 0.330732 0.700791
Si Si3 0.112443 0.320688 0.283138
Si Si4 0.762475 0.174583 0.422587
Si Si5 0.616433 0.078272 0.786281
O O1 0.250965 0.500000 0.018662
O O2 0.375967 0.616129 0.867694
O O3 0.233865 0.576222 0.785040
O O4 0.131582 0.619814 0.138595
O O5 0.500000 0.346614 0.500000
O O6 0.418415 0.252575 0.769259
O O7 0.595986 0.347385 0.683111
O O8 0.236265 0.319138 0.267929
O O9 0.000000 0.343750 0.500000
O O10 0.750000 0.250000 0.500000
O O11 0.656880 0.125785 0.604440
O O12 0.585062 0.000000 0.758429
O O13 0.500000 0.107520 0.000000
#
# Coordination Sequence:
#
# PCOD8111224 Si02
#       5
#     8   8   8   8   8
#     4  11  24  42  63  90 126 167 203 250 310 367
#     4  11  22  41  65  91 125 158 209 254 304 362
#     4  11  23  41  65  93 126 159 205 257 309 361
#     4  12  22  40  64  95 121 162 204 254 308 360
#     4  10  22  39  62  91 123 162 209 250 299 365
#
# _framework density 22.060818999999999
#
# number of rings (size 3 to 8) (size 9 to 14) (size 15 to 20)
#    0.000    1.000    6.000    1.800    0.000    3.200 
#    0.000    1.000    0.000    0.000    0.000    0.000 
#    0.000    0.000    0.000    0.000    0.000    0.000 
#
# Total GULP energy -247944.801354 kJ/mol
# GULP energy per Si atom -12397.240068 kJ/mol
# Density = 2.201061 g / cm^3
# Si number density = 22.060819 Si / 1000 Ang^3
#
#
#
# Elastic Constant Matrix: (Units=GPa)
#
#
# Indices 1 2 3 4 5 6 
#
# 1 87.2744 7.2957 9.0587 0.0000 -8.5743 0.0000
# 2 7.2957 134.8796 63.9823 0.0000 -10.8040 0.0000
# 3 9.0587 63.9823 46.1319 0.0000 -13.6507 0.0000
# 4 0.0000 0.0000 0.0000 35.0532 0.0000 3.7809
# 5 -8.5743 -10.8040 -13.6507 0.0000 40.4593 0.0000
# 6 0.0000 0.0000 0.0000 3.7809 0.0000 12.7975
#
#
#
# Elastic Compliance Matrix: (Units=1/GPa)
#
#
# Indices 1 2 3 4 5 6 
#
# 1 0.011878 0.001059 -0.003303 0.000000 0.001686 0.000000
# 2 0.001059 0.022655 -0.033074 0.000000 -0.004885 0.000000
# 3 -0.003303 -0.033074 0.072628 0.000000 0.014972 0.000000
# 4 0.000000 0.000000 0.000000 0.029467 0.000000 -0.008706
# 5 0.001686 -0.004885 0.014972 0.000000 0.028821 0.000000
# 6 0.000000 0.000000 0.000000 -0.008706 0.000000 0.080712
#
#
# Mechanical properties :
#
#
# Convention : Reuss Voigt Hill
#
# Bulk Modulus (GPa) = 27.37826 47.66215 37.52020
# Shear Modulus (GPa) = 15.19887 30.19196 22.69541
#
# Velocity S-wave (km/s) = 2.62764 3.70344 3.21092
# Velocity P-wave (km/s) = 4.65223 6.31974 5.54898
#
# Compressibility (1/GPa) = 0.03652533
#
# Stress axis : x y z
#
# Youngs Moduli (GPa) = 84.18937 44.14067 13.76872
#
# Poissons Ratio (x) = -0.04675 0.04547
# Poissons Ratio (y) = -0.08918 0.45539
# Poissons Ratio (z) = 0.27805 1.45993
#
# Static dielectric constant tensor:
#      x y z
#    x 3.404330 0.000000 -0.193410 
#    y 0.000000 3.836050 0.000000 
#    z -0.193410 0.000000 3.799680 
# 
# 
# High freq. dielectric constant tensor:
#      x y z
#    x 1.882390 0.000000 -0.010550 
#    y 0.000000 1.859780 0.000000 
#    z -0.010550 0.000000 1.851480 
# 
# From -- ./inp_files/63145.got.cif
#   From: 2010.06.25/outbox.cif.g09.slc.cpg/sg12_32_cif.got.tgz:63145.got - 2010.06.28 00:19:55.
