data_PCOD8111015
_publ_section_title
;
Structure prediction by ZEFSAII (Michael W. Deem and Ramdas Pophale) SiO2 
 PCOD8111015
Probable space group: C 2/M
;
_chemical_formula_sum "Si O2"
_cell_formula_units_Z 48
_cell_length_a 25.890796
_cell_length_b 18.431696
_cell_length_c 5.378050
_cell_angle_alpha 90.000000
_cell_angle_beta 66.920002
_cell_angle_gamma 90.000000
_cell_volume 2361.042091
_symmetry_space_group_name_H-M "C 2/M"
_symmetry_group_IT_number 12
_symmetry_cell_setting 'monoclinic'
loop_
_space_group_symop_operation_xyz
x,y,z
-x,y,-z
-x,-y,-z
x,-y,z
1/2+x,1/2+y,z
1/2-x,1/2+y,-z
1/2-x,1/2-y,-z
1/2+x,1/2-y,z
loop_
_atom_site_type_symbol
_atom_site_label
_atom_site_fract_x
_atom_site_fract_y
_atom_site_fract_z
Si Si1 0.251784 0.628731 0.904142
Si Si2 0.157916 0.787742 0.517153
Si Si3 0.299866 0.579137 0.326582
Si Si4 0.641915 0.164962 0.889875
Si Si5 0.937883 0.278588 0.587234
Si Si6 0.441734 0.917992 0.251440
O O1 0.294016 0.697801 0.783758
O O2 0.259037 0.577412 0.645858
O O3 0.185480 0.647373 0.029626
O O4 0.264854 0.590654 0.139720
O O5 0.154909 0.856368 0.714962
O O6 0.175411 0.713240 0.622557
O O7 0.096088 0.777810 0.519762
O O8 0.329359 0.500000 0.251444
O O9 0.612019 0.094722 0.827073
O O10 0.592349 0.216127 0.089835
O O11 0.939405 0.360632 0.478806
O O12 0.000000 0.246381 0.500000
O O13 0.438024 0.000000 0.364315
O O14 0.500000 0.905801 0.000000
#
# Coordination Sequence:
#
# PCOD8111015 Si02
#       6
#     8   8   8   8   8   8
#     4  10  23  39  63  92 124 163 204 248 308 368
#     4   9  23  38  63  89 119 164 200 256 309 365
#     4  10  22  41  61  91 129 162 199 248 312 376
#     4  11  22  39  59  88 122 162 209 258 302 359
#     4  11  22  38  61  87 118 158 213 260 305 360
#     4  10  22  39  55  81 122 168 213 256 302 352
#
# _framework density 20.330006000000001
#
# number of rings (size 3 to 8) (size 9 to 14) (size 15 to 20)
#    1.000    0.833    1.667    2.000    4.667    3.667 
#    0.000    0.000    0.000    0.500    0.000    2.333 
#    0.000    0.000    0.000    0.000    0.000    0.000 
#
# Total GULP energy -297379.588078 kJ/mol
# GULP energy per Si atom -12390.816170 kJ/mol
# Density = 2.028373 g / cm^3
# Si number density = 20.330006 Si / 1000 Ang^3
#
#
#
# Elastic Constant Matrix: (Units=GPa)
#
#
# Indices 1 2 3 4 5 6 
#
# 1 141.8399 42.7998 22.7901 0.0000 -0.0209 0.0000
# 2 42.7998 77.5929 4.3218 0.0000 -8.2236 0.0000
# 3 22.7901 4.3218 65.4786 0.0000 7.7911 0.0000
# 4 0.0000 0.0000 0.0000 8.6638 0.0000 -1.9950
# 5 -0.0209 -8.2236 7.7911 0.0000 33.6212 0.0000
# 6 0.0000 0.0000 0.0000 -1.9950 0.0000 15.1907
#
#
#
# Elastic Compliance Matrix: (Units=1/GPa)
#
#
# Indices 1 2 3 4 5 6 
#
# 1 0.008950 -0.004843 -0.002730 0.000000 -0.000546 0.000000
# 2 -0.004843 0.015958 0.000173 0.000000 0.003860 0.000000
# 3 -0.002730 0.000173 0.016666 0.000000 -0.003821 0.000000
# 4 0.000000 0.000000 0.000000 0.119022 0.000000 0.015631
# 5 -0.000546 0.003860 -0.003821 0.000000 0.031573 0.000000
# 6 0.000000 0.000000 0.000000 0.015631 0.000000 0.067883
#
#
# Mechanical properties :
#
#
# Convention : Reuss Voigt Hill
#
# Bulk Modulus (GPa) = 37.34988 47.19273 42.27130
# Shear Modulus (GPa) = 17.61948 25.82847 21.72397
#
# Velocity S-wave (km/s) = 2.94713 3.56822 3.27244
# Velocity P-wave (km/s) = 5.47653 6.34350 5.92589
#
# Compressibility (1/GPa) = 0.02677385
#
# Stress axis : x y z
#
# Youngs Moduli (GPa) = 111.73077 62.66278 60.00307
#
# Poissons Ratio (x) = 0.30345 0.16384
# Poissons Ratio (y) = 0.54107 -0.01037
# Poissons Ratio (z) = 0.30508 -0.01083
#
# Static dielectric constant tensor:
#      x y z
#    x 3.681790 0.000000 0.061530 
#    y 0.000000 3.538300 0.000000 
#    z 0.061530 0.000000 3.598910 
# 
# 
# High freq. dielectric constant tensor:
#      x y z
#    x 1.790280 0.000000 0.016340 
#    y 0.000000 1.771380 0.000000 
#    z 0.016340 0.000000 1.791510 
# 
# From -- ./inp_files/25322.got.cif
#   From: 2010.06.25/outbox.cif.g09.slc.cpg/sg12_13_cif.got.tgz:25322.got - 2010.06.28 00:19:55.
