data_PCOD8111367
_publ_section_title
;
Structure prediction by ZEFSAII (Michael W. Deem and Ramdas Pophale) SiO2 
 PCOD8111367
Probable space group: C 2/M
;
_chemical_formula_sum "Si O2"
_cell_formula_units_Z 48
_cell_length_a 15.632626
_cell_length_b 22.545722
_cell_length_c 11.763421
_cell_angle_alpha 90.000000
_cell_angle_beta 144.133715
_cell_angle_gamma 90.000000
_cell_volume 2429.125535
_symmetry_space_group_name_H-M "C 2/M"
_symmetry_group_IT_number 12
_symmetry_cell_setting 'monoclinic'
loop_
_space_group_symop_operation_xyz
x,y,z
-x,y,-z
-x,-y,-z
x,-y,z
1/2+x,1/2+y,z
1/2-x,1/2+y,-z
1/2-x,1/2-y,-z
1/2+x,1/2-y,z
loop_
_atom_site_type_symbol
_atom_site_label
_atom_site_fract_x
_atom_site_fract_y
_atom_site_fract_z
Si Si1 0.936860 0.375562 0.190282
Si Si2 0.350755 0.624600 0.770626
Si Si3 0.658331 0.185670 0.124052
Si Si4 0.171998 0.000000 0.188127
Si Si5 0.758635 0.681410 0.541728
Si Si6 0.841165 0.294907 0.284778
Si Si7 0.586598 0.000000 0.714629
O O1 0.844461 0.337198 0.179577
O O2 0.947118 0.443225 0.243455
O O3 0.095073 0.347335 0.350179
O O4 0.858803 0.369545 0.981809
O O5 0.278358 0.559089 0.692224
O O6 0.373785 0.646621 0.665129
O O7 0.232821 0.669312 0.693537
O O8 0.500000 0.626070 0.000000
O O9 0.755890 0.169137 0.339365
O O10 0.740032 0.238581 0.145780
O O11 0.500000 0.207624 0.000000
O O12 0.242259 0.000000 0.136994
O O13 0.000000 0.000000 0.000000
O O14 0.750000 0.750000 0.500000
O O15 0.000000 0.274503 0.500000
O O16 0.500000 0.000000 0.500000
#
# Coordination Sequence:
#
# PCOD8111367 Si02
#       7
#     8   8   8   4   8   8   4
#     4  11  23  38  62  92 123 162 207 254 319 366
#     4  11  22  37  63  89 117 160 200 252 315 362
#     4  10  23  40  58  84 125 167 201 244 307 384
#     4  10  22  40  59  93 121 153 208 248 308 372
#     4  11  21  39  59  86 124 160 208 251 303 384
#     4  12  20  37  58  93 122 152 201 258 316 365
#     4  12  22  40  66  93 131 159 208 273 307 363
#
# _framework density 19.760197000000002
#
# number of rings (size 3 to 8) (size 9 to 14) (size 15 to 20)
#    0.000    1.000    5.000    2.500    2.333    0.000 
#    3.000    4.583    0.000    0.000    0.000    2.917 
#    0.000    0.000    0.000    0.000    0.000    0.000 
#
# Total GULP energy -297428.506378 kJ/mol
# GULP energy per Si atom -12392.854432 kJ/mol
# Density = 1.971522 g / cm^3
# Si number density = 19.760197 Si / 1000 Ang^3
#
#
#
# Elastic Constant Matrix: (Units=GPa)
#
#
# Indices 1 2 3 4 5 6 
#
# 1 82.7674 52.8038 44.4892 0.0000 -12.2765 0.0000
# 2 52.8038 160.0200 59.2794 0.0000 -17.8299 0.0000
# 3 44.4892 59.2794 114.0298 0.0000 -32.2757 0.0000
# 4 0.0000 0.0000 0.0000 11.8685 0.0000 -5.2374
# 5 -12.2765 -17.8299 -32.2757 0.0000 46.7658 0.0000
# 6 0.0000 0.0000 0.0000 -5.2374 0.0000 35.1765
#
#
#
# Elastic Compliance Matrix: (Units=1/GPa)
#
#
# Indices 1 2 3 4 5 6 
#
# 1 0.017069 -0.003923 -0.004692 0.000000 -0.000253 0.000000
# 2 -0.003923 0.008643 -0.002885 0.000000 0.000274 0.000000
# 3 -0.004692 -0.002885 0.014217 0.000000 0.007481 0.000000
# 4 0.000000 0.000000 0.000000 0.090182 0.000000 0.013427
# 5 -0.000253 0.000274 0.007481 0.000000 0.026584 0.000000
# 6 0.000000 0.000000 0.000000 0.013427 0.000000 0.030427
#
#
# Mechanical properties :
#
#
# Convention : Reuss Voigt Hill
#
# Bulk Modulus (GPa) = 59.06585 74.44021 66.75303
# Shear Modulus (GPa) = 23.17332 32.11180 27.64256
#
# Velocity S-wave (km/s) = 3.42823 4.03559 3.74425
# Velocity P-wave (km/s) = 6.75474 7.71157 7.24896
#
# Compressibility (1/GPa) = 0.01693026
#
# Stress axis : x y z
#
# Youngs Moduli (GPa) = 58.58548 115.70157 70.33632
#
# Poissons Ratio (x) = 0.45384 0.33002
# Poissons Ratio (y) = 0.22980 0.20292
# Poissons Ratio (z) = 0.27488 0.33380
#
# Static dielectric constant tensor:
#      x y z
#    x 8.376770 0.000000 4.721300 
#    y 0.000000 4.080820 0.000000 
#    z 4.721300 0.000000 9.086440 
# 
# 
# High freq. dielectric constant tensor:
#      x y z
#    x 1.765650 0.000000 -0.003360 
#    y 0.000000 1.762780 0.000000 
#    z -0.003360 0.000000 1.773030 
# 
# From -- ./inp_files/148045.got.cif
#   From: 2010.06.25/outbox.cif.g09.slc.cpg/sg12_75_cif.got.tgz:148045.got - 2010.06.28 00:19:55.
