data_PCOD8111385
_publ_section_title
;
Structure prediction by ZEFSAII (Michael W. Deem and Ramdas Pophale) SiO2 
 PCOD8111385
Probable space group: C 2/M
;
_chemical_formula_sum "Si O2"
_cell_formula_units_Z 56
_cell_length_a 11.328935
_cell_length_b 14.215534
_cell_length_c 28.432881
_cell_angle_alpha 90.000000
_cell_angle_beta 32.765530
_cell_angle_gamma 90.000000
_cell_volume 2478.180050
_symmetry_space_group_name_H-M "C 2/M"
_symmetry_group_IT_number 12
_symmetry_cell_setting 'monoclinic'
loop_
_space_group_symop_operation_xyz
x,y,z
-x,y,-z
-x,-y,-z
x,-y,z
1/2+x,1/2+y,z
1/2-x,1/2+y,-z
1/2-x,1/2-y,-z
1/2+x,1/2-y,z
loop_
_atom_site_type_symbol
_atom_site_label
_atom_site_fract_x
_atom_site_fract_y
_atom_site_fract_z
Si Si1 0.156513 0.895939 0.642747
Si Si2 0.650187 0.107984 0.812179
Si Si3 0.374672 0.106200 0.669438
Si Si4 0.092094 0.108856 0.847215
Si Si5 0.893244 0.387300 0.987041
Si Si6 0.478996 0.110252 0.246158
Si Si7 0.245755 0.198827 0.413211
O O1 0.284296 0.889501 0.648188
O O2 0.249799 0.812067 0.579781
O O3 0.903830 0.878337 0.737312
O O4 0.193547 0.000000 0.607232
O O5 0.524806 0.155700 0.898157
O O6 0.582937 0.151676 0.784269
O O7 0.581019 0.000000 0.833144
O O8 0.204068 0.154012 0.763136
O O9 0.608727 0.156947 0.593528
O O10 0.414532 0.000000 0.673536
O O11 0.260215 0.124697 0.834097
O O12 0.048324 0.000000 0.852173
O O13 0.853401 0.153014 0.935592
O O14 0.905697 0.500000 0.981452
O O15 0.000000 0.350796 0.000000
O O16 0.341472 0.169390 0.330379
O O17 0.416200 0.000000 0.272399
O O18 0.000000 0.161218 0.500000
#
# Coordination Sequence:
#
# PCOD8111385 Si02
#       7
#     8   8   8   8   8   8   8
#     4  10  22  40  60  84 119 159 196 244 305 364
#     4   9  18  33  54  84 120 157 198 244 298 352
#     4   9  19  38  61  87 119 158 199 240 298 361
#     4   8  14  27  50  81 116 153 197 243 286 343
#     4   9  15  24  47  85 120 155 204 247 280 342
#     4   9  19  36  57  85 121 160 196 243 309 363
#     4  11  24  39  64  88 114 149 206 253 302 361
#
# _framework density 22.597227
#
# number of rings (size 3 to 8) (size 9 to 14) (size 15 to 20)
#    0.000    2.714    0.000    2.143    2.000    6.000 
#    0.000    2.857    0.000    3.429    7.429    0.000 
#    0.000    0.000    0.000    0.000    0.000    0.286 
#
# Total GULP energy -347049.269590 kJ/mol
# GULP energy per Si atom -12394.616771 kJ/mol
# Density = 2.254579 g / cm^3
# Si number density = 22.597227 Si / 1000 Ang^3
#
#
#
# Elastic Constant Matrix: (Units=GPa)
#
#
# Indices 1 2 3 4 5 6 
#
# 1 131.5197 34.9628 61.1352 -0.0087 -25.1162 -0.0086
# 2 34.9628 56.5389 15.7351 -0.0101 -5.4702 0.0003
# 3 61.1352 15.7351 109.6654 -0.0258 -33.9790 -0.0337
# 4 -0.0087 -0.0101 -0.0258 14.4516 0.0014 3.0876
# 5 -25.1162 -5.4702 -33.9790 0.0014 37.7296 -0.0205
# 6 -0.0086 0.0003 -0.0337 3.0876 -0.0205 -0.7148
#
#
#
# Elastic Compliance Matrix: (Units=1/GPa)
#
#
# Indices 1 2 3 4 5 6 
#
# 1 0.011972 -0.005748 -0.005046 -0.000005 0.002592 -0.000005
# 2 -0.005748 0.021187 -0.000096 -0.000006 -0.000841 0.000081
# 3 -0.005046 -0.000096 0.015119 0.000117 0.010243 -0.000440
# 4 -0.000005 -0.000006 0.000117 0.035988 0.000184 0.155434
# 5 0.002592 -0.000841 0.010243 0.000184 0.037332 -0.000790
# 6 -0.000005 0.000081 -0.000440 0.155434 -0.000790 -0.727516
#
#
# Mechanical properties :
#
#
# Convention : Reuss Voigt Hill
#
# Bulk Modulus (GPa) = 37.74047 57.93227 47.83637
# Shear Modulus (GPa) = -8.69105 22.68600 6.99748
#
# Velocity S-wave (km/s) = -1.96327 3.17192 1.76163
# Velocity P-wave (km/s) = 3.40564 6.25358 5.03516
#
# Compressibility (1/GPa) = 0.02649676
#
# Stress axis : x y z
#
# Youngs Moduli (GPa) = 83.52704 47.19898 66.14122
#
# Poissons Ratio (x) = 0.27131 0.33377
# Poissons Ratio (y) = 0.48013 0.00636
# Poissons Ratio (z) = 0.42151 0.00454
#
# Static dielectric constant tensor:
#      x y z
#    x 4.096550 0.000010 -0.142150 
#    y 0.000010 4.073110 0.000000 
#    z -0.142150 0.000000 3.953520 
# 
# 
# High freq. dielectric constant tensor:
#      x y z
#    x 1.895490 0.000000 -0.017620 
#    y 0.000000 1.876300 0.000000 
#    z -0.017620 0.000000 1.875210 
# 
# From -- ./inp_files/374216.got.cif
#   From: 2010.06.25/outbox.cif.g09.slc.cpg/sg12_188_cif.got.tgz:374216.got - 2010.06.28 00:19:55.
