data_PCOD8111018
_publ_section_title
;
Structure prediction by ZEFSAII (Michael W. Deem and Ramdas Pophale) SiO2 
 PCOD8111018
Probable space group: C 2/M
;
_chemical_formula_sum "Si O2"
_cell_formula_units_Z 48
_cell_length_a 20.594169
_cell_length_b 8.588101
_cell_length_c 23.092780
_cell_angle_alpha 90.000000
_cell_angle_beta 40.626012
_cell_angle_gamma 90.000000
_cell_volume 2659.364738
_symmetry_space_group_name_H-M "C 2/M"
_symmetry_group_IT_number 12
_symmetry_cell_setting 'monoclinic'
loop_
_space_group_symop_operation_xyz
x,y,z
-x,y,-z
-x,-y,-z
x,-y,z
1/2+x,1/2+y,z
1/2-x,1/2+y,-z
1/2-x,1/2-y,-z
1/2+x,1/2-y,z
loop_
_atom_site_type_symbol
_atom_site_label
_atom_site_fract_x
_atom_site_fract_y
_atom_site_fract_z
Si Si1 0.442189 0.317285 0.263092
Si Si2 0.754503 0.182651 0.560848
Si Si3 0.768690 0.822278 0.894688
Si Si4 0.068699 0.679807 0.280625
Si Si5 0.608842 0.181914 0.086256
Si Si6 0.473811 0.681888 0.453372
O O1 0.444908 0.500000 0.251345
O O2 0.328723 0.260585 0.342471
O O3 0.497587 0.276592 0.285796
O O4 0.493480 0.231748 0.172688
O O5 0.750000 0.250000 0.500000
O O6 0.859744 0.224794 0.518061
O O7 0.735488 0.000000 0.570508
O O8 0.814108 0.716550 0.812415
O O9 0.832646 0.792535 0.909048
O O10 0.780689 0.000000 0.866908
O O11 0.652875 0.786860 0.991393
O O12 0.046529 0.500000 0.285193
O O13 0.046508 0.725327 0.361342
O O14 0.623311 0.000000 0.092492
O O15 0.500000 0.737340 0.500000
O O16 0.494382 0.500000 0.430865
#
# Coordination Sequence:
#
# PCOD8111018 Si02
#       6
#     8   8   8   8   8   8
#     4  11  20  30  47  71 102 136 169 208 252 302
#     4  11  21  34  54  77 102 133 170 211 255 305
#     4   9  16  26  42  64  95 131 165 203 250 303
#     4  11  20  30  48  72 100 133 170 211 253 302
#     4   9  16  26  41  65  96 129 165 206 250 298
#     4  10  22  39  56  74 100 135 173 212 255 305
#
# _framework density 18.049423999999998
#
# number of rings (size 3 to 8) (size 9 to 14) (size 15 to 20)
#    0.000    1.833    1.667    6.500    0.000    3.000 
#    0.000    0.000    0.000    0.000    0.000    1.167 
#    0.000    9.333    0.000    0.000    0.000    0.000 
#
# Total GULP energy -297478.120683 kJ/mol
# GULP energy per Si atom -12394.921695 kJ/mol
# Density = 1.800834 g / cm^3
# Si number density = 18.049424 Si / 1000 Ang^3
#
#
#
# Elastic Constant Matrix: (Units=GPa)
#
#
# Indices 1 2 3 4 5 6 
#
# 1 60.0831 23.9851 41.1794 0.0000 1.3823 0.0000
# 2 23.9851 81.8787 52.9987 0.0000 1.1166 0.0005
# 3 41.1794 52.9987 184.5592 0.0001 -2.9645 -0.0001
# 4 0.0000 0.0000 0.0001 35.4339 0.0000 0.0281
# 5 1.3823 1.1166 -2.9645 0.0000 14.0482 0.0000
# 6 0.0000 0.0005 -0.0001 0.0281 0.0000 14.0355
#
#
#
# Elastic Compliance Matrix: (Units=1/GPa)
#
#
# Indices 1 2 3 4 5 6 
#
# 1 0.020630 -0.003690 -0.003584 0.000000 -0.002493 0.000000
# 2 -0.003690 0.015724 -0.003719 0.000000 -0.001672 -0.000001
# 3 -0.003584 -0.003719 0.007321 0.000000 0.002193 0.000000
# 4 0.000000 0.000000 0.000000 0.028222 0.000000 -0.000057
# 5 -0.002493 -0.001672 0.002193 0.000000 0.072024 0.000000
# 6 0.000000 -0.000001 0.000000 -0.000057 0.000000 0.071248
#
#
# Mechanical properties :
#
#
# Convention : Reuss Voigt Hill
#
# Bulk Modulus (GPa) = 46.10266 62.53860 54.32063
# Shear Modulus (GPa) = 20.45964 26.59404 23.52684
#
# Velocity S-wave (km/s) = 3.37045 3.84265 3.61427
# Velocity P-wave (km/s) = 6.38314 7.37643 6.89769
#
# Compressibility (1/GPa) = 0.02169072
#
# Stress axis : x y z
#
# Youngs Moduli (GPa) = 48.47322 63.59692 136.59217
#
# Poissons Ratio (x) = 0.23465 0.48948
# Poissons Ratio (y) = 0.17885 0.50798
# Poissons Ratio (z) = 0.17370 0.23652
#
# Static dielectric constant tensor:
#      x y z
#    x 2.867540 0.000000 -0.341350 
#    y 0.000000 3.365850 0.000000 
#    z -0.341350 0.000000 4.458770 
# 
# 
# High freq. dielectric constant tensor:
#      x y z
#    x 1.613750 0.000000 -0.006900 
#    y 0.000000 1.712320 0.000000 
#    z -0.006900 0.000000 1.733790 
# 
# From -- ./inp_files/314480.got.cif
#   From: 2010.06.25/outbox.cif.g09.slc.cpg/sg12_158_cif.got.tgz:314480.got - 2010.06.28 00:19:55.
