data_PCOD8111445
_publ_section_title
;
Structure prediction by ZEFSAII (Michael W. Deem and Ramdas Pophale) SiO2 
 PCOD8111445
Probable space group: C 2/M
;
_chemical_formula_sum "Si O2"
_cell_formula_units_Z 40
_cell_length_a 16.960569
_cell_length_b 26.448631
_cell_length_c 5.219809
_cell_angle_alpha 90.000000
_cell_angle_beta 119.850431
_cell_angle_gamma 90.000000
_cell_volume 2030.866790
_symmetry_space_group_name_H-M "C 2/M"
_symmetry_group_IT_number 12
_symmetry_cell_setting 'monoclinic'
loop_
_space_group_symop_operation_xyz
x,y,z
-x,y,-z
-x,-y,-z
x,-y,z
1/2+x,1/2+y,z
1/2-x,1/2+y,-z
1/2-x,1/2-y,-z
1/2+x,1/2-y,z
loop_
_atom_site_type_symbol
_atom_site_label
_atom_site_fract_x
_atom_site_fract_y
_atom_site_fract_z
Si Si1 0.142861 0.755675 0.813121
Si Si2 0.395552 0.628293 0.330291
Si Si3 0.271283 0.894244 0.647265
Si Si4 0.241673 0.058355 0.097674
Si Si5 0.903383 0.302667 0.774925
O O1 0.112222 0.812837 0.737216
O O2 0.101596 0.721287 0.517531
O O3 0.250000 0.750000 0.000000
O O4 0.104492 0.740981 0.027151
O O5 0.500000 0.611645 0.500000
O O6 0.337618 0.617323 0.498096
O O7 0.349429 0.592890 0.038311
O O8 0.292335 0.932228 0.447852
O O9 0.322862 0.842224 0.682913
O O10 0.304935 0.922053 0.963426
O O11 0.216647 0.000000 0.020661
O O12 0.000000 0.329115 0.000000
#
# Coordination Sequence:
#
# PCOD8111445 Si02
#       5
#     8   8   8   8   8
#     4  12  23  40  61  90 131 166 202 242 299 362
#     4  10  23  38  59  89 121 158 202 245 297 361
#     4  10  22  40  61  87 115 160 197 249 297 359
#     4  10  22  41  62  85 117 157 199 250 313 357
#     4  12  24  40  63  93 126 165 202 246 301 362
#
# _framework density 19.696023
#
# number of rings (size 3 to 8) (size 9 to 14) (size 15 to 20)
#    1.200    0.000    2.000    5.400    2.800    1.200 
#    0.000    1.000    0.000    3.600    0.000    0.000 
#    0.000    0.000    0.000    0.000    0.000    0.000 
#
# Total GULP energy -247762.371959 kJ/mol
# GULP energy per Si atom -12388.118598 kJ/mol
# Density = 1.965119 g / cm^3
# Si number density = 19.696023 Si / 1000 Ang^3
#
#
#
# Elastic Constant Matrix: (Units=GPa)
#
#
# Indices 1 2 3 4 5 6 
#
# 1 56.0928 19.2074 22.9147 0.0000 -7.8466 0.0000
# 2 19.2074 112.3545 28.5886 0.0000 -17.9421 0.0000
# 3 22.9147 28.5886 95.0808 0.0000 -23.2856 0.0000
# 4 0.0000 0.0000 0.0000 25.6762 0.0000 -7.1952
# 5 -7.8466 -17.9421 -23.2856 0.0000 39.3318 0.0000
# 6 0.0000 0.0000 0.0000 -7.1952 0.0000 3.0439
#
#
#
# Elastic Compliance Matrix: (Units=1/GPa)
#
#
# Indices 1 2 3 4 5 6 
#
# 1 0.020374 -0.002357 -0.004058 0.000000 0.000587 0.000000
# 2 -0.002357 0.010253 -0.001736 0.000000 0.003179 0.000000
# 3 -0.004058 -0.001736 0.013596 0.000000 0.006448 0.000000
# 4 0.000000 0.000000 0.000000 0.115366 0.000000 0.272704
# 5 0.000587 0.003179 0.006448 0.000000 0.030809 0.000000
# 6 0.000000 0.000000 0.000000 0.272704 0.000000 0.973146
#
#
# Mechanical properties :
#
#
# Convention : Reuss Voigt Hill
#
# Bulk Modulus (GPa) = 35.81417 44.99439 40.40428
# Shear Modulus (GPa) = 4.20467 26.46487 15.33477
#
# Velocity S-wave (km/s) = 1.46267 3.66958 2.79332
# Velocity P-wave (km/s) = 4.59080 6.39128 5.56435
#
# Compressibility (1/GPa) = 0.02792191
#
# Stress axis : x y z
#
# Youngs Moduli (GPa) = 49.08108 97.53490 73.54835
#
# Poissons Ratio (x) = 0.22987 0.29845
# Poissons Ratio (y) = 0.11567 0.12770
# Poissons Ratio (z) = 0.19916 0.16934
#
# Static dielectric constant tensor:
#      x y z
#    x 3.758440 0.000000 -0.078160 
#    y 0.000000 3.244030 0.000000 
#    z -0.078160 0.000000 3.730750 
# 
# 
# High freq. dielectric constant tensor:
#      x y z
#    x 1.761150 0.000000 -0.018920 
#    y 0.000000 1.759510 0.000000 
#    z -0.018920 0.000000 1.766540 
# 
# From -- ./inp_files/16752.got.cif
#   From: 2010.06.25/outbox.cif.g09.slc.cpg/sg12_9_cif.got.tgz:16752.got - 2010.06.28 00:19:55.
