data_PCOD8111253
_publ_section_title
;
Structure prediction by ZEFSAII (Michael W. Deem and Ramdas Pophale) SiO2 
 PCOD8111253
Probable space group: C 2/M
;
_chemical_formula_sum "Si O2"
_cell_formula_units_Z 64
_cell_length_a 15.134098
_cell_length_b 28.746410
_cell_length_c 9.503049
_cell_angle_alpha 90.000000
_cell_angle_beta 133.111635
_cell_angle_gamma 90.000000
_cell_volume 3018.144109
_symmetry_space_group_name_H-M "C 2/M"
_symmetry_group_IT_number 12
_symmetry_cell_setting 'monoclinic'
loop_
_space_group_symop_operation_xyz
x,y,z
-x,y,-z
-x,-y,-z
x,-y,z
1/2+x,1/2+y,z
1/2-x,1/2+y,-z
1/2-x,1/2-y,-z
1/2+x,1/2-y,z
loop_
_atom_site_type_symbol
_atom_site_label
_atom_site_fract_x
_atom_site_fract_y
_atom_site_fract_z
Si Si1 0.864517 0.781286 0.614398
Si Si2 0.500580 0.874411 0.667386
Si Si3 0.363110 0.610998 0.314005
Si Si4 0.284701 0.944472 0.066004
Si Si5 0.359805 0.551173 0.818216
Si Si6 0.918167 0.722446 0.120048
Si Si7 0.232668 0.878572 0.486109
Si Si8 0.670529 0.288000 0.739419
O O1 0.750000 0.750000 0.500000
O O2 0.828887 0.831143 0.639447
O O3 0.897639 0.784854 0.484429
O O4 0.973775 0.756080 0.816727
O O5 0.500000 0.865601 0.500000
O O6 0.539626 0.828745 0.793040
O O7 0.368369 0.886263 0.581091
O O8 0.587433 0.917735 0.800591
O O9 0.500000 0.595785 0.500000
O O10 0.302242 0.570666 0.156258
O O11 0.278108 0.618899 0.357799
O O12 0.362752 0.660986 0.231610
O O13 0.306436 0.000000 0.080974
O O14 0.216445 0.928758 0.133862
O O15 0.309954 0.500000 0.731457
O O16 0.346184 0.580477 0.663134
O O17 0.500000 0.549980 0.000000
O O18 0.866753 0.745484 0.204636
O O19 0.817465 0.717146 0.888016
#
# Coordination Sequence:
#
# PCOD8111253 Si02
#       8
#     8   8   8   8   8   8   8   8
#     4  11  22  39  56  91 130 160 213 265 316 384
#     4  12  23  42  68  94 137 175 223 277 331 399
#     4  11  23  44  69  95 136 173 221 278 336 400
#     4  11  25  44  69 101 134 175 227 281 341 402
#     4  10  22  43  68  98 134 170 222 282 336 395
#     4  11  22  40  65  90 126 175 215 267 326 392
#     4  11  24  41  67  98 130 179 220 272 334 401
#     4  10  22  39  63  88 123 171 212 262 327 386
#
# _framework density 21.205083999999999
#
# number of rings (size 3 to 8) (size 9 to 14) (size 15 to 20)
#    0.000    1.125    3.750    3.375    0.000    2.500 
#    2.250    0.625    0.000    0.000    0.000    0.000 
#    0.000    0.000    0.000    0.000    0.000    0.000 
#
# Total GULP energy -396747.805986 kJ/mol
# GULP energy per Si atom -12398.368937 kJ/mol
# Density = 2.115682 g / cm^3
# Si number density = 21.205084 Si / 1000 Ang^3
#
#
#
# Elastic Constant Matrix: (Units=GPa)
#
#
# Indices 1 2 3 4 5 6 
#
# 1 78.0745 23.2193 1.6841 0.0000 12.3234 0.0000
# 2 23.2193 122.1760 35.3150 0.0000 7.6572 0.0000
# 3 1.6841 35.3150 67.8871 0.0000 19.9954 0.0000
# 4 0.0000 0.0000 0.0000 38.2586 0.0000 6.3360
# 5 12.3234 7.6572 19.9954 0.0000 34.6508 0.0000
# 6 0.0000 0.0000 0.0000 6.3360 0.0000 32.5999
#
#
#
# Elastic Compliance Matrix: (Units=1/GPa)
#
#
# Indices 1 2 3 4 5 6 
#
# 1 0.014739 -0.003341 0.003251 0.000000 -0.006380 0.000000
# 2 -0.003341 0.010415 -0.006033 0.000000 0.002368 0.000000
# 3 0.003251 -0.006033 0.021367 0.000000 -0.012154 0.000000
# 4 0.000000 0.000000 0.000000 0.027007 0.000000 -0.005249
# 5 -0.006380 0.002368 -0.012154 0.000000 0.037618 0.000000
# 6 0.000000 0.000000 0.000000 -0.005249 0.000000 0.031695
#
#
# Mechanical properties :
#
#
# Convention : Reuss Voigt Hill
#
# Bulk Modulus (GPa) = 29.17387 43.17491 36.17439
# Shear Modulus (GPa) = 30.02788 34.96315 32.49551
#
# Velocity S-wave (km/s) = 3.76715 4.06496 3.91889
# Velocity P-wave (km/s) = 5.71924 6.51435 6.12970
#
# Compressibility (1/GPa) = 0.03427725
#
# Stress axis : x y z
#
# Youngs Moduli (GPa) = 67.84831 96.01372 46.80010
#
# Poissons Ratio (x) = 0.32079 -0.15217
# Poissons Ratio (y) = 0.22669 0.28232
# Poissons Ratio (z) = -0.22061 0.57920
#
# Static dielectric constant tensor:
#      x y z
#    x 3.855750 0.000000 0.055720 
#    y 0.000000 3.891020 0.000000 
#    z 0.055720 0.000000 4.397250 
# 
# 
# High freq. dielectric constant tensor:
#      x y z
#    x 1.836680 0.000000 0.017870 
#    y 0.000000 1.837240 0.000000 
#    z 0.017870 0.000000 1.829110 
# 
# From -- ./inp_files/68654.got.cif
#   From: 2010.06.25/outbox.cif.g09.slc.cpg/sg12_35_cif.got.tgz:68654.got - 2010.06.28 00:19:55.
