data_PCOD8111833
_publ_section_title
;
Structure prediction by ZEFSAII (Michael W. Deem and Ramdas Pophale) SiO2 
 PCOD8111833
Probable space group: C 2/M
;
_chemical_formula_sum "Si O2"
_cell_formula_units_Z 48
_cell_length_a 20.504082
_cell_length_b 8.649210
_cell_length_c 26.533300
_cell_angle_alpha 90.000000
_cell_angle_beta 30.062292
_cell_angle_gamma 90.000000
_cell_volume 2357.191315
_symmetry_space_group_name_H-M "C 2/M"
_symmetry_group_IT_number 12
_symmetry_cell_setting 'monoclinic'
loop_
_space_group_symop_operation_xyz
x,y,z
-x,y,-z
-x,-y,-z
x,-y,z
1/2+x,1/2+y,z
1/2-x,1/2+y,-z
1/2-x,1/2-y,-z
1/2+x,1/2-y,z
loop_
_atom_site_type_symbol
_atom_site_label
_atom_site_fract_x
_atom_site_fract_y
_atom_site_fract_z
Si Si1 0.998401 0.820640 0.885387
Si Si2 0.988122 0.678243 0.567051
Si Si3 0.250210 0.679967 0.118409
Si Si4 0.249937 0.818727 0.555086
Si Si5 0.761757 0.679197 0.218991
Si Si6 0.004586 0.679852 0.773204
O O1 0.128989 0.783132 0.828109
O O2 0.986127 0.718848 0.843829
O O3 0.999336 0.000000 0.869435
O O4 0.877012 0.779145 0.001566
O O5 0.959314 0.500000 0.600662
O O6 0.874875 0.786025 0.663475
O O7 0.000000 0.700122 0.500000
O O8 0.121616 0.738700 0.502103
O O9 0.246779 0.500000 0.135814
O O10 0.252771 0.782844 0.166283
O O11 0.124812 0.728066 0.170030
O O12 0.250000 0.750000 0.500000
O O13 0.125064 0.771778 0.670341
O O14 0.251155 0.000000 0.549083
O O15 0.796670 0.500000 0.202717
O O16 0.033638 0.500000 0.747653
#
# Coordination Sequence:
#
# PCOD8111833 Si02
#       6
#     8   8   8   8   8   8
#     4  11  23  41  64  88 120 162 203 244 297 359
#     4  10  22  41  63  85 114 156 202 245 293 354
#     4  10  23  42  63  88 121 162 202 243 296 358
#     4  11  23  39  61  89 121 159 201 245 297 356
#     4  12  25  39  61  92 123 156 199 252 302 352
#     4  11  23  40  63  92 124 156 198 251 302 355
#
# _framework density 20.363219000000001
#
# number of rings (size 3 to 8) (size 9 to 14) (size 15 to 20)
#    0.000    1.167    0.000    6.000    0.000   11.667 
#    0.000    0.000    0.000    0.000    0.000    0.000 
#    0.000    0.000    0.000    0.000    0.000    0.000 
#
# Total GULP energy -297783.440095 kJ/mol
# GULP energy per Si atom -12407.643337 kJ/mol
# Density = 2.031687 g / cm^3
# Si number density = 20.363219 Si / 1000 Ang^3
#
#
#
# Elastic Constant Matrix: (Units=GPa)
#
#
# Indices 1 2 3 4 5 6 
#
# 1 151.7353 24.5438 60.3767 0.0011 -9.5621 -0.0003
# 2 24.5438 45.0928 32.2887 0.0003 -2.0399 -0.0012
# 3 60.3767 32.2887 151.9404 0.0027 -13.4096 -0.0004
# 4 0.0011 0.0003 0.0027 29.0799 0.0000 1.7152
# 5 -9.5621 -2.0399 -13.4096 0.0000 42.3730 -0.0001
# 6 -0.0003 -0.0012 -0.0004 1.7152 -0.0001 34.7888
#
#
#
# Elastic Compliance Matrix: (Units=1/GPa)
#
#
# Indices 1 2 3 4 5 6 
#
# 1 0.008086 -0.002496 -0.002605 0.000000 0.000880 0.000000
# 2 -0.002496 0.026938 -0.004802 0.000000 -0.000786 0.000001
# 3 -0.002605 -0.004802 0.008811 -0.000001 0.001969 0.000000
# 4 0.000000 0.000000 -0.000001 0.034488 0.000000 -0.001700
# 5 0.000880 -0.000786 0.001969 0.000000 0.024384 0.000000
# 6 0.000000 0.000001 0.000000 -0.001700 0.000000 0.028829
#
#
# Mechanical properties :
#
#
# Convention : Reuss Voigt Hill
#
# Bulk Modulus (GPa) = 41.61687 64.79856 53.20771
# Shear Modulus (GPa) = 31.37699 36.68563 34.03131
#
# Velocity S-wave (km/s) = 3.92965 4.24909 4.09248
# Velocity P-wave (km/s) = 6.40868 7.48087 6.96543
#
# Compressibility (1/GPa) = 0.02402872
#
# Stress axis : x y z
#
# Youngs Moduli (GPa) = 123.66678 37.12222 113.49436
#
# Poissons Ratio (x) = 0.09266 0.29567
# Poissons Ratio (y) = 0.30868 0.54501
# Poissons Ratio (z) = 0.32217 0.17826
#
# Static dielectric constant tensor:
#      x y z
#    x 3.886530 0.000000 -0.099730 
#    y 0.000000 3.656760 0.000000 
#    z -0.099730 0.000000 3.753640 
# 
# 
# High freq. dielectric constant tensor:
#      x y z
#    x 1.815790 0.000000 -0.001690 
#    y 0.000000 1.796490 0.000000 
#    z -0.001690 0.000000 1.814350 
# 
# From -- ./inp_files/365381.got.cif
#   From: 2010.06.25/outbox.cif.g09.slc.cpg/sg12_183_cif.got.tgz:365381.got - 2010.06.28 00:19:55.
