data_PCOD8111717
_publ_section_title
;
Structure prediction by ZEFSAII (Michael W. Deem and Ramdas Pophale) SiO2 
 PCOD8111717
Probable space group: C 2/M
;
_chemical_formula_sum "Si O2"
_cell_formula_units_Z 40
_cell_length_a 8.888680
_cell_length_b 24.892466
_cell_length_c 15.486533
_cell_angle_alpha 90.000000
_cell_angle_beta 33.005313
_cell_angle_gamma 90.000000
_cell_volume 1866.509342
_symmetry_space_group_name_H-M "C 2/M"
_symmetry_group_IT_number 12
_symmetry_cell_setting 'monoclinic'
loop_
_space_group_symop_operation_xyz
x,y,z
-x,y,-z
-x,-y,-z
x,-y,z
1/2+x,1/2+y,z
1/2-x,1/2+y,-z
1/2-x,1/2-y,-z
1/2+x,1/2-y,z
loop_
_atom_site_type_symbol
_atom_site_label
_atom_site_fract_x
_atom_site_fract_y
_atom_site_fract_z
Si Si1 0.693307 0.589627 0.155378
Si Si2 0.831274 0.103554 0.163947
Si Si3 0.563430 0.500000 0.340032
Si Si4 0.167845 0.707499 0.330129
Si Si5 0.473805 0.000000 0.287743
Si Si6 0.801283 0.788802 0.827184
O O1 0.548648 0.587293 0.132444
O O2 0.522892 0.552730 0.301914
O O3 0.709376 0.648405 0.191234
O O4 0.000000 0.565820 0.000000
O O5 0.634334 0.151324 0.294367
O O6 0.651687 0.052609 0.222196
O O7 0.000000 0.125012 0.000000
O O8 0.864454 0.500000 0.241718
O O9 0.305032 0.500000 0.525691
O O10 0.073424 0.756615 0.314972
O O11 0.490335 0.718483 0.193565
O O12 0.000000 0.704776 0.500000
O O13 0.500000 0.767032 0.000000
#
# Coordination Sequence:
#
# PCOD8111717 Si02
#       6
#     8   8   4   8   4   8
#     4  10  22  40  66  93 128 169 213 257 315 376
#     4  11  24  42  67  93 127 169 214 259 312 385
#     4  11  24  43  62  95 129 165 206 269 318 378
#     4  11  24  41  65  97 129 166 213 266 320 372
#     4  11  26  41  64  93 128 166 211 258 324 374
#     4  10  22  41  64  94 128 172 212 254 318 380
#
# _framework density 21.430375999999999
#
# number of rings (size 3 to 8) (size 9 to 14) (size 15 to 20)
#    0.000    1.400    0.000    4.200    5.600    5.600 
#    3.600    0.000    0.000    0.000    0.000    0.000 
#    0.000    0.000    0.000    0.000    0.000    0.000 
#
# Total GULP energy -248021.354635 kJ/mol
# GULP energy per Si atom -12401.067732 kJ/mol
# Density = 2.138160 g / cm^3
# Si number density = 21.430376 Si / 1000 Ang^3
#
#
#
# Elastic Constant Matrix: (Units=GPa)
#
#
# Indices 1 2 3 4 5 6 
#
# 1 109.6874 47.2852 33.5280 0.0000 13.0951 0.0000
# 2 47.2852 117.3702 43.9526 0.0000 23.3855 0.0000
# 3 33.5280 43.9526 86.2728 -0.0001 18.7830 0.0000
# 4 0.0000 0.0000 -0.0001 29.5024 0.0000 7.6532
# 5 13.0951 23.3855 18.7830 0.0000 39.3305 0.0000
# 6 0.0000 0.0000 0.0000 7.6532 0.0000 36.9475
#
#
#
# Elastic Compliance Matrix: (Units=1/GPa)
#
#
# Indices 1 2 3 4 5 6 
#
# 1 0.011495 -0.003585 -0.002535 0.000000 -0.000485 0.000000
# 2 -0.003585 0.012284 -0.003945 0.000000 -0.004226 0.000000
# 3 -0.002535 -0.003945 0.015504 0.000000 -0.004214 0.000000
# 4 0.000000 0.000000 0.000000 0.035820 0.000000 -0.007420
# 5 -0.000485 -0.004226 -0.004214 0.000000 0.030113 0.000000
# 6 0.000000 0.000000 0.000000 -0.007420 0.000000 0.028602
#
#
# Mechanical properties :
#
#
# Convention : Reuss Voigt Hill
#
# Bulk Modulus (GPa) = 52.21288 62.54023 57.37656
# Shear Modulus (GPa) = 31.18532 33.72703 32.45617
#
# Velocity S-wave (km/s) = 3.81884 3.97141 3.89587
# Velocity P-wave (km/s) = 6.62280 7.09055 6.86066
#
# Compressibility (1/GPa) = 0.01915236
#
# Stress axis : x y z
#
# Youngs Moduli (GPa) = 86.99317 81.40927 64.50092
#
# Poissons Ratio (x) = 0.29186 0.16353
# Poissons Ratio (y) = 0.31187 0.25443
# Poissons Ratio (z) = 0.22056 0.32113
#
# Static dielectric constant tensor:
#      x y z
#    x 4.077600 0.000000 -0.088340 
#    y 0.000000 3.896930 0.000000 
#    z -0.088340 0.000000 3.801430 
# 
# 
# High freq. dielectric constant tensor:
#      x y z
#    x 1.851200 0.000000 -0.000290 
#    y 0.000000 1.848180 0.000000 
#    z -0.000290 0.000000 1.839000 
# 
# From -- ./inp_files/201142.got.cif
#   From: 2010.06.25/outbox.cif.g09.slc.cpg/sg12_101_cif.got.tgz:201142.got - 2010.06.28 00:19:55.
