data_PCOD8111914
_publ_section_title
;
Structure prediction by ZEFSAII (Michael W. Deem and Ramdas Pophale) SiO2 
 PCOD8111914
Probable space group: C 2/M
;
_chemical_formula_sum "Si O2"
_cell_formula_units_Z 64
_cell_length_a 29.503876
_cell_length_b 17.906304
_cell_length_c 9.693985
_cell_angle_alpha 90.000000
_cell_angle_beta 140.088835
_cell_angle_gamma 90.000000
_cell_volume 3285.875667
_symmetry_space_group_name_H-M "C 2/M"
_symmetry_group_IT_number 12
_symmetry_cell_setting 'monoclinic'
loop_
_space_group_symop_operation_xyz
x,y,z
-x,y,-z
-x,-y,-z
x,-y,z
1/2+x,1/2+y,z
1/2-x,1/2+y,-z
1/2-x,1/2-y,-z
1/2+x,1/2-y,z
loop_
_atom_site_type_symbol
_atom_site_label
_atom_site_fract_x
_atom_site_fract_y
_atom_site_fract_z
Si Si1 0.612484 0.160650 0.486052
Si Si2 0.506593 0.723087 0.854852
Si Si3 0.316605 0.581750 0.911721
Si Si4 0.684343 0.083498 0.420711
Si Si5 0.981329 0.915479 0.297337
Si Si6 0.637452 0.814145 0.066642
Si Si7 0.255837 0.276798 0.862041
Si Si8 0.416917 0.916401 0.298400
O O1 0.541508 0.205931 0.293337
O O2 0.625950 0.095169 0.405944
O O3 0.677774 0.217003 0.617060
O O4 0.614273 0.126548 0.642955
O O5 0.483096 0.648906 0.714098
O O6 0.585338 0.748795 0.997419
O O7 0.500000 0.702878 0.000000
O O8 0.301782 0.500000 0.941526
O O9 0.265753 0.593955 0.660153
O O10 0.295287 0.643699 0.972471
O O11 0.398742 0.588968 0.067659
O O12 0.673109 0.000000 0.337385
O O13 0.670622 0.143231 0.271687
O O14 0.000000 0.897080 0.500000
O O15 0.008939 0.000000 0.327130
O O16 0.599196 0.872513 0.878513
O O17 0.701960 0.777731 0.137555
O O18 0.250000 0.250000 0.000000
O O19 0.500000 0.921723 0.500000
O O20 0.384436 0.000000 0.216596
#
# Coordination Sequence:
#
# PCOD8111914 Si02
#       8
#     8   8   8   8   8   8   8   8
#     4  11  23  40  62  91 129 168 215 256 321 386
#     4  12  25  41  64  95 131 169 208 264 321 380
#     4   9  20  40  64  89 123 167 207 252 318 383
#     4  10  22  41  64  90 130 171 209 257 314 382
#     4  10  23  42  70  96 122 164 213 262 322 380
#     4  12  23  41  63  94 128 168 217 268 314 377
#     4  11  23  38  61  92 123 162 206 260 319 373
#     4  11  23  38  60  91 129 173 216 268 324 374
#
# _framework density 19.477304
#
# number of rings (size 3 to 8) (size 9 to 14) (size 15 to 20)
#    0.000    1.250    5.000    0.750    3.500    3.750 
#    0.000    0.625    0.000    1.500    0.000    0.000 
#    0.000    0.000    0.000    0.000    0.000    0.000 
#
# Total GULP energy -396703.996661 kJ/mol
# GULP energy per Si atom -12396.999896 kJ/mol
# Density = 1.943297 g / cm^3
# Si number density = 19.477304 Si / 1000 Ang^3
#
#
#
# Elastic Constant Matrix: (Units=GPa)
#
#
# Indices 1 2 3 4 5 6 
#
# 1 86.4172 29.4879 28.1167 0.0000 -13.5612 0.0000
# 2 29.4879 109.7218 38.6945 0.0000 -15.6159 0.0000
# 3 28.1167 38.6945 70.4288 0.0000 -10.5959 0.0000
# 4 0.0000 0.0000 0.0000 37.6886 0.0000 -6.4308
# 5 -13.5612 -15.6159 -10.5959 0.0000 35.3159 0.0000
# 6 0.0000 0.0000 0.0000 -6.4308 0.0000 31.8275
#
#
#
# Elastic Compliance Matrix: (Units=1/GPa)
#
#
# Indices 1 2 3 4 5 6 
#
# 1 0.014063 -0.001861 -0.004088 0.000000 0.003351 0.000000
# 2 -0.001861 0.011926 -0.005366 0.000000 0.002949 0.000000
# 3 -0.004088 -0.005366 0.019045 0.000000 0.001772 0.000000
# 4 0.000000 0.000000 0.000000 0.027481 0.000000 0.005553
# 5 0.003351 0.002949 0.001772 0.000000 0.031438 0.000000
# 6 0.000000 0.000000 0.000000 0.005553 0.000000 0.032541
#
#
# Mechanical properties :
#
#
# Convention : Reuss Voigt Hill
#
# Bulk Modulus (GPa) = 44.63226 51.01844 47.82535
# Shear Modulus (GPa) = 30.01369 32.31764 31.16566
#
# Velocity S-wave (km/s) = 3.92976 4.07780 4.00447
# Velocity P-wave (km/s) = 6.59966 6.95859 6.78150
#
# Compressibility (1/GPa) = 0.02240532
#
# Stress axis : x y z
#
# Youngs Moduli (GPa) = 71.11106 83.84984 52.50675
#
# Poissons Ratio (x) = 0.15604 0.21462
# Poissons Ratio (y) = 0.13233 0.28174
# Poissons Ratio (z) = 0.29067 0.44992
#
# Static dielectric constant tensor:
#      x y z
#    x 3.792430 0.000000 -0.264400 
#    y 0.000000 3.888930 0.000000 
#    z -0.264400 0.000000 3.939800 
# 
# 
# High freq. dielectric constant tensor:
#      x y z
#    x 1.749150 0.000000 0.003880 
#    y 0.000000 1.775350 0.000000 
#    z 0.003880 0.000000 1.759210 
# 
# From -- ./inp_files/112910.got.cif
#   From: 2010.06.25/outbox.cif.g09.slc.cpg/sg12_57_cif.got.tgz:112910.got - 2010.06.28 00:19:55.
