data_PCOD8111485
_publ_section_title
;
Structure prediction by ZEFSAII (Michael W. Deem and Ramdas Pophale) SiO2 
 PCOD8111485
Probable space group: C 2/M
;
_chemical_formula_sum "Si O2"
_cell_formula_units_Z 44
_cell_length_a 16.543238
_cell_length_b 27.915928
_cell_length_c 9.068651
_cell_angle_alpha 90.000000
_cell_angle_beta 149.247878
_cell_angle_gamma 90.000000
_cell_volume 2141.471163
_symmetry_space_group_name_H-M "C 2/M"
_symmetry_group_IT_number 12
_symmetry_cell_setting 'monoclinic'
loop_
_space_group_symop_operation_xyz
x,y,z
-x,y,-z
-x,-y,-z
x,-y,z
1/2+x,1/2+y,z
1/2-x,1/2+y,-z
1/2-x,1/2-y,-z
1/2+x,1/2-y,z
loop_
_atom_site_type_symbol
_atom_site_label
_atom_site_fract_x
_atom_site_fract_y
_atom_site_fract_z
Si Si1 0.166820 0.944799 0.318821
Si Si2 0.974374 0.555235 0.626249
Si Si3 0.713914 0.890320 0.207296
Si Si4 0.500000 0.352895 0.500000
Si Si5 0.346049 0.218112 0.841003
Si Si6 0.005420 0.239035 0.347803
O O1 0.290728 0.938550 0.379668
O O2 0.225634 0.919100 0.557747
O O3 0.144898 0.000000 0.327943
O O4 0.000000 0.923279 0.000000
O O5 0.028534 0.500000 0.718945
O O6 0.000000 0.575063 0.500000
O O7 0.070444 0.583759 0.901025
O O8 0.851680 0.886476 0.301398
O O9 0.658211 0.838881 0.179436
O O10 0.532432 0.317974 0.692134
O O11 0.178308 0.242832 0.536233
O O12 0.500000 0.239412 0.000000
O O13 0.371304 0.232932 0.050272
O O14 0.000000 0.264003 0.500000
#
# Coordination Sequence:
#
# PCOD8111485 Si02
#       6
#     8   8   8   4   8   8
#     4  10  22  41  64  89 121 159 198 245 304 356
#     4  10  22  40  61  90 125 158 195 242 298 361
#     4  11  22  39  62  89 123 157 204 248 297 351
#     4   8  22  38  59  84 122 156 199 250 298 350
#     4  11  21  37  60  87 114 150 198 243 290 352
#     4   9  20  39  58  78 116 156 188 241 295 349
#
# _framework density 20.546623
#
# number of rings (size 3 to 8) (size 9 to 14) (size 15 to 20)
#    0.545    1.455    0.000    3.273    2.545    2.182 
#    0.000    8.182    0.000    0.000    0.000    0.000 
#    0.000    0.000    0.000    0.000    0.000    0.000 
#
# Total GULP energy -272651.767869 kJ/mol
# GULP energy per Si atom -12393.262176 kJ/mol
# Density = 2.049986 g / cm^3
# Si number density = 20.546623 Si / 1000 Ang^3
#
#
#
# Elastic Constant Matrix: (Units=GPa)
#
#
# Indices 1 2 3 4 5 6 
#
# 1 91.6724 -2.9038 19.7792 0.0000 19.6757 0.0000
# 2 -2.9038 37.0009 28.6628 0.0000 -1.1425 0.0000
# 3 19.7792 28.6628 116.5809 0.0000 -4.5232 0.0000
# 4 0.0000 0.0000 0.0000 8.5128 0.0000 -0.9225
# 5 19.6757 -1.1425 -4.5232 0.0000 37.4524 0.0000
# 6 0.0000 0.0000 0.0000 -0.9225 0.0000 19.0271
#
#
#
# Elastic Compliance Matrix: (Units=1/GPa)
#
#
# Indices 1 2 3 4 5 6 
#
# 1 0.013316 0.003445 -0.003389 0.000000 -0.007300 0.000000
# 2 0.003445 0.034276 -0.009084 0.000000 -0.001861 0.000000
# 3 -0.003389 -0.009084 0.011498 0.000000 0.002892 0.000000
# 4 0.000000 0.000000 0.000000 0.118091 0.000000 0.005725
# 5 -0.007300 -0.001861 0.002892 0.000000 0.030828 0.000000
# 6 0.000000 0.000000 0.000000 0.005725 0.000000 0.052834
#
#
# Mechanical properties :
#
#
# Convention : Reuss Voigt Hill
#
# Bulk Modulus (GPa) = 24.37015 37.37005 30.87010
# Shear Modulus (GPa) = 17.08952 26.31287 21.70119
#
# Velocity S-wave (km/s) = 2.88713 3.58249 3.25344
# Velocity P-wave (km/s) = 4.79590 5.94472 5.40094
#
# Compressibility (1/GPa) = 0.04103381
#
# Stress axis : x y z
#
# Youngs Moduli (GPa) = 75.10025 29.17485 86.96885
#
# Poissons Ratio (x) = -0.10051 0.29477
# Poissons Ratio (y) = -0.25873 0.79002
# Poissons Ratio (z) = 0.25454 0.26502
#
# Static dielectric constant tensor:
#      x y z
#    x 3.876640 0.000000 0.147840 
#    y 0.000000 3.476550 0.000000 
#    z 0.147840 0.000000 3.442840 
# 
# 
# High freq. dielectric constant tensor:
#      x y z
#    x 1.821230 0.000000 0.014480 
#    y 0.000000 1.781410 0.000000 
#    z 0.014480 0.000000 1.801070 
# 
# From -- ./inp_files/80536.got.cif
#   From: 2010.06.25/outbox.cif.g09.slc.cpg/sg12_41_cif.got.tgz:80536.got - 2010.06.28 00:19:55.
