data_PCOD8111762
_publ_section_title
;
Structure prediction by ZEFSAII (Michael W. Deem and Ramdas Pophale) SiO2 
 PCOD8111762
Probable space group: C 2/M
;
_chemical_formula_sum "Si O2"
_cell_formula_units_Z 56
_cell_length_a 8.138600
_cell_length_b 18.380209
_cell_length_c 22.836765
_cell_angle_alpha 90.000000
_cell_angle_beta 118.387917
_cell_angle_gamma 90.000000
_cell_volume 3005.338836
_symmetry_space_group_name_H-M "C 2/M"
_symmetry_group_IT_number 12
_symmetry_cell_setting 'monoclinic'
loop_
_space_group_symop_operation_xyz
x,y,z
-x,y,-z
-x,-y,-z
x,-y,z
1/2+x,1/2+y,z
1/2-x,1/2+y,-z
1/2-x,1/2-y,-z
1/2+x,1/2-y,z
loop_
_atom_site_type_symbol
_atom_site_label
_atom_site_fract_x
_atom_site_fract_y
_atom_site_fract_z
Si Si1 0.287248 0.917290 0.308768
Si Si2 0.497074 0.697917 0.566085
Si Si3 0.296096 0.082678 0.448131
Si Si4 0.078268 0.710125 0.139217
Si Si5 0.692115 0.295835 0.046178
Si Si6 0.411442 0.799388 0.654873
Si Si7 0.519141 0.313930 0.773541
O O1 0.271655 0.910033 0.375197
O O2 0.455695 0.868402 0.312740
O O3 0.091827 0.889552 0.248966
O O4 0.321569 0.000000 0.294455
O O5 0.500000 0.726155 0.500000
O O6 0.359938 0.629522 0.546037
O O7 0.430264 0.765795 0.593382
O O8 0.699321 0.673130 0.624503
O O9 0.500000 0.111687 0.500000
O O10 0.270751 0.000000 0.465617
O O11 0.133620 0.738954 0.085486
O O12 0.258927 0.666737 0.194259
O O13 0.032715 0.777464 0.173831
O O14 0.883356 0.662249 0.099965
O O15 0.500000 0.342955 0.000000
O O16 0.750000 0.250000 0.000000
O O17 0.456025 0.738807 0.710597
#
# Coordination Sequence:
#
# PCOD8111762 Si02
#       7
#     8   8   8   8   8   8   8
#     4  11  23  39  57  77 109 147 182 234 290 334
#     4  12  23  35  57  80 103 133 187 231 283 340
#     4  10  22  41  58  76 107 141 178 232 300 349
#     4   9  17  26  51  78 108 152 179 216 267 310
#     4   8  14  26  43  77 121 146 170 217 270 312
#     4  12  22  37  55  79 109 138 181 232 275 336
#     4  11  18  34  52  77 107 146 185 218 264 333
#
# _framework density 18.633507000000002
#
# number of rings (size 3 to 8) (size 9 to 14) (size 15 to 20)
#    0.000    1.571    4.286    1.286    0.000    2.000 
#    0.000    0.000    0.000    0.000    0.000    0.000 
#    0.000   72.000    0.000    0.000    0.000    0.000 
#
# Total GULP energy -346910.326681 kJ/mol
# GULP energy per Si atom -12389.654524 kJ/mol
# Density = 1.859110 g / cm^3
# Si number density = 18.633507 Si / 1000 Ang^3
#
#
#
# Elastic Constant Matrix: (Units=GPa)
#
#
# Indices 1 2 3 4 5 6 
#
# 1 128.8399 40.5941 53.6017 0.0000 44.9742 0.0000
# 2 40.5941 79.5716 23.0006 0.0000 12.8644 0.0000
# 3 53.6017 23.0006 93.1930 0.0000 23.7752 0.0000
# 4 0.0000 0.0000 0.0000 5.1530 0.0000 -0.9900
# 5 44.9742 12.8644 23.7752 0.0000 63.9832 0.0000
# 6 0.0000 0.0000 0.0000 -0.9900 0.0000 19.9678
#
#
#
# Elastic Compliance Matrix: (Units=1/GPa)
#
#
# Indices 1 2 3 4 5 6 
#
# 1 0.013609 -0.004394 -0.005002 0.000000 -0.006824 0.000000
# 2 -0.004394 0.015108 -0.001342 0.000000 0.000549 0.000000
# 3 -0.005002 -0.001342 0.014331 0.000000 -0.001539 0.000000
# 4 0.000000 0.000000 0.000000 0.195929 0.000000 0.009714
# 5 -0.006824 0.000549 -0.001539 0.000000 0.020887 0.000000
# 6 0.000000 0.000000 0.000000 0.009714 0.000000 0.050562
#
#
# Mechanical properties :
#
#
# Convention : Reuss Voigt Hill
#
# Bulk Modulus (GPa) = 46.35433 59.55527 52.95480
# Shear Modulus (GPa) = 14.74523 30.11465 22.42994
#
# Velocity S-wave (km/s) = 2.81611 4.02451 3.47326
# Velocity P-wave (km/s) = 5.95859 7.32300 6.67574
#
# Compressibility (1/GPa) = 0.02157296
#
# Stress axis : x y z
#
# Youngs Moduli (GPa) = 73.48121 66.19115 69.77665
#
# Poissons Ratio (x) = 0.29082 0.34904
# Poissons Ratio (y) = 0.32285 0.09362
# Poissons Ratio (z) = 0.36757 0.08881
#
# Static dielectric constant tensor:
#      x y z
#    x 4.056250 0.000000 0.487110 
#    y 0.000000 3.047900 0.000000 
#    z 0.487110 0.000000 3.992150 
# 
# 
# High freq. dielectric constant tensor:
#      x y z
#    x 1.751700 0.000000 0.014630 
#    y 0.000000 1.654050 0.000000 
#    z 0.014630 0.000000 1.743840 
# 
# From -- ./inp_files/300430.got.cif
#   From: 2010.06.25/outbox.cif.g09.slc.cpg/sg12_151_cif.got.tgz:300430.got - 2010.06.28 00:19:55.
