data_PCOD8111404
_publ_section_title
;
Structure prediction by ZEFSAII (Michael W. Deem and Ramdas Pophale) SiO2 
 PCOD8111404
Probable space group: C 2/M
;
_chemical_formula_sum "Si O2"
_cell_formula_units_Z 56
_cell_length_a 9.986001
_cell_length_b 9.075240
_cell_length_c 33.206376
_cell_angle_alpha 90.000000
_cell_angle_beta 112.304808
_cell_angle_gamma 90.000000
_cell_volume 2784.174444
_symmetry_space_group_name_H-M "C 2/M"
_symmetry_group_IT_number 12
_symmetry_cell_setting 'monoclinic'
loop_
_space_group_symop_operation_xyz
x,y,z
-x,y,-z
-x,-y,-z
x,-y,z
1/2+x,1/2+y,z
1/2-x,1/2+y,-z
1/2-x,1/2-y,-z
1/2+x,1/2-y,z
loop_
_atom_site_type_symbol
_atom_site_label
_atom_site_fract_x
_atom_site_fract_y
_atom_site_fract_z
Si Si1 0.117784 0.670346 0.665793
Si Si2 0.955551 0.169980 0.186667
Si Si3 0.830856 0.331278 0.473621
Si Si4 0.954423 0.329485 0.950888
Si Si5 0.284298 0.171698 0.616969
Si Si6 0.338819 0.170683 0.098156
Si Si7 0.213380 0.668822 0.764612
O O1 0.159971 0.500000 0.663763
O O2 0.954650 0.701766 0.633423
O O3 0.225526 0.771735 0.652806
O O4 0.134756 0.713776 0.714333
O O5 0.116316 0.194767 0.221658
O O6 0.939490 0.254287 0.142883
O O7 0.842954 0.228412 0.206459
O O8 0.920602 0.000000 0.174897
O O9 0.779397 0.500000 0.466924
O O10 0.750000 0.250000 0.500000
O O11 0.795719 0.258397 0.427229
O O12 0.000000 0.318667 0.500000
O O13 0.908439 0.500000 0.947348
O O14 0.820382 0.237936 0.919023
O O15 0.090234 0.303284 0.937252
O O16 0.000000 0.271212 0.000000
O O17 0.249045 0.000000 0.608647
O O18 0.325773 0.000000 0.107414
O O19 0.179307 0.500000 0.772118
#
# Coordination Sequence:
#
# PCOD8111404 Si02
#       7
#     8   8   8   8   8   8   8
#     4  10  22  40  60  86 120 153 190 238 288 341
#     4  11  23  38  59  86 115 151 194 238 286 340
#     4  11  24  41  61  86 117 153 194 241 291 344
#     4  10  22  40  61  87 118 151 191 239 288 341
#     4  11  23  38  60  89 118 153 195 237 287 346
#     4  11  23  38  59  86 116 153 193 235 287 343
#     4  10  22  40  61  86 117 153 193 238 288 342
#
# _framework density 20.113683000000002
#
# number of rings (size 3 to 8) (size 9 to 14) (size 15 to 20)
#    0.000    1.429    0.000    4.714    0.000   11.143 
#    0.000    0.000    0.000    0.000    0.000    0.000 
#    0.000    0.000    0.000    0.000    0.000    0.000 
#
# Total GULP energy -347419.918673 kJ/mol
# GULP energy per Si atom -12407.854238 kJ/mol
# Density = 2.006790 g / cm^3
# Si number density = 20.113683 Si / 1000 Ang^3
#
#
#
# Elastic Constant Matrix: (Units=GPa)
#
#
# Indices 1 2 3 4 5 6 
#
# 1 75.0354 47.7602 12.9666 0.0000 -8.9943 0.0000
# 2 47.7602 112.9717 43.7400 0.0000 -2.9651 0.0000
# 3 12.9666 43.7400 102.1543 0.0000 -1.4227 0.0000
# 4 0.0000 0.0000 0.0000 32.6267 0.0000 -8.1894
# 5 -8.9943 -2.9651 -1.4227 0.0000 36.2023 0.0000
# 6 0.0000 0.0000 0.0000 -8.1894 0.0000 29.8412
#
#
#
# Elastic Compliance Matrix: (Units=1/GPa)
#
#
# Indices 1 2 3 4 5 6 
#
# 1 0.018932 -0.008377 0.001241 0.000000 0.004066 0.000000
# 2 -0.008377 0.014335 -0.005090 0.000000 -0.001107 0.000000
# 3 0.001241 -0.005090 0.011816 0.000000 0.000356 0.000000
# 4 0.000000 0.000000 0.000000 0.032917 0.000000 0.009034
# 5 0.004066 -0.001107 0.000356 0.000000 0.028556 0.000000
# 6 0.000000 0.000000 0.000000 0.009034 0.000000 0.035990
#
#
# Mechanical properties :
#
#
# Convention : Reuss Voigt Hill
#
# Bulk Modulus (GPa) = 48.47397 55.45499 51.96448
# Shear Modulus (GPa) = 28.75596 32.11369 30.43482
#
# Velocity S-wave (km/s) = 3.78520 4.00009 3.89413
# Velocity P-wave (km/s) = 6.57693 6.99750 6.79047
#
# Compressibility (1/GPa) = 0.02062963
#
# Stress axis : x y z
#
# Youngs Moduli (GPa) = 52.81967 69.75876 84.63091
#
# Poissons Ratio (x) = 0.58440 -0.10499
# Poissons Ratio (y) = 0.44249 0.43077
# Poissons Ratio (z) = -0.06553 0.35507
#
# Static dielectric constant tensor:
#      x y z
#    x 3.615690 0.000000 -0.009340 
#    y 0.000000 3.856680 0.000000 
#    z -0.009340 0.000000 3.858790 
# 
# 
# High freq. dielectric constant tensor:
#      x y z
#    x 1.793210 0.000000 -0.000070 
#    y 0.000000 1.791680 0.000000 
#    z -0.000070 0.000000 1.801250 
# 
# From -- ./inp_files/373633.got.cif
#   From: 2010.06.25/outbox.cif.g09.slc.cpg/sg12_187_cif.got.tgz:373633.got - 2010.06.28 00:19:55.
