data_PCOD8111978
_publ_section_title
;
Structure prediction by ZEFSAII (Michael W. Deem and Ramdas Pophale) SiO2 
 PCOD8111978
Probable space group: C 2/M
;
_chemical_formula_sum "Si O2"
_cell_formula_units_Z 48
_cell_length_a 29.818232
_cell_length_b 15.238588
_cell_length_c 14.832475
_cell_angle_alpha 90.000000
_cell_angle_beta 160.424272
_cell_angle_gamma 90.000000
_cell_volume 2258.151377
_symmetry_space_group_name_H-M "C 2/M"
_symmetry_group_IT_number 12
_symmetry_cell_setting 'monoclinic'
loop_
_space_group_symop_operation_xyz
x,y,z
-x,y,-z
-x,-y,-z
x,-y,z
1/2+x,1/2+y,z
1/2-x,1/2+y,-z
1/2-x,1/2-y,-z
1/2+x,1/2-y,z
loop_
_atom_site_type_symbol
_atom_site_label
_atom_site_fract_x
_atom_site_fract_y
_atom_site_fract_z
Si Si1 0.153319 0.672280 0.295874
Si Si2 0.286565 0.400504 0.372985
Si Si3 0.683276 0.900697 0.542463
Si Si4 0.063786 0.601922 0.810614
Si Si5 0.579697 0.393994 0.886040
Si Si6 0.608320 0.735942 0.777061
O O1 0.250000 0.750000 0.500000
O O2 0.197379 0.635850 0.284116
O O3 0.174333 0.604781 0.417695
O O4 0.000000 0.702830 0.000000
O O5 0.310280 0.500000 0.443235
O O6 0.433779 0.358624 0.641125
O O7 0.207593 0.388244 0.130483
O O8 0.550220 0.862597 0.336904
O O9 0.688469 0.000000 0.581126
O O10 0.818924 0.860866 0.842968
O O11 0.042255 0.500000 0.739283
O O12 0.060607 0.668599 0.721736
O O13 0.581420 0.500000 0.871519
O O14 0.621197 0.341156 0.875375
O O15 0.500000 0.702591 0.500000
O O16 0.750000 0.750000 0.000000
#
# Coordination Sequence:
#
# PCOD8111978 Si02
#       6
#     8   8   8   8   8   8
#     4  12  27  39  60  98 132 171 217 265 310 373
#     4  10  22  41  65  91 127 175 215 263 317 374
#     4  10  22  41  65  91 127 173 213 264 316 369
#     4  10  22  41  66  93 123 166 216 268 325 383
#     4  10  24  43  66  95 131 170 214 266 327 390
#     4  12  26  42  66  95 124 167 208 270 338 394
#
# _framework density 21.256323999999999
#
# number of rings (size 3 to 8) (size 9 to 14) (size 15 to 20)
#    0.000    1.333    1.667    2.500    7.000    2.000 
#    0.000    2.500    0.000    0.000    0.000    0.000 
#    0.000    0.000    0.000    0.000    0.000    0.000 
#
# Total GULP energy -297494.305923 kJ/mol
# GULP energy per Si atom -12395.596080 kJ/mol
# Density = 2.120794 g / cm^3
# Si number density = 21.256324 Si / 1000 Ang^3
#
#
#
# Elastic Constant Matrix: (Units=GPa)
#
#
# Indices 1 2 3 4 5 6 
#
# 1 101.8780 31.2479 34.6114 0.0000 13.7332 0.0000
# 2 31.2479 60.6985 20.2618 0.0000 0.4745 0.0000
# 3 34.6114 20.2618 156.9280 0.0000 15.1689 0.0000
# 4 0.0000 0.0000 0.0000 21.8904 0.0000 -2.1304
# 5 13.7332 0.4745 15.1689 0.0000 44.6599 0.0000
# 6 0.0000 0.0000 0.0000 -2.1304 0.0000 37.0762
#
#
#
# Elastic Compliance Matrix: (Units=1/GPa)
#
#
# Indices 1 2 3 4 5 6 
#
# 1 0.012649 -0.005915 -0.001712 0.000000 -0.003245 0.000000
# 2 -0.005915 0.019998 -0.001481 0.000000 0.002110 0.000000
# 3 -0.001712 -0.001481 0.007123 0.000000 -0.001877 0.000000
# 4 0.000000 0.000000 0.000000 0.045939 0.000000 0.002640
# 5 -0.003245 0.002110 -0.001877 0.000000 0.024004 0.000000
# 6 0.000000 0.000000 0.000000 0.002640 0.000000 0.027123
#
#
# Mechanical properties :
#
#
# Convention : Reuss Voigt Hill
#
# Bulk Modulus (GPa) = 46.39862 54.63854 50.51858
# Shear Modulus (GPa) = 30.81895 36.28419 33.55157
#
# Velocity S-wave (km/s) = 3.81185 4.13605 3.97725
# Velocity P-wave (km/s) = 6.42255 6.96919 6.70144
#
# Compressibility (1/GPa) = 0.02155236
#
# Stress axis : x y z
#
# Youngs Moduli (GPa) = 79.05707 50.00534 140.39544
#
# Poissons Ratio (x) = 0.29577 0.24042
# Poissons Ratio (y) = 0.46761 0.20798
# Poissons Ratio (z) = 0.13538 0.07408
#
# Static dielectric constant tensor:
#      x y z
#    x 3.356350 0.000000 0.345830 
#    y 0.000000 3.956620 0.000000 
#    z 0.345830 0.000000 4.177270 
# 
# 
# High freq. dielectric constant tensor:
#      x y z
#    x 1.831350 0.000000 0.006600 
#    y 0.000000 1.829030 0.000000 
#    z 0.006600 0.000000 1.856440 
# 
# From -- ./inp_files/251395.got.cif
#   From: 2010.06.25/outbox.cif.g09.slc.cpg/sg12_126_cif.got.tgz:251395.got - 2010.06.28 00:19:55.
