data_PCOD8111544
_publ_section_title
;
Structure prediction by ZEFSAII (Michael W. Deem and Ramdas Pophale) SiO2 
 PCOD8111544
Probable space group: C 2/M
;
_chemical_formula_sum "Si O2"
_cell_formula_units_Z 44
_cell_length_a 9.180268
_cell_length_b 16.505510
_cell_length_c 18.862838
_cell_angle_alpha 90.000000
_cell_angle_beta 128.666559
_cell_angle_gamma 90.000000
_cell_volume 2231.662306
_symmetry_space_group_name_H-M "C 2/M"
_symmetry_group_IT_number 12
_symmetry_cell_setting 'monoclinic'
loop_
_space_group_symop_operation_xyz
x,y,z
-x,y,-z
-x,-y,-z
x,-y,z
1/2+x,1/2+y,z
1/2-x,1/2+y,-z
1/2-x,1/2-y,-z
1/2+x,1/2-y,z
loop_
_atom_site_type_symbol
_atom_site_label
_atom_site_fract_x
_atom_site_fract_y
_atom_site_fract_z
Si Si1 0.123097 0.829801 0.465558
Si Si2 0.714531 0.000000 0.050720
Si Si3 0.338264 0.640013 0.994437
Si Si4 0.090640 0.000000 0.744563
Si Si5 0.222662 0.500000 0.545294
Si Si6 0.055366 0.750734 0.848718
Si Si7 0.830639 0.171667 0.259593
O O1 0.250000 0.750000 0.500000
O O2 0.000000 0.837215 0.500000
O O3 0.992613 0.804657 0.361417
O O4 0.232616 0.916491 0.485655
O O5 0.731222 0.919842 0.011297
O O6 0.870705 0.000000 0.159511
O O7 0.500000 0.000000 0.000000
O O8 0.436149 0.709618 0.071073
O O9 0.500000 0.594537 0.000000
O O10 0.195693 0.675254 0.893093
O O11 0.198820 0.075409 0.743167
O O12 0.866512 0.000000 0.657121
O O13 0.000000 0.500000 0.500000
O O14 0.112188 0.811696 0.804065
O O15 0.849624 0.719501 0.770269
#
# Coordination Sequence:
#
# PCOD8111544 Si02
#       7
#     8   4   8   4   4   8   8
#     4  11  23  42  67  98 131 169 215 268 333 395
#     4  12  23  39  63  87 124 170 210 261 317 373
#     4  11  23  38  57  86 124 157 208 258 306 361
#     4  10  22  40  62  94 120 164 212 255 314 388
#     4  10  23  43  69  97 132 172 215 275 332 392
#     4  11  22  37  61  87 118 165 204 256 308 365
#     4  11  22  41  64  89 126 162 213 258 312 382
#
# _framework density 19.716244
#
# number of rings (size 3 to 8) (size 9 to 14) (size 15 to 20)
#    0.000    1.091    3.636    3.273    0.000    1.455 
#    0.000    0.000    0.000    3.273    0.000    0.000 
#    0.000    0.000    0.000    0.000    0.000    0.000 
#
# Total GULP energy -272557.411441 kJ/mol
# GULP energy per Si atom -12388.973247 kJ/mol
# Density = 1.967137 g / cm^3
# Si number density = 19.716244 Si / 1000 Ang^3
#
#
#
# Elastic Constant Matrix: (Units=GPa)
#
#
# Indices 1 2 3 4 5 6 
#
# 1 127.3065 52.8654 33.0883 0.0000 10.8244 0.0000
# 2 52.8654 136.6365 42.0444 0.0000 16.3316 0.0000
# 3 33.0883 42.0444 105.8895 0.0000 3.9544 0.0000
# 4 0.0000 0.0000 0.0000 23.7518 0.0000 -0.3721
# 5 10.8244 16.3316 3.9544 0.0000 29.6545 0.0000
# 6 0.0000 0.0000 0.0000 -0.3721 0.0000 30.8420
#
#
#
# Elastic Compliance Matrix: (Units=1/GPa)
#
#
# Indices 1 2 3 4 5 6 
#
# 1 0.009708 -0.003013 -0.001776 0.000000 -0.001648 0.000000
# 2 -0.003013 0.009819 -0.002811 0.000000 -0.003933 0.000000
# 3 -0.001776 -0.002811 0.011088 0.000000 0.000717 0.000000
# 4 0.000000 0.000000 0.000000 0.042110 0.000000 0.000508
# 5 -0.001648 -0.003933 0.000717 0.000000 0.036394 0.000000
# 6 0.000000 0.000000 0.000000 0.000508 0.000000 0.032429
#
#
# Mechanical properties :
#
#
# Convention : Reuss Voigt Hill
#
# Bulk Modulus (GPa) = 64.86358 69.53652 67.20005
# Shear Modulus (GPa) = 30.88618 32.97195 31.92906
#
# Velocity S-wave (km/s) = 3.96224 4.09384 4.02858
# Velocity P-wave (km/s) = 7.34183 7.59548 7.46973
#
# Compressibility (1/GPa) = 0.01541697
#
# Stress axis : x y z
#
# Youngs Moduli (GPa) = 103.01101 101.84065 90.18881
#
# Poissons Ratio (x) = 0.30681 0.16015
# Poissons Ratio (y) = 0.31033 0.25348
# Poissons Ratio (z) = 0.18292 0.28623
#
# Static dielectric constant tensor:
#      x y z
#    x 3.422630 0.000000 -0.106960 
#    y 0.000000 3.713190 0.000000 
#    z -0.106960 0.000000 3.770650 
# 
# 
# High freq. dielectric constant tensor:
#      x y z
#    x 1.763410 0.000000 0.006110 
#    y 0.000000 1.782620 0.000000 
#    z 0.006110 0.000000 1.778780 
# 
# From -- ./inp_files/257333.got.cif
#   From: 2010.06.25/outbox.cif.g09.slc.cpg/sg12_129_cif.got.tgz:257333.got - 2010.06.28 00:19:55.
