data_PCOD8111410
_publ_section_title
;
Structure prediction by ZEFSAII (Michael W. Deem and Ramdas Pophale) SiO2 
 PCOD8111410
Probable space group: C 2/M
;
_chemical_formula_sum "Si O2"
_cell_formula_units_Z 56
_cell_length_a 26.050807
_cell_length_b 14.071532
_cell_length_c 25.369417
_cell_angle_alpha 90.000000
_cell_angle_beta 16.889883
_cell_angle_gamma 90.000000
_cell_volume 2701.897553
_symmetry_space_group_name_H-M "C 2/M"
_symmetry_group_IT_number 12
_symmetry_cell_setting 'monoclinic'
loop_
_space_group_symop_operation_xyz
x,y,z
-x,y,-z
-x,-y,-z
x,-y,z
1/2+x,1/2+y,z
1/2-x,1/2+y,-z
1/2-x,1/2-y,-z
1/2+x,1/2-y,z
loop_
_atom_site_type_symbol
_atom_site_label
_atom_site_fract_x
_atom_site_fract_y
_atom_site_fract_z
Si Si1 0.801382 0.732482 0.508484
Si Si2 0.216241 0.259349 0.095216
Si Si3 0.807180 0.104845 0.799897
Si Si4 0.524409 0.390680 0.827750
Si Si5 0.285032 0.604599 0.603088
Si Si6 0.792116 0.699605 0.210965
Si Si7 0.164348 0.102429 0.802834
O O1 0.750000 0.750000 0.500000
O O2 0.693831 0.637158 0.626501
O O3 0.718081 0.816332 0.627291
O O4 0.011250 0.716967 0.309321
O O5 0.272954 0.164828 0.072403
O O6 0.250000 0.250000 0.000000
O O7 0.339316 0.342780 0.995014
O O8 0.790243 0.156870 0.760596
O O9 0.011386 0.092018 0.609646
O O10 0.716115 0.000000 0.887940
O O11 0.486772 0.500000 0.856280
O O12 0.579773 0.362707 0.831730
O O13 0.195249 0.500000 0.682842
O O14 0.254704 0.634928 0.693211
O O15 0.718219 0.808358 0.291638
O O16 0.000000 0.705544 0.000000
O O17 0.269403 0.000000 0.694601
O O18 0.000000 0.080488 0.000000
#
# Coordination Sequence:
#
# PCOD8111410 Si02
#       7
#     8   8   8   8   8   8   8
#     4  11  23  42  65  92 128 166 213 266 319 376
#     4  11  23  42  66  91 129 168 214 264 317 377
#     4  10  23  40  60  89 125 166 207 255 314 381
#     4  11  23  42  66  93 126 167 213 262 316 376
#     4  10  22  40  60  86 125 168 206 251 317 382
#     4  11  20  34  59  91 126 159 203 254 313 374
#     4   9  18  34  60  87 118 162 208 254 312 372
#
# _framework density 20.726175999999999
#
# number of rings (size 3 to 8) (size 9 to 14) (size 15 to 20)
#    0.000    1.571    2.857    2.571    0.000    4.000 
#    0.000    0.000    0.000    2.571    0.000    0.000 
#    0.000    0.000    0.000    0.000    0.000    0.000 
#
# Total GULP energy -346936.370791 kJ/mol
# GULP energy per Si atom -12390.584671 kJ/mol
# Density = 2.067900 g / cm^3
# Si number density = 20.726176 Si / 1000 Ang^3
#
#
#
# Elastic Constant Matrix: (Units=GPa)
#
#
# Indices 1 2 3 4 5 6 
#
# 1 142.5941 64.9227 14.6873 -0.0235 25.5851 0.0207
# 2 64.9227 165.6550 28.8140 0.0767 2.9184 -0.0693
# 3 14.6873 28.8140 78.7149 -0.0375 5.3868 -0.0245
# 4 -0.0235 0.0767 -0.0375 30.8098 -0.0141 3.7910
# 5 25.5851 2.9184 5.3868 -0.0141 33.8620 0.0169
# 6 0.0207 -0.0693 -0.0245 3.7910 0.0169 35.8159
#
#
#
# Elastic Compliance Matrix: (Units=1/GPa)
#
#
# Indices 1 2 3 4 5 6 
#
# 1 0.010052 -0.003815 0.000018 0.000015 -0.007269 -0.000011
# 2 -0.003815 0.007896 -0.002355 -0.000026 0.002576 0.000017
# 3 0.000018 -0.002355 0.013699 0.000021 -0.001990 0.000004
# 4 0.000015 -0.000026 0.000021 0.032886 0.000003 -0.003481
# 5 -0.007269 0.002576 -0.001990 0.000003 0.035119 -0.000009
# 6 -0.000011 0.000017 0.000004 -0.003481 -0.000009 0.028289
#
#
# Mechanical properties :
#
#
# Convention : Reuss Voigt Hill
#
# Bulk Modulus (GPa) = 51.69485 67.09021 59.39253
# Shear Modulus (GPa) = 34.08525 38.66688 36.37606
#
# Velocity S-wave (km/s) = 4.05971 4.32395 4.19391
# Velocity P-wave (km/s) = 6.85353 7.57422 7.22287
#
# Compressibility (1/GPa) = 0.01934429
#
# Stress axis : x y z
#
# Youngs Moduli (GPa) = 99.48108 126.64765 72.99857
#
# Poissons Ratio (x) = 0.48312 -0.00133
# Poissons Ratio (y) = 0.37949 0.17190
# Poissons Ratio (z) = -0.00182 0.29824
#
# Static dielectric constant tensor:
#      x y z
#    x 4.577010 0.001070 0.001810 
#    y 0.001070 4.305160 -0.000020 
#    z 0.001810 -0.000020 3.638270 
# 
# 
# High freq. dielectric constant tensor:
#      x y z
#    x 1.817510 0.000000 0.014280 
#    y 0.000000 1.826090 0.000030 
#    z 0.014280 0.000030 1.797870 
# 
# From -- ./inp_files/349742.got.cif
#   From: 2010.06.25/outbox.cif.g09.slc.cpg/sg12_175_cif.got.tgz:349742.got - 2010.06.28 00:19:55.
