data_PCOD8111362
_publ_section_title
;
Structure prediction by ZEFSAII (Michael W. Deem and Ramdas Pophale) SiO2 
 PCOD8111362
Probable space group: C 2/M
;
_chemical_formula_sum "Si O2"
_cell_formula_units_Z 48
_cell_length_a 20.103782
_cell_length_b 27.727076
_cell_length_c 8.628724
_cell_angle_alpha 90.000000
_cell_angle_beta 149.867132
_cell_angle_gamma 90.000000
_cell_volume 2414.560819
_symmetry_space_group_name_H-M "C 2/M"
_symmetry_group_IT_number 12
_symmetry_cell_setting 'monoclinic'
loop_
_space_group_symop_operation_xyz
x,y,z
-x,y,-z
-x,-y,-z
x,-y,z
1/2+x,1/2+y,z
1/2-x,1/2+y,-z
1/2-x,1/2-y,-z
1/2+x,1/2-y,z
loop_
_atom_site_type_symbol
_atom_site_label
_atom_site_fract_x
_atom_site_fract_y
_atom_site_fract_z
Si Si1 0.491324 0.607803 0.664833
Si Si2 0.508438 0.291341 0.830497
Si Si3 0.987696 0.555950 0.650418
Si Si4 0.274619 0.778832 0.705879
Si Si5 0.280811 0.555239 0.718171
Si Si6 0.781128 0.610280 0.715364
O O1 0.500000 0.603179 0.500000
O O2 0.553829 0.658371 0.847840
O O3 0.338178 0.602687 0.404281
O O4 0.579465 0.565652 0.917519
O O5 0.361878 0.277803 0.471171
O O6 0.500000 0.297282 0.000000
O O7 0.607157 0.249543 0.969627
O O8 0.027012 0.500000 0.740703
O O9 0.000000 0.575017 0.500000
O O10 0.838034 0.565442 0.402005
O O11 0.086982 0.584576 0.960678
O O12 0.250000 0.750000 0.500000
O O13 0.317159 0.833766 0.761008
O O14 0.279962 0.500000 0.660976
O O15 0.265049 0.589191 0.539755
#
# Coordination Sequence:
#
# PCOD8111362 Si02
#       6
#     8   8   8   8   8   8
#     4  11  23  39  57  81 117 153 187 234 288 334
#     4   9  18  35  55  78 107 143 186 229 275 331
#     4  10  22  40  59  84 119 151 182 228 285 338
#     4   9  18  32  54  81 108 141 183 230 278 326
#     4  11  23  38  60  87 112 147 193 235 277 332
#     4  11  22  38  60  87 113 147 194 235 276 334
#
# _framework density 19.879390000000001
#
# number of rings (size 3 to 8) (size 9 to 14) (size 15 to 20)
#    0.000    1.833    0.000    5.500    0.000    9.000 
#    0.000    4.167    0.000    0.000    0.000    0.000 
#    0.000    0.000    0.000    0.000    0.000    0.000 
#
# Total GULP energy -297608.330847 kJ/mol
# GULP energy per Si atom -12400.347119 kJ/mol
# Density = 1.983414 g / cm^3
# Si number density = 19.879390 Si / 1000 Ang^3
#
#
#
# Elastic Constant Matrix: (Units=GPa)
#
#
# Indices 1 2 3 4 5 6 
#
# 1 57.1011 11.7545 -0.1978 0.0000 -5.3073 0.0000
# 2 11.7545 88.6574 32.4667 0.0000 8.2722 0.0000
# 3 -0.1978 32.4667 73.6061 0.0000 5.0329 0.0000
# 4 0.0000 0.0000 0.0000 37.7614 0.0000 6.6382
# 5 -5.3073 8.2722 5.0329 0.0000 33.4336 0.0000
# 6 0.0000 0.0000 0.0000 6.6382 0.0000 22.0656
#
#
#
# Elastic Compliance Matrix: (Units=1/GPa)
#
#
# Indices 1 2 3 4 5 6 
#
# 1 0.018514 -0.003239 0.001235 0.000000 0.003554 0.000000
# 2 -0.003239 0.014222 -0.006069 0.000000 -0.003119 0.000000
# 3 0.001235 -0.006069 0.016318 0.000000 -0.000759 0.000000
# 4 0.000000 0.000000 0.000000 0.027961 0.000000 -0.008412
# 5 0.003554 -0.003119 -0.000759 0.000000 0.031360 0.000000
# 6 0.000000 0.000000 0.000000 -0.008412 0.000000 0.047850
#
#
# Mechanical properties :
#
#
# Convention : Reuss Voigt Hill
#
# Bulk Modulus (GPa) = 30.38583 34.15681 32.27132
# Shear Modulus (GPa) = 27.27185 30.34154 28.80669
#
# Velocity S-wave (km/s) = 3.70789 3.91100 3.81080
# Velocity P-wave (km/s) = 5.80082 6.13302 5.96923
#
# Compressibility (1/GPa) = 0.03291008
#
# Stress axis : x y z
#
# Youngs Moduli (GPa) = 54.01281 70.31273 61.28264
#
# Poissons Ratio (x) = 0.22772 -0.07570
# Poissons Ratio (y) = 0.17493 0.37190
# Poissons Ratio (z) = -0.06672 0.42670
#
# Static dielectric constant tensor:
#      x y z
#    x 3.717770 0.000000 0.599960 
#    y 0.000000 3.798840 0.000000 
#    z 0.599960 0.000000 4.522590 
# 
# 
# High freq. dielectric constant tensor:
#      x y z
#    x 1.763950 0.000000 0.018700 
#    y 0.000000 1.782650 0.000000 
#    z 0.018700 0.000000 1.780040 
# 
# From -- ./inp_files/91447.got.cif
#   From: 2010.06.25/outbox.cif.g09.slc.cpg/sg12_46_cif.got.tgz:91447.got - 2010.06.28 00:19:55.
