data_PCOD8111658
_publ_section_title
;
Structure prediction by ZEFSAII (Michael W. Deem and Ramdas Pophale) SiO2 
 PCOD8111658
Probable space group: C 2/M
;
_chemical_formula_sum "Si O2"
_cell_formula_units_Z 40
_cell_length_a 22.152583
_cell_length_b 13.402742
_cell_length_c 19.499247
_cell_angle_alpha 90.000000
_cell_angle_beta 161.188969
_cell_angle_gamma 90.000000
_cell_volume 1866.790079
_symmetry_space_group_name_H-M "C 2/M"
_symmetry_group_IT_number 12
_symmetry_cell_setting 'monoclinic'
loop_
_space_group_symop_operation_xyz
x,y,z
-x,y,-z
-x,-y,-z
x,-y,z
1/2+x,1/2+y,z
1/2-x,1/2+y,-z
1/2-x,1/2-y,-z
1/2+x,1/2-y,z
loop_
_atom_site_type_symbol
_atom_site_label
_atom_site_fract_x
_atom_site_fract_y
_atom_site_fract_z
Si Si1 0.614189 0.226324 0.494155
Si Si2 0.673695 0.252417 0.145434
Si Si3 0.956515 0.113867 0.814537
Si Si4 0.784380 0.387459 0.072206
Si Si5 0.157161 0.117655 0.790017
O O1 0.671460 0.206761 0.634593
O O2 0.775824 0.187434 0.616749
O O3 0.417263 0.174127 0.265254
O O4 0.557194 0.343562 0.427356
O O5 0.755424 0.168972 0.182880
O O6 0.500000 0.201998 0.000000
O O7 0.597337 0.350723 0.025353
O O8 0.892273 0.000000 0.760027
O O9 0.067619 0.121626 0.862634
O O10 0.855743 0.500000 0.154452
O O11 0.787074 0.353029 0.995542
O O12 0.148025 0.000000 0.769053
#
# Coordination Sequence:
#
# PCOD8111658 Si02
#       5
#     8   8   8   8   8
#     4  11  22  39  68  91 125 170 211 257 319 374
#     4  10  23  41  63  96 128 169 216 259 318 378
#     4  10  22  40  64  98 133 161 207 264 319 386
#     4  10  22  41  66  96 129 166 208 263 325 378
#     4  11  24  43  64  92 131 171 217 265 308 372
#
# _framework density 21.427154999999999
#
# number of rings (size 3 to 8) (size 9 to 14) (size 15 to 20)
#    0.000    1.600    2.000    1.800    0.000    7.200 
#    3.600    5.000    0.000    0.000    0.000    0.000 
#    0.000    0.000    0.000    0.000    0.000    0.000 
#
# Total GULP energy -247850.629285 kJ/mol
# GULP energy per Si atom -12392.531464 kJ/mol
# Density = 2.137839 g / cm^3
# Si number density = 21.427155 Si / 1000 Ang^3
#
#
#
# Elastic Constant Matrix: (Units=GPa)
#
#
# Indices 1 2 3 4 5 6 
#
# 1 97.3473 50.4822 40.4668 -0.0038 -2.3434 -0.0010
# 2 50.4822 92.6597 50.9767 0.0108 4.1635 0.0121
# 3 40.4668 50.9767 96.2438 0.0031 5.2903 0.0176
# 4 -0.0038 0.0108 0.0031 28.0086 -0.0020 1.9359
# 5 -2.3434 4.1635 5.2903 -0.0020 24.3213 0.0024
# 6 -0.0010 0.0121 0.0176 1.9359 0.0024 29.5571
#
#
#
# Elastic Compliance Matrix: (Units=1/GPa)
#
#
# Indices 1 2 3 4 5 6 
#
# 1 0.015068 -0.006733 -0.002947 0.000005 0.003246 0.000004
# 2 -0.006733 0.018257 -0.006712 -0.000007 -0.002314 -0.000003
# 3 -0.002947 -0.006712 0.015320 0.000001 -0.002467 -0.000006
# 4 0.000005 -0.000007 0.000001 0.035866 0.000005 -0.002349
# 5 0.003246 -0.002314 -0.002467 0.000005 0.042362 -0.000001
# 6 0.000004 -0.000003 -0.000006 -0.002349 -0.000001 0.033987
#
#
# Mechanical properties :
#
#
# Convention : Reuss Voigt Hill
#
# Bulk Modulus (GPa) = 63.05227 63.34470 63.19848
# Shear Modulus (GPa) = 25.13442 25.99908 25.56675
#
# Velocity S-wave (km/s) = 3.42865 3.48713 3.45801
# Velocity P-wave (km/s) = 6.72045 6.77055 6.74555
#
# Compressibility (1/GPa) = 0.01585986
#
# Stress axis : x y z
#
# Youngs Moduli (GPa) = 66.36752 54.77340 65.27379
#
# Poissons Ratio (x) = 0.36881 0.19238
# Poissons Ratio (y) = 0.44688 0.43810
# Poissons Ratio (z) = 0.19561 0.36762
#
# Static dielectric constant tensor:
#      x y z
#    x 4.035420 -0.000030 0.016080 
#    y -0.000030 3.924190 -0.000040 
#    z 0.016080 -0.000040 3.920230 
# 
# 
# High freq. dielectric constant tensor:
#      x y z
#    x 1.846680 0.000000 -0.005000 
#    y 0.000000 1.835740 0.000000 
#    z -0.005000 0.000000 1.838070 
# 
# From -- ./inp_files/284644.got.cif
#   From: 2010.06.25/outbox.cif.g09.slc.cpg/sg12_143_cif.got.tgz:284644.got - 2010.06.28 00:19:55.
