data_PCOD8111407
_publ_section_title
;
Structure prediction by ZEFSAII (Michael W. Deem and Ramdas Pophale) SiO2 
 PCOD8111407
Probable space group: C 2/M
;
_chemical_formula_sum "Si O2"
_cell_formula_units_Z 48
_cell_length_a 10.175670
_cell_length_b 8.859480
_cell_length_c 26.979572
_cell_angle_alpha 90.000000
_cell_angle_beta 79.283507
_cell_angle_gamma 90.000000
_cell_volume 2389.819373
_symmetry_space_group_name_H-M "C 2/M"
_symmetry_group_IT_number 12
_symmetry_cell_setting 'monoclinic'
loop_
_space_group_symop_operation_xyz
x,y,z
-x,y,-z
-x,-y,-z
x,-y,z
1/2+x,1/2+y,z
1/2-x,1/2+y,-z
1/2-x,1/2-y,-z
1/2+x,1/2-y,z
loop_
_atom_site_type_symbol
_atom_site_label
_atom_site_fract_x
_atom_site_fract_y
_atom_site_fract_z
Si Si1 0.384162 0.322142 0.471273
Si Si2 0.384249 0.322165 0.971353
Si Si3 0.534113 0.825189 0.135576
Si Si4 0.756113 0.824809 0.307473
Si Si5 0.228302 0.826066 0.808093
Si Si6 0.538749 0.176320 0.636434
O O1 0.500000 0.268294 0.500000
O O2 0.367072 0.500000 0.472208
O O3 0.250000 0.250000 0.500000
O O4 0.415171 0.269115 0.414090
O O5 0.367824 0.500000 0.973198
O O6 0.415566 0.270762 0.913972
O O7 0.500000 0.267414 0.000000
O O8 0.250000 0.250000 0.000000
O O9 0.632113 0.792736 0.174580
O O10 0.385348 0.777856 0.160649
O O11 0.534007 0.000000 0.120605
O O12 0.749200 0.782987 0.250375
O O13 0.614528 0.783548 0.341804
O O14 0.870919 0.723302 0.323424
O O15 0.790608 0.000000 0.313216
O O16 0.185283 0.000000 0.817584
O O17 0.558255 0.000000 0.624898
#
# Coordination Sequence:
#
# PCOD8111407 Si02
#       6
#     8   8   8   8   8   8
#     4  11  24  41  62  89 119 154 197 242 291 349
#     4  11  24  41  61  87 119 155 196 242 292 348
#     4  11  23  39  61  89 119 153 196 243 292 349
#     4  10  22  40  61  86 119 157 195 239 291 345
#     4  10  22  40  60  86 120 155 194 241 291 345
#     4  11  23  39  61  89 120 155 196 242 292 347
#
# _framework density 20.0852
#
# number of rings (size 3 to 8) (size 9 to 14) (size 15 to 20)
#    0.000    1.333    0.000    5.000    0.000   14.000 
#    0.000    0.000    0.000    0.000    0.000    0.000 
#    0.000    0.000    0.000    0.000    0.000    0.000 
#
# Total GULP energy -297773.461232 kJ/mol
# GULP energy per Si atom -12407.227551 kJ/mol
# Density = 2.003948 g / cm^3
# Si number density = 20.085200 Si / 1000 Ang^3
#
#
#
# Elastic Constant Matrix: (Units=GPa)
#
#
# Indices 1 2 3 4 5 6 
#
# 1 91.5033 45.3848 13.5345 0.0000 -2.7171 0.0000
# 2 45.3848 52.2723 19.2731 0.0000 1.5956 0.0000
# 3 13.5345 19.2731 99.7659 0.0000 -0.9713 0.0000
# 4 0.0000 0.0000 0.0000 34.4377 0.0000 -1.2548
# 5 -2.7171 1.5956 -0.9713 0.0000 44.7364 0.0000
# 6 0.0000 0.0000 0.0000 -1.2548 0.0000 39.1688
#
#
#
# Elastic Compliance Matrix: (Units=1/GPa)
#
#
# Indices 1 2 3 4 5 6 
#
# 1 0.019379 -0.017139 0.000699 0.000000 0.001804 0.000000
# 2 -0.017139 0.035785 -0.004612 0.000000 -0.002417 0.000000
# 3 0.000699 -0.004612 0.010824 0.000000 0.000442 0.000000
# 4 0.000000 0.000000 0.000000 0.029072 0.000000 0.000931
# 5 0.001804 -0.002417 0.000442 0.000000 0.022559 0.000000
# 6 0.000000 0.000000 0.000000 0.000931 0.000000 0.025560
#
#
# Mechanical properties :
#
#
# Convention : Reuss Voigt Hill
#
# Bulk Modulus (GPa) = 41.86465 44.43625 43.15045
# Shear Modulus (GPa) = 25.87412 34.69183 30.28298
#
# Velocity S-wave (km/s) = 3.59307 4.16051 3.88716
# Velocity P-wave (km/s) = 6.17271 6.72694 6.45577
#
# Compressibility (1/GPa) = 0.02388650
#
# Stress axis : x y z
#
# Youngs Moduli (GPa) = 51.60128 27.94444 92.38930
#
# Poissons Ratio (x) = 0.47894 -0.06462
# Poissons Ratio (y) = 0.88439 0.42606
# Poissons Ratio (z) = -0.03609 0.12887
#
# Static dielectric constant tensor:
#      x y z
#    x 3.898310 0.000000 0.004730 
#    y 0.000000 3.692140 0.000000 
#    z 0.004730 0.000000 3.869410 
# 
# 
# High freq. dielectric constant tensor:
#      x y z
#    x 1.801040 0.000000 0.001540 
#    y 0.000000 1.790000 0.000000 
#    z 0.001540 0.000000 1.801940 
# 
# From -- ./inp_files/334642.got.cif
#   From: 2010.06.25/outbox.cif.g09.slc.cpg/sg12_168_cif.got.tgz:334642.got - 2010.06.28 00:19:55.
