data_PCOD8111330
_publ_section_title
;
Structure prediction by ZEFSAII (Michael W. Deem and Ramdas Pophale) SiO2 
 PCOD8111330
Probable space group: C 2/M
;
_chemical_formula_sum "Si O2"
_cell_formula_units_Z 52
_cell_length_a 14.187472
_cell_length_b 21.522965
_cell_length_c 17.597687
_cell_angle_alpha 90.000000
_cell_angle_beta 151.310521
_cell_angle_gamma 90.000000
_cell_volume 2579.647814
_symmetry_space_group_name_H-M "C 2/M"
_symmetry_group_IT_number 12
_symmetry_cell_setting 'monoclinic'
loop_
_space_group_symop_operation_xyz
x,y,z
-x,y,-z
-x,-y,-z
x,-y,z
1/2+x,1/2+y,z
1/2-x,1/2+y,-z
1/2-x,1/2-y,-z
1/2+x,1/2-y,z
loop_
_atom_site_type_symbol
_atom_site_label
_atom_site_fract_x
_atom_site_fract_y
_atom_site_fract_z
Si Si1 0.117514 0.129990 0.197111
Si Si2 0.372832 0.000000 0.521907
Si Si3 0.713425 0.500000 0.238286
Si Si4 0.310815 0.267228 0.959661
Si Si5 0.094376 0.155001 0.645710
Si Si6 0.687457 0.626166 0.414401
Si Si7 0.445752 0.796024 0.354331
Si Si8 0.500000 0.836729 0.000000
O O1 0.069447 0.121048 0.252149
O O2 0.338173 0.153549 0.332869
O O3 0.084606 0.062293 0.135132
O O4 0.972448 0.180314 0.061005
O O5 0.302617 0.000000 0.385751
O O6 0.607683 0.000000 0.694532
O O7 0.298067 0.938141 0.511566
O O8 0.127734 0.293432 0.784187
O O9 0.250000 0.250000 0.000000
O O10 0.389683 0.202904 0.984409
O O11 0.092827 0.229456 0.633988
O O12 0.000000 0.127190 0.500000
O O13 0.955970 0.138439 0.617908
O O14 0.317888 0.128796 0.824863
O O15 0.830018 0.684490 0.498820
#
# Coordination Sequence:
#
# PCOD8111330 Si02
#       8
#     8   4   4   8   8   8   8   4
#     4  11  18  36  55  84 117 149 194 235 295 367
#     4   9  18  36  54  83 115 143 192 238 299 355
#     4   9  18  30  58  81 112 159 177 237 303 352
#     4  11  22  36  55  79 119 164 189 237 301 345
#     4  11  23  38  58  88 117 156 201 241 293 356
#     4  11  22  35  59  86 109 152 196 242 292 355
#     4  11  21  34  56  87 118 148 192 240 296 359
#     4  10  22  40  54  84 124 152 190 244 300 342
#
# _framework density 20.157789999999999
#
# number of rings (size 3 to 8) (size 9 to 14) (size 15 to 20)
#    0.000    1.385    4.615    3.692    2.154    0.000 
#    0.000    2.692    0.000    0.462    0.000    0.000 
#    0.000    0.000    0.000    0.000    0.000    0.000 
#
# Total GULP energy -322111.897169 kJ/mol
# GULP energy per Si atom -12388.919122 kJ/mol
# Density = 2.011191 g / cm^3
# Si number density = 20.157790 Si / 1000 Ang^3
#
#
#
# Elastic Constant Matrix: (Units=GPa)
#
#
# Indices 1 2 3 4 5 6 
#
# 1 108.2957 7.0256 24.7689 0.0132 -10.4540 0.0029
# 2 7.0256 52.8812 3.8491 0.0082 2.6186 0.0003
# 3 24.7689 3.8491 104.9636 0.0327 -2.9601 0.0067
# 4 0.0132 0.0082 0.0327 -3.7105 0.0166 2.0040
# 5 -10.4540 2.6186 -2.9601 0.0166 30.3727 0.0031
# 6 0.0029 0.0003 0.0067 2.0040 0.0031 14.0848
#
#
#
# Elastic Compliance Matrix: (Units=1/GPa)
#
#
# Indices 1 2 3 4 5 6 
#
# 1 0.010165 -0.001355 -0.002253 0.000025 0.003396 -0.000005
# 2 -0.001355 0.019230 -0.000447 0.000023 -0.002168 -0.000003
# 3 -0.002253 -0.000447 0.010082 0.000073 0.000246 -0.000015
# 4 0.000025 0.000023 0.000073 -0.250273 0.000147 0.035608
# 5 0.003396 -0.002168 0.000246 0.000147 0.034304 -0.000029
# 6 -0.000005 -0.000003 -0.000015 0.035608 -0.000029 0.065932
#
#
# Mechanical properties :
#
#
# Convention : Reuss Voigt Hill
#
# Bulk Modulus (GPa) = 31.87949 37.49196 34.68572
# Shear Modulus (GPa) = -54.35084 23.51588 -15.41748
#
# Velocity S-wave (km/s) = -5.19819 3.41924 -2.76857
# Velocity P-wave (km/s) = 4.49210 5.85046 2.65037
#
# Compressibility (1/GPa) = 0.03136813
#
# Stress axis : x y z
#
# Youngs Moduli (GPa) = 98.37661 52.00176 99.18563
#
# Poissons Ratio (x) = 0.07044 0.22349
# Poissons Ratio (y) = 0.13326 0.04430
# Poissons Ratio (z) = 0.22167 0.02323
#
# Static dielectric constant tensor:
#      x y z
#    x 3.545420 0.000010 -0.055880 
#    y 0.000010 3.624980 -0.000020 
#    z -0.055880 -0.000020 3.913820 
# 
# 
# High freq. dielectric constant tensor:
#      x y z
#    x 1.785720 0.000000 -0.004120 
#    y 0.000000 1.756570 0.000000 
#    z -0.004120 0.000000 1.785040 
# 
# From -- ./inp_files/272252.got.cif
#   From: 2010.06.25/outbox.cif.g09.slc.cpg/sg12_137_cif.got.tgz:272252.got - 2010.06.28 00:19:55.
