data_PCOD8111773
_publ_section_title
;
Structure prediction by ZEFSAII (Michael W. Deem and Ramdas Pophale) SiO2 
 PCOD8111773
Probable space group: C 2/M
;
_chemical_formula_sum "Si O2"
_cell_formula_units_Z 64
_cell_length_a 20.246075
_cell_length_b 8.677065
_cell_length_c 31.312743
_cell_angle_alpha 90.000000
_cell_angle_beta 141.751866
_cell_angle_gamma 90.000000
_cell_volume 3405.441490
_symmetry_space_group_name_H-M "C 2/M"
_symmetry_group_IT_number 12
_symmetry_cell_setting 'monoclinic'
loop_
_space_group_symop_operation_xyz
x,y,z
-x,y,-z
-x,-y,-z
x,-y,z
1/2+x,1/2+y,z
1/2-x,1/2+y,-z
1/2-x,1/2-y,-z
1/2+x,1/2-y,z
loop_
_atom_site_type_symbol
_atom_site_label
_atom_site_fract_x
_atom_site_fract_y
_atom_site_fract_z
Si Si1 0.810896 0.819813 0.991072
Si Si2 0.860221 0.179575 0.145067
Si Si3 0.719797 0.820699 0.361811
Si Si4 0.550892 0.679049 0.640583
Si Si5 0.923427 0.679648 0.500052
Si Si6 0.997555 0.818898 0.860083
Si Si7 0.733584 0.681872 0.276661
Si Si8 0.514018 0.321483 0.296531
O O1 0.758663 0.752789 0.921101
O O2 0.794123 0.000000 0.982330
O O3 0.750000 0.750000 0.000000
O O4 0.936885 0.779523 0.062842
O O5 0.940855 0.248714 0.150147
O O6 0.907495 0.219412 0.215458
O O7 0.845185 0.000000 0.130450
O O8 0.815616 0.778396 0.442497
O O9 0.733203 0.717446 0.326641
O O10 0.609944 0.784927 0.329806
O O11 0.724380 0.000000 0.351993
O O12 0.538910 0.500000 0.622851
O O13 0.481117 0.780716 0.573351
O O14 0.674035 0.726604 0.700470
O O15 0.509496 0.715973 0.666629
O O16 0.894713 0.500000 0.484626
O O17 0.000000 0.725904 0.500000
O O18 0.876866 0.755685 0.800483
O O19 0.989066 0.000000 0.848601
O O20 0.751231 0.500000 0.279540
O O21 0.544994 0.500000 0.305005
#
# Coordination Sequence:
#
# PCOD8111773 Si02
#       8
#     8   8   8   8   8   8   8   8
#     4   9  16  27  44  74 109 142 181 228 277 327
#     4   9  16  31  52  75 106 147 185 223 274 334
#     4  12  24  37  60  90 115 142 187 240 278 324
#     4  11  24  40  60  87 114 145 187 239 283 328
#     4  11  23  40  63  85 111 152 188 222 280 346
#     4   8  15  28  50  76 106 142 183 224 269 328
#     4  11  20  36  59  82 113 153 189 226 282 344
#     4  10  22  41  60  80 116 156 188 225 285 346
#
# _framework density 18.793451000000001
#
# number of rings (size 3 to 8) (size 9 to 14) (size 15 to 20)
#    0.000    1.875    2.500    3.375    0.000    2.500 
#    0.000    1.875    0.000    0.750    0.000    5.250 
#    0.000    0.000    0.000    0.000    0.000    0.000 
#
# Total GULP energy -396723.731335 kJ/mol
# GULP energy per Si atom -12397.616604 kJ/mol
# Density = 1.875068 g / cm^3
# Si number density = 18.793451 Si / 1000 Ang^3
#
#
#
# Elastic Constant Matrix: (Units=GPa)
#
#
# Indices 1 2 3 4 5 6 
#
# 1 51.4554 27.9546 17.8782 -0.0003 -1.5163 0.0007
# 2 27.9546 53.0472 34.8178 -0.0003 -0.7019 0.0012
# 3 17.8782 34.8178 132.4563 -0.0002 4.0356 0.0003
# 4 -0.0003 -0.0003 -0.0002 31.0280 0.0000 2.7082
# 5 -1.5163 -0.7019 4.0356 0.0000 24.4857 -0.0001
# 6 0.0007 0.0012 0.0003 2.7082 -0.0001 21.7545
#
#
#
# Elastic Compliance Matrix: (Units=1/GPa)
#
#
# Indices 1 2 3 4 5 6 
#
# 1 0.027270 -0.014397 0.000065 0.000000 0.001265 0.000000
# 2 -0.014397 0.030449 -0.006091 0.000000 0.000985 -0.000001
# 3 0.000065 -0.006091 0.009193 0.000000 -0.001686 0.000000
# 4 0.000000 0.000000 0.000000 0.032583 0.000000 -0.004056
# 5 0.001265 0.000985 -0.001686 0.000000 0.041225 0.000000
# 6 0.000000 -0.000001 0.000000 -0.004056 0.000000 0.046473
#
#
# Mechanical properties :
#
#
# Convention : Reuss Voigt Hill
#
# Bulk Modulus (GPa) = 38.36200 44.25111 41.30655
# Shear Modulus (GPa) = 21.12145 25.87420 23.49782
#
# Velocity S-wave (km/s) = 3.35606 3.71451 3.53982
# Velocity P-wave (km/s) = 5.95603 6.48027 6.22367
#
# Compressibility (1/GPa) = 0.02606747
#
# Stress axis : x y z
#
# Youngs Moduli (GPa) = 36.66973 32.84229 108.77570
#
# Poissons Ratio (x) = 0.47282 -0.00707
# Poissons Ratio (y) = 0.52793 0.66251
# Poissons Ratio (z) = -0.00238 0.20003
#
# Static dielectric constant tensor:
#      x y z
#    x 3.169340 0.000000 0.138420 
#    y 0.000000 3.390920 0.000000 
#    z 0.138420 0.000000 4.020980 
# 
# 
# High freq. dielectric constant tensor:
#      x y z
#    x 1.687160 0.000000 0.006840 
#    y 0.000000 1.724670 0.000000 
#    z 0.006840 0.000000 1.754750 
# 
# From -- ./inp_files/378463.got.cif
#   From: 2010.06.25/outbox.cif.g09.slc.cpg/sg12_190_cif.got.tgz:378463.got - 2010.06.28 00:19:55.
