data_PCOD8111822
_publ_section_title
;
Structure prediction by ZEFSAII (Michael W. Deem and Ramdas Pophale) SiO2 
 PCOD8111822
Probable space group: C 2/M
;
_chemical_formula_sum "Si O2"
_cell_formula_units_Z 40
_cell_length_a 14.430581
_cell_length_b 18.734739
_cell_length_c 10.523157
_cell_angle_alpha 90.000000
_cell_angle_beta 142.265170
_cell_angle_gamma 90.000000
_cell_volume 1741.143435
_symmetry_space_group_name_H-M "C 2/M"
_symmetry_group_IT_number 12
_symmetry_cell_setting 'monoclinic'
loop_
_space_group_symop_operation_xyz
x,y,z
-x,y,-z
-x,-y,-z
x,-y,z
1/2+x,1/2+y,z
1/2-x,1/2+y,-z
1/2-x,1/2-y,-z
1/2+x,1/2-y,z
loop_
_atom_site_type_symbol
_atom_site_label
_atom_site_fract_x
_atom_site_fract_y
_atom_site_fract_z
Si Si1 0.825802 0.161755 0.825480
Si Si2 0.822938 0.674033 0.589361
Si Si3 0.610043 0.419720 0.509015
Si Si4 0.316947 0.419922 0.062959
Si Si5 0.169778 0.702890 0.019550
O O1 0.722225 0.137575 0.594453
O O2 0.758847 0.118184 0.872293
O O3 0.819974 0.248825 0.841465
O O4 0.000000 0.139190 0.000000
O O5 0.750000 0.750000 0.500000
O O6 0.754980 0.629121 0.634228
O O7 0.999703 0.683745 0.797178
O O8 0.500000 0.389345 0.500000
O O9 0.664811 0.500000 0.603476
O O10 0.500041 0.420612 0.265615
O O11 0.250963 0.500000 0.999727
O O12 0.254015 0.374181 0.117227
O O13 0.250000 0.750000 0.000000
#
# Coordination Sequence:
#
# PCOD8111822 Si02
#       5
#     8   8   8   8   8
#     4  11  21  40  64  96 125 159 214 269 317 378
#     4  12  23  40  67  96 126 169 214 266 326 379
#     4  10  23  42  64  93 128 170 218 265 324 390
#     4  10  22  41  62  89 129 170 206 260 322 381
#     4  10  23  41  60  96 133 167 210 260 321 389
#
# _framework density 22.973409
#
# number of rings (size 3 to 8) (size 9 to 14) (size 15 to 20)
#    0.000    1.400    4.000    1.200    2.800    5.200 
#    0.000    1.000    0.000    4.200    0.000    0.000 
#    0.000    0.000    0.000    0.000    0.000    0.000 
#
# Total GULP energy -247856.934617 kJ/mol
# GULP energy per Si atom -12392.846731 kJ/mol
# Density = 2.292112 g / cm^3
# Si number density = 22.973409 Si / 1000 Ang^3
#
#
#
# Elastic Constant Matrix: (Units=GPa)
#
#
# Indices 1 2 3 4 5 6 
#
# 1 118.5886 51.4391 36.2082 0.0000 12.5976 0.0000
# 2 51.4391 139.2779 23.1047 0.0000 16.7009 0.0000
# 3 36.2082 23.1047 76.2949 0.0000 24.0841 0.0000
# 4 0.0000 0.0000 0.0000 27.1955 0.0000 6.0349
# 5 12.5976 16.7009 24.0841 0.0000 42.1145 0.0000
# 6 0.0000 0.0000 0.0000 6.0349 0.0000 38.5460
#
#
#
# Elastic Compliance Matrix: (Units=1/GPa)
#
#
# Indices 1 2 3 4 5 6 
#
# 1 0.011244 -0.003481 -0.004462 0.000000 0.000568 0.000000
# 2 -0.003481 0.008787 -0.000290 0.000000 -0.002277 0.000000
# 3 -0.004462 -0.000290 0.018127 0.000000 -0.008917 0.000000
# 4 0.000000 0.000000 0.000000 0.038094 0.000000 -0.005964
# 5 0.000568 -0.002277 -0.008917 0.000000 0.029577 0.000000
# 6 0.000000 0.000000 0.000000 -0.005964 0.000000 0.026877
#
#
# Mechanical properties :
#
#
# Convention : Reuss Voigt Hill
#
# Bulk Modulus (GPa) = 46.09804 61.74058 53.91931
# Shear Modulus (GPa) = 31.96891 36.46518 34.21704
#
# Velocity S-wave (km/s) = 3.73441 3.98839 3.86349
# Velocity P-wave (km/s) = 6.22124 6.93850 6.58964
#
# Compressibility (1/GPa) = 0.02169290
#
# Stress axis : x y z
#
# Youngs Moduli (GPa) = 88.93453 113.80904 55.16627
#
# Poissons Ratio (x) = 0.39615 0.24613
# Poissons Ratio (y) = 0.30957 0.01600
# Poissons Ratio (z) = 0.39679 0.03301
#
# Static dielectric constant tensor:
#      x y z
#    x 4.333680 0.000000 -0.184420 
#    y 0.000000 4.206020 0.000000 
#    z -0.184420 0.000000 3.575870 
# 
# 
# High freq. dielectric constant tensor:
#      x y z
#    x 1.908640 0.000000 -0.017900 
#    y 0.000000 1.901040 0.000000 
#    z -0.017900 0.000000 1.902910 
# 
# From -- ./inp_files/147307.got.cif
#   From: 2010.06.25/outbox.cif.g09.slc.cpg/sg12_74_cif.got.tgz:147307.got - 2010.06.28 00:19:55.
