data_PCOD8111166
_publ_section_title
;
Structure prediction by ZEFSAII (Michael W. Deem and Ramdas Pophale) SiO2 
 PCOD8111166
Probable space group: C 2/M
;
_chemical_formula_sum "Si O2"
_cell_formula_units_Z 56
_cell_length_a 16.434711
_cell_length_b 13.145840
_cell_length_c 13.477612
_cell_angle_alpha 90.000000
_cell_angle_beta 110.997840
_cell_angle_gamma 90.000000
_cell_volume 2718.450224
_symmetry_space_group_name_H-M "C 2/M"
_symmetry_group_IT_number 12
_symmetry_cell_setting 'monoclinic'
loop_
_space_group_symop_operation_xyz
x,y,z
-x,y,-z
-x,-y,-z
x,-y,z
1/2+x,1/2+y,z
1/2-x,1/2+y,-z
1/2-x,1/2-y,-z
1/2+x,1/2-y,z
loop_
_atom_site_type_symbol
_atom_site_label
_atom_site_fract_x
_atom_site_fract_y
_atom_site_fract_z
Si Si1 0.900526 0.733420 0.956211
Si Si2 0.753242 0.381172 0.786665
Si Si3 0.495313 0.885743 0.665200
Si Si4 0.910172 0.788719 0.176769
Si Si5 0.630226 0.112120 0.550661
Si Si6 0.218598 0.755814 0.374612
Si Si7 0.417185 0.383305 0.786743
O O1 0.835603 0.645454 0.891537
O O2 0.894348 0.832501 0.882773
O O3 0.868738 0.763115 0.052125
O O4 0.000000 0.692040 0.000000
O O5 0.734585 0.500000 0.782754
O O6 0.665961 0.322457 0.782835
O O7 0.779120 0.349782 0.685526
O O8 0.534788 0.809772 0.762860
O O9 0.401640 0.848380 0.575538
O O10 0.551732 0.891618 0.591941
O O11 0.487210 0.000000 0.708281
O O12 0.979885 0.879281 0.192329
O O13 0.703261 0.177196 0.637719
O O14 0.667794 0.000000 0.548423
O O15 0.250000 0.750000 0.500000
O O16 0.130194 0.819433 0.320793
O O17 0.386589 0.500000 0.775778
#
# Coordination Sequence:
#
# PCOD8111166 Si02
#       7
#     8   8   8   8   8   8   8
#     4   9  22  41  62  86 116 153 195 241 288 348
#     4  11  24  40  59  87 119 154 194 242 300 352
#     4   9  18  32  56  87 113 146 192 238 286 334
#     4  11  20  39  61  89 123 153 192 240 294 351
#     4   9  17  33  56  80 110 148 192 240 282 329
#     4  11  22  39  58  83 117 156 197 244 289 346
#     4  10  22  39  61  88 117 156 199 238 287 347
#
# _framework density 20.599974
#
# number of rings (size 3 to 8) (size 9 to 14) (size 15 to 20)
#    0.000    2.000    1.429    3.000    0.000    5.143 
#    0.000    8.571    0.000    2.571    0.000    0.000 
#    0.000    0.000    0.000    0.000    0.000    0.000 
#
# Total GULP energy -346975.235800 kJ/mol
# GULP energy per Si atom -12391.972707 kJ/mol
# Density = 2.055309 g / cm^3
# Si number density = 20.599974 Si / 1000 Ang^3
#
#
#
# Elastic Constant Matrix: (Units=GPa)
#
#
# Indices 1 2 3 4 5 6 
#
# 1 45.8499 11.6761 26.0128 0.0000 7.6067 0.0000
# 2 11.6761 98.6867 44.3323 0.0000 5.7312 0.0000
# 3 26.0128 44.3323 130.2053 0.0000 0.6718 0.0000
# 4 0.0000 0.0000 0.0000 18.9735 0.0000 7.7902
# 5 7.6067 5.7312 0.6718 0.0000 33.3659 0.0000
# 6 0.0000 0.0000 0.0000 7.7902 0.0000 18.6970
#
#
#
# Elastic Compliance Matrix: (Units=1/GPa)
#
#
# Indices 1 2 3 4 5 6 
#
# 1 0.025675 -0.000493 -0.004932 0.000000 -0.005669 0.000000
# 2 -0.000493 0.012104 -0.004013 0.000000 -0.001886 0.000000
# 3 -0.004932 -0.004013 0.010024 0.000000 0.001612 0.000000
# 4 0.000000 0.000000 0.000000 0.063582 0.000000 -0.026492
# 5 -0.005669 -0.001886 0.001612 0.000000 0.031555 0.000000
# 6 0.000000 0.000000 0.000000 -0.026492 0.000000 0.064523
#
#
# Mechanical properties :
#
#
# Convention : Reuss Voigt Hill
#
# Bulk Modulus (GPa) = 34.57107 48.75382 41.66245
# Shear Modulus (GPa) = 21.18833 27.05535 24.12184
#
# Velocity S-wave (km/s) = 3.21060 3.62797 3.42565
# Velocity P-wave (km/s) = 5.52833 6.42401 5.99293
#
# Compressibility (1/GPa) = 0.02892592
#
# Stress axis : x y z
#
# Youngs Moduli (GPa) = 38.94890 82.62030 99.76508
#
# Poissons Ratio (x) = 0.04071 0.49207
# Poissons Ratio (y) = 0.01919 0.40034
# Poissons Ratio (z) = 0.19211 0.33154
#
# Static dielectric constant tensor:
#      x y z
#    x 4.013750 0.000000 0.365220 
#    y 0.000000 3.770700 0.000000 
#    z 0.365220 0.000000 4.053920 
# 
# 
# High freq. dielectric constant tensor:
#      x y z
#    x 1.812810 0.000000 0.009660 
#    y 0.000000 1.792230 0.000000 
#    z 0.009660 0.000000 1.815440 
# 
# From -- ./inp_files/223934.got.cif
#   From: 2010.06.25/outbox.cif.g09.slc.cpg/sg12_112_cif.got.tgz:223934.got - 2010.06.28 00:19:55.
