data_PCOD8111752
_publ_section_title
;
Structure prediction by ZEFSAII (Michael W. Deem and Ramdas Pophale) SiO2 
 PCOD8111752
Probable space group: C 2/M
;
_chemical_formula_sum "Si O2"
_cell_formula_units_Z 48
_cell_length_a 18.446140
_cell_length_b 16.833397
_cell_length_c 15.152014
_cell_angle_alpha 90.000000
_cell_angle_beta 153.636283
_cell_angle_gamma 90.000000
_cell_volume 2089.281623
_symmetry_space_group_name_H-M "C 2/M"
_symmetry_group_IT_number 12
_symmetry_cell_setting 'monoclinic'
loop_
_space_group_symop_operation_xyz
x,y,z
-x,y,-z
-x,-y,-z
x,-y,z
1/2+x,1/2+y,z
1/2-x,1/2+y,-z
1/2-x,1/2-y,-z
1/2+x,1/2-y,z
loop_
_atom_site_type_symbol
_atom_site_label
_atom_site_fract_x
_atom_site_fract_y
_atom_site_fract_z
Si Si1 0.367518 0.000000 0.732858
Si Si2 0.584073 0.406173 0.903744
Si Si3 0.327071 0.811163 0.276042
Si Si4 0.317712 0.696705 0.696255
Si Si5 0.740482 0.000000 0.196777
Si Si6 0.195119 0.853223 0.845267
Si Si7 0.431899 0.157806 0.716276
O O1 0.241482 0.000000 0.677511
O O2 0.336877 0.077649 0.640275
O O3 0.551318 0.000000 0.967205
O O4 0.583585 0.500000 0.895557
O O5 0.430266 0.377780 0.793052
O O6 0.572398 0.368336 0.792895
O O7 0.752664 0.379031 0.133079
O O8 0.500000 0.842212 0.500000
O O9 0.203426 0.797893 0.222348
O O10 0.350206 0.729740 0.248028
O O11 0.406940 0.777393 0.765326
O O12 0.141659 0.687879 0.456635
O O13 0.826596 0.078148 0.251473
O O14 0.375883 0.855013 0.084630
#
# Coordination Sequence:
#
# PCOD8111752 Si02
#       7
#     4   8   8   8   4   8   8
#     4   9  18  34  63 101 127 181 215 280 342 404
#     4  12  27  47  71 100 142 184 230 287 348 408
#     4  12  27  45  71 102 136 185 235 287 341 407
#     4  11  25  43  66 103 136 182 232 284 347 410
#     4   9  18  36  64  96 138 166 226 273 341 407
#     4  11  22  45  69 101 139 182 226 284 346 412
#     4  10  22  40  69  97 140 177 230 279 344 421
#
# _framework density 22.974405000000001
#
# number of rings (size 3 to 8) (size 9 to 14) (size 15 to 20)
#    0.000    1.167    2.500    3.000    5.833    3.000 
#    0.000    0.417    0.000    0.000    0.000    0.000 
#    0.000    0.000    0.000    0.000    0.000    0.000 
#
# Total GULP energy -297763.005802 kJ/mol
# GULP energy per Si atom -12406.791908 kJ/mol
# Density = 2.292211 g / cm^3
# Si number density = 22.974405 Si / 1000 Ang^3
#
#
#
# Elastic Constant Matrix: (Units=GPa)
#
#
# Indices 1 2 3 4 5 6 
#
# 1 120.2491 50.8347 7.4770 0.0001 -13.6686 0.0000
# 2 50.8347 110.5539 10.6669 0.0000 -8.9314 0.0000
# 3 7.4770 10.6669 46.9129 0.0001 2.8033 0.0000
# 4 0.0001 0.0000 0.0001 17.7703 0.0001 -0.5619
# 5 -13.6686 -8.9314 2.8033 0.0001 27.1913 0.0000
# 6 0.0000 0.0000 0.0000 -0.5619 0.0000 25.6508
#
#
#
# Elastic Compliance Matrix: (Units=1/GPa)
#
#
# Indices 1 2 3 4 5 6 
#
# 1 0.010743 -0.004527 -0.000922 0.000000 0.004008 0.000000
# 2 -0.004527 0.011455 -0.001984 0.000000 0.001692 0.000000
# 3 -0.000922 -0.001984 0.022117 0.000000 -0.003396 0.000000
# 4 0.000000 0.000000 0.000000 0.056313 0.000000 0.001234
# 5 0.004008 0.001692 -0.003396 0.000000 0.039697 0.000000
# 6 0.000000 0.000000 0.000000 0.001234 0.000000 0.039012
#
#
# Mechanical properties :
#
#
# Convention : Reuss Voigt Hill
#
# Bulk Modulus (GPa) = 33.95816 46.18590 40.07203
# Shear Modulus (GPa) = 24.50741 28.03829 26.27285
#
# Velocity S-wave (km/s) = 3.26962 3.49723 3.38534
# Velocity P-wave (km/s) = 5.39137 6.03774 5.72369
#
# Compressibility (1/GPa) = 0.02944800
#
# Stress axis : x y z
#
# Youngs Moduli (GPa) = 93.08579 87.29805 45.21377
#
# Poissons Ratio (x) = 0.39519 0.04171
# Poissons Ratio (y) = 0.42139 0.08971
# Poissons Ratio (z) = 0.08586 0.17321
#
# Static dielectric constant tensor:
#      x y z
#    x 4.247590 0.000000 -0.062760 
#    y 0.000000 4.097850 0.000000 
#    z -0.062760 0.000000 3.992150 
# 
# 
# High freq. dielectric constant tensor:
#      x y z
#    x 1.917520 0.000000 -0.001900 
#    y 0.000000 1.905050 0.000000 
#    z -0.001900 0.000000 1.903440 
# 
# From -- ./inp_files/226755.got.cif
#   From: 2010.06.25/outbox.cif.g09.slc.cpg/sg12_114_cif.got.tgz:226755.got - 2010.06.28 00:19:55.
