data_PCOD8111160
_publ_section_title
;
Structure prediction by ZEFSAII (Michael W. Deem and Ramdas Pophale) SiO2 
 PCOD8111160
Probable space group: C 2/M
;
_chemical_formula_sum "Si O2"
_cell_formula_units_Z 48
_cell_length_a 27.278576
_cell_length_b 14.889722
_cell_length_c 9.951533
_cell_angle_alpha 90.000000
_cell_angle_beta 143.507842
_cell_angle_gamma 90.000000
_cell_volume 2403.839835
_symmetry_space_group_name_H-M "C 2/M"
_symmetry_group_IT_number 12
_symmetry_cell_setting 'monoclinic'
loop_
_space_group_symop_operation_xyz
x,y,z
-x,y,-z
-x,-y,-z
x,-y,z
1/2+x,1/2+y,z
1/2-x,1/2+y,-z
1/2-x,1/2-y,-z
1/2+x,1/2-y,z
loop_
_atom_site_type_symbol
_atom_site_label
_atom_site_fract_x
_atom_site_fract_y
_atom_site_fract_z
Si Si1 0.302019 0.239037 0.744812
Si Si2 0.588185 0.398734 0.380283
Si Si3 0.314166 0.253614 0.261847
Si Si4 0.056339 0.398881 0.502436
Si Si5 0.055504 0.399137 0.001809
Si Si6 0.898307 0.100183 0.896500
O O1 0.250000 0.250000 0.500000
O O2 0.241022 0.226440 0.731724
O O3 0.363710 0.156711 0.855751
O O4 0.349946 0.330810 0.883248
O O5 0.616745 0.500000 0.477977
O O6 0.619956 0.335211 0.573190
O O7 0.617504 0.371733 0.294314
O O8 0.490478 0.393744 0.152902
O O9 0.364572 0.161496 0.358279
O O10 0.250000 0.250000 0.000000
O O11 0.087126 0.500000 0.606733
O O12 0.000000 0.360012 0.500000
O O13 0.000460 0.401617 0.250387
O O14 0.083434 0.500000 0.104665
O O15 0.000000 0.356319 0.000000
O O16 0.864047 0.000000 0.842873
#
# Coordination Sequence:
#
# PCOD8111160 Si02
#       6
#     8   8   8   8   8   8
#     4  12  23  35  59  90 125 158 193 255 315 354
#     4   9  19  38  62  85 114 159 207 246 290 357
#     4  12  25  38  58  94 129 158 195 247 315 373
#     4  10  22  43  65  82 112 163 210 244 289 356
#     4  10  22  39  61  87 116 158 208 251 291 349
#     4   9  19  37  62  87 113 155 209 252 292 351
#
# _framework density 19.968053000000001
#
# number of rings (size 3 to 8) (size 9 to 14) (size 15 to 20)
#    0.000    1.667    1.667    4.000    2.333    2.667 
#    0.000    0.000    0.000    2.500    0.000    0.000 
#    0.000    0.000    0.000    0.000    0.000    0.000 
#
# Total GULP energy -297338.927185 kJ/mol
# GULP energy per Si atom -12389.121966 kJ/mol
# Density = 1.992260 g / cm^3
# Si number density = 19.968053 Si / 1000 Ang^3
#
#
#
# Elastic Constant Matrix: (Units=GPa)
#
#
# Indices 1 2 3 4 5 6 
#
# 1 113.9199 39.8484 23.8663 0.0000 5.5344 0.0000
# 2 39.8484 120.2946 50.7436 0.0000 16.8894 0.0000
# 3 23.8663 50.7436 114.1412 0.0000 -7.7627 0.0000
# 4 0.0000 0.0000 0.0000 27.3393 0.0000 -10.0761
# 5 5.5344 16.8894 -7.7627 0.0000 29.2310 0.0000
# 6 0.0000 0.0000 0.0000 -10.0761 0.0000 10.7108
#
#
#
# Elastic Compliance Matrix: (Units=1/GPa)
#
#
# Indices 1 2 3 4 5 6 
#
# 1 0.009986 -0.002896 -0.000830 0.000000 -0.000438 0.000000
# 2 -0.002896 0.012842 -0.005673 0.000000 -0.008378 0.000000
# 3 -0.000830 -0.005673 0.011905 0.000000 0.006597 0.000000
# 4 0.000000 0.000000 0.000000 0.055990 0.000000 0.052672
# 5 -0.000438 -0.008378 0.006597 0.000000 0.040886 0.000000
# 6 0.000000 0.000000 0.000000 0.052672 0.000000 0.142915
#
#
# Mechanical properties :
#
#
# Convention : Reuss Voigt Hill
#
# Bulk Modulus (GPa) = 62.75900 64.14136 63.45018
# Shear Modulus (GPa) = 16.74280 29.04938 22.89609
#
# Velocity S-wave (km/s) = 2.89879 3.81831 3.38988
# Velocity P-wave (km/s) = 6.53467 7.18548 6.86779
#
# Compressibility (1/GPa) = 0.01593397
#
# Stress axis : x y z
#
# Youngs Moduli (GPa) = 100.13580 77.87072 83.99501
#
# Poissons Ratio (x) = 0.22554 0.06974
# Poissons Ratio (y) = 0.29003 0.47652
# Poissons Ratio (z) = 0.08314 0.44178
#
# Static dielectric constant tensor:
#      x y z
#    x 3.500800 0.000000 0.107060 
#    y 0.000000 4.036980 0.000000 
#    z 0.107060 0.000000 3.753290 
# 
# 
# High freq. dielectric constant tensor:
#      x y z
#    x 1.769300 0.000000 0.008880 
#    y 0.000000 1.788390 0.000000 
#    z 0.008880 0.000000 1.782750 
# 
# From -- ./inp_files/104971.got.cif
#   From: 2010.06.25/outbox.cif.g09.slc.cpg/sg12_53_cif.got.tgz:104971.got - 2010.06.28 00:19:55.
