data_PCOD8111831
_publ_section_title
;
Structure prediction by ZEFSAII (Michael W. Deem and Ramdas Pophale) SiO2 
 PCOD8111831
Probable space group: C 2/M
;
_chemical_formula_sum "Si O2"
_cell_formula_units_Z 40
_cell_length_a 29.360347
_cell_length_b 9.208876
_cell_length_c 6.572421
_cell_angle_alpha 90.000000
_cell_angle_beta 93.057912
_cell_angle_gamma 90.000000
_cell_volume 1774.493294
_symmetry_space_group_name_H-M "C 2/M"
_symmetry_group_IT_number 12
_symmetry_cell_setting 'monoclinic'
loop_
_space_group_symop_operation_xyz
x,y,z
-x,y,-z
-x,-y,-z
x,-y,z
1/2+x,1/2+y,z
1/2-x,1/2+y,-z
1/2-x,1/2-y,-z
1/2+x,1/2-y,z
loop_
_atom_site_type_symbol
_atom_site_label
_atom_site_fract_x
_atom_site_fract_y
_atom_site_fract_z
Si Si1 0.624415 0.163629 0.297018
Si Si2 0.305782 0.836059 0.197676
Si Si3 0.723469 0.839209 0.279160
Si Si4 0.953305 0.334550 0.391426
Si Si5 0.391653 0.671407 0.106432
O O1 0.676333 0.191975 0.394569
O O2 0.587762 0.178651 0.461827
O O3 0.623367 0.000000 0.201223
O O4 0.612529 0.283497 0.127837
O O5 0.263984 0.777219 0.331318
O O6 0.350879 0.738659 0.232540
O O7 0.316947 0.000000 0.269862
O O8 0.290626 0.828739 0.960462
O O9 0.742624 0.000000 0.329454
O O10 0.960126 0.500000 0.318070
O O11 0.940100 0.233271 0.198213
O O12 0.000000 0.275407 0.500000
O O13 0.390336 0.500000 0.126980
#
# Coordination Sequence:
#
# PCOD8111831 Si02
#       5
#     8   8   8   8   8
#     4   9  19  37  60  84 112 148 188 229 274 329
#     4   9  16  28  49  77 110 147 186 224 265 321
#     4   8  14  26  47  77 110 142 179 224 272 320
#     4  10  22  41  63  84 108 142 187 237 284 332
#     4  11  22  36  57  84 116 150 184 227 278 333
#
# _framework density 22.541647000000001
#
# number of rings (size 3 to 8) (size 9 to 14) (size 15 to 20)
#    0.000    2.600    0.000    3.600    0.000    6.800 
#    0.000    5.000    0.000    0.000    0.000    0.000 
#    0.000    0.000    0.000    0.000    0.000    0.000 
#
# Total GULP energy -248027.607708 kJ/mol
# GULP energy per Si atom -12401.380385 kJ/mol
# Density = 2.249034 g / cm^3
# Si number density = 22.541647 Si / 1000 Ang^3
#
#
#
# Elastic Constant Matrix: (Units=GPa)
#
#
# Indices 1 2 3 4 5 6 
#
# 1 97.0468 45.0775 23.6900 0.0000 28.9916 0.0000
# 2 45.0775 151.2296 27.6845 0.0000 32.5603 0.0000
# 3 23.6900 27.6845 16.6331 0.0000 17.2853 0.0000
# 4 0.0000 0.0000 0.0000 25.9384 0.0000 5.1394
# 5 28.9916 32.5603 17.2853 0.0000 40.6714 0.0000
# 6 0.0000 0.0000 0.0000 5.1394 0.0000 33.6779
#
#
#
# Elastic Compliance Matrix: (Units=1/GPa)
#
#
# Indices 1 2 3 4 5 6 
#
# 1 0.016069 -0.000756 -0.018543 0.000000 -0.002968 0.000000
# 2 -0.000756 0.009603 -0.013393 0.000000 -0.001457 0.000000
# 3 -0.018543 -0.013393 0.150347 0.000000 -0.039957 0.000000
# 4 0.000000 0.000000 0.000000 0.039755 0.000000 -0.006067
# 5 -0.002968 -0.001457 -0.039957 0.000000 0.044851 0.000000
# 6 0.000000 0.000000 0.000000 -0.006067 0.000000 0.030619
#
#
# Mechanical properties :
#
#
# Convention : Reuss Voigt Hill
#
# Bulk Modulus (GPa) = 9.03877 50.86817 29.95347
# Shear Modulus (GPa) = 12.70628 31.28803 21.99716
#
# Velocity S-wave (km/s) = 2.37677 3.72964 3.12724
# Velocity P-wave (km/s) = 3.39861 6.41578 5.13385
#
# Compressibility (1/GPa) = 0.11063452
#
# Stress axis : x y z
#
# Youngs Moduli (GPa) = 62.23257 104.13131 6.65130
#
# Poissons Ratio (x) = 0.07873 0.12334
# Poissons Ratio (y) = 0.04705 0.08908
# Poissons Ratio (z) = 1.15401 1.39458
#
# Static dielectric constant tensor:
#      x y z
#    x 4.316230 0.000000 0.063870 
#    y 0.000000 3.964640 0.000000 
#    z 0.063870 0.000000 4.086160 
# 
# 
# High freq. dielectric constant tensor:
#      x y z
#    x 1.891260 0.000000 0.005670 
#    y 0.000000 1.870780 0.000000 
#    z 0.005670 0.000000 1.904050 
# 
# From -- ./inp_files/101188.got.cif
#   From: 2010.06.25/outbox.cif.g09.slc.cpg/sg12_51_cif.got.tgz:101188.got - 2010.06.28 00:19:55.
