data_PCOD8111621
_publ_section_title
;
Structure prediction by ZEFSAII (Michael W. Deem and Ramdas Pophale) SiO2 
 PCOD8111621
Probable space group: C 2/M
;
_chemical_formula_sum "Si O2"
_cell_formula_units_Z 36
_cell_length_a 16.287277
_cell_length_b 9.557126
_cell_length_c 18.019449
_cell_angle_alpha 90.000000
_cell_angle_beta 37.521533
_cell_angle_gamma 90.000000
_cell_volume 1708.350800
_symmetry_space_group_name_H-M "C 2/M"
_symmetry_group_IT_number 12
_symmetry_cell_setting 'monoclinic'
loop_
_space_group_symop_operation_xyz
x,y,z
-x,y,-z
-x,-y,-z
x,-y,z
1/2+x,1/2+y,z
1/2-x,1/2+y,-z
1/2-x,1/2-y,-z
1/2+x,1/2-y,z
loop_
_atom_site_type_symbol
_atom_site_label
_atom_site_fract_x
_atom_site_fract_y
_atom_site_fract_z
Si Si1 0.000000 0.739421 0.000000
Si Si2 0.275308 0.151110 0.261697
Si Si3 0.574860 0.838709 0.328919
Si Si4 0.315921 0.340640 0.515320
Si Si5 0.235124 0.156407 0.937862
O O1 0.079908 0.647495 0.882285
O O2 0.106951 0.823483 0.974639
O O3 0.194968 0.288533 0.295540
O O4 0.287982 0.160568 0.341423
O O5 0.205507 0.000000 0.292398
O O6 0.455075 0.734533 0.435566
O O7 0.626230 0.822059 0.207639
O O8 0.537294 0.000000 0.373537
O O9 0.342133 0.500000 0.469874
O O10 0.250000 0.250000 0.500000
O O11 0.224819 0.000000 0.975843
O O12 0.250000 0.250000 0.000000
#
# Coordination Sequence:
#
# PCOD8111621 Si02
#       5
#     4   8   8   8   8
#     4  10  22  42  66  96 128 170 212 262 322 384
#     4  10  22  40  64  91 122 161 207 258 310 375
#     4  10  22  41  62  89 123 161 206 256 314 377
#     4  11  24  40  60  90 125 163 207 257 311 372
#     4  10  23  41  64  93 129 168 213 265 318 380
#
# _framework density 21.072955
#
# number of rings (size 3 to 8) (size 9 to 14) (size 15 to 20)
#    0.000    1.778    0.000    2.667    3.111   10.667 
#    0.000    0.000    0.000    0.000    0.000    0.000 
#    0.000    0.000    0.000    0.000    0.000    0.000 
#
# Total GULP energy -222992.634312 kJ/mol
# GULP energy per Si atom -12388.479684 kJ/mol
# Density = 2.102499 g / cm^3
# Si number density = 21.072955 Si / 1000 Ang^3
#
#
#
# Elastic Constant Matrix: (Units=GPa)
#
#
# Indices 1 2 3 4 5 6 
#
# 1 87.6297 50.9394 46.9581 0.0000 11.7524 0.0000
# 2 50.9394 177.3214 69.5385 0.0000 16.2196 0.0000
# 3 46.9581 69.5385 135.9135 0.0000 11.6863 0.0000
# 4 0.0000 0.0000 0.0000 30.1724 0.0000 0.8350
# 5 11.7524 16.2196 11.6863 0.0000 31.0505 0.0000
# 6 0.0000 0.0000 0.0000 0.8350 0.0000 35.7357
#
#
#
# Elastic Compliance Matrix: (Units=1/GPa)
#
#
# Indices 1 2 3 4 5 6 
#
# 1 0.015347 -0.002696 -0.003663 0.000000 -0.003022 0.000000
# 2 -0.002696 0.007707 -0.002845 0.000000 -0.001934 0.000000
# 3 -0.003663 -0.002845 0.010161 0.000000 -0.000951 0.000000
# 4 0.000000 0.000000 0.000000 0.033164 0.000000 -0.000775
# 5 -0.003022 -0.001934 -0.000951 0.000000 0.034718 0.000000
# 6 0.000000 0.000000 0.000000 -0.000775 0.000000 0.028001
#
#
# Mechanical properties :
#
#
# Convention : Reuss Voigt Hill
#
# Bulk Modulus (GPa) = 67.54104 81.74851 74.64478
# Shear Modulus (GPa) = 32.79931 34.95361 33.87646
#
# Velocity S-wave (km/s) = 3.94949 4.07713 4.01381
# Velocity P-wave (km/s) = 7.27451 7.81289 7.54850
#
# Compressibility (1/GPa) = 0.01480581
#
# Stress axis : x y z
#
# Youngs Moduli (GPa) = 65.15911 129.75805 98.41687
#
# Poissons Ratio (x) = 0.34980 0.36053
# Poissons Ratio (y) = 0.17565 0.28003
# Poissons Ratio (z) = 0.23870 0.36920
#
# Static dielectric constant tensor:
#      x y z
#    x 4.551200 0.000000 -1.324700 
#    y 0.000000 3.814580 0.000000 
#    z -1.324700 0.000000 5.935500 
# 
# 
# High freq. dielectric constant tensor:
#      x y z
#    x 1.807050 0.000000 0.008570 
#    y 0.000000 1.838160 0.000000 
#    z 0.008570 0.000000 1.841810 
# 
# From -- ./inp_files/273907.got.cif
#   From: 2010.06.25/outbox.cif.g09.slc.cpg/sg12_137_cif.got.tgz:273907.got - 2010.06.28 00:19:55.
