data_PCOD8111715
_publ_section_title
;
Structure prediction by ZEFSAII (Michael W. Deem and Ramdas Pophale) SiO2 
 PCOD8111715
Probable space group: C 2/M
;
_chemical_formula_sum "Si O2"
_cell_formula_units_Z 64
_cell_length_a 17.262012
_cell_length_b 14.649723
_cell_length_c 15.557676
_cell_angle_alpha 90.000000
_cell_angle_beta 134.415794
_cell_angle_gamma 90.000000
_cell_volume 2810.178516
_symmetry_space_group_name_H-M "C 2/M"
_symmetry_group_IT_number 12
_symmetry_cell_setting 'monoclinic'
loop_
_space_group_symop_operation_xyz
x,y,z
-x,y,-z
-x,-y,-z
x,-y,z
1/2+x,1/2+y,z
1/2-x,1/2+y,-z
1/2-x,1/2-y,-z
1/2+x,1/2-y,z
loop_
_atom_site_type_symbol
_atom_site_label
_atom_site_fract_x
_atom_site_fract_y
_atom_site_fract_z
Si Si1 0.730371 0.603804 0.347184
Si Si2 0.032261 0.605984 0.433180
Si Si3 0.677393 0.696859 0.010948
Si Si4 0.025004 0.396007 0.119620
Si Si5 0.500017 0.395214 0.238154
Si Si6 0.916340 0.106093 0.359508
Si Si7 0.794141 0.728389 0.787935
Si Si8 0.888399 0.395697 0.171462
O O1 0.728036 0.500000 0.308995
O O2 0.840003 0.620044 0.487096
O O3 0.628015 0.622640 0.328630
O O4 0.730432 0.671494 0.266952
O O5 0.000499 0.500000 0.412781
O O6 0.000000 0.651151 0.500000
O O7 0.962575 0.653229 0.302636
O O8 0.652111 0.755627 0.076462
O O9 0.761642 0.614372 0.096139
O O10 0.750000 0.750000 0.000000
O O11 0.565112 0.663030 0.883183
O O12 0.057033 0.500000 0.170100
O O13 0.125213 0.327343 0.211859
O O14 0.926280 0.359528 0.105186
O O15 0.000000 0.393925 0.000000
O O16 0.470226 0.500000 0.197315
O O17 0.470763 0.367053 0.311707
O O18 0.812738 0.168664 0.288775
O O19 0.000000 0.128049 0.500000
O O20 0.880927 0.000000 0.333716
O O21 0.919422 0.500000 0.194992
#
# Coordination Sequence:
#
# PCOD8111715 Si02
#       8
#     8   8   8   8   8   8   8   8
#     4  10  24  43  65  96 135 181 221 271 332 392
#     4   9  18  38  65  93 127 166 216 274 325 383
#     4  12  24  39  62  96 130 171 216 271 326 401
#     4  10  23  41  62  91 126 164 209 270 335 394
#     4  10  23  45  68  93 135 181 224 274 335 404
#     4  10  23  45  71  98 129 173 227 278 335 404
#     4  12  25  39  67  94 132 172 218 277 325 397
#     4  10  22  40  66  93 123 166 218 274 335 397
#
# _framework density 22.774355
#
# number of rings (size 3 to 8) (size 9 to 14) (size 15 to 20)
#    0.000    1.625    1.250    2.250    3.500    4.500 
#    0.000    6.250    0.000    0.000    0.000    0.000 
#    0.000    0.000    0.000    0.000    0.000    0.000 
#
# Total GULP energy -396702.293612 kJ/mol
# GULP energy per Si atom -12396.946675 kJ/mol
# Density = 2.272252 g / cm^3
# Si number density = 22.774355 Si / 1000 Ang^3
#
#
#
# Elastic Constant Matrix: (Units=GPa)
#
#
# Indices 1 2 3 4 5 6 
#
# 1 120.8772 25.2012 31.4031 0.0000 16.7317 0.0000
# 2 25.2012 65.4726 21.0267 0.0000 3.2426 0.0000
# 3 31.4031 21.0267 115.2074 0.0000 6.5674 0.0000
# 4 0.0000 0.0000 0.0000 34.3833 0.0000 -7.8022
# 5 16.7317 3.2426 6.5674 0.0000 38.3943 0.0000
# 6 0.0000 0.0000 0.0000 -7.8022 0.0000 46.1887
#
#
#
# Elastic Compliance Matrix: (Units=1/GPa)
#
#
# Indices 1 2 3 4 5 6 
#
# 1 0.009922 -0.003010 -0.001942 0.000000 -0.003738 0.000000
# 2 -0.003010 0.017167 -0.002327 0.000000 0.000260 0.000000
# 3 -0.001942 -0.002327 0.009669 0.000000 -0.000611 0.000000
# 4 0.000000 0.000000 0.000000 0.030243 0.000000 0.005109
# 5 -0.003738 0.000260 -0.000611 0.000000 0.027757 0.000000
# 6 0.000000 0.000000 0.000000 0.005109 0.000000 0.022513
#
#
# Mechanical properties :
#
#
# Convention : Reuss Voigt Hill
#
# Bulk Modulus (GPa) = 45.04845 50.75770 47.90308
# Shear Modulus (GPa) = 35.91156 38.72168 37.31662
#
# Velocity S-wave (km/s) = 3.97525 4.12786 4.05228
# Velocity P-wave (km/s) = 6.39480 6.71227 6.55546
#
# Compressibility (1/GPa) = 0.02219832
#
# Stress axis : x y z
#
# Youngs Moduli (GPa) = 100.78207 58.25173 103.42334
#
# Poissons Ratio (x) = 0.17536 0.20086
# Poissons Ratio (y) = 0.30340 0.24071
# Poissons Ratio (z) = 0.19573 0.13558
#
# Static dielectric constant tensor:
#      x y z
#    x 3.885990 0.000000 -0.324790 
#    y 0.000000 4.119020 0.000000 
#    z -0.324790 0.000000 4.018350 
# 
# 
# High freq. dielectric constant tensor:
#      x y z
#    x 1.904670 0.000000 0.002820 
#    y 0.000000 1.906930 0.000000 
#    z 0.002820 0.000000 1.892850 
# 
# From -- ./inp_files/225720.got.cif
#   From: 2010.06.25/outbox.cif.g09.slc.cpg/sg12_113_cif.got.tgz:225720.got - 2010.06.28 00:19:55.
