data_PCOD8111588
_publ_section_title
;
Structure prediction by ZEFSAII (Michael W. Deem and Ramdas Pophale) SiO2 
 PCOD8111588
Probable space group: C 2/M
;
_chemical_formula_sum "Si O2"
_cell_formula_units_Z 48
_cell_length_a 13.619273
_cell_length_b 13.680738
_cell_length_c 12.738715
_cell_angle_alpha 90.000000
_cell_angle_beta 87.517424
_cell_angle_gamma 90.000000
_cell_volume 2371.271436
_symmetry_space_group_name_H-M "C 2/M"
_symmetry_group_IT_number 12
_symmetry_cell_setting 'monoclinic'
loop_
_space_group_symop_operation_xyz
x,y,z
-x,y,-z
-x,-y,-z
x,-y,z
1/2+x,1/2+y,z
1/2-x,1/2+y,-z
1/2-x,1/2-y,-z
1/2+x,1/2-y,z
loop_
_atom_site_type_symbol
_atom_site_label
_atom_site_fract_x
_atom_site_fract_y
_atom_site_fract_z
Si Si1 0.111841 0.691269 0.524982
Si Si2 0.774758 0.772551 0.878846
Si Si3 0.117468 0.615712 0.758119
Si Si4 0.664481 0.607313 0.795833
Si Si5 0.506251 0.740885 0.119974
Si Si6 0.805908 0.107326 0.445652
O O1 0.135600 0.664847 0.644368
O O2 0.133569 0.806152 0.499642
O O3 0.188467 0.629025 0.451702
O O4 0.000000 0.664623 0.500000
O O5 0.707406 0.857819 0.832177
O O6 0.759604 0.671267 0.817869
O O7 0.887301 0.802280 0.857449
O O8 0.750000 0.750000 0.000000
O O9 0.105897 0.500000 0.748329
O O10 0.018248 0.662821 0.810100
O O11 0.677930 0.500000 0.844164
O O12 0.569215 0.654587 0.853101
O O13 0.651956 0.602188 0.672637
O O14 0.500000 0.773401 0.000000
O O15 0.823881 0.000000 0.497876
#
# Coordination Sequence:
#
# PCOD8111588 Si02
#       6
#     8   8   8   8   8   8
#     4  11  24  43  67  93 130 167 207 266 315 370
#     4  11  22  43  63  88 128 166 207 264 314 366
#     4  11  25  43  63  95 128 166 214 255 315 378
#     4  10  22  40  63  93 124 162 209 253 313 377
#     4  11  22  42  62  90 128 164 208 260 311 371
#     4  10  22  42  66  94 126 162 209 259 314 378
#
# _framework density 20.242305000000002
#
# number of rings (size 3 to 8) (size 9 to 14) (size 15 to 20)
#    0.000    1.333    6.667    0.500    2.333    4.333 
#    0.000    0.000    0.000    0.000    0.000    0.000 
#    0.000    0.000    0.000    0.000    0.000    0.000 
#
# Total GULP energy -297505.534917 kJ/mol
# GULP energy per Si atom -12396.063955 kJ/mol
# Density = 2.019623 g / cm^3
# Si number density = 20.242305 Si / 1000 Ang^3
#
#
#
# Elastic Constant Matrix: (Units=GPa)
#
#
# Indices 1 2 3 4 5 6 
#
# 1 93.8455 -6.2143 17.5296 0.0000 -6.0088 0.0000
# 2 -6.2143 125.5185 17.4499 0.0000 -10.2317 0.0000
# 3 17.5296 17.4499 68.4795 0.0000 -7.6449 0.0000
# 4 0.0000 0.0000 0.0000 18.1316 0.0000 1.8963
# 5 -6.0088 -10.2317 -7.6449 0.0000 31.5346 0.0000
# 6 0.0000 0.0000 0.0000 1.8963 0.0000 12.7176
#
#
#
# Elastic Compliance Matrix: (Units=1/GPa)
#
#
# Indices 1 2 3 4 5 6 
#
# 1 0.011408 0.001130 -0.003006 0.000000 0.001812 0.000000
# 2 0.001130 0.008527 -0.002189 0.000000 0.002452 0.000000
# 3 -0.003006 -0.002189 0.016226 0.000000 0.002651 0.000000
# 4 0.000000 0.000000 0.000000 0.056026 0.000000 -0.008354
# 5 0.001812 0.002452 0.002651 0.000000 0.033495 0.000000
# 6 0.000000 0.000000 0.000000 -0.008354 0.000000 0.079877
#
#
# Mechanical properties :
#
#
# Convention : Reuss Voigt Hill
#
# Bulk Modulus (GPa) = 35.67250 38.37489 37.02370
# Shear Modulus (GPa) = 22.41840 29.74864 26.08352
#
# Velocity S-wave (km/s) = 3.33153 3.83773 3.59355
# Velocity P-wave (km/s) = 5.69735 6.21583 5.96222
#
# Compressibility (1/GPa) = 0.02803280
#
# Stress axis : x y z
#
# Youngs Moduli (GPa) = 87.65636 117.27443 61.62940
#
# Poissons Ratio (x) = -0.13257 0.18526
# Poissons Ratio (y) = -0.09909 0.13488
# Poissons Ratio (z) = 0.26350 0.25666
#
# Static dielectric constant tensor:
#      x y z
#    x 3.835550 0.000000 -0.095350 
#    y 0.000000 3.994520 0.000000 
#    z -0.095350 0.000000 3.749370 
# 
# 
# High freq. dielectric constant tensor:
#      x y z
#    x 1.787400 0.000000 -0.018000 
#    y 0.000000 1.791930 0.000000 
#    z -0.018000 0.000000 1.791440 
# 
# From -- ./inp_files/142985.got.cif
#   From: 2010.06.25/outbox.cif.g09.slc.cpg/sg12_72_cif.got.tgz:142985.got - 2010.06.28 00:19:55.
