data_PCOD8111875
_publ_section_title
;
Structure prediction by ZEFSAII (Michael W. Deem and Ramdas Pophale) SiO2 
 PCOD8111875
Probable space group: C 2/M
;
_chemical_formula_sum "Si O2"
_cell_formula_units_Z 56
_cell_length_a 15.889625
_cell_length_b 9.859643
_cell_length_c 23.048945
_cell_angle_alpha 90.000000
_cell_angle_beta 41.049157
_cell_angle_gamma 90.000000
_cell_volume 2371.357689
_symmetry_space_group_name_H-M "C 2/M"
_symmetry_group_IT_number 12
_symmetry_cell_setting 'monoclinic'
loop_
_space_group_symop_operation_xyz
x,y,z
-x,y,-z
-x,-y,-z
x,-y,z
1/2+x,1/2+y,z
1/2-x,1/2+y,-z
1/2-x,1/2-y,-z
1/2+x,1/2-y,z
loop_
_atom_site_type_symbol
_atom_site_label
_atom_site_fract_x
_atom_site_fract_y
_atom_site_fract_z
Si Si1 0.379069 0.342684 0.638338
Si Si2 0.256312 0.654442 0.374533
Si Si3 0.779173 0.741013 0.888410
Si Si4 0.089104 0.353081 0.564946
Si Si5 0.145564 0.347499 0.846436
Si Si6 0.959302 0.644932 0.280302
Si Si7 0.575937 0.352720 0.079231
O O1 0.398989 0.500000 0.609987
O O2 0.354764 0.245767 0.596036
O O3 0.506897 0.282433 0.599291
O O4 0.267320 0.325880 0.742843
O O5 0.261372 0.500000 0.348322
O O6 0.224536 0.658203 0.460017
O O7 0.391038 0.725910 0.285593
O O8 0.688259 0.819541 0.890468
O O9 0.859247 0.834095 0.891465
O O10 0.887094 0.659330 0.795938
O O11 0.688494 0.643905 0.972782
O O12 0.026261 0.500000 0.577725
O O13 0.111059 0.363776 0.621674
O O14 0.093585 0.500000 0.871007
O O15 0.029287 0.257854 0.883020
O O16 0.929342 0.500000 0.263623
O O17 0.509452 0.500000 0.112643
#
# Coordination Sequence:
#
# PCOD8111875 Si02
#       7
#     8   8   8   8   8   8   8
#     4  11  23  40  64  93 126 167 218 267 319 385
#     4  11  24  40  61  92 130 169 212 265 326 390
#     4  11  24  45  71  97 134 178 220 273 332 399
#     4  10  22  41  63  90 126 168 212 263 325 388
#     4  11  25  45  69  99 136 178 222 270 331 399
#     4  11  23  41  66  93 124 166 216 268 323 386
#     4  11  26  44  69 103 134 171 222 275 332 396
#
# _framework density 23.615165000000001
#
# number of rings (size 3 to 8) (size 9 to 14) (size 15 to 20)
#    0.000    1.143    1.429    3.857    0.000   13.714 
#    0.000    0.000    0.000    0.000    0.000    0.000 
#    0.000    0.000    0.000    0.000    0.000    0.000 
#
# Total GULP energy -346935.694968 kJ/mol
# GULP energy per Si atom -12390.560535 kJ/mol
# Density = 2.356142 g / cm^3
# Si number density = 23.615165 Si / 1000 Ang^3
#
#
#
# Elastic Constant Matrix: (Units=GPa)
#
#
# Indices 1 2 3 4 5 6 
#
# 1 94.5368 46.7734 11.9257 0.0000 -1.6532 0.0000
# 2 46.7734 206.3823 34.8004 0.0000 -18.1496 0.0000
# 3 11.9257 34.8004 67.4250 0.0000 -0.9144 0.0000
# 4 0.0000 0.0000 0.0000 20.8046 0.0000 -10.1930
# 5 -1.6532 -18.1496 -0.9144 0.0000 40.2661 0.0000
# 6 0.0000 0.0000 0.0000 -10.1930 0.0000 31.4553
#
#
#
# Elastic Compliance Matrix: (Units=1/GPa)
#
#
# Indices 1 2 3 4 5 6 
#
# 1 0.011971 -0.002648 -0.000760 0.000000 -0.000719 0.000000
# 2 -0.002648 0.006121 -0.002656 0.000000 0.002590 0.000000
# 3 -0.000760 -0.002656 0.016325 0.000000 -0.000858 0.000000
# 4 0.000000 0.000000 0.000000 0.057138 0.000000 0.018515
# 5 -0.000719 0.002590 -0.000858 0.000000 0.025953 0.000000
# 6 0.000000 0.000000 0.000000 0.018515 0.000000 0.037791
#
#
# Mechanical properties :
#
#
# Convention : Reuss Voigt Hill
#
# Bulk Modulus (GPa) = 44.86563 61.70478 53.28520
# Shear Modulus (GPa) = 28.59467 36.82817 32.71142
#
# Velocity S-wave (km/s) = 3.48352 3.95335 3.72585
# Velocity P-wave (km/s) = 5.93462 6.85745 6.41266
#
# Compressibility (1/GPa) = 0.02228878
#
# Stress axis : x y z
#
# Youngs Moduli (GPa) = 83.53190 163.36797 61.25606
#
# Poissons Ratio (x) = 0.43263 0.04658
# Poissons Ratio (y) = 0.22121 0.16268
# Poissons Ratio (z) = 0.06351 0.43388
#
# Static dielectric constant tensor:
#      x y z
#    x 4.028740 0.000000 0.175090 
#    y 0.000000 4.494420 0.000000 
#    z 0.175090 0.000000 4.378080 
# 
# 
# High freq. dielectric constant tensor:
#      x y z
#    x 1.916430 0.000000 0.008670 
#    y 0.000000 1.945140 0.000000 
#    z 0.008670 0.000000 1.950840 
# 
# From -- ./inp_files/362947.got.cif
#   From: 2010.06.25/outbox.cif.g09.slc.cpg/sg12_182_cif.got.tgz:362947.got - 2010.06.28 00:19:55.
