data_PCOD8111303
_publ_section_title
;
Structure prediction by ZEFSAII (Michael W. Deem and Ramdas Pophale) SiO2 
 PCOD8111303
Probable space group: C 2/M
;
_chemical_formula_sum "Si O2"
_cell_formula_units_Z 56
_cell_length_a 25.572212
_cell_length_b 13.832142
_cell_length_c 11.128332
_cell_angle_alpha 90.000000
_cell_angle_beta 43.897304
_cell_angle_gamma 90.000000
_cell_volume 2729.301757
_symmetry_space_group_name_H-M "C 2/M"
_symmetry_group_IT_number 12
_symmetry_cell_setting 'monoclinic'
loop_
_space_group_symop_operation_xyz
x,y,z
-x,y,-z
-x,-y,-z
x,-y,z
1/2+x,1/2+y,z
1/2-x,1/2+y,-z
1/2-x,1/2-y,-z
1/2+x,1/2-y,z
loop_
_atom_site_type_symbol
_atom_site_label
_atom_site_fract_x
_atom_site_fract_y
_atom_site_fract_z
Si Si1 0.266798 0.887331 0.804168
Si Si2 0.917510 0.312325 0.148188
Si Si3 0.103391 0.793451 0.052325
Si Si4 0.526118 0.611089 0.590711
Si Si5 0.162136 0.391539 0.056246
Si Si6 0.269166 0.104603 0.306221
Si Si7 0.855608 0.753268 0.494266
O O1 0.296660 0.868966 0.888192
O O2 0.325704 0.840578 0.613480
O O3 0.260825 0.000000 0.782578
O O4 0.185622 0.839018 0.929341
O O5 0.852022 0.388499 0.227680
O O6 0.910395 0.275752 0.295916
O O7 0.912425 0.222975 0.062756
O O8 0.000000 0.361633 0.000000
O O9 0.099363 0.690306 0.131097
O O10 0.041705 0.865798 0.206207
O O11 0.500000 0.632100 0.500000
O O12 0.549836 0.500000 0.569712
O O13 0.598932 0.677095 0.491676
O O14 0.125682 0.500000 0.118192
O O15 0.225231 0.385031 0.847326
O O16 0.214709 0.187673 0.446025
O O17 0.236227 0.000000 0.396155
#
# Coordination Sequence:
#
# PCOD8111303 Si02
#       7
#     8   8   8   8   8   8   8
#     4  11  23  38  63  96 125 160 208 257 316 375
#     4  11  23  43  63  86 122 165 209 253 308 373
#     4  11  21  42  64  89 129 167 204 255 315 363
#     4  11  25  41  64  97 129 166 208 249 309 379
#     4   9  19  36  63  96 124 157 203 253 314 376
#     4  10  22  39  65  92 118 161 210 257 308 363
#     4  12  23  42  63  89 129 163 204 264 308 365
#
# _framework density 20.518068
#
# number of rings (size 3 to 8) (size 9 to 14) (size 15 to 20)
#    0.000    1.286    4.286    2.571    2.000    0.857 
#    0.000    3.571    0.000    2.571    0.000    0.000 
#    0.000    0.000    0.000    0.000    0.000    0.000 
#
# Total GULP energy -347217.874476 kJ/mol
# GULP energy per Si atom -12400.638374 kJ/mol
# Density = 2.047137 g / cm^3
# Si number density = 20.518068 Si / 1000 Ang^3
#
#
#
# Elastic Constant Matrix: (Units=GPa)
#
#
# Indices 1 2 3 4 5 6 
#
# 1 91.4142 36.6574 30.8235 0.0000 -1.8683 0.0000
# 2 36.6574 107.5481 33.7196 0.0000 -0.7414 0.0000
# 3 30.8235 33.7196 81.0718 0.0000 -5.7121 0.0000
# 4 0.0000 0.0000 0.0000 23.4206 0.0000 -3.6688
# 5 -1.8683 -0.7414 -5.7121 0.0000 32.0599 0.0000
# 6 0.0000 0.0000 0.0000 -3.6688 0.0000 17.8921
#
#
#
# Elastic Compliance Matrix: (Units=1/GPa)
#
#
# Indices 1 2 3 4 5 6 
#
# 1 0.013583 -0.003463 -0.003721 0.000000 0.000049 0.000000
# 2 -0.003463 0.011585 -0.003542 0.000000 -0.000565 0.000000
# 3 -0.003721 -0.003542 0.015395 0.000000 0.002444 0.000000
# 4 0.000000 0.000000 0.000000 0.044114 0.000000 0.009046
# 5 0.000049 -0.000565 0.002444 0.000000 0.031617 0.000000
# 6 0.000000 0.000000 0.000000 0.009046 0.000000 0.057745
#
#
# Mechanical properties :
#
#
# Convention : Reuss Voigt Hill
#
# Bulk Modulus (GPa) = 52.32187 53.60388 52.96288
# Shear Modulus (GPa) = 24.76951 26.59678 25.68315
#
# Velocity S-wave (km/s) = 3.47825 3.60427 3.54182
# Velocity P-wave (km/s) = 6.45653 6.59568 6.52647
#
# Compressibility (1/GPa) = 0.01911247
#
# Stress axis : x y z
#
# Youngs Moduli (GPa) = 73.61910 86.31836 64.95786
#
# Poissons Ratio (x) = 0.29892 0.24169
# Poissons Ratio (y) = 0.25494 0.23006
# Poissons Ratio (z) = 0.27391 0.30571
#
# Static dielectric constant tensor:
#      x y z
#    x 3.746720 0.000000 0.052780 
#    y 0.000000 3.916040 0.000000 
#    z 0.052780 0.000000 3.617240 
# 
# 
# High freq. dielectric constant tensor:
#      x y z
#    x 1.808230 0.000000 0.003640 
#    y 0.000000 1.804530 0.000000 
#    z 0.003640 0.000000 1.793750 
# 
# From -- ./inp_files/183495.got.cif
#   From: 2010.06.25/outbox.cif.g09.slc.cpg/sg12_92_cif.got.tgz:183495.got - 2010.06.28 00:19:55.
