data_PCOD8111403
_publ_section_title
;
Structure prediction by ZEFSAII (Michael W. Deem and Ramdas Pophale) SiO2 
 PCOD8111403
Probable space group: C 2/M
;
_chemical_formula_sum "Si O2"
_cell_formula_units_Z 48
_cell_length_a 9.724578
_cell_length_b 13.689082
_cell_length_c 28.138157
_cell_angle_alpha 90.000000
_cell_angle_beta 36.195589
_cell_angle_gamma 90.000000
_cell_volume 2212.038397
_symmetry_space_group_name_H-M "C 2/M"
_symmetry_group_IT_number 12
_symmetry_cell_setting 'monoclinic'
loop_
_space_group_symop_operation_xyz
x,y,z
-x,y,-z
-x,-y,-z
x,-y,z
1/2+x,1/2+y,z
1/2-x,1/2+y,-z
1/2-x,1/2-y,-z
1/2+x,1/2-y,z
loop_
_atom_site_type_symbol
_atom_site_label
_atom_site_fract_x
_atom_site_fract_y
_atom_site_fract_z
Si Si1 0.967475 0.883168 0.684941
Si Si2 0.796093 0.885204 0.204175
Si Si3 0.301380 0.892988 0.516186
Si Si4 0.557074 0.114697 0.173838
Si Si5 0.843350 0.617190 0.654692
Si Si6 0.252374 0.769781 0.054611
O O1 0.703767 0.845359 0.762624
O O2 0.082164 0.840418 0.603667
O O3 0.112009 0.848098 0.690772
O O4 0.970918 0.000000 0.680490
O O5 0.630026 0.856772 0.206904
O O6 0.674921 0.843885 0.286155
O O7 0.053348 0.843690 0.126022
O O8 0.828352 0.000000 0.199864
O O9 0.500000 0.904914 0.500000
O O10 0.420116 0.840179 0.437010
O O11 0.216344 0.000000 0.523220
O O12 0.725362 0.166879 0.089479
O O13 0.579519 0.000000 0.158508
O O14 0.857688 0.500000 0.648858
O O15 0.500000 0.816620 0.000000
O O16 0.250000 0.750000 0.000000
#
# Coordination Sequence:
#
# PCOD8111403 Si02
#       6
#     8   8   8   8   8   8
#     4   8  14  26  49  80 112 151 192 226 270 329
#     4  10  22  40  60  86 119 150 184 233 288 337
#     4   7  10  20  41  74 113 147 185 229 267 314
#     4  10  22  40  61  85 118 153 184 228 289 345
#     4   8  14  26  49  80 113 150 190 230 271 321
#     4  12  26  44  63  86 112 145 189 235 288 349
#
# _framework density 21.699442000000001
#
# number of rings (size 3 to 8) (size 9 to 14) (size 15 to 20)
#    0.000    2.833    1.667    2.000    2.333    1.333 
#    0.000    0.833    0.000    6.000    0.000    0.000 
#    0.000    0.000    0.000    0.000    0.000    0.000 
#
# Total GULP energy -297411.732480 kJ/mol
# GULP energy per Si atom -12392.155520 kJ/mol
# Density = 2.165005 g / cm^3
# Si number density = 21.699442 Si / 1000 Ang^3
#
#
#
# Elastic Constant Matrix: (Units=GPa)
#
#
# Indices 1 2 3 4 5 6 
#
# 1 109.9392 7.2762 53.7097 0.0097 27.9564 -0.0044
# 2 7.2762 16.3669 10.0038 0.0036 14.7484 -0.0030
# 3 53.7097 10.0038 143.3189 0.0075 32.7168 -0.0032
# 4 0.0097 0.0036 0.0075 18.3400 -0.0039 4.8535
# 5 27.9564 14.7484 32.7168 -0.0039 44.3618 0.0018
# 6 -0.0044 -0.0030 -0.0032 4.8535 0.0018 16.2141
#
#
#
# Elastic Compliance Matrix: (Units=1/GPa)
#
#
# Indices 1 2 3 4 5 6 
#
# 1 0.012069 0.001870 -0.003337 -0.000008 -0.005766 0.000006
# 2 0.001870 0.087571 0.000122 -0.000033 -0.030382 0.000030
# 3 -0.003337 0.000122 0.009317 -0.000004 -0.004809 0.000003
# 4 -0.000008 -0.000033 -0.000004 0.059216 0.000025 -0.017726
# 5 -0.005766 -0.030382 -0.004809 0.000025 0.039823 -0.000020
# 6 0.000006 0.000030 0.000003 -0.017726 -0.000020 0.066981
#
#
# Mechanical properties :
#
#
# Convention : Reuss Voigt Hill
#
# Bulk Modulus (GPa) = 9.41018 45.73382 27.57200
# Shear Modulus (GPa) = 15.96991 29.02553 22.49772
#
# Velocity S-wave (km/s) = 2.71580 3.66131 3.22341
# Velocity P-wave (km/s) = 3.76565 6.24463 5.15633
#
# Compressibility (1/GPa) = 0.10626790
#
# Stress axis : x y z
#
# Youngs Moduli (GPa) = 82.85853 11.41935 107.32674
#
# Poissons Ratio (x) = -0.02136 0.35816
# Poissons Ratio (y) = -0.15498 -0.01312
# Poissons Ratio (z) = 0.27650 -0.00140
#
# Static dielectric constant tensor:
#      x y z
#    x 3.852450 0.000000 0.105380 
#    y 0.000000 3.474850 0.000000 
#    z 0.105380 0.000000 4.484870 
# 
# 
# High freq. dielectric constant tensor:
#      x y z
#    x 1.836270 0.000000 0.007950 
#    y 0.000000 1.830750 0.000000 
#    z 0.007950 0.000000 1.871100 
# 
# From -- ./inp_files/356303.got.cif
#   From: 2010.06.25/outbox.cif.g09.slc.cpg/sg12_179_cif.got.tgz:356303.got - 2010.06.28 00:19:55.
