data_PCOD8111575
_publ_section_title
;
Structure prediction by ZEFSAII (Michael W. Deem and Ramdas Pophale) SiO2 
 PCOD8111575
Probable space group: C 2/M
;
_chemical_formula_sum "Si O2"
_cell_formula_units_Z 56
_cell_length_a 23.514749
_cell_length_b 9.001733
_cell_length_c 13.822779
_cell_angle_alpha 90.000000
_cell_angle_beta 74.017978
_cell_angle_gamma 90.000000
_cell_volume 2812.823800
_symmetry_space_group_name_H-M "C 2/M"
_symmetry_group_IT_number 12
_symmetry_cell_setting 'monoclinic'
loop_
_space_group_symop_operation_xyz
x,y,z
-x,y,-z
-x,-y,-z
x,-y,z
1/2+x,1/2+y,z
1/2-x,1/2+y,-z
1/2-x,1/2-y,-z
1/2+x,1/2-y,z
loop_
_atom_site_type_symbol
_atom_site_label
_atom_site_fract_x
_atom_site_fract_y
_atom_site_fract_z
Si Si1 0.170700 0.829481 0.472374
Si Si2 0.812964 0.672411 0.975350
Si Si3 0.516922 0.324559 0.884505
Si Si4 0.719553 0.670795 0.658350
Si Si5 0.638125 0.825450 0.842164
Si Si6 0.434315 0.170461 0.567278
Si Si7 0.079000 0.326860 0.203127
O O1 0.214065 0.725014 0.391031
O O2 0.180051 0.807008 0.581763
O O3 0.104716 0.778459 0.480050
O O4 0.181078 0.000000 0.437810
O O5 0.798403 0.500000 0.985865
O O6 0.854577 0.713098 0.864301
O O7 0.750000 0.750000 0.000000
O O8 0.849520 0.720880 0.053090
O O9 0.521762 0.500000 0.873440
O O10 0.580177 0.255497 0.828814
O O11 0.468652 0.267842 0.832270
O O12 0.500000 0.272598 0.000000
O O13 0.721473 0.500000 0.690944
O O14 0.693940 0.771993 0.754713
O O15 0.629244 0.000000 0.834095
O O16 0.500000 0.197669 0.500000
O O17 0.426705 0.216122 0.682408
O O18 0.415091 0.000000 0.560581
O O19 0.065545 0.500000 0.190916
#
# Coordination Sequence:
#
# PCOD8111575 Si02
#       7
#     8   8   8   8   8   8   8
#     4  10  22  41  63  89 121 158 201 250 305 360
#     4  10  23  40  60  88 123 161 204 246 299 363
#     4  11  23  39  61  90 121 156 199 249 300 353
#     4  10  22  40  63  91 122 157 199 250 303 359
#     4  11  23  39  62  91 122 159 200 246 301 362
#     4  10  23  41  62  90 122 161 207 252 305 363
#     4  10  22  42  63  87 120 164 205 249 306 361
#
# _framework density 19.908821
#
# number of rings (size 3 to 8) (size 9 to 14) (size 15 to 20)
#    0.000    1.714    1.429    1.714    4.000    4.857 
#    0.000    0.000    0.000    0.000    0.000    0.000 
#    0.000    0.000    0.000    0.000    0.000    0.000 
#
# Total GULP energy -347351.329230 kJ/mol
# GULP energy per Si atom -12405.404615 kJ/mol
# Density = 1.986351 g / cm^3
# Si number density = 19.908821 Si / 1000 Ang^3
#
#
#
# Elastic Constant Matrix: (Units=GPa)
#
#
# Indices 1 2 3 4 5 6 
#
# 1 108.2852 46.8262 35.6768 0.0000 -6.9042 0.0000
# 2 46.8262 67.0716 32.8129 0.0000 3.8245 0.0000
# 3 35.6768 32.8129 112.9803 0.0000 -10.6767 0.0000
# 4 0.0000 0.0000 0.0000 30.7704 0.0000 -4.0132
# 5 -6.9042 3.8245 -10.6767 0.0000 21.1455 0.0000
# 6 0.0000 0.0000 0.0000 -4.0132 0.0000 41.5398
#
#
#
# Elastic Compliance Matrix: (Units=1/GPa)
#
#
# Indices 1 2 3 4 5 6 
#
# 1 0.014152 -0.009667 -0.001112 0.000000 0.005808 0.000000
# 2 -0.009667 0.024733 -0.005095 0.000000 -0.010202 0.000000
# 3 -0.001112 -0.005095 0.011273 0.000000 0.006250 0.000000
# 4 0.000000 0.000000 0.000000 0.032913 0.000000 0.003180
# 5 0.005808 -0.010202 0.006250 0.000000 0.054189 0.000000
# 6 0.000000 0.000000 0.000000 0.003180 0.000000 0.024380
#
#
# Mechanical properties :
#
#
# Convention : Reuss Voigt Hill
#
# Bulk Modulus (GPa) = 54.32124 57.66324 55.99224
# Shear Modulus (GPa) = 25.05951 30.22589 27.64270
#
# Velocity S-wave (km/s) = 3.55168 3.90066 3.73025
# Velocity P-wave (km/s) = 6.64556 7.02235 6.83655
#
# Compressibility (1/GPa) = 0.01840901
#
# Stress axis : x y z
#
# Youngs Moduli (GPa) = 70.66066 40.43212 88.71050
#
# Poissons Ratio (x) = 0.39087 0.09869
# Poissons Ratio (y) = 0.68310 0.45194
# Poissons Ratio (z) = 0.07861 0.20598
#
# Static dielectric constant tensor:
#      x y z
#    x 3.527560 0.000000 -0.025500 
#    y 0.000000 3.594040 0.000000 
#    z -0.025500 0.000000 3.782960 
# 
# 
# High freq. dielectric constant tensor:
#      x y z
#    x 1.781230 0.000000 -0.005550 
#    y 0.000000 1.778530 0.000000 
#    z -0.005550 0.000000 1.783850 
# 
# From -- ./inp_files/238390.got.cif
#   From: 2010.06.25/outbox.cif.g09.slc.cpg/sg12_120_cif.got.tgz:238390.got - 2010.06.28 00:19:55.
