data_PCOD8111454
_publ_section_title
;
Structure prediction by ZEFSAII (Michael W. Deem and Ramdas Pophale) SiO2 
 PCOD8111454
Probable space group: C 2/M
;
_chemical_formula_sum "Si O2"
_cell_formula_units_Z 64
_cell_length_a 19.481514
_cell_length_b 8.648686
_cell_length_c 31.166486
_cell_angle_alpha 90.000000
_cell_angle_beta 143.568485
_cell_angle_gamma 90.000000
_cell_volume 3118.500799
_symmetry_space_group_name_H-M "C 2/M"
_symmetry_group_IT_number 12
_symmetry_cell_setting 'monoclinic'
loop_
_space_group_symop_operation_xyz
x,y,z
-x,y,-z
-x,-y,-z
x,-y,z
1/2+x,1/2+y,z
1/2-x,1/2+y,-z
1/2-x,1/2-y,-z
1/2+x,1/2-y,z
loop_
_atom_site_type_symbol
_atom_site_label
_atom_site_fract_x
_atom_site_fract_y
_atom_site_fract_z
Si Si1 0.957392 0.678500 0.772636
Si Si2 0.926762 0.818655 0.392281
Si Si3 0.312750 0.682272 0.490259
Si Si4 0.263157 0.320039 0.231327
Si Si5 0.326407 0.180384 0.176745
Si Si6 0.521211 0.319011 0.127947
Si Si7 0.735217 0.180515 0.622459
Si Si8 0.404608 0.683041 0.984267
O O1 0.920290 0.500000 0.754281
O O2 0.008604 0.723043 0.844599
O O3 0.844441 0.779690 0.707090
O O4 0.053409 0.714014 0.785797
O O5 0.845595 0.774096 0.311871
O O6 0.881361 0.735560 0.412408
O O7 0.054972 0.758639 0.445562
O O8 0.927251 0.000000 0.401966
O O9 0.306726 0.500000 0.490912
O O10 0.250000 0.750000 0.500000
O O11 0.247851 0.735464 0.414548
O O12 0.229697 0.500000 0.216334
O O13 0.330538 0.281267 0.221685
O O14 0.149775 0.215396 0.175933
O O15 0.311008 0.000000 0.180166
O O16 0.222391 0.238428 0.093762
O O17 0.509598 0.500000 0.131738
O O18 0.431162 0.262509 0.046145
O O19 0.728410 0.000000 0.610732
O O20 0.414472 0.500000 0.987547
O O21 0.500000 0.755250 0.000000
#
# Coordination Sequence:
#
# PCOD8111454 Si02
#       8
#     8   8   8   8   8   8   8   8
#     4  11  24  41  61  90 127 162 203 257 312 364
#     4  10  23  43  66  92 126 166 204 251 309 359
#     4  11  25  45  67  96 132 167 203 250 305 362
#     4  11  22  37  61  92 125 158 202 257 305 357
#     4  10  22  40  61  87 120 165 208 250 310 373
#     4  11  21  37  63  90 119 161 208 252 305 369
#     4  12  25  42  67  94 124 165 211 253 301 365
#     4   9  17  34  60  86 118 157 204 256 306 365
#
# _framework density 20.522683000000001
#
# number of rings (size 3 to 8) (size 9 to 14) (size 15 to 20)
#    0.000    1.375    2.500    3.000    1.750    4.500 
#    0.000    1.875    0.000    0.000    0.000    0.000 
#    0.000    0.000    0.000    0.000    0.000    0.000 
#
# Total GULP energy -396966.300161 kJ/mol
# GULP energy per Si atom -12405.196880 kJ/mol
# Density = 2.047597 g / cm^3
# Si number density = 20.522683 Si / 1000 Ang^3
#
#
#
# Elastic Constant Matrix: (Units=GPa)
#
#
# Indices 1 2 3 4 5 6 
#
# 1 116.4725 38.2049 36.3177 0.0001 -18.2332 -0.0002
# 2 38.2049 52.1093 23.6403 0.0005 0.5742 -0.0007
# 3 36.3177 23.6403 80.6489 0.0001 -9.8085 -0.0002
# 4 0.0001 0.0005 0.0001 26.1938 -0.0001 -5.7422
# 5 -18.2332 0.5742 -9.8085 -0.0001 37.7547 0.0001
# 6 -0.0002 -0.0007 -0.0002 -5.7422 0.0001 34.1369
#
#
#
# Elastic Compliance Matrix: (Units=1/GPa)
#
#
# Indices 1 2 3 4 5 6 
#
# 1 0.013102 -0.008431 -0.002730 0.000000 0.005746 0.000000
# 2 -0.008431 0.027719 -0.005034 0.000000 -0.005801 0.000000
# 3 -0.002730 -0.005034 0.015441 0.000000 0.002770 0.000000
# 4 0.000000 0.000000 0.000000 0.039639 0.000000 0.006668
# 5 0.005746 -0.005801 0.002770 0.000000 0.030070 0.000000
# 6 0.000000 0.000000 0.000000 0.006668 0.000000 0.030415
#
#
# Mechanical properties :
#
#
# Convention : Reuss Voigt Hill
#
# Bulk Modulus (GPa) = 41.88874 49.50628 45.69751
# Shear Modulus (GPa) = 25.41507 29.68829 27.55168
#
# Velocity S-wave (km/s) = 3.52289 3.80756 3.66799
# Velocity P-wave (km/s) = 6.08301 6.59584 6.34461
#
# Compressibility (1/GPa) = 0.02387276
#
# Stress axis : x y z
#
# Youngs Moduli (GPa) = 76.32452 36.07581 64.76149
#
# Poissons Ratio (x) = 0.30415 0.17679
# Poissons Ratio (y) = 0.64348 0.32603
# Poissons Ratio (z) = 0.20836 0.18162
#
# Static dielectric constant tensor:
#      x y z
#    x 3.761410 0.000000 -0.075220 
#    y 0.000000 3.508310 0.000000 
#    z -0.075220 0.000000 3.894860 
# 
# 
# High freq. dielectric constant tensor:
#      x y z
#    x 1.810330 0.000000 -0.008490 
#    y 0.000000 1.789110 0.000000 
#    z -0.008490 0.000000 1.811740 
# 
# From -- ./inp_files/378541.got.cif
#   From: 2010.06.25/outbox.cif.g09.slc.cpg/sg12_190_cif.got.tgz:378541.got - 2010.06.28 00:19:55.
