data_PCOD8111186
_publ_section_title
;
Structure prediction by ZEFSAII (Michael W. Deem and Ramdas Pophale) SiO2 
 PCOD8111186
Probable space group: C 2/M
;
_chemical_formula_sum "Si O2"
_cell_formula_units_Z 48
_cell_length_a 7.921305
_cell_length_b 14.357493
_cell_length_c 27.572195
_cell_angle_alpha 90.000000
_cell_angle_beta 44.739113
_cell_angle_gamma 90.000000
_cell_volume 2207.217707
_symmetry_space_group_name_H-M "C 2/M"
_symmetry_group_IT_number 12
_symmetry_cell_setting 'monoclinic'
loop_
_space_group_symop_operation_xyz
x,y,z
-x,y,-z
-x,-y,-z
x,-y,z
1/2+x,1/2+y,z
1/2-x,1/2+y,-z
1/2-x,1/2-y,-z
1/2+x,1/2-y,z
loop_
_atom_site_type_symbol
_atom_site_label
_atom_site_fract_x
_atom_site_fract_y
_atom_site_fract_z
Si Si1 0.764842 0.891542 0.667294
Si Si2 0.301329 0.889300 0.577006
Si Si3 0.128642 0.609038 0.327928
Si Si4 0.499297 0.749410 0.784040
Si Si5 0.487981 0.245680 0.889754
Si Si6 0.687422 0.604784 0.004914
O O1 0.632841 0.869513 0.642764
O O2 0.632208 0.841323 0.738447
O O3 0.040652 0.856593 0.610677
O O4 0.752897 0.000000 0.681779
O O5 0.500000 0.847679 0.500000
O O6 0.359401 0.851755 0.619400
O O7 0.316949 0.000000 0.574380
O O8 0.183682 0.500000 0.315310
O O9 0.336644 0.658264 0.254828
O O10 0.350752 0.761069 0.866097
O O11 0.246561 0.736102 0.807736
O O12 0.426952 0.346015 0.924964
O O13 0.421908 0.161903 0.939649
O O14 0.763739 0.500000 0.003496
O O15 0.500000 0.604786 0.000000
#
# Coordination Sequence:
#
# PCOD8111186 Si02
#       6
#     8   8   8   8   8   8
#     4  10  22  39  62  91 123 163 208 255 309 368
#     4   9  19  38  63  90 123 163 207 257 310 364
#     4  10  22  39  61  91 124 161 208 257 307 368
#     4  12  22  39  62  87 127 155 200 254 306 365
#     4  11  23  38  61  90 115 160 198 248 308 360
#     4  10  22  41  62  86 120 156 202 250 296 368
#
# _framework density 21.746834
#
# number of rings (size 3 to 8) (size 9 to 14) (size 15 to 20)
#    0.000    1.667    3.333    1.000    0.000    3.333 
#    0.000    5.000    0.000    0.000    0.000    0.000 
#    0.000    0.000    0.000    0.000    0.000    0.000 
#
# Total GULP energy -297409.144664 kJ/mol
# GULP energy per Si atom -12392.047694 kJ/mol
# Density = 2.169734 g / cm^3
# Si number density = 21.746834 Si / 1000 Ang^3
#
#
#
# Elastic Constant Matrix: (Units=GPa)
#
#
# Indices 1 2 3 4 5 6 
#
# 1 94.3726 47.4940 74.1460 -0.0014 2.7457 0.0000
# 2 47.4940 98.6687 53.7843 0.0003 -5.0070 -0.0002
# 3 74.1460 53.7843 153.1814 -0.0022 -10.7843 0.0001
# 4 -0.0014 0.0003 -0.0022 27.1743 0.0001 -0.4532
# 5 2.7457 -5.0070 -10.7843 0.0001 41.9034 0.0000
# 6 0.0000 -0.0002 0.0001 -0.4532 0.0000 23.6721
#
#
#
# Elastic Compliance Matrix: (Units=1/GPa)
#
#
# Indices 1 2 3 4 5 6 
#
# 1 0.019593 -0.005331 -0.007890 0.000000 -0.003952 0.000000
# 2 -0.005331 0.013990 -0.002230 -0.000001 0.001447 0.000000
# 3 -0.007890 -0.002230 0.011354 0.000001 0.003173 0.000000
# 4 0.000000 -0.000001 0.000001 0.036811 0.000000 0.000705
# 5 -0.003952 0.001447 0.003173 0.000000 0.025113 0.000000
# 6 0.000000 0.000000 0.000000 0.000705 0.000000 0.042257
#
#
# Mechanical properties :
#
#
# Convention : Reuss Voigt Hill
#
# Bulk Modulus (GPa) = 71.25110 77.45238 74.35174
# Shear Modulus (GPa) = 27.07114 29.93651 28.50382
#
# Velocity S-wave (km/s) = 3.53204 3.71427 3.62430
# Velocity P-wave (km/s) = 7.03341 7.35440 7.19569
#
# Compressibility (1/GPa) = 0.01403487
#
# Stress axis : x y z
#
# Youngs Moduli (GPa) = 51.03785 71.48080 88.07602
#
# Poissons Ratio (x) = 0.38104 0.69496
# Poissons Ratio (y) = 0.27206 0.19640
# Poissons Ratio (z) = 0.40271 0.15940
#
# Static dielectric constant tensor:
#      x y z
#    x 4.361800 0.000000 -0.017690 
#    y 0.000000 3.755600 0.000000 
#    z -0.017690 0.000000 3.786420 
# 
# 
# High freq. dielectric constant tensor:
#      x y z
#    x 1.885810 0.000000 -0.002020 
#    y 0.000000 1.840080 0.000000 
#    z -0.002020 0.000000 1.849450 
# 
# From -- ./inp_files/372314.got.cif
#   From: 2010.06.25/outbox.cif.g09.slc.cpg/sg12_187_cif.got.tgz:372314.got - 2010.06.28 00:19:55.
