data_PCOD8111789
_publ_section_title
;
Structure prediction by ZEFSAII (Michael W. Deem and Ramdas Pophale) SiO2 
 PCOD8111789
Probable space group: C 2/M
;
_chemical_formula_sum "Si O2"
_cell_formula_units_Z 48
_cell_length_a 15.092369
_cell_length_b 8.520178
_cell_length_c 29.540678
_cell_angle_alpha 90.000000
_cell_angle_beta 139.862213
_cell_angle_gamma 90.000000
_cell_volume 2448.700562
_symmetry_space_group_name_H-M "C 2/M"
_symmetry_group_IT_number 12
_symmetry_cell_setting 'monoclinic'
loop_
_space_group_symop_operation_xyz
x,y,z
-x,y,-z
-x,-y,-z
x,-y,z
1/2+x,1/2+y,z
1/2-x,1/2+y,-z
1/2-x,1/2-y,-z
1/2+x,1/2-y,z
loop_
_atom_site_type_symbol
_atom_site_label
_atom_site_fract_x
_atom_site_fract_y
_atom_site_fract_z
Si Si1 0.893608 0.184150 0.573245
Si Si2 0.586881 0.313659 0.075871
Si Si3 0.888773 0.184762 0.075253
Si Si4 0.406266 0.183440 0.420645
Si Si5 0.380510 0.816446 0.666040
Si Si6 0.887926 0.685321 0.173253
O O1 0.750000 0.250000 0.500000
O O2 0.907497 0.216582 0.631683
O O3 0.017464 0.268951 0.595585
O O4 0.899492 0.000000 0.565856
O O5 0.588407 0.500000 0.073312
O O6 0.516840 0.256827 0.094908
O O7 0.742256 0.249115 0.134528
O O8 0.500000 0.244110 0.000000
O O9 0.920694 0.242206 0.137683
O O10 0.876305 0.000000 0.069526
O O11 0.750000 0.250000 0.000000
O O12 0.500000 0.227373 0.500000
O O13 0.266918 0.281171 0.369866
O O14 0.371112 0.000000 0.406087
O O15 0.494931 0.761527 0.746349
O O16 0.391800 0.000000 0.658894
O O17 0.883906 0.500000 0.165984
#
# Coordination Sequence:
#
# PCOD8111789 Si02
#       6
#     8   8   8   8   8   8
#     4  12  24  40  65  94 125 161 207 256 308 369
#     4   9  17  34  60  84 114 157 199 237 291 358
#     4  11  21  35  60  89 117 157 204 251 301 356
#     4  11  23  40  65  93 122 162 209 256 306 367
#     4  11  24  41  63  92 128 165 202 254 316 373
#     4  10  22  41  61  87 122 158 198 247 302 362
#
# _framework density 19.602232999999998
#
# number of rings (size 3 to 8) (size 9 to 14) (size 15 to 20)
#    0.000    1.333    3.333    3.000    0.000    3.333 
#    0.000    4.167    0.000    0.000    0.000    0.000 
#    0.000    0.000    0.000    0.000    0.000    0.000 
#
# Total GULP energy -297699.470774 kJ/mol
# GULP energy per Si atom -12404.144616 kJ/mol
# Density = 1.955762 g / cm^3
# Si number density = 19.602233 Si / 1000 Ang^3
#
#
#
# Elastic Constant Matrix: (Units=GPa)
#
#
# Indices 1 2 3 4 5 6 
#
# 1 167.5089 15.1128 75.8069 0.0000 -3.2208 0.0000
# 2 15.1128 45.9124 34.5709 0.0000 -3.1261 0.0000
# 3 75.8069 34.5709 146.8144 0.0000 1.8671 0.0000
# 4 0.0000 0.0000 0.0000 25.9616 0.0000 -6.0070
# 5 -3.2208 -3.1261 1.8671 0.0000 35.6041 0.0000
# 6 0.0000 0.0000 0.0000 -6.0070 0.0000 31.9011
#
#
#
# Elastic Compliance Matrix: (Units=1/GPa)
#
#
# Indices 1 2 3 4 5 6 
#
# 1 0.007837 0.000661 -0.004215 0.000000 0.000988 0.000000
# 2 0.000661 0.026783 -0.006683 0.000000 0.002762 0.000000
# 3 -0.004215 -0.006683 0.010581 0.000000 -0.001523 0.000000
# 4 0.000000 0.000000 0.000000 0.040273 0.000000 0.007583
# 5 0.000988 0.002762 -0.001523 0.000000 0.028498 0.000000
# 6 0.000000 0.000000 0.000000 0.007583 0.000000 0.032775
#
#
# Mechanical properties :
#
#
# Convention : Reuss Voigt Hill
#
# Bulk Modulus (GPa) = 40.44141 67.91299 54.17720
# Shear Modulus (GPa) = 28.49609 34.34302 31.41955
#
# Velocity S-wave (km/s) = 3.81690 4.19023 4.00791
# Velocity P-wave (km/s) = 6.33252 7.62439 7.00829
#
# Compressibility (1/GPa) = 0.02472713
#
# Stress axis : x y z
#
# Youngs Moduli (GPa) = 127.60766 37.33661 94.51222
#
# Poissons Ratio (x) = -0.02469 0.39833
# Poissons Ratio (y) = -0.08438 0.63166
# Poissons Ratio (z) = 0.53782 0.24953
#
# Static dielectric constant tensor:
#      x y z
#    x 3.905430 0.000000 -0.017690 
#    y 0.000000 3.030000 0.000000 
#    z -0.017690 0.000000 3.793770 
# 
# 
# High freq. dielectric constant tensor:
#      x y z
#    x 1.783050 0.000000 0.000120 
#    y 0.000000 1.755680 0.000000 
#    z 0.000120 0.000000 1.763260 
# 
# From -- ./inp_files/360308.got.cif
#   From: 2010.06.25/outbox.cif.g09.slc.cpg/sg12_181_cif.got.tgz:360308.got - 2010.06.28 00:19:55.
