data_PCOD8111191
_publ_section_title
;
Structure prediction by ZEFSAII (Michael W. Deem and Ramdas Pophale) SiO2 
 PCOD8111191
Probable space group: C 2/M
;
_chemical_formula_sum "Si O2"
_cell_formula_units_Z 48
_cell_length_a 14.570712
_cell_length_b 15.643674
_cell_length_c 12.556655
_cell_angle_alpha 90.000000
_cell_angle_beta 59.580352
_cell_angle_gamma 90.000000
_cell_volume 2468.152950
_symmetry_space_group_name_H-M "C 2/M"
_symmetry_group_IT_number 12
_symmetry_cell_setting 'monoclinic'
loop_
_space_group_symop_operation_xyz
x,y,z
-x,y,-z
-x,-y,-z
x,-y,z
1/2+x,1/2+y,z
1/2-x,1/2+y,-z
1/2-x,1/2-y,-z
1/2+x,1/2-y,z
loop_
_atom_site_type_symbol
_atom_site_label
_atom_site_fract_x
_atom_site_fract_y
_atom_site_fract_z
Si Si1 0.720687 0.651568 0.501864
Si Si2 0.582212 0.274959 0.039379
Si Si3 0.185984 0.323041 0.166125
Si Si4 0.984097 0.900980 0.257932
Si Si5 0.614450 0.000000 0.292865
Si Si6 0.099309 0.812247 0.373871
Si Si7 0.132333 0.500000 0.529275
O O1 0.750000 0.750000 0.500000
O O2 0.634305 0.627177 0.641318
O O3 0.678334 0.638818 0.406863
O O4 0.819151 0.587517 0.453092
O O5 0.615152 0.202818 0.105255
O O6 0.519867 0.352242 0.131529
O O7 0.500000 0.236259 0.000000
O O8 0.688833 0.311351 0.924090
O O9 0.162874 0.420730 0.201961
O O10 0.154235 0.268836 0.288151
O O11 0.064761 0.881482 0.306931
O O12 0.986855 0.000000 0.229570
O O13 0.651240 0.000000 0.392632
O O14 0.487937 0.000000 0.361776
O O15 0.000000 0.775784 0.500000
#
# Coordination Sequence:
#
# PCOD8111191 Si02
#       7
#     8   8   8   8   4   8   4
#     4  11  23  37  62  92 126 157 203 245 304 367
#     4  10  24  41  66  88 117 158 214 254 301 357
#     4  10  23  44  61  90 120 168 200 251 307 360
#     4  10  22  39  61  92 122 153 201 253 305 356
#     4  11  26  40  61  81 136 155 200 248 303 366
#     4   9  21  37  64  86 123 160 195 248 306 359
#     4  11  26  38  58  98 121 166 200 242 306 375
#
# _framework density 19.447741000000001
#
# number of rings (size 3 to 8) (size 9 to 14) (size 15 to 20)
#    0.000    1.833    0.833    1.000   16.333    1.333 
#    0.000    0.417    0.000    0.000    0.000    0.000 
#    0.000    0.000    0.000    0.000    0.000    0.000 
#
# Total GULP energy -297664.044891 kJ/mol
# GULP energy per Si atom -12402.668537 kJ/mol
# Density = 1.940348 g / cm^3
# Si number density = 19.447741 Si / 1000 Ang^3
#
#
#
# Elastic Constant Matrix: (Units=GPa)
#
#
# Indices 1 2 3 4 5 6 
#
# 1 115.4570 32.9408 38.4949 0.0000 6.3642 0.0000
# 2 32.9408 113.6748 31.9145 0.0000 -6.5429 0.0000
# 3 38.4949 31.9145 105.4430 0.0000 -1.1218 0.0000
# 4 0.0000 0.0000 0.0000 63.8449 0.0000 -23.3689
# 5 6.3642 -6.5429 -1.1218 0.0000 20.3583 0.0000
# 6 0.0000 0.0000 0.0000 -23.3689 0.0000 33.8641
#
#
#
# Elastic Compliance Matrix: (Units=1/GPa)
#
#
# Indices 1 2 3 4 5 6 
#
# 1 0.010660 -0.002438 -0.003200 0.000000 -0.004292 0.000000
# 2 -0.002438 0.010350 -0.002200 0.000000 0.003967 0.000000
# 3 -0.003200 -0.002200 0.011328 0.000000 0.000917 0.000000
# 4 0.000000 0.000000 0.000000 0.020956 0.000000 0.014461
# 5 -0.004292 0.003967 0.000917 0.000000 0.051787 0.000000
# 6 0.000000 0.000000 0.000000 0.014461 0.000000 0.039509
#
#
# Mechanical properties :
#
#
# Convention : Reuss Voigt Hill
#
# Bulk Modulus (GPa) = 60.01741 60.14171 60.07956
# Shear Modulus (GPa) = 30.15323 39.02842 34.59083
#
# Velocity S-wave (km/s) = 3.94188 4.48463 4.22199
# Velocity P-wave (km/s) = 7.18650 7.60314 7.39775
#
# Compressibility (1/GPa) = 0.01666183
#
# Stress axis : x y z
#
# Youngs Moduli (GPa) = 93.80712 96.62257 88.27984
#
# Poissons Ratio (x) = 0.23555 0.28246
# Poissons Ratio (y) = 0.22869 0.19424
# Poissons Ratio (z) = 0.30014 0.21260
#
# Static dielectric constant tensor:
#      x y z
#    x 3.808370 0.000000 0.069210 
#    y 0.000000 3.412170 0.000000 
#    z 0.069210 0.000000 3.741110 
# 
# 
# High freq. dielectric constant tensor:
#      x y z
#    x 1.771210 0.000000 0.000190 
#    y 0.000000 1.750250 0.000000 
#    z 0.000190 0.000000 1.764740 
# 
# From -- ./inp_files/143611.got.cif
#   From: 2010.06.25/outbox.cif.g09.slc.cpg/sg12_72_cif.got.tgz:143611.got - 2010.06.28 00:19:55.
