data_PCOD8111265
_publ_section_title
;
Structure prediction by ZEFSAII (Michael W. Deem and Ramdas Pophale) SiO2 
 PCOD8111265
Probable space group: C 2/M
;
_chemical_formula_sum "Si O2"
_cell_formula_units_Z 64
_cell_length_a 26.960764
_cell_length_b 15.185748
_cell_length_c 19.305494
_cell_angle_alpha 90.000000
_cell_angle_beta 157.846792
_cell_angle_gamma 90.000000
_cell_volume 2980.492366
_symmetry_space_group_name_H-M "C 2/M"
_symmetry_group_IT_number 12
_symmetry_cell_setting 'monoclinic'
loop_
_space_group_symop_operation_xyz
x,y,z
-x,y,-z
-x,-y,-z
x,-y,z
1/2+x,1/2+y,z
1/2-x,1/2+y,-z
1/2-x,1/2-y,-z
1/2+x,1/2-y,z
loop_
_atom_site_type_symbol
_atom_site_label
_atom_site_fract_x
_atom_site_fract_y
_atom_site_fract_z
Si Si1 0.313289 0.900084 0.117580
Si Si2 0.019465 0.399632 0.793697
Si Si3 0.741878 0.399190 0.478850
Si Si4 0.444780 0.600568 0.299471
Si Si5 0.143799 0.333219 0.085543
Si Si6 0.918395 0.796040 0.832201
Si Si7 0.365520 0.752943 0.294590
Si Si8 0.277910 0.656260 0.390832
O O1 0.407583 0.859584 0.179076
O O2 0.314890 0.830907 0.180952
O O3 0.355769 0.000000 0.194382
O O4 0.163308 0.903751 0.899766
O O5 0.993307 0.500000 0.742716
O O6 0.877457 0.354628 0.625479
O O7 0.117155 0.395848 0.985803
O O8 0.737744 0.500000 0.452812
O O9 0.615023 0.356745 0.277050
O O10 0.740011 0.392041 0.559225
O O11 0.479924 0.500000 0.368510
O O12 0.389509 0.657363 0.291382
O O13 0.569308 0.652665 0.430081
O O14 0.256196 0.261502 0.212178
O O15 0.194057 0.387642 0.218471
O O16 0.006575 0.285451 0.922596
O O17 0.779167 0.756240 0.679355
O O18 0.000000 0.845642 0.000000
O O19 0.500000 0.789218 0.500000
#
# Coordination Sequence:
#
# PCOD8111265 Si02
#       8
#     8   8   8   8   8   8   8   8
#     4  10  24  43  66  94 127 170 222 271 322 387
#     4  10  22  39  63  93 125 167 214 265 325 389
#     4  11  24  40  64  96 127 168 214 264 326 382
#     4  11  24  41  64  95 128 166 213 264 324 391
#     4  11  23  41  63  94 125 169 218 260 320 394
#     4  10  24  42  65  90 126 169 216 266 316 380
#     4  12  25  42  65  95 129 170 214 269 329 389
#     4  11  23  41  62  92 128 166 209 263 319 382
#
# _framework density 21.472961999999999
#
# number of rings (size 3 to 8) (size 9 to 14) (size 15 to 20)
#    0.000    1.250    3.750    1.125    3.500    1.750 
#    0.000    1.250    0.000    0.750    0.000    0.000 
#    0.000    0.000    0.000    0.000    0.000    0.000 
#
# Total GULP energy -396543.962228 kJ/mol
# GULP energy per Si atom -12391.998820 kJ/mol
# Density = 2.142409 g / cm^3
# Si number density = 21.472962 Si / 1000 Ang^3
#
#
#
# Elastic Constant Matrix: (Units=GPa)
#
#
# Indices 1 2 3 4 5 6 
#
# 1 91.0616 34.7210 43.5980 0.0000 0.0634 -0.0001
# 2 34.7210 65.5877 35.6262 -0.0001 -9.0444 -0.0001
# 3 43.5980 35.6262 112.8756 -0.0001 -4.5871 -0.0002
# 4 0.0000 -0.0001 -0.0001 14.6638 -0.0001 5.6970
# 5 0.0634 -9.0444 -4.5871 -0.0001 39.0598 -0.0001
# 6 -0.0001 -0.0001 -0.0002 5.6970 -0.0001 12.8169
#
#
#
# Elastic Compliance Matrix: (Units=1/GPa)
#
#
# Indices 1 2 3 4 5 6 
#
# 1 0.015259 -0.006154 -0.004029 0.000000 -0.001923 0.000000
# 2 -0.006154 0.021400 -0.004196 0.000000 0.004473 0.000000
# 3 -0.004029 -0.004196 0.011757 0.000000 0.000416 0.000000
# 4 0.000000 0.000000 0.000000 0.082430 0.000000 -0.036639
# 5 -0.001923 0.004473 0.000416 0.000000 0.026689 0.000000
# 6 0.000000 0.000000 0.000000 -0.036639 0.000000 0.094308
#
#
# Mechanical properties :
#
#
# Convention : Reuss Voigt Hill
#
# Bulk Modulus (GPa) = 50.87130 55.26838 53.06984
# Shear Modulus (GPa) = 17.41228 23.68008 20.54618
#
# Velocity S-wave (km/s) = 2.85071 3.32442 3.09664
# Velocity P-wave (km/s) = 5.88028 6.36633 6.12813
#
# Compressibility (1/GPa) = 0.01965745
#
# Stress axis : x y z
#
# Youngs Moduli (GPa) = 65.53682 46.72803 85.05715
#
# Poissons Ratio (x) = 0.28757 0.34273
# Poissons Ratio (y) = 0.40332 0.35687
# Poissons Ratio (z) = 0.26407 0.19606
#
# Static dielectric constant tensor:
#      x y z
#    x 4.044800 0.000000 0.089210 
#    y 0.000000 3.516080 0.000000 
#    z 0.089210 0.000000 4.261640 
# 
# 
# High freq. dielectric constant tensor:
#      x y z
#    x 1.849770 0.000000 0.005360 
#    y 0.000000 1.808370 0.000000 
#    z 0.005360 0.000000 1.859330 
# 
# From -- ./inp_files/330383.got.cif
#   From: 2010.06.25/outbox.cif.g09.slc.cpg/sg12_166_cif.got.tgz:330383.got - 2010.06.28 00:19:55.
