data_PCOD8111431
_publ_section_title
;
Structure prediction by ZEFSAII (Michael W. Deem and Ramdas Pophale) SiO2 
 PCOD8111431
Probable space group: C 2/M
;
_chemical_formula_sum "Si O2"
_cell_formula_units_Z 48
_cell_length_a 24.546023
_cell_length_b 8.923042
_cell_length_c 19.509311
_cell_angle_alpha 90.000000
_cell_angle_beta 146.711647
_cell_angle_gamma 90.000000
_cell_volume 2345.265274
_symmetry_space_group_name_H-M "C 2/M"
_symmetry_group_IT_number 12
_symmetry_cell_setting 'monoclinic'
loop_
_space_group_symop_operation_xyz
x,y,z
-x,y,-z
-x,-y,-z
x,-y,z
1/2+x,1/2+y,z
1/2-x,1/2+y,-z
1/2-x,1/2-y,-z
1/2+x,1/2-y,z
loop_
_atom_site_type_symbol
_atom_site_label
_atom_site_fract_x
_atom_site_fract_y
_atom_site_fract_z
Si Si1 0.912273 0.822502 0.360087
Si Si2 0.807391 0.326269 0.846479
Si Si3 0.301493 0.170920 0.491094
Si Si4 0.453136 0.826863 0.118810
Si Si5 0.619421 0.329855 0.205506
Si Si6 0.990956 0.823070 0.297469
O O1 0.804775 0.761492 0.270877
O O2 0.000000 0.753909 0.500000
O O3 0.927296 0.776830 0.296869
O O4 0.912829 0.000000 0.367988
O O5 0.809046 0.500000 0.826771
O O6 0.877426 0.237346 0.867444
O O7 0.853492 0.303273 0.970253
O O8 0.250000 0.250000 0.500000
O O9 0.230753 0.178762 0.351083
O O10 0.400277 0.258349 0.576110
O O11 0.326219 0.000000 0.537072
O O12 0.548281 0.763654 0.179621
O O13 0.437789 0.743697 0.174712
O O14 0.473916 0.000000 0.155388
O O15 0.580433 0.500000 0.161302
O O16 0.999894 0.000000 0.297805
#
# Coordination Sequence:
#
# PCOD8111431 Si02
#       6
#     8   8   8   8   8   8
#     4   9  19  38  63  88 115 151 195 244 296 353
#     4  10  22  40  61  86 116 157 204 242 290 357
#     4  11  22  36  57  86 119 154 192 238 295 351
#     4  11  23  38  58  85 120 159 198 244 297 354
#     4  11  23  38  59  88 120 154 196 246 299 353
#     4  11  22  37  61  90 119 155 199 246 294 349
#
# _framework density 20.466767000000001
#
# number of rings (size 3 to 8) (size 9 to 14) (size 15 to 20)
#    0.000    1.500    1.667    3.500    0.000    7.333 
#    0.000    1.667    0.000    4.500    0.000    0.000 
#    0.000    0.000    0.000    0.000    0.000    0.000 
#
# Total GULP energy -297685.816648 kJ/mol
# GULP energy per Si atom -12403.575694 kJ/mol
# Density = 2.042018 g / cm^3
# Si number density = 20.466767 Si / 1000 Ang^3
#
#
#
# Elastic Constant Matrix: (Units=GPa)
#
#
# Indices 1 2 3 4 5 6 
#
# 1 113.3800 42.8725 30.1789 0.0000 -12.4636 0.0000
# 2 42.8725 103.2039 29.2211 0.0000 -10.7641 0.0000
# 3 30.1789 29.2211 93.5459 0.0000 -7.8729 0.0000
# 4 0.0000 0.0000 0.0000 29.2032 0.0000 -7.2447
# 5 -12.4636 -10.7641 -7.8729 0.0000 32.0372 0.0000
# 6 0.0000 0.0000 0.0000 -7.2447 0.0000 26.4189
#
#
#
# Elastic Compliance Matrix: (Units=1/GPa)
#
#
# Indices 1 2 3 4 5 6 
#
# 1 0.011090 -0.003720 -0.002203 0.000000 0.002523 0.000000
# 2 -0.003720 0.012132 -0.002418 0.000000 0.002035 0.000000
# 3 -0.002203 -0.002418 0.012269 0.000000 0.001345 0.000000
# 4 0.000000 0.000000 0.000000 0.036742 0.000000 0.010076
# 5 0.002523 0.002035 0.001345 0.000000 0.033210 0.000000
# 6 0.000000 0.000000 0.000000 0.010076 0.000000 0.040615
#
#
# Mechanical properties :
#
#
# Convention : Reuss Voigt Hill
#
# Bulk Modulus (GPa) = 53.16873 57.18609 55.17741
# Shear Modulus (GPa) = 29.58380 31.38900 30.48640
#
# Velocity S-wave (km/s) = 3.80604 3.92044 3.86366
# Velocity P-wave (km/s) = 6.73417 6.96382 6.84996
#
# Compressibility (1/GPa) = 0.01880805
#
# Stress axis : x y z
#
# Youngs Moduli (GPa) = 90.16755 82.42757 81.50331
#
# Poissons Ratio (x) = 0.30664 0.17959
# Poissons Ratio (y) = 0.33543 0.19710
# Poissons Ratio (z) = 0.19868 0.19933
#
# Static dielectric constant tensor:
#      x y z
#    x 3.654750 0.000000 -0.045710 
#    y 0.000000 3.883100 0.000000 
#    z -0.045710 0.000000 3.940270 
# 
# 
# High freq. dielectric constant tensor:
#      x y z
#    x 1.800250 0.000000 -0.007460 
#    y 0.000000 1.790320 0.000000 
#    z -0.007460 0.000000 1.812680 
# 
# From -- ./inp_files/327308.got.cif
#   From: 2010.06.25/outbox.cif.g09.slc.cpg/sg12_164_cif.got.tgz:327308.got - 2010.06.28 00:19:55.
