data_PCOD8111605
_publ_section_title
;
Structure prediction by ZEFSAII (Michael W. Deem and Ramdas Pophale) SiO2 
 PCOD8111605
Probable space group: C 2/M
;
_chemical_formula_sum "Si O2"
_cell_formula_units_Z 56
_cell_length_a 24.920641
_cell_length_b 8.594208
_cell_length_c 14.434756
_cell_angle_alpha 90.000000
_cell_angle_beta 121.284108
_cell_angle_gamma 90.000000
_cell_volume 2642.036883
_symmetry_space_group_name_H-M "C 2/M"
_symmetry_group_IT_number 12
_symmetry_cell_setting 'monoclinic'
loop_
_space_group_symop_operation_xyz
x,y,z
-x,y,-z
-x,-y,-z
x,-y,z
1/2+x,1/2+y,z
1/2-x,1/2+y,-z
1/2-x,1/2-y,-z
1/2+x,1/2-y,z
loop_
_atom_site_type_symbol
_atom_site_label
_atom_site_fract_x
_atom_site_fract_y
_atom_site_fract_z
Si Si1 0.148788 0.321365 0.492729
Si Si2 0.706090 0.682542 0.881570
Si Si3 0.752596 0.180098 0.734733
Si Si4 0.073118 0.680976 0.810121
Si Si5 0.519393 0.678497 0.414136
Si Si6 0.507842 0.317618 0.112693
Si Si7 0.138816 0.321046 0.274443
O O1 0.128200 0.500000 0.490404
O O2 0.207563 0.276368 0.609030
O O3 0.167075 0.293587 0.402166
O O4 0.093040 0.207496 0.471222
O O5 0.700538 0.500000 0.890157
O O6 0.734928 0.718483 0.807468
O O7 0.637547 0.755776 0.826876
O O8 0.750000 0.750000 0.000000
O O9 0.823157 0.219580 0.766107
O O10 0.748407 0.000000 0.758667
O O11 0.080063 0.500000 0.837590
O O12 0.018528 0.708109 0.686864
O O13 0.055142 0.767859 0.889453
O O14 0.500000 0.719129 0.500000
O O15 0.504166 0.500000 0.374591
O O16 0.519177 0.500000 0.132652
O O17 0.566467 0.229578 0.210498
O O18 0.500000 0.265841 0.000000
O O19 0.143996 0.500000 0.249718
#
# Coordination Sequence:
#
# PCOD8111605 Si02
#       7
#     8   8   8   8   8   8   8
#     4  10  22  40  63  95 132 173 218 268 326 387
#     4  12  27  48  71  97 130 171 221 273 328 390
#     4  11  24  43  67  97 135 177 221 270 327 390
#     4  12  25  44  69  98 133 171 216 270 327 390
#     4  11  23  38  62  95 131 173 218 267 323 386
#     4  11  25  44  68  98 132 173 221 273 328 389
#     4  11  23  41  66  99 135 175 222 270 326 390
#
# _framework density 21.195768999999999
#
# number of rings (size 3 to 8) (size 9 to 14) (size 15 to 20)
#    0.000    0.857    1.429    5.571    2.000    6.286 
#    0.000    0.000    0.000    0.000    0.000    0.000 
#    0.000    0.000    0.000    0.000    0.000    0.000 
#
# Total GULP energy -347431.000396 kJ/mol
# GULP energy per Si atom -12408.250014 kJ/mol
# Density = 2.114753 g / cm^3
# Si number density = 21.195769 Si / 1000 Ang^3
#
#
#
# Elastic Constant Matrix: (Units=GPa)
#
#
# Indices 1 2 3 4 5 6 
#
# 1 114.3770 17.8641 20.3236 0.0000 -11.6735 0.0000
# 2 17.8641 74.0608 38.7130 0.0000 -5.6853 0.0000
# 3 20.3236 38.7130 84.7168 0.0000 -15.5219 0.0000
# 4 0.0000 0.0000 0.0000 21.0705 0.0000 6.5851
# 5 -11.6735 -5.6853 -15.5219 0.0000 36.4859 0.0000
# 6 0.0000 0.0000 0.0000 6.5851 0.0000 38.1286
#
#
#
# Elastic Compliance Matrix: (Units=1/GPa)
#
#
# Indices 1 2 3 4 5 6 
#
# 1 0.009415 -0.001490 -0.001159 0.000000 0.002287 0.000000
# 2 -0.001490 0.017994 -0.008068 0.000000 -0.001105 0.000000
# 3 -0.001159 -0.008068 0.016778 0.000000 0.005510 0.000000
# 4 0.000000 0.000000 0.000000 0.050167 0.000000 -0.008664
# 5 0.002287 -0.001105 0.005510 0.000000 0.030311 0.000000
# 6 0.000000 0.000000 0.000000 -0.008664 0.000000 0.027723
#
#
# Mechanical properties :
#
#
# Convention : Reuss Voigt Hill
#
# Bulk Modulus (GPa) = 43.94692 47.43957 45.69324
# Shear Modulus (GPa) = 27.56223 32.22059 29.89141
#
# Velocity S-wave (km/s) = 3.60997 3.90313 3.75941
# Velocity P-wave (km/s) = 6.17695 6.53780 6.35993
#
# Compressibility (1/GPa) = 0.02275473
#
# Stress axis : x y z
#
# Youngs Moduli (GPa) = 106.21312 55.57360 59.60055
#
# Poissons Ratio (x) = 0.08278 0.06907
# Poissons Ratio (y) = 0.15822 0.48085
# Poissons Ratio (z) = 0.12309 0.44836
#
# Static dielectric constant tensor:
#      x y z
#    x 4.099430 0.000000 -0.116910 
#    y 0.000000 3.873580 0.000000 
#    z -0.116910 0.000000 3.879210 
# 
# 
# High freq. dielectric constant tensor:
#      x y z
#    x 1.843850 0.000000 -0.007010 
#    y 0.000000 1.839350 0.000000 
#    z -0.007010 0.000000 1.836870 
# 
# From -- ./inp_files/238917.got.cif
#   From: 2010.06.25/outbox.cif.g09.slc.cpg/sg12_120_cif.got.tgz:238917.got - 2010.06.28 00:19:55.
