data_PCOD8111993
_publ_section_title
;
Structure prediction by ZEFSAII (Michael W. Deem and Ramdas Pophale) SiO2 
 PCOD8111993
Probable space group: C 2/M
;
_chemical_formula_sum "Si O2"
_cell_formula_units_Z 36
_cell_length_a 12.132267
_cell_length_b 25.017326
_cell_length_c 6.540826
_cell_angle_alpha 90.000000
_cell_angle_beta 68.424646
_cell_angle_gamma 90.000000
_cell_volume 1846.153977
_symmetry_space_group_name_H-M "C 2/M"
_symmetry_group_IT_number 12
_symmetry_cell_setting 'monoclinic'
loop_
_space_group_symop_operation_xyz
x,y,z
-x,y,-z
-x,-y,-z
x,-y,z
1/2+x,1/2+y,z
1/2-x,1/2+y,-z
1/2-x,1/2-y,-z
1/2+x,1/2-y,z
loop_
_atom_site_type_symbol
_atom_site_label
_atom_site_fract_x
_atom_site_fract_y
_atom_site_fract_z
Si Si1 0.834903 0.774858 0.777236
Si Si2 0.500000 0.187389 0.500000
Si Si3 0.876374 0.870932 0.005611
Si Si4 0.234013 0.349413 0.501313
Si Si5 0.862917 0.061827 0.650135
O O1 0.772997 0.797864 0.611449
O O2 0.922953 0.726325 0.689519
O O3 0.750000 0.750000 0.000000
O O4 0.906731 0.824004 0.824486
O O5 0.409510 0.151469 0.425616
O O6 0.788679 0.847323 0.235820
O O7 0.827334 0.920799 0.905940
O O8 0.000000 0.892986 0.000000
O O9 0.274732 0.405841 0.563224
O O10 0.000000 0.074493 0.500000
O O11 0.833924 0.000000 0.639698
#
# Coordination Sequence:
#
# PCOD8111993 Si02
#       5
#     8   4   8   8   8
#     4  11  24  38  59  90 129 171 206 248 300 372
#     4  12  24  40  63  90 131 172 208 250 310 374
#     4  11  21  37  61  90 127 160 206 262 309 372
#     4  11  24  42  59  95 127 161 214 258 307 379
#     4  10  22  41  65  93 124 159 209 272 322 367
#
# _framework density 19.499995999999999
#
# number of rings (size 3 to 8) (size 9 to 14) (size 15 to 20)
#    0.000    1.111    4.444    2.000    6.222    1.333 
#    0.000    0.556    0.000    1.333    0.000    0.000 
#    0.000    0.000    0.000    0.000    0.000    0.000 
#
# Total GULP energy -223013.539772 kJ/mol
# GULP energy per Si atom -12389.641098 kJ/mol
# Density = 1.945561 g / cm^3
# Si number density = 19.499996 Si / 1000 Ang^3
#
#
#
# Elastic Constant Matrix: (Units=GPa)
#
#
# Indices 1 2 3 4 5 6 
#
# 1 146.3692 68.6390 48.5529 0.0000 6.1185 0.0000
# 2 68.6390 130.5512 46.5087 0.0000 9.2401 0.0000
# 3 48.5529 46.5087 119.6183 0.0000 1.5264 0.0000
# 4 0.0000 0.0000 0.0000 26.1344 0.0000 3.5386
# 5 6.1185 9.2401 1.5264 0.0000 32.1265 0.0000
# 6 0.0000 0.0000 0.0000 3.5386 0.0000 30.1914
#
#
#
# Elastic Compliance Matrix: (Units=1/GPa)
#
#
# Indices 1 2 3 4 5 6 
#
# 1 0.009564 -0.004193 -0.002246 0.000000 -0.000509 0.000000
# 2 -0.004193 0.010917 -0.002515 0.000000 -0.002222 0.000000
# 3 -0.002246 -0.002515 0.010241 0.000000 0.000664 0.000000
# 4 0.000000 0.000000 0.000000 0.038881 0.000000 -0.004557
# 5 -0.000509 -0.002222 0.000664 0.000000 0.031831 0.000000
# 6 0.000000 0.000000 0.000000 -0.004557 0.000000 0.033656
#
#
# Mechanical properties :
#
#
# Convention : Reuss Voigt Hill
#
# Bulk Modulus (GPa) = 78.02309 80.43777 79.23043
# Shear Modulus (GPa) = 31.79286 33.21299 32.50292
#
# Velocity S-wave (km/s) = 4.04221 4.13150 4.08710
# Velocity P-wave (km/s) = 7.86668 8.00617 7.93673
#
# Compressibility (1/GPa) = 0.01281672
#
# Stress axis : x y z
#
# Youngs Moduli (GPa) = 104.55591 91.59851 97.65045
#
# Poissons Ratio (x) = 0.38403 0.21928
# Poissons Ratio (y) = 0.43836 0.24555
# Poissons Ratio (z) = 0.23478 0.23033
#
# Static dielectric constant tensor:
#      x y z
#    x 3.387490 0.000000 0.348970 
#    y 0.000000 3.581760 0.000000 
#    z 0.348970 0.000000 3.689330 
# 
# 
# High freq. dielectric constant tensor:
#      x y z
#    x 1.747870 0.000000 0.015990 
#    y 0.000000 1.753640 0.000000 
#    z 0.015990 0.000000 1.769410 
# 
# From -- ./inp_files/7404.got.cif
#   From: 2010.06.25/outbox.cif.g09.slc.cpg/sg12_4_cif.got.tgz:7404.got - 2010.06.28 00:19:55.
