data_PCOD8111291
_publ_section_title
;
Structure prediction by ZEFSAII (Michael W. Deem and Ramdas Pophale) SiO2 
 PCOD8111291
Probable space group: C 2/M
;
_chemical_formula_sum "Si O2"
_cell_formula_units_Z 64
_cell_length_a 24.034055
_cell_length_b 20.999080
_cell_length_c 17.492653
_cell_angle_alpha 90.000000
_cell_angle_beta 160.237618
_cell_angle_gamma 90.000000
_cell_volume 2985.066389
_symmetry_space_group_name_H-M "C 2/M"
_symmetry_group_IT_number 12
_symmetry_cell_setting 'monoclinic'
loop_
_space_group_symop_operation_xyz
x,y,z
-x,y,-z
-x,-y,-z
x,-y,z
1/2+x,1/2+y,z
1/2-x,1/2+y,-z
1/2-x,1/2-y,-z
1/2+x,1/2-y,z
loop_
_atom_site_type_symbol
_atom_site_label
_atom_site_fract_x
_atom_site_fract_y
_atom_site_fract_z
Si Si1 0.653254 0.669434 0.538232
Si Si2 0.454794 0.072564 0.707370
Si Si3 0.853445 0.234372 0.207867
Si Si4 0.108052 0.764554 0.209531
Si Si5 0.753439 0.072836 0.827991
Si Si6 0.999103 0.368890 0.393079
Si Si7 0.379730 0.382505 0.667615
Si Si8 0.364627 0.162926 0.952788
O O1 0.473731 0.676562 0.342625
O O2 0.716783 0.740393 0.596624
O O3 0.640845 0.622722 0.450063
O O4 0.770394 0.639787 0.754850
O O5 0.480874 0.120479 0.670702
O O6 0.264676 0.072624 0.487724
O O7 0.502891 0.000000 0.749616
O O8 0.578523 0.098787 0.931710
O O9 0.744495 0.211323 0.137916
O O10 0.954336 0.297398 0.360345
O O11 0.750000 0.250000 0.000000
O O12 0.136629 0.813946 0.313951
O O13 0.000000 0.793743 0.000000
O O14 0.027039 0.701075 0.139209
O O15 0.648489 0.085392 0.768956
O O16 0.674708 0.114955 0.658513
O O17 0.736062 0.000000 0.781131
O O18 0.943988 0.088380 0.085243
#
# Coordination Sequence:
#
# PCOD8111291 Si02
#       8
#     8   8   8   8   8   8   8   8
#     4  11  24  41  64  96 136 169 211 281 339 394
#     4  12  26  45  68  95 133 182 232 275 327 393
#     4  12  23  40  69 105 133 164 210 279 344 404
#     4  10  22  39  64  95 131 167 209 275 342 397
#     4  11  25  44  65  94 137 180 225 269 323 405
#     4  11  24  43  69  98 133 176 218 274 341 400
#     4  12  25  41  66 100 133 178 224 274 334 396
#     4  11  24  43  66  98 137 169 223 275 336 400
#
# _framework density 21.440059999999999
#
# number of rings (size 3 to 8) (size 9 to 14) (size 15 to 20)
#    0.000    0.750    2.500    5.625    8.750    0.000 
#    0.000    3.125    0.000    1.500    0.000    0.000 
#    0.000    0.000    0.000    0.000    0.000    0.000 
#
# Total GULP energy -396909.414937 kJ/mol
# GULP energy per Si atom -12403.419217 kJ/mol
# Density = 2.139126 g / cm^3
# Si number density = 21.440060 Si / 1000 Ang^3
#
#
#
# Elastic Constant Matrix: (Units=GPa)
#
#
# Indices 1 2 3 4 5 6 
#
# 1 97.1247 18.9782 40.9464 0.0000 -14.8464 0.0000
# 2 18.9782 71.1907 26.9844 0.0000 -3.5886 0.0000
# 3 40.9464 26.9844 107.8094 0.0000 -0.9112 0.0000
# 4 0.0000 0.0000 0.0000 23.7819 0.0000 -0.4581
# 5 -14.8464 -3.5886 -0.9112 0.0000 35.2904 0.0000
# 6 0.0000 0.0000 0.0000 -0.4581 0.0000 24.5955
#
#
#
# Elastic Compliance Matrix: (Units=1/GPa)
#
#
# Indices 1 2 3 4 5 6 
#
# 1 0.013374 -0.001533 -0.004651 0.000000 0.005350 0.000000
# 2 -0.001533 0.015772 -0.003358 0.000000 0.000872 0.000000
# 3 -0.004651 -0.003358 0.011866 0.000000 -0.001992 0.000000
# 4 0.000000 0.000000 0.000000 0.042064 0.000000 0.000783
# 5 0.005350 0.000872 -0.001992 0.000000 0.030624 0.000000
# 6 0.000000 0.000000 0.000000 0.000783 0.000000 0.040672
#
#
# Mechanical properties :
#
#
# Convention : Reuss Voigt Hill
#
# Bulk Modulus (GPa) = 45.60236 49.99366 47.79801
# Shear Modulus (GPa) = 27.66013 29.34795 28.50404
#
# Velocity S-wave (km/s) = 3.59571 3.70379 3.65015
# Velocity P-wave (km/s) = 6.20925 6.45440 6.33301
#
# Compressibility (1/GPa) = 0.02192869
#
# Stress axis : x y z
#
# Youngs Moduli (GPa) = 74.77171 63.40236 84.27669
#
# Poissons Ratio (x) = 0.09718 0.39194
# Poissons Ratio (y) = 0.11461 0.28302
# Poissons Ratio (z) = 0.34774 0.21292
#
# Static dielectric constant tensor:
#      x y z
#    x 4.087110 0.000000 0.081280 
#    y 0.000000 3.548990 0.000000 
#    z 0.081280 0.000000 4.077590 
# 
# 
# High freq. dielectric constant tensor:
#      x y z
#    x 1.858280 0.000000 0.001870 
#    y 0.000000 1.809020 0.000000 
#    z 0.001870 0.000000 1.857540 
# 
# From -- ./inp_files/290950.got.cif
#   From: 2010.06.25/outbox.cif.g09.slc.cpg/sg12_146_cif.got.tgz:290950.got - 2010.06.28 00:19:55.
