data_PCOD8111838
_publ_section_title
;
Structure prediction by ZEFSAII (Michael W. Deem and Ramdas Pophale) SiO2 
 PCOD8111838
Probable space group: C 2/M
;
_chemical_formula_sum "Si O2"
_cell_formula_units_Z 48
_cell_length_a 30.317859
_cell_length_b 14.488452
_cell_length_c 13.458206
_cell_angle_alpha 90.000000
_cell_angle_beta 155.664466
_cell_angle_gamma 90.000000
_cell_volume 2436.064124
_symmetry_space_group_name_H-M "C 2/M"
_symmetry_group_IT_number 12
_symmetry_cell_setting 'monoclinic'
loop_
_space_group_symop_operation_xyz
x,y,z
-x,y,-z
-x,-y,-z
x,-y,z
1/2+x,1/2+y,z
1/2-x,1/2+y,-z
1/2-x,1/2-y,-z
1/2+x,1/2-y,z
loop_
_atom_site_type_symbol
_atom_site_label
_atom_site_fract_x
_atom_site_fract_y
_atom_site_fract_z
Si Si1 0.390180 0.747439 0.523315
Si Si2 0.273915 0.098394 0.168503
Si Si3 0.493877 0.105668 0.103739
Si Si4 0.890938 0.634668 0.225726
Si Si5 0.293325 0.898263 0.817366
Si Si6 0.947758 0.165111 0.296422
O O1 0.344226 0.817394 0.349153
O O2 0.435711 0.811929 0.704058
O O3 0.298130 0.679336 0.373844
O O4 0.477203 0.685410 0.644298
O O5 0.289123 0.099981 0.080121
O O6 0.314668 0.000000 0.294943
O O7 0.149675 0.103975 0.943991
O O8 0.531901 0.000000 0.208554
O O9 0.500000 0.121974 0.000000
O O10 0.370620 0.119334 0.882683
O O11 0.894835 0.744356 0.234935
O O12 0.000000 0.593921 0.500000
O O13 0.872274 0.602532 0.074812
O O14 0.239738 0.000000 0.699994
O O15 0.000000 0.114346 0.500000
#
# Coordination Sequence:
#
# PCOD8111838 Si02
#       6
#     8   8   8   8   8   8
#     4  12  21  39  60  82 114 149 183 233 282 328
#     4  12  23  34  54  84 113 151 194 228 271 323
#     4  10  22  41  63  87 112 140 181 233 286 341
#     4  11  19  36  55  79 112 154 191 233 264 323
#     4  11  23  38  59  86 112 148 192 230 277 335
#     4  11  21  36  55  76 117 157 187 227 270 323
#
# _framework density 19.703914999999999
#
# number of rings (size 3 to 8) (size 9 to 14) (size 15 to 20)
#    0.000    0.833    6.667    2.500    0.000    4.333 
#    0.000    0.000    0.000    0.500    0.000    0.000 
#    0.000    0.000    0.000    0.000    0.000    0.000 
#
# Total GULP energy -297408.875098 kJ/mol
# GULP energy per Si atom -12392.036462 kJ/mol
# Density = 1.965907 g / cm^3
# Si number density = 19.703915 Si / 1000 Ang^3
#
#
#
# Elastic Constant Matrix: (Units=GPa)
#
#
# Indices 1 2 3 4 5 6 
#
# 1 140.8479 45.1406 54.2665 0.0000 8.1117 0.0000
# 2 45.1406 106.7830 34.7332 0.0000 10.9295 0.0000
# 3 54.2665 34.7332 73.5001 0.0000 11.2572 0.0000
# 4 0.0000 0.0000 0.0000 -4.7205 0.0000 -246.9348
# 5 8.1117 10.9295 11.2572 0.0000 27.2164 0.0000
# 6 0.0000 0.0000 0.0000 -246.9348 0.0000 -434.2532
#
#
#
# Elastic Compliance Matrix: (Units=1/GPa)
#
#
# Indices 1 2 3 4 5 6 
#
# 1 0.010363 -0.002272 -0.006667 0.000000 0.000581 0.000000
# 2 -0.002272 0.011717 -0.003462 0.000000 -0.002596 0.000000
# 3 -0.006667 -0.003462 0.020975 0.000000 -0.005298 0.000000
# 4 0.000000 0.000000 0.000000 0.007369 0.000000 -0.004191
# 5 0.000581 -0.002596 -0.005298 0.000000 0.039804 0.000000
# 6 0.000000 0.000000 0.000000 -0.004191 0.000000 0.000080
#
#
# Mechanical properties :
#
#
# Convention : Reuss Voigt Hill
#
# Bulk Modulus (GPa) = 54.78221 65.49016 60.13618
# Shear Modulus (GPa) = 41.25625 -69.88541 -14.31458
#
# Velocity S-wave (km/s) = 4.58078 -5.96194 -2.69826
# Velocity P-wave (km/s) = 7.47269 3.75283 4.56932
#
# Compressibility (1/GPa) = 0.01825410
#
# Stress axis : x y z
#
# Youngs Moduli (GPa) = 96.49665 85.34630 47.67563
#
# Poissons Ratio (x) = 0.19389 0.31784
# Poissons Ratio (y) = 0.21922 0.16505
# Poissons Ratio (z) = 0.64331 0.29547
#
# Static dielectric constant tensor:
#      x y z
#    x 3.479640 0.000000 0.169480 
#    y 0.000000 3.692480 0.000000 
#    z 0.169480 0.000000 3.588560 
# 
# 
# High freq. dielectric constant tensor:
#      x y z
#    x 1.758630 0.000000 0.020700 
#    y 0.000000 1.776340 0.000000 
#    z 0.020700 0.000000 1.744820 
# 
# From -- ./inp_files/183667.got.cif
#   From: 2010.06.25/outbox.cif.g09.slc.cpg/sg12_92_cif.got.tgz:183667.got - 2010.06.28 00:19:55.
