data_PCOD8111406
_publ_section_title
;
Structure prediction by ZEFSAII (Michael W. Deem and Ramdas Pophale) SiO2 
 PCOD8111406
Probable space group: C 2/M
;
_chemical_formula_sum "Si O2"
_cell_formula_units_Z 48
_cell_length_a 9.964247
_cell_length_b 9.028434
_cell_length_c 26.398898
_cell_angle_alpha 90.000000
_cell_angle_beta 90.332407
_cell_angle_gamma 90.000000
_cell_volume 2374.845720
_symmetry_space_group_name_H-M "C 2/M"
_symmetry_group_IT_number 12
_symmetry_cell_setting 'monoclinic'
loop_
_space_group_symop_operation_xyz
x,y,z
-x,y,-z
-x,-y,-z
x,-y,z
1/2+x,1/2+y,z
1/2-x,1/2+y,-z
1/2-x,1/2-y,-z
1/2+x,1/2-y,z
loop_
_atom_site_type_symbol
_atom_site_label
_atom_site_fract_x
_atom_site_fract_y
_atom_site_fract_z
Si Si1 0.360262 0.827839 0.863484
Si Si2 0.826566 0.171162 0.305353
Si Si3 0.865220 0.670322 0.530743
Si Si4 0.136188 0.169168 0.030901
Si Si5 0.599054 0.671740 0.363186
Si Si6 0.588271 0.328476 0.806021
O O1 0.386742 0.742096 0.915077
O O2 0.461462 0.769481 0.821116
O O3 0.208780 0.799742 0.845309
O O4 0.387791 0.000000 0.872670
O O5 0.701245 0.270632 0.321040
O O6 0.868704 0.222876 0.249635
O O7 0.948217 0.198183 0.344215
O O8 0.782162 0.000000 0.304901
O O9 0.825501 0.500000 0.537665
O O10 0.750000 0.750000 0.500000
O O11 0.880468 0.739589 0.585607
O O12 0.000000 0.691039 0.500000
O O13 0.179689 0.000000 0.038989
O O14 0.250000 0.250000 0.000000
O O15 0.000000 0.181636 0.000000
O O16 0.628295 0.500000 0.373271
O O17 0.545172 0.500000 0.805892
#
# Coordination Sequence:
#
# PCOD8111406 Si02
#       6
#     8   8   8   8   8   8
#     4  11  23  38  60  89 118 153 196 240 290 347
#     4  10  22  40  61  86 119 157 195 239 289 342
#     4  11  24  41  62  88 118 154 195 240 291 346
#     4  11  24  41  61  86 117 153 194 241 292 348
#     4  11  23  38  60  89 118 153 196 239 288 345
#     4  10  22  40  60  86 120 155 194 240 289 342
#
# _framework density 20.211839999999999
#
# number of rings (size 3 to 8) (size 9 to 14) (size 15 to 20)
#    0.000    1.333    0.000    5.000    0.000   12.667 
#    0.000    0.000    0.000    0.000    0.000    0.000 
#    0.000    0.000    0.000    0.000    0.000    0.000 
#
# Total GULP energy -297778.476074 kJ/mol
# GULP energy per Si atom -12407.436503 kJ/mol
# Density = 2.016584 g / cm^3
# Si number density = 20.211840 Si / 1000 Ang^3
#
#
#
# Elastic Constant Matrix: (Units=GPa)
#
#
# Indices 1 2 3 4 5 6 
#
# 1 53.1396 47.3878 -0.9351 0.0000 -12.1452 0.0000
# 2 47.3878 122.7681 40.6777 0.0000 -6.7116 0.0000
# 3 -0.9351 40.6777 102.6608 0.0000 -4.4508 0.0000
# 4 0.0000 0.0000 0.0000 37.7149 0.0000 -7.7653
# 5 -12.1452 -6.7116 -4.4508 0.0000 35.5303 0.0000
# 6 0.0000 0.0000 0.0000 -7.7653 0.0000 34.5564
#
#
#
# Elastic Compliance Matrix: (Units=1/GPa)
#
#
# Indices 1 2 3 4 5 6 
#
# 1 0.034586 -0.015032 0.006697 0.000000 0.009822 0.000000
# 2 -0.015032 0.015971 -0.006593 0.000000 -0.002947 0.000000
# 3 0.006697 -0.006593 0.012527 0.000000 0.002613 0.000000
# 4 0.000000 0.000000 0.000000 0.027801 0.000000 0.006247
# 5 0.009822 -0.002947 0.002613 0.000000 0.031273 0.000000
# 6 0.000000 0.000000 0.000000 0.006247 0.000000 0.030342
#
#
# Mechanical properties :
#
#
# Convention : Reuss Voigt Hill
#
# Bulk Modulus (GPa) = 30.09455 50.31438 40.20446
# Shear Modulus (GPa) = 25.84878 34.32288 30.08583
#
# Velocity S-wave (km/s) = 3.58004 4.12534 3.86233
# Velocity P-wave (km/s) = 5.65781 6.90209 6.31069
#
# Compressibility (1/GPa) = 0.03322861
#
# Stress axis : x y z
#
# Youngs Moduli (GPa) = 28.91343 62.61300 79.82451
#
# Poissons Ratio (x) = 0.94120 -0.53459
# Poissons Ratio (y) = 0.43463 0.52628
# Poissons Ratio (z) = -0.19364 0.41281
#
# Static dielectric constant tensor:
#      x y z
#    x 3.429770 0.000000 -0.399360 
#    y 0.000000 3.825660 0.000000 
#    z -0.399360 0.000000 3.620840 
# 
# 
# High freq. dielectric constant tensor:
#      x y z
#    x 1.800980 0.000000 -0.000460 
#    y 0.000000 1.798810 0.000000 
#    z -0.000460 0.000000 1.808840 
# 
# From -- ./inp_files/371859.got.cif
#   From: 2010.06.25/outbox.cif.g09.slc.cpg/sg12_186_cif.got.tgz:371859.got - 2010.06.28 00:19:55.
