data_PCOD8111095
_publ_section_title
;
Structure prediction by ZEFSAII (Michael W. Deem and Ramdas Pophale) SiO2 
 PCOD8111095
Probable space group: C 2/M
;
_chemical_formula_sum "Si O2"
_cell_formula_units_Z 56
_cell_length_a 9.426285
_cell_length_b 14.045173
_cell_length_c 22.200594
_cell_angle_alpha 90.000000
_cell_angle_beta 115.916932
_cell_angle_gamma 90.000000
_cell_volume 2643.619668
_symmetry_space_group_name_H-M "C 2/M"
_symmetry_group_IT_number 12
_symmetry_cell_setting 'monoclinic'
loop_
_space_group_symop_operation_xyz
x,y,z
-x,y,-z
-x,-y,-z
x,-y,z
1/2+x,1/2+y,z
1/2-x,1/2+y,-z
1/2-x,1/2-y,-z
1/2+x,1/2-y,z
loop_
_atom_site_type_symbol
_atom_site_label
_atom_site_fract_x
_atom_site_fract_y
_atom_site_fract_z
Si Si1 0.524813 0.613517 0.937321
Si Si2 0.320541 0.609694 0.486361
Si Si3 0.392006 0.889574 0.810478
Si Si4 0.288301 0.242142 0.300818
Si Si5 0.717533 0.110368 0.811684
Si Si6 0.135314 0.771435 0.392571
Si Si7 0.346185 0.886611 0.937444
O O1 0.526111 0.500000 0.938944
O O2 0.379525 0.650781 0.869958
O O3 0.687930 0.652978 0.939764
O O4 0.500000 0.653711 0.000000
O O5 0.500000 0.623710 0.500000
O O6 0.268409 0.500000 0.474862
O O7 0.207053 0.667421 0.420378
O O8 0.295774 0.649493 0.549357
O O9 0.285918 0.835726 0.742527
O O10 0.577198 0.871768 0.833091
O O11 0.351237 0.851317 0.869506
O O12 0.348867 0.000000 0.795965
O O13 0.319732 0.161647 0.257516
O O14 0.173845 0.200261 0.330947
O O15 0.447966 0.269700 0.364403
O O16 0.735089 0.000000 0.799680
O O17 0.348557 0.000000 0.940345
O O18 0.500000 0.845672 0.000000
#
# Coordination Sequence:
#
# PCOD8111095 Si02
#       7
#     8   8   8   8   8   8   8
#     4   9  17  31  54  83 117 157 204 262 317 361
#     4  10  22  43  71  98 125 161 204 245 293 357
#     4  10  22  39  60  86 119 164 211 252 305 373
#     4  12  24  41  62  91 131 165 201 247 305 362
#     4  10  22  39  59  86 121 162 208 256 309 367
#     4  11  24  42  65  96 128 162 199 250 298 354
#     4   9  17  31  54  83 116 157 207 260 312 367
#
# _framework density 21.183077000000001
#
# number of rings (size 3 to 8) (size 9 to 14) (size 15 to 20)
#    0.000    1.857    2.857    0.857    2.000    5.714 
#    0.000    1.429    0.000    3.429    0.000    0.000 
#    0.000    0.000    0.000    0.000    0.000    0.000 
#
# Total GULP energy -347323.170377 kJ/mol
# GULP energy per Si atom -12404.398942 kJ/mol
# Density = 2.113486 g / cm^3
# Si number density = 21.183077 Si / 1000 Ang^3
#
#
#
# Elastic Constant Matrix: (Units=GPa)
#
#
# Indices 1 2 3 4 5 6 
#
# 1 135.1691 41.7864 52.8923 0.0000 -5.8291 0.0000
# 2 41.7864 59.4214 20.5051 0.0000 -1.3932 0.0000
# 3 52.8923 20.5051 101.8506 0.0000 -4.4180 0.0000
# 4 0.0000 0.0000 0.0000 545.3288 0.0000 -32.6421
# 5 -5.8291 -1.3932 -4.4180 0.0000 53.8285 0.0000
# 6 0.0000 0.0000 0.0000 -32.6421 0.0000 25.1345
#
#
#
# Elastic Compliance Matrix: (Units=1/GPa)
#
#
# Indices 1 2 3 4 5 6 
#
# 1 0.011115 -0.006253 -0.004484 0.000000 0.000674 0.000000
# 2 -0.006253 0.021605 -0.001111 0.000000 -0.000209 0.000000
# 3 -0.004484 -0.001111 0.012392 0.000000 0.000503 0.000000
# 4 0.000000 0.000000 0.000000 0.001988 0.000000 0.002582
# 5 0.000674 -0.000209 0.000503 0.000000 0.018686 0.000000
# 6 0.000000 0.000000 0.000000 0.002582 0.000000 0.043139
#
#
# Mechanical properties :
#
#
# Convention : Reuss Voigt Hill
#
# Bulk Modulus (GPa) = 46.69552 58.53430 52.61491
# Shear Modulus (GPa) = 35.77519 136.94218 86.35869
#
# Velocity S-wave (km/s) = 4.11403 8.04906 6.39189
# Velocity P-wave (km/s) = 6.68271 10.68062 8.90882
#
# Compressibility (1/GPa) = 0.02141533
#
# Stress axis : x y z
#
# Youngs Moduli (GPa) = 89.96936 46.28582 80.69431
#
# Poissons Ratio (x) = 0.28943 0.36183
# Poissons Ratio (y) = 0.56259 0.08968
# Poissons Ratio (z) = 0.40342 0.05144
#
# Static dielectric constant tensor:
#      x y z
#    x 3.969290 0.000000 -0.011850 
#    y 0.000000 3.562430 0.000000 
#    z -0.011850 0.000000 3.798310 
# 
# 
# High freq. dielectric constant tensor:
#      x y z
#    x 1.840370 0.000000 -0.002740 
#    y 0.000000 1.819260 0.000000 
#    z -0.002740 0.000000 1.835190 
# 
# From -- ./inp_files/333004.got.cif
#   From: 2010.06.25/outbox.cif.g09.slc.cpg/sg12_167_cif.got.tgz:333004.got - 2010.06.28 00:19:55.
