data_PCOD8111960
_publ_section_title
;
Structure prediction by ZEFSAII (Michael W. Deem and Ramdas Pophale) SiO2 
 PCOD8111960
Probable space group: C 2/M
;
_chemical_formula_sum "Si O2"
_cell_formula_units_Z 56
_cell_length_a 25.001828
_cell_length_b 8.710983
_cell_length_c 14.456933
_cell_angle_alpha 90.000000
_cell_angle_beta 58.390614
_cell_angle_gamma 90.000000
_cell_volume 2681.462342
_symmetry_space_group_name_H-M "C 2/M"
_symmetry_group_IT_number 12
_symmetry_cell_setting 'monoclinic'
loop_
_space_group_symop_operation_xyz
x,y,z
-x,y,-z
-x,-y,-z
x,-y,z
1/2+x,1/2+y,z
1/2-x,1/2+y,-z
1/2-x,1/2-y,-z
1/2+x,1/2-y,z
loop_
_atom_site_type_symbol
_atom_site_label
_atom_site_fract_x
_atom_site_fract_y
_atom_site_fract_z
Si Si1 0.574382 0.321196 0.693286
Si Si2 0.748197 0.178575 0.783254
Si Si3 0.521011 0.175690 0.084241
Si Si4 0.501146 0.820896 0.393851
Si Si5 0.793163 0.680769 0.381975
Si Si6 0.850385 0.175334 0.996966
Si Si7 0.872274 0.173361 0.769925
O O1 0.589987 0.500000 0.678044
O O2 0.517092 0.287127 0.813927
O O3 0.553986 0.268600 0.609475
O O4 0.635326 0.231546 0.671890
O O5 0.732231 0.236175 0.694650
O O6 0.822071 0.207293 0.734590
O O7 0.730833 0.000000 0.812048
O O8 0.711101 0.278272 0.891374
O O9 0.594010 0.213586 0.022156
O O10 0.509185 0.000000 0.125259
O O11 0.500000 0.206403 0.000000
O O12 0.500000 0.762738 0.500000
O O13 0.569432 0.788495 0.289000
O O14 0.486677 0.000000 0.399054
O O15 0.789109 0.500000 0.393563
O O16 0.750000 0.750000 0.500000
O O17 0.837519 0.196046 0.899545
O O18 0.868041 0.000000 0.004469
O O19 0.898577 0.000000 0.737323
#
# Coordination Sequence:
#
# PCOD8111960 Si02
#       7
#     8   8   8   8   8   8   8
#     4  12  25  43  67  95 128 169 213 265 320 378
#     4  10  23  42  64  91 128 172 214 258 316 381
#     4  11  23  39  62  91 127 170 212 262 319 377
#     4  11  25  43  66  98 129 166 213 265 321 383
#     4  11  25  45  67  94 127 169 217 267 321 378
#     4  11  22  37  61  95 129 165 210 259 315 379
#     4  10  22  41  64  95 130 168 210 257 317 383
#
# _framework density 20.884128
#
# number of rings (size 3 to 8) (size 9 to 14) (size 15 to 20)
#    0.000    1.143    1.429    4.286    2.000    8.000 
#    0.000    0.000    0.000    0.000    0.000    0.000 
#    0.000    0.000    0.000    0.000    0.000    0.000 
#
# Total GULP energy -347387.820093 kJ/mol
# GULP energy per Si atom -12406.707860 kJ/mol
# Density = 2.083659 g / cm^3
# Si number density = 20.884128 Si / 1000 Ang^3
#
#
#
# Elastic Constant Matrix: (Units=GPa)
#
#
# Indices 1 2 3 4 5 6 
#
# 1 125.1825 24.6449 20.4622 0.0000 19.8417 0.0000
# 2 24.6449 58.3466 31.9668 0.0001 14.5541 0.0002
# 3 20.4622 31.9668 76.5900 0.0000 14.2995 0.0000
# 4 0.0000 0.0001 0.0000 14.1117 0.0000 -14.4857
# 5 19.8417 14.5541 14.2995 0.0000 34.6541 0.0000
# 6 0.0000 0.0002 0.0000 -14.4857 0.0000 26.8528
#
#
#
# Elastic Compliance Matrix: (Units=1/GPa)
#
#
# Indices 1 2 3 4 5 6 
#
# 1 0.009223 -0.002550 -0.000665 0.000000 -0.003935 0.000000
# 2 -0.002550 0.024124 -0.008417 -0.000001 -0.005199 -0.000001
# 3 -0.000665 -0.008417 0.017353 0.000000 -0.003245 0.000000
# 4 0.000000 -0.000001 0.000000 0.158796 0.000000 0.085662
# 5 -0.003935 -0.005199 -0.003245 0.000000 0.034632 0.000000
# 6 0.000000 -0.000001 0.000000 0.085662 0.000000 0.083450
#
#
# Mechanical properties :
#
#
# Convention : Reuss Voigt Hill
#
# Bulk Modulus (GPa) = 36.44774 46.02966 41.23870
# Shear Modulus (GPa) = 13.88938 27.32674 20.60806
#
# Velocity S-wave (km/s) = 2.58169 3.62123 3.14471
# Velocity P-wave (km/s) = 5.13586 6.29069 5.74238
#
# Compressibility (1/GPa) = 0.02743654
#
# Stress axis : x y z
#
# Youngs Moduli (GPa) = 108.42749 41.45221 57.62652
#
# Poissons Ratio (x) = 0.10568 0.03833
# Poissons Ratio (y) = 0.27644 0.48505
# Poissons Ratio (z) = 0.07212 0.34891
#
# Static dielectric constant tensor:
#      x y z
#    x 4.101500 0.000000 0.197960 
#    y 0.000000 3.742100 0.000000 
#    z 0.197960 0.000000 3.780180 
# 
# 
# High freq. dielectric constant tensor:
#      x y z
#    x 1.832710 0.000000 0.009870 
#    y 0.000000 1.820330 0.000000 
#    z 0.009870 0.000000 1.819600 
# 
# From -- ./inp_files/238418.got.cif
#   From: 2010.06.25/outbox.cif.g09.slc.cpg/sg12_120_cif.got.tgz:238418.got - 2010.06.28 00:19:55.
