data_PCOD8111012
_publ_section_title
;
Structure prediction by ZEFSAII (Michael W. Deem and Ramdas Pophale) SiO2 
 PCOD8111012
Probable space group: C 2/M
;
_chemical_formula_sum "Si O2"
_cell_formula_units_Z 40
_cell_length_a 22.441808
_cell_length_b 15.052839
_cell_length_c 17.543229
_cell_angle_alpha 90.000000
_cell_angle_beta 160.900977
_cell_angle_gamma 90.000000
_cell_volume 1939.105583
_symmetry_space_group_name_H-M "C 2/M"
_symmetry_group_IT_number 12
_symmetry_cell_setting 'monoclinic'
loop_
_space_group_symop_operation_xyz
x,y,z
-x,y,-z
-x,-y,-z
x,-y,z
1/2+x,1/2+y,z
1/2-x,1/2+y,-z
1/2-x,1/2-y,-z
1/2+x,1/2-y,z
loop_
_atom_site_type_symbol
_atom_site_label
_atom_site_fract_x
_atom_site_fract_y
_atom_site_fract_z
Si Si1 0.129701 0.500000 0.270215
Si Si2 0.739794 0.249015 0.077468
Si Si3 0.000000 0.848642 0.500000
Si Si4 0.618650 0.808657 0.291404
Si Si5 0.756487 0.500000 0.762895
Si Si6 0.500000 0.294469 0.000000
Si Si7 0.219458 0.602720 0.765779
O O1 0.205273 0.408287 0.397284
O O2 0.165760 0.500000 0.225855
O O3 0.910787 0.500000 0.014200
O O4 0.707813 0.349427 0.069554
O O5 0.921379 0.212539 0.337543
O O6 0.750000 0.250000 0.000000
O O7 0.574609 0.185426 0.900555
O O8 0.852463 0.909402 0.361542
O O9 0.750000 0.750000 0.500000
O O10 0.591403 0.768989 0.173860
O O11 0.331403 0.352970 0.830180
O O12 0.274497 0.500000 0.835232
O O13 0.000000 0.613930 0.500000
#
# Coordination Sequence:
#
# PCOD8111012 Si02
#       7
#     4   8   4   8   4   4   8
#     4  11  22  42  66  99 132 168 224 274 328 408
#     4  11  25  42  67  94 134 174 220 275 337 398
#     4  11  22  44  65  98 130 174 215 276 338 391
#     4  11  26  44  67  99 131 176 221 274 339 398
#     4  10  22  38  72  96 128 166 218 274 341 395
#     4  10  23  45  70  92 134 172 222 282 336 396
#     4  10  22  42  67  94 126 176 223 270 328 395
#
# _framework density 20.628067000000001
#
# number of rings (size 3 to 8) (size 9 to 14) (size 15 to 20)
#    0.000    1.400    3.000    1.500    8.400    0.000 
#   14.400    0.000    0.000    0.000    0.000    0.000 
#    0.000    0.000    0.000    0.000    0.000    0.000 
#
# Total GULP energy -247843.392853 kJ/mol
# GULP energy per Si atom -12392.169643 kJ/mol
# Density = 2.058112 g / cm^3
# Si number density = 20.628067 Si / 1000 Ang^3
#
#
#
# Elastic Constant Matrix: (Units=GPa)
#
#
# Indices 1 2 3 4 5 6 
#
# 1 142.8614 66.6506 49.3004 0.0157 -13.3874 0.0135
# 2 66.6506 186.0758 49.1818 0.0187 -15.7149 0.0182
# 3 49.3004 49.1818 95.2057 0.0195 -15.3153 0.0169
# 4 0.0157 0.0187 0.0195 30.3286 0.0153 3.6147
# 5 -13.3874 -15.7149 -15.3153 0.0153 43.0312 0.0130
# 6 0.0135 0.0182 0.0169 3.6147 0.0130 27.5493
#
#
#
# Elastic Compliance Matrix: (Units=1/GPa)
#
#
# Indices 1 2 3 4 5 6 
#
# 1 0.009392 -0.002368 -0.003510 -0.000001 0.000808 -0.000001
# 2 -0.002368 0.006880 -0.002166 -0.000002 0.001005 -0.000002
# 3 -0.003510 -0.002166 0.013935 -0.000007 0.003077 -0.000006
# 4 -0.000001 -0.000002 -0.000007 0.033496 -0.000014 -0.004395
# 5 0.000808 0.001005 0.003077 -0.000014 0.024952 -0.000013
# 6 -0.000001 -0.000002 -0.000006 -0.004395 -0.000013 0.036875
#
#
# Mechanical properties :
#
#
# Convention : Reuss Voigt Hill
#
# Bulk Modulus (GPa) = 70.83104 83.82317 77.32711
# Shear Modulus (GPa) = 34.17075 37.44916 35.80996
#
# Velocity S-wave (km/s) = 4.07445 4.26543 4.17103
# Velocity P-wave (km/s) = 7.51975 8.06115 7.79515
#
# Compressibility (1/GPa) = 0.01411810
#
# Stress axis : x y z
#
# Youngs Moduli (GPa) = 106.47880 145.35438 71.76146
#
# Poissons Ratio (x) = 0.34420 0.25188
# Poissons Ratio (y) = 0.25214 0.15544
# Poissons Ratio (z) = 0.37374 0.31485
#
# Static dielectric constant tensor:
#      x y z
#    x 3.698380 -0.000130 0.333210 
#    y -0.000130 4.101130 0.000160 
#    z 0.333210 0.000160 3.596520 
# 
# 
# High freq. dielectric constant tensor:
#      x y z
#    x 1.806350 0.000000 0.017200 
#    y 0.000000 1.824080 0.000000 
#    z 0.017200 0.000000 1.801340 
# 
# From -- ./inp_files/289979.got.cif
#   From: 2010.06.25/outbox.cif.g09.slc.cpg/sg12_145_cif.got.tgz:289979.got - 2010.06.28 00:19:55.
