data_PCOD8111052
_publ_section_title
;
Structure prediction by ZEFSAII (Michael W. Deem and Ramdas Pophale) SiO2 
 PCOD8111052
Probable space group: C 2/M
;
_chemical_formula_sum "Si O2"
_cell_formula_units_Z 56
_cell_length_a 20.582494
_cell_length_b 8.708885
_cell_length_c 23.018217
_cell_angle_alpha 90.000000
_cell_angle_beta 133.366486
_cell_angle_gamma 90.000000
_cell_volume 2999.525596
_symmetry_space_group_name_H-M "C 2/M"
_symmetry_group_IT_number 12
_symmetry_cell_setting 'monoclinic'
loop_
_space_group_symop_operation_xyz
x,y,z
-x,y,-z
-x,-y,-z
x,-y,z
1/2+x,1/2+y,z
1/2-x,1/2+y,-z
1/2-x,1/2-y,-z
1/2+x,1/2-y,z
loop_
_atom_site_type_symbol
_atom_site_label
_atom_site_fract_x
_atom_site_fract_y
_atom_site_fract_z
Si Si1 0.985117 0.318311 0.584254
Si Si2 0.746536 0.680779 0.154716
Si Si3 0.561511 0.321834 0.739020
Si Si4 0.685503 0.682359 0.243484
Si Si5 0.138471 0.318130 0.591309
Si Si6 0.323906 0.180326 0.003453
Si Si7 0.506744 0.679692 0.835344
O O1 0.986375 0.500000 0.596670
O O2 0.987133 0.227933 0.646301
O O3 0.070737 0.263155 0.599773
O O4 0.896193 0.267229 0.493830
O O5 0.735888 0.500000 0.139464
O O6 0.850600 0.721016 0.216102
O O7 0.705134 0.737015 0.190128
O O8 0.691116 0.766342 0.071297
O O9 0.586297 0.500000 0.748076
O O10 0.519998 0.285465 0.775939
O O11 0.686716 0.500000 0.247292
O O12 0.762933 0.747879 0.334058
O O13 0.590140 0.744925 0.206028
O O14 0.138435 0.500000 0.593290
O O15 0.313560 0.000000 0.000794
O O16 0.250000 0.250000 0.000000
O O17 0.421981 0.229791 0.082769
O O18 0.516491 0.500000 0.855210
#
# Coordination Sequence:
#
# PCOD8111052 Si02
#       7
#     8   8   8   8   8   8   8
#     4   9  16  29  54  82 108 138 187 238 274 319
#     4  11  21  36  62  86 108 141 187 235 274 323
#     4  11  21  33  52  81 115 147 183 227 278 332
#     4   9  18  35  59  84 109 145 191 230 272 329
#     4   8  14  28  53  83 107 137 185 237 274 317
#     4  12  24  39  59  84 114 145 183 229 277 329
#     4  10  22  39  58  80 111 150 188 226 274 334
#
# _framework density 18.669618
#
# number of rings (size 3 to 8) (size 9 to 14) (size 15 to 20)
#    0.000    2.000    2.857    3.000    0.000    1.143 
#    0.000    6.429    0.000    0.000    0.000    0.000 
#    0.000    0.000    0.000    0.000    0.000    0.000 
#
# Total GULP energy -347184.594769 kJ/mol
# GULP energy per Si atom -12399.449813 kJ/mol
# Density = 1.862713 g / cm^3
# Si number density = 18.669618 Si / 1000 Ang^3
#
#
#
# Elastic Constant Matrix: (Units=GPa)
#
#
# Indices 1 2 3 4 5 6 
#
# 1 126.5797 33.4881 76.0900 0.0000 9.1869 0.0000
# 2 33.4881 54.0987 41.9511 0.0000 0.5170 0.0000
# 3 76.0900 41.9511 185.4633 0.0000 4.6012 0.0000
# 4 0.0000 0.0000 0.0000 30.7018 0.0000 -3.7226
# 5 9.1869 0.5170 4.6012 0.0000 30.6917 0.0000
# 6 0.0000 0.0000 0.0000 -3.7226 0.0000 19.0610
#
#
#
# Elastic Compliance Matrix: (Units=1/GPa)
#
#
# Indices 1 2 3 4 5 6 
#
# 1 0.011417 -0.004199 -0.003665 0.000000 -0.002797 0.000000
# 2 -0.004199 0.023965 -0.003733 0.000000 0.001413 0.000000
# 3 -0.003665 -0.003733 0.007740 0.000000 0.000000 0.000000
# 4 0.000000 0.000000 0.000000 0.033361 0.000000 0.006515
# 5 -0.002797 0.001413 0.000000 0.000000 0.033396 0.000000
# 6 0.000000 0.000000 0.000000 0.006515 0.000000 0.053736
#
#
# Mechanical properties :
#
#
# Convention : Reuss Voigt Hill
#
# Bulk Modulus (GPa) = 50.17938 74.35558 62.26748
# Shear Modulus (GPa) = 25.84625 30.39841 28.12233
#
# Velocity S-wave (km/s) = 3.72479 4.03951 3.88534
# Velocity P-wave (km/s) = 6.74052 7.85305 7.31796
#
# Compressibility (1/GPa) = 0.01992850
#
# Stress axis : x y z
#
# Youngs Moduli (GPa) = 87.58809 41.72701 129.19886
#
# Poissons Ratio (x) = 0.17520 0.47351
# Poissons Ratio (y) = 0.36775 0.48234
# Poissons Ratio (z) = 0.32101 0.15578
#
# Static dielectric constant tensor:
#      x y z
#    x 3.450240 0.000000 0.063830 
#    y 0.000000 3.160190 0.000000 
#    z 0.063830 0.000000 3.876300 
# 
# 
# High freq. dielectric constant tensor:
#      x y z
#    x 1.706070 0.000000 -0.002820 
#    y 0.000000 1.699110 0.000000 
#    z -0.002820 0.000000 1.747040 
# 
# From -- ./inp_files/320213.got.cif
#   From: 2010.06.25/outbox.cif.g09.slc.cpg/sg12_161_cif.got.tgz:320213.got - 2010.06.28 00:19:55.
