data_PCOD8111504
_publ_section_title
;
Structure prediction by ZEFSAII (Michael W. Deem and Ramdas Pophale) SiO2 
 PCOD8111504
Probable space group: C 2/M
;
_chemical_formula_sum "Si O2"
_cell_formula_units_Z 56
_cell_length_a 22.220393
_cell_length_b 14.376824
_cell_length_c 9.628297
_cell_angle_alpha 90.000000
_cell_angle_beta 64.795125
_cell_angle_gamma 90.000000
_cell_volume 2782.994556
_symmetry_space_group_name_H-M "C 2/M"
_symmetry_group_IT_number 12
_symmetry_cell_setting 'monoclinic'
loop_
_space_group_symop_operation_xyz
x,y,z
-x,y,-z
-x,-y,-z
x,-y,z
1/2+x,1/2+y,z
1/2-x,1/2+y,-z
1/2-x,1/2-y,-z
1/2+x,1/2-y,z
loop_
_atom_site_type_symbol
_atom_site_label
_atom_site_fract_x
_atom_site_fract_y
_atom_site_fract_z
Si Si1 0.042018 0.250094 0.100660
Si Si2 0.805332 0.608411 0.686437
Si Si3 0.709132 0.106334 0.617804
Si Si4 0.011129 0.895929 0.638067
Si Si5 0.552551 0.891078 0.329593
Si Si6 0.848988 0.897859 0.393462
Si Si7 0.326474 0.275109 0.171098
O O1 0.031845 0.339649 0.208206
O O2 0.017389 0.158936 0.204301
O O3 0.121363 0.233233 0.005337
O O4 0.000000 0.264607 0.000000
O O5 0.787676 0.500000 0.733275
O O6 0.819867 0.623084 0.508258
O O7 0.872613 0.637878 0.699004
O O8 0.743769 0.674406 0.798248
O O9 0.785900 0.139017 0.540629
O O10 0.677797 0.170625 0.765747
O O11 0.698547 0.000000 0.675812
O O12 0.090184 0.901432 0.563692
O O13 0.000000 0.846989 0.500000
O O14 0.980169 0.000000 0.672788
O O15 0.500000 0.862826 0.500000
O O16 0.548284 0.000000 0.302700
O O17 0.865643 0.834236 0.247033
O O18 0.829905 0.000000 0.353676
#
# Coordination Sequence:
#
# PCOD8111504 Si02
#       7
#     8   8   8   8   8   8   8
#     4  12  26  39  58  93 129 164 202 245 307 372
#     4   9  19  38  63  89 114 153 207 251 298 360
#     4   9  19  33  56  87 117 153 199 248 296 356
#     4  10  22  40  62  87 121 162 204 250 297 358
#     4  10  24  45  67  87 116 162 211 259 304 355
#     4   9  17  34  58  85 116 151 198 247 296 356
#     4  11  21  34  58  88 124 158 192 242 312 358
#
# _framework density 20.122209000000002
#
# number of rings (size 3 to 8) (size 9 to 14) (size 15 to 20)
#    0.000    2.000    1.429    3.429    2.000    6.286 
#    0.000    0.000    0.000    3.429    0.000    0.000 
#    0.000    0.000    0.000    0.000    0.000    0.000 
#
# Total GULP energy -347042.521480 kJ/mol
# GULP energy per Si atom -12394.375767 kJ/mol
# Density = 2.007641 g / cm^3
# Si number density = 20.122209 Si / 1000 Ang^3
#
#
#
# Elastic Constant Matrix: (Units=GPa)
#
#
# Indices 1 2 3 4 5 6 
#
# 1 105.6211 42.8126 63.7174 0.0000 3.6046 0.0000
# 2 42.8126 84.6319 48.6849 0.0000 6.8402 0.0000
# 3 63.7174 48.6849 104.1389 0.0000 1.5020 0.0000
# 4 0.0000 0.0000 0.0000 12.1569 0.0000 11.0921
# 5 3.6046 6.8402 1.5020 0.0000 23.9160 0.0000
# 6 0.0000 0.0000 0.0000 11.0921 0.0000 14.5575
#
#
#
# Elastic Compliance Matrix: (Units=1/GPa)
#
#
# Indices 1 2 3 4 5 6 
#
# 1 0.015671 -0.003206 -0.008076 0.000000 -0.000938 0.000000
# 2 -0.003206 0.017241 -0.006040 0.000000 -0.004069 0.000000
# 3 -0.008076 -0.006040 0.017341 0.000000 0.001856 0.000000
# 4 0.000000 0.000000 0.000000 0.269888 0.000000 -0.205642
# 5 -0.000938 -0.004069 0.001856 0.000000 0.043001 0.000000
# 6 0.000000 0.000000 0.000000 -0.205642 0.000000 0.225383
#
#
# Mechanical properties :
#
#
# Convention : Reuss Voigt Hill
#
# Bulk Modulus (GPa) = 64.06529 67.20239 65.63384
# Shear Modulus (GPa) = 7.95706 19.40455 13.68080
#
# Velocity S-wave (km/s) = 1.99072 3.10874 2.61029
# Velocity P-wave (km/s) = 6.09845 6.80848 6.46322
#
# Compressibility (1/GPa) = 0.01560908
#
# Stress axis : x y z
#
# Youngs Moduli (GPa) = 63.81035 58.00136 57.66718
#
# Poissons Ratio (x) = 0.18595 0.46573
# Poissons Ratio (y) = 0.20458 0.34830
# Poissons Ratio (z) = 0.51535 0.35032
#
# Static dielectric constant tensor:
#      x y z
#    x 3.746520 0.000000 -0.084220 
#    y 0.000000 3.755770 0.000000 
#    z -0.084220 0.000000 3.392340 
# 
# 
# High freq. dielectric constant tensor:
#      x y z
#    x 1.790830 0.000000 -0.009190 
#    y 0.000000 1.797510 0.000000 
#    z -0.009190 0.000000 1.759170 
# 
# From -- ./inp_files/96756.got.cif
#   From: 2010.06.25/outbox.cif.g09.slc.cpg/sg12_49_cif.got.tgz:96756.got - 2010.06.28 00:19:55.
