data_PCOD8111749
_publ_section_title
;
Structure prediction by ZEFSAII (Michael W. Deem and Ramdas Pophale) SiO2 
 PCOD8111749
Probable space group: C 2/M
;
_chemical_formula_sum "Si O2"
_cell_formula_units_Z 48
_cell_length_a 14.807464
_cell_length_b 25.166452
_cell_length_c 11.744346
_cell_angle_alpha 90.000000
_cell_angle_beta 150.149116
_cell_angle_gamma 90.000000
_cell_volume 2178.401447
_symmetry_space_group_name_H-M "C 2/M"
_symmetry_group_IT_number 12
_symmetry_cell_setting 'monoclinic'
loop_
_space_group_symop_operation_xyz
x,y,z
-x,y,-z
-x,-y,-z
x,-y,z
1/2+x,1/2+y,z
1/2-x,1/2+y,-z
1/2-x,1/2-y,-z
1/2+x,1/2-y,z
loop_
_atom_site_type_symbol
_atom_site_label
_atom_site_fract_x
_atom_site_fract_y
_atom_site_fract_z
Si Si1 0.052388 0.105315 0.313299
Si Si2 0.543005 0.108818 0.324669
Si Si3 0.945477 0.000000 0.810524
Si Si4 0.374904 0.182625 0.966192
Si Si5 0.500000 0.640787 0.500000
Si Si6 0.611752 0.697905 0.011167
Si Si7 0.974755 0.500000 0.608758
Si Si8 0.500000 0.167292 0.500000
O O1 0.268452 0.108385 0.535833
O O2 0.017219 0.102199 0.409716
O O3 0.976882 0.052423 0.168036
O O4 0.948317 0.157650 0.153410
O O5 0.586787 0.131920 0.496155
O O6 0.444760 0.052160 0.241773
O O7 0.396946 0.143179 0.096569
O O8 0.731881 0.000000 0.578426
O O9 0.000000 0.000000 0.000000
O O10 0.169509 0.180516 0.697610
O O11 0.436211 0.241418 0.074422
O O12 0.500000 0.163070 0.000000
O O13 0.828954 0.700145 0.266048
O O14 0.500000 0.680296 0.000000
O O15 0.000000 0.500000 0.500000
#
# Coordination Sequence:
#
# PCOD8111749 Si02
#       8
#     8   8   4   8   4   8   4   4
#     4  11  24  44  68 101 136 180 227 278 336 400
#     4  11  23  43  67 101 137 170 223 280 335 403
#     4  10  24  41  72 100 138 171 218 287 334 396
#     4  11  25  45  68  96 136 182 228 275 328 402
#     4  12  25  45  70  94 138 181 229 270 336 408
#     4  11  24  42  68 100 135 177 226 281 338 396
#     4  10  22  40  69 102 130 168 213 270 339 394
#     4  12  23  39  68 100 136 171 219 276 346 400
#
# _framework density 22.034506
#
# number of rings (size 3 to 8) (size 9 to 14) (size 15 to 20)
#    0.000    1.000    4.167    2.000    2.333    6.333 
#    0.000    1.250    0.000    0.000    0.000    0.000 
#    0.000    0.000    0.000    0.000    0.000    0.000 
#
# Total GULP energy -297576.683852 kJ/mol
# GULP energy per Si atom -12399.028494 kJ/mol
# Density = 2.198435 g / cm^3
# Si number density = 22.034506 Si / 1000 Ang^3
#
#
#
# Elastic Constant Matrix: (Units=GPa)
#
#
# Indices 1 2 3 4 5 6 
#
# 1 149.8568 54.5975 39.4870 0.0000 -19.0622 0.0000
# 2 54.5975 151.6639 44.5246 0.0000 -30.9115 0.0000
# 3 39.4870 44.5246 104.3167 0.0000 -3.0953 0.0000
# 4 0.0000 0.0000 0.0000 26.0417 0.0000 -16.1901
# 5 -19.0622 -30.9115 -3.0953 0.0000 45.6468 0.0000
# 6 0.0000 0.0000 0.0000 -16.1901 0.0000 -0.1529
#
#
#
# Elastic Compliance Matrix: (Units=1/GPa)
#
#
# Indices 1 2 3 4 5 6 
#
# 1 0.008206 -0.001890 -0.002240 0.000000 0.001995 0.000000
# 2 -0.001890 0.009250 -0.003077 0.000000 0.005267 0.000000
# 3 -0.002240 -0.003077 0.011681 0.000000 -0.002227 0.000000
# 4 0.000000 0.000000 0.000000 0.000575 0.000000 -0.060842
# 5 0.001995 0.005267 -0.002227 0.000000 0.026156 0.000000
# 6 0.000000 0.000000 0.000000 -0.060842 0.000000 -0.097863
#
#
# Mechanical properties :
#
#
# Convention : Reuss Voigt Hill
#
# Bulk Modulus (GPa) = 67.91613 75.89504 71.90559
# Shear Modulus (GPa) = -220.52002 32.12232 -94.19885
#
# Velocity S-wave (km/s) = -10.01482 3.82228 -6.54549
# Velocity P-wave (km/s) = 10.14097 7.34835 4.94171
#
# Compressibility (1/GPa) = 0.01472404
#
# Stress axis : x y z
#
# Youngs Moduli (GPa) = 121.86817 108.10322 85.60641
#
# Poissons Ratio (x) = 0.20427 0.19179
# Poissons Ratio (y) = 0.23028 0.26339
# Poissons Ratio (z) = 0.27303 0.33261
#
# Static dielectric constant tensor:
#      x y z
#    x 4.129220 0.000000 0.075980 
#    y 0.000000 4.109480 0.000000 
#    z 0.075980 0.000000 3.763870 
# 
# 
# High freq. dielectric constant tensor:
#      x y z
#    x 1.884800 0.000000 0.010790 
#    y 0.000000 1.861590 0.000000 
#    z 0.010790 0.000000 1.860030 
# 
# From -- ./inp_files/149944.got.cif
#   From: 2010.06.25/outbox.cif.g09.slc.cpg/sg12_75_cif.got.tgz:149944.got - 2010.06.28 00:19:55.
