data_PCOD8111632
_publ_section_title
;
Structure prediction by ZEFSAII (Michael W. Deem and Ramdas Pophale) SiO2 
 PCOD8111632
Probable space group: C 2/M
;
_chemical_formula_sum "Si O2"
_cell_formula_units_Z 48
_cell_length_a 12.452000
_cell_length_b 14.914211
_cell_length_c 13.841431
_cell_angle_alpha 90.000000
_cell_angle_beta 54.360574
_cell_angle_gamma 90.000000
_cell_volume 2089.058722
_symmetry_space_group_name_H-M "C 2/M"
_symmetry_group_IT_number 12
_symmetry_cell_setting 'monoclinic'
loop_
_space_group_symop_operation_xyz
x,y,z
-x,y,-z
-x,-y,-z
x,-y,z
1/2+x,1/2+y,z
1/2-x,1/2+y,-z
1/2-x,1/2-y,-z
1/2+x,1/2-y,z
loop_
_atom_site_type_symbol
_atom_site_label
_atom_site_fract_x
_atom_site_fract_y
_atom_site_fract_z
Si Si1 0.522960 0.898367 0.194336
Si Si2 0.596114 0.395281 0.220355
Si Si3 0.571108 0.100181 0.553317
Si Si4 0.683094 0.313732 0.613550
Si Si5 0.194881 0.835392 0.976580
Si Si6 0.836809 0.719229 0.178638
O O1 0.464550 0.853541 0.324258
O O2 0.681299 0.898696 0.115022
O O3 0.468420 0.838780 0.133804
O O4 0.472144 0.000000 0.207489
O O5 0.593341 0.500000 0.250968
O O6 0.467425 0.343166 0.326716
O O7 0.723986 0.348196 0.199510
O O8 0.597871 0.387112 0.101689
O O9 0.500000 0.149674 0.500000
O O10 0.726744 0.097470 0.446937
O O11 0.514284 0.000000 0.592779
O O12 0.750000 0.250000 0.500000
O O13 0.712077 0.269731 0.701163
O O14 0.123888 0.798201 0.917315
O O15 0.250000 0.750000 0.000000
#
# Coordination Sequence:
#
# PCOD8111632 Si02
#       6
#     8   8   8   8   8   8
#     4  11  22  41  66  98 131 175 224 271 329 397
#     4  11  26  47  67 100 140 180 223 285 347 401
#     4  10  22  40  64  92 129 173 222 273 328 397
#     4  12  25  41  67  95 136 174 228 274 341 398
#     4  10  23  41  67  97 136 171 222 275 339 398
#     4  11  23  43  70 102 135 179 227 283 334 396
#
# _framework density 22.976855
#
# number of rings (size 3 to 8) (size 9 to 14) (size 15 to 20)
#    0.000    1.167    1.667    4.500    2.333    6.000 
#    0.000    8.333    0.000    0.000    0.000    0.000 
#    0.000    0.000    0.000    0.000    0.000    0.000 
#
# Total GULP energy -297429.824074 kJ/mol
# GULP energy per Si atom -12392.909336 kJ/mol
# Density = 2.292456 g / cm^3
# Si number density = 22.976855 Si / 1000 Ang^3
#
#
#
# Elastic Constant Matrix: (Units=GPa)
#
#
# Indices 1 2 3 4 5 6 
#
# 1 113.2300 32.4316 45.8663 0.0000 -0.0841 0.0000
# 2 32.4316 84.5619 24.8417 0.0000 0.7704 0.0000
# 3 45.8663 24.8417 108.7539 0.0000 -6.9728 0.0000
# 4 0.0000 0.0000 0.0000 33.4114 0.0000 -4.9605
# 5 -0.0841 0.7704 -6.9728 0.0000 49.3168 0.0000
# 6 0.0000 0.0000 0.0000 -4.9605 0.0000 36.5366
#
#
#
# Elastic Compliance Matrix: (Units=1/GPa)
#
#
# Indices 1 2 3 4 5 6 
#
# 1 0.011406 -0.003159 -0.004122 0.000000 -0.000514 0.000000
# 2 -0.003159 0.013570 -0.001798 0.000000 -0.000472 0.000000
# 3 -0.004122 -0.001798 0.011449 0.000000 0.001640 0.000000
# 4 0.000000 0.000000 0.000000 0.030546 0.000000 0.004147
# 5 -0.000514 -0.000472 0.001640 0.000000 0.020515 0.000000
# 6 0.000000 0.000000 0.000000 0.004147 0.000000 0.027933
#
#
# Mechanical properties :
#
#
# Convention : Reuss Voigt Hill
#
# Bulk Modulus (GPa) = 54.74031 56.98055 55.86043
# Shear Modulus (GPa) = 35.80038 37.41338 36.60688
#
# Velocity S-wave (km/s) = 3.95157 4.03961 3.99583
# Velocity P-wave (km/s) = 6.68548 6.82721 6.75672
#
# Compressibility (1/GPa) = 0.01826807
#
# Stress axis : x y z
#
# Youngs Moduli (GPa) = 87.67699 73.69463 87.34328
#
# Poissons Ratio (x) = 0.23279 0.35999
# Poissons Ratio (y) = 0.27695 0.15701
# Poissons Ratio (z) = 0.36137 0.13247
#
# Static dielectric constant tensor:
#      x y z
#    x 4.691210 0.000000 0.051180 
#    y 0.000000 4.504880 0.000000 
#    z 0.051180 0.000000 5.384210 
# 
# 
# High freq. dielectric constant tensor:
#      x y z
#    x 1.900650 0.000000 0.001280 
#    y 0.000000 1.903750 0.000000 
#    z 0.001280 0.000000 1.922720 
# 
# From -- ./inp_files/204847.got.cif
#   From: 2010.06.25/outbox.cif.g09.slc.cpg/sg12_103_cif.got.tgz:204847.got - 2010.06.28 00:19:55.
