data_PCOD8111954
_publ_section_title
;
Structure prediction by ZEFSAII (Michael W. Deem and Ramdas Pophale) SiO2 
 PCOD8111954
Probable space group: C 2/M
;
_chemical_formula_sum "Si O2"
_cell_formula_units_Z 48
_cell_length_a 27.573267
_cell_length_b 8.551657
_cell_length_c 16.997362
_cell_angle_alpha 90.000000
_cell_angle_beta 144.094563
_cell_angle_gamma 90.000000
_cell_volume 2350.446865
_symmetry_space_group_name_H-M "C 2/M"
_symmetry_group_IT_number 12
_symmetry_cell_setting 'monoclinic'
loop_
_space_group_symop_operation_xyz
x,y,z
-x,y,-z
-x,-y,-z
x,-y,z
1/2+x,1/2+y,z
1/2-x,1/2+y,-z
1/2-x,1/2-y,-z
1/2+x,1/2-y,z
loop_
_atom_site_type_symbol
_atom_site_label
_atom_site_fract_x
_atom_site_fract_y
_atom_site_fract_z
Si Si1 0.161052 0.683413 0.401906
Si Si2 0.005595 0.682646 0.098828
Si Si3 0.631662 0.319923 0.973385
Si Si4 0.590239 0.180180 0.755150
Si Si5 0.801567 0.819874 0.236349
Si Si6 0.898254 0.683163 0.506155
O O1 0.169367 0.500000 0.415357
O O2 0.250000 0.750000 0.500000
O O3 0.128760 0.744037 0.443567
O O4 0.095699 0.734147 0.248995
O O5 0.989470 0.500000 0.094735
O O6 0.936601 0.783104 0.051336
O O7 0.000000 0.722407 0.000000
O O8 0.625049 0.500000 0.939517
O O9 0.619942 0.211293 0.882348
O O10 0.720778 0.287237 0.127523
O O11 0.639937 0.288356 0.760907
O O12 0.494274 0.220351 0.620619
O O13 0.607819 0.000000 0.757490
O O14 0.848505 0.783057 0.378183
O O15 0.774775 0.000000 0.200610
O O16 0.880137 0.500000 0.470764
#
# Coordination Sequence:
#
# PCOD8111954 Si02
#       6
#     8   8   8   8   8   8
#     4  10  22  41  64  94 128 165 206 255 313 372
#     4  10  22  43  68  94 126 166 210 257 316 375
#     4  12  25  42  65  94 129 167 213 261 314 374
#     4  11  22  43  69  92 126 168 211 259 319 376
#     4  12  26  41  62  94 130 167 213 262 313 373
#     4  10  22  42  65  91 128 169 209 257 316 376
#
# _framework density 20.421648000000001
#
# number of rings (size 3 to 8) (size 9 to 14) (size 15 to 20)
#    0.000    1.167    1.667    4.500    2.333    5.000 
#    0.000    0.000    0.000    0.000    0.000    0.000 
#    0.000    0.000    0.000    0.000    0.000    0.000 
#
# Total GULP energy -297766.145042 kJ/mol
# GULP energy per Si atom -12406.922710 kJ/mol
# Density = 2.037517 g / cm^3
# Si number density = 20.421648 Si / 1000 Ang^3
#
#
#
# Elastic Constant Matrix: (Units=GPa)
#
#
# Indices 1 2 3 4 5 6 
#
# 1 117.4453 32.3089 64.4555 0.0000 2.7195 0.0000
# 2 32.3089 62.3615 33.6205 0.0000 6.4229 0.0000
# 3 64.4555 33.6205 148.0879 0.0000 0.4721 0.0000
# 4 0.0000 0.0000 0.0000 7.7589 0.0000 19.5047
# 5 2.7195 6.4229 0.4721 0.0000 42.9841 0.0000
# 6 0.0000 0.0000 0.0000 19.5047 0.0000 25.1100
#
#
#
# Elastic Compliance Matrix: (Units=1/GPa)
#
#
# Indices 1 2 3 4 5 6 
#
# 1 0.011951 -0.003844 -0.004328 0.000000 -0.000134 0.000000
# 2 -0.003844 0.019824 -0.002819 0.000000 -0.002688 0.000000
# 3 -0.004328 -0.002819 0.009275 0.000000 0.000593 0.000000
# 4 0.000000 0.000000 0.000000 -0.135285 0.000000 0.105085
# 5 -0.000134 -0.002688 0.000593 0.000000 0.023668 0.000000
# 6 0.000000 0.000000 0.000000 0.105085 0.000000 -0.041802
#
#
# Mechanical properties :
#
#
# Convention : Reuss Voigt Hill
#
# Bulk Modulus (GPa) = 52.44844 65.40716 58.92780
# Shear Modulus (GPa) = -59.50128 28.33793 -15.58167
#
# Velocity S-wave (km/s) = -5.40367 3.72915 -2.76524
# Velocity P-wave (km/s) = 3.63240 7.11617 4.32699
#
# Compressibility (1/GPa) = 0.01906635
#
# Stress axis : x y z
#
# Youngs Moduli (GPa) = 83.67706 50.44463 107.81967
#
# Poissons Ratio (x) = 0.19392 0.46668
# Poissons Ratio (y) = 0.32167 0.30392
# Poissons Ratio (z) = 0.36219 0.14219
#
# Static dielectric constant tensor:
#      x y z
#    x 3.618230 0.000000 -0.080370 
#    y 0.000000 3.542120 0.000000 
#    z -0.080370 0.000000 3.847680 
# 
# 
# High freq. dielectric constant tensor:
#      x y z
#    x 1.808120 0.000000 0.000100 
#    y 0.000000 1.792620 0.000000 
#    z 0.000100 0.000000 1.815700 
# 
# From -- ./inp_files/295882.got.cif
#   From: 2010.06.25/outbox.cif.g09.slc.cpg/sg12_148_cif.got.tgz:295882.got - 2010.06.28 00:19:55.
