data_PCOD8111354
_publ_section_title
;
Structure prediction by ZEFSAII (Michael W. Deem and Ramdas Pophale) SiO2 
 PCOD8111354
Probable space group: C 2/M
;
_chemical_formula_sum "Si O2"
_cell_formula_units_Z 56
_cell_length_a 17.962445
_cell_length_b 8.788267
_cell_length_c 28.500280
_cell_angle_alpha 90.000000
_cell_angle_beta 140.972590
_cell_angle_gamma 90.000000
_cell_volume 2832.996688
_symmetry_space_group_name_H-M "C 2/M"
_symmetry_group_IT_number 12
_symmetry_cell_setting 'monoclinic'
loop_
_space_group_symop_operation_xyz
x,y,z
-x,y,-z
-x,-y,-z
x,-y,z
1/2+x,1/2+y,z
1/2-x,1/2+y,-z
1/2-x,1/2-y,-z
1/2+x,1/2-y,z
loop_
_atom_site_type_symbol
_atom_site_label
_atom_site_fract_x
_atom_site_fract_y
_atom_site_fract_z
Si Si1 0.420146 0.167556 0.506596
Si Si2 0.377429 0.324031 0.063324
Si Si3 0.804784 0.321663 0.209976
Si Si4 0.551951 0.822481 0.076137
Si Si5 0.041423 0.174304 0.791442
Si Si6 0.113307 0.178335 0.655753
Si Si7 0.773628 0.820031 0.655621
O O1 0.500000 0.155049 0.500000
O O2 0.480737 0.280046 0.573417
O O3 0.292895 0.227987 0.425497
O O4 0.407755 0.000000 0.523653
O O5 0.370818 0.500000 0.044358
O O6 0.456504 0.227523 0.067070
O O7 0.433412 0.308309 0.141688
O O8 0.250000 0.250000 0.000000
O O9 0.810516 0.500000 0.220926
O O10 0.669535 0.272515 0.141910
O O11 0.867773 0.278554 0.192278
O O12 0.873155 0.240826 0.285536
O O13 0.581045 0.000000 0.096123
O O14 0.500000 0.785078 0.000000
O O15 0.908550 0.232565 0.716840
O O16 0.057365 0.000000 0.782886
O O17 0.215244 0.243908 0.672410
O O18 0.126921 0.000000 0.663141
O O19 0.763212 0.000000 0.658562
#
# Coordination Sequence:
#
# PCOD8111354 Si02
#       7
#     8   8   8   8   8   8   8
#     4   8  15  30  53  81 112 146 186 234 288 343
#     4  11  23  39  62  90 121 156 193 235 282 337
#     4  12  25  40  59  83 114 152 194 237 284 340
#     4  11  24  42  64  90 120 152 189 235 284 336
#     4  10  22  40  59  82 113 149 190 236 287 338
#     4  11  21  34  56  84 115 150 191 238 285 339
#     4   9  18  35  59  84 113 149 189 237 291 345
#
# _framework density 19.767056
#
# number of rings (size 3 to 8) (size 9 to 14) (size 15 to 20)
#    0.000    1.714    0.000    6.000    0.000   10.000 
#    0.000    0.714    0.000    0.000    0.000    0.000 
#    0.000    0.000    0.000    0.000    0.000    0.000 
#
# Total GULP energy -347262.399085 kJ/mol
# GULP energy per Si atom -12402.228539 kJ/mol
# Density = 1.972207 g / cm^3
# Si number density = 19.767056 Si / 1000 Ang^3
#
#
#
# Elastic Constant Matrix: (Units=GPa)
#
#
# Indices 1 2 3 4 5 6 
#
# 1 84.9367 16.2032 33.2605 0.0000 6.6805 -0.0001
# 2 16.2032 64.2870 24.3107 0.0001 -3.5554 -0.0003
# 3 33.2605 24.3107 111.8980 0.0000 14.3127 0.0000
# 4 0.0000 0.0001 0.0000 33.5918 0.0000 -0.6560
# 5 6.6805 -3.5554 14.3127 0.0000 34.0255 0.0000
# 6 -0.0001 -0.0003 0.0000 -0.6560 0.0000 36.9710
#
#
#
# Elastic Compliance Matrix: (Units=1/GPa)
#
#
# Indices 1 2 3 4 5 6 
#
# 1 0.013641 -0.002244 -0.003376 0.000000 -0.001493 0.000000
# 2 -0.002244 0.017723 -0.003674 0.000000 0.003838 0.000000
# 3 -0.003376 -0.003674 0.011311 0.000000 -0.004479 0.000000
# 4 0.000000 0.000000 0.000000 0.029779 0.000000 0.000528
# 5 -0.001493 0.003838 -0.004479 0.000000 0.031968 0.000000
# 6 0.000000 0.000000 0.000000 0.000528 0.000000 0.027058
#
#
# Mechanical properties :
#
#
# Convention : Reuss Voigt Hill
#
# Bulk Modulus (GPa) = 41.51770 45.40782 43.46276
# Shear Modulus (GPa) = 31.62603 33.40750 32.51676
#
# Velocity S-wave (km/s) = 4.00426 4.11549 4.06026
# Velocity P-wave (km/s) = 6.51367 6.75310 6.63446
#
# Compressibility (1/GPa) = 0.02408611
#
# Stress axis : x y z
#
# Youngs Moduli (GPa) = 73.30820 56.42532 88.40600
#
# Poissons Ratio (x) = 0.12662 0.29848
# Poissons Ratio (y) = 0.16450 0.32483
# Poissons Ratio (z) = 0.24751 0.20732
#
# Static dielectric constant tensor:
#      x y z
#    x 3.708360 0.000000 0.054100 
#    y 0.000000 3.753930 0.000000 
#    z 0.054100 0.000000 4.068340 
# 
# 
# High freq. dielectric constant tensor:
#      x y z
#    x 1.756090 0.000000 0.004280 
#    y 0.000000 1.771770 0.000000 
#    z 0.004280 0.000000 1.793000 
# 
# From -- ./inp_files/363119.got.cif
#   From: 2010.06.25/outbox.cif.g09.slc.cpg/sg12_182_cif.got.tgz:363119.got - 2010.06.28 00:19:55.
