data_PCOD8111579
_publ_section_title
;
Structure prediction by ZEFSAII (Michael W. Deem and Ramdas Pophale) SiO2 
 PCOD8111579
Probable space group: C 2/M
;
_chemical_formula_sum "Si O2"
_cell_formula_units_Z 48
_cell_length_a 14.708151
_cell_length_b 12.992067
_cell_length_c 15.159110
_cell_angle_alpha 90.000000
_cell_angle_beta 129.258656
_cell_angle_gamma 90.000000
_cell_volume 2242.939916
_symmetry_space_group_name_H-M "C 2/M"
_symmetry_group_IT_number 12
_symmetry_cell_setting 'monoclinic'
loop_
_space_group_symop_operation_xyz
x,y,z
-x,y,-z
-x,-y,-z
x,-y,z
1/2+x,1/2+y,z
1/2-x,1/2+y,-z
1/2-x,1/2-y,-z
1/2+x,1/2-y,z
loop_
_atom_site_type_symbol
_atom_site_label
_atom_site_fract_x
_atom_site_fract_y
_atom_site_fract_z
Si Si1 0.442803 0.754716 0.639652
Si Si2 0.123024 0.316294 0.052672
Si Si3 0.158143 0.117835 0.707783
Si Si4 0.798404 0.112558 0.829574
Si Si5 0.600468 0.885124 0.851923
Si Si6 0.781141 0.714954 0.387844
O O1 0.544669 0.672874 0.680429
O O2 0.488133 0.845108 0.730087
O O3 0.336667 0.700964 0.627052
O O4 0.393519 0.805421 0.519201
O O5 0.235474 0.377972 0.156957
O O6 0.111461 0.204548 0.094500
O O7 0.131572 0.310005 0.952214
O O8 0.000000 0.373164 0.000000
O O9 0.200767 0.171373 0.643375
O O10 0.125705 0.000000 0.667334
O O11 0.710538 0.114964 0.856303
O O12 0.724655 0.132482 0.694745
O O13 0.860057 0.000000 0.860962
O O14 0.572995 0.000000 0.869721
#
# Coordination Sequence:
#
# PCOD8111579 Si02
#       6
#     8   8   8   8   8   8
#     4  11  23  41  66  95 128 171 213 267 326 387
#     4  11  23  42  65  91 129 168 211 272 323 381
#     4  11  24  43  68  95 129 174 220 269 326 390
#     4  10  22  40  63  91 124 166 211 258 317 386
#     4  11  22  38  63  91 121 165 213 254 316 387
#     4  10  23  42  64  94 132 165 213 271 325 384
#
# _framework density 21.400485
#
# number of rings (size 3 to 8) (size 9 to 14) (size 15 to 20)
#    0.000    1.333    3.333    3.500    0.000    6.333 
#    0.000    5.000    0.000    0.000    0.000    0.000 
#    0.000    0.000    0.000    0.000    0.000    0.000 
#
# Total GULP energy -297503.929575 kJ/mol
# GULP energy per Si atom -12395.997066 kJ/mol
# Density = 2.135178 g / cm^3
# Si number density = 21.400485 Si / 1000 Ang^3
#
#
#
# Elastic Constant Matrix: (Units=GPa)
#
#
# Indices 1 2 3 4 5 6 
#
# 1 98.4761 11.9979 38.6007 0.0000 4.5787 0.0000
# 2 11.9979 84.2424 23.1604 0.0000 -3.4943 0.0000
# 3 38.6007 23.1604 155.2371 0.0000 -9.5724 0.0000
# 4 0.0000 0.0000 0.0000 11.6740 0.0000 -2.6715
# 5 4.5787 -3.4943 -9.5724 0.0000 43.4381 0.0000
# 6 0.0000 0.0000 0.0000 -2.6715 0.0000 13.9552
#
#
#
# Elastic Compliance Matrix: (Units=1/GPa)
#
#
# Indices 1 2 3 4 5 6 
#
# 1 0.011466 -0.000934 -0.002829 0.000000 -0.001907 0.000000
# 2 -0.000934 0.012470 -0.001582 0.000000 0.000753 0.000000
# 3 -0.002829 -0.001582 0.007494 0.000000 0.001822 0.000000
# 4 0.000000 0.000000 0.000000 0.089585 0.000000 0.017149
# 5 -0.001907 0.000753 0.001822 0.000000 0.023684 0.000000
# 6 0.000000 0.000000 0.000000 0.017149 0.000000 0.074941
#
#
# Mechanical properties :
#
#
# Convention : Reuss Voigt Hill
#
# Bulk Modulus (GPa) = 48.21841 53.94151 51.07996
# Shear Modulus (GPa) = 21.07541 31.42657 26.25099
#
# Velocity S-wave (km/s) = 3.14157 3.83626 3.50616
# Velocity P-wave (km/s) = 5.97827 6.69947 6.34912
#
# Compressibility (1/GPa) = 0.02073897
#
# Stress axis : x y z
#
# Youngs Moduli (GPa) = 87.21192 80.19478 133.44633
#
# Poissons Ratio (x) = 0.07492 0.37757
# Poissons Ratio (y) = 0.08148 0.21106
# Poissons Ratio (z) = 0.24676 0.12684
#
# Static dielectric constant tensor:
#      x y z
#    x 3.863950 0.000000 -0.054910 
#    y 0.000000 4.012780 0.000000 
#    z -0.054910 0.000000 4.114280 
# 
# 
# High freq. dielectric constant tensor:
#      x y z
#    x 1.845820 0.000000 -0.005910 
#    y 0.000000 1.817580 0.000000 
#    z -0.005910 0.000000 1.855800 
# 
# From -- ./inp_files/214648.got.cif
#   From: 2010.06.25/outbox.cif.g09.slc.cpg/sg12_108_cif.got.tgz:214648.got - 2010.06.28 00:19:55.
