data_PCOD8111221
_publ_section_title
;
Structure prediction by ZEFSAII (Michael W. Deem and Ramdas Pophale) SiO2 
 PCOD8111221
Probable space group: C 2/M
;
_chemical_formula_sum "Si O2"
_cell_formula_units_Z 64
_cell_length_a 30.766530
_cell_length_b 8.967383
_cell_length_c 14.063351
_cell_angle_alpha 90.000000
_cell_angle_beta 57.555733
_cell_angle_gamma 90.000000
_cell_volume 3274.395125
_symmetry_space_group_name_H-M "C 2/M"
_symmetry_group_IT_number 12
_symmetry_cell_setting 'monoclinic'
loop_
_space_group_symop_operation_xyz
x,y,z
-x,y,-z
-x,-y,-z
x,-y,z
1/2+x,1/2+y,z
1/2-x,1/2+y,-z
1/2-x,1/2-y,-z
1/2+x,1/2-y,z
loop_
_atom_site_type_symbol
_atom_site_label
_atom_site_fract_x
_atom_site_fract_y
_atom_site_fract_z
Si Si1 0.416453 0.174497 0.493088
Si Si2 0.355015 0.176206 0.076114
Si Si3 0.305525 0.822988 0.936973
Si Si4 0.036586 0.827065 0.042234
Si Si5 0.610360 0.326816 0.280367
Si Si6 0.508601 0.329561 0.285424
Si Si7 0.715635 0.824071 0.671803
Si Si8 0.684634 0.826149 0.500252
O O1 0.409733 0.267857 0.596065
O O2 0.470352 0.217590 0.382605
O O3 0.371451 0.216871 0.472221
O O4 0.416765 0.000000 0.517322
O O5 0.318150 0.239945 0.202147
O O6 0.357157 0.000000 0.078716
O O7 0.333173 0.230214 0.000986
O O8 0.411679 0.235007 0.026622
O O9 0.338804 0.763429 0.809422
O O10 0.300307 0.000000 0.936003
O O11 0.250000 0.750000 0.000000
O O12 0.007296 0.793841 0.175110
O O13 0.051038 0.000000 0.017035
O O14 0.000000 0.774269 0.000000
O O15 0.624749 0.500000 0.272527
O O16 0.566197 0.299968 0.254342
O O17 0.491960 0.500000 0.325972
O O18 0.688455 0.774015 0.605328
O O19 0.772694 0.756705 0.613116
O O20 0.721018 0.000000 0.672289
O O21 0.695712 0.000000 0.477681
#
# Coordination Sequence:
#
# PCOD8111221 Si02
#       8
#     8   8   8   8   8   8   8   8
#     4  11  24  38  59  90 119 150 194 247 297 353
#     4  10  22  39  62  91 121 156 199 244 299 359
#     4  11  24  41  62  92 125 160 203 249 301 360
#     4  10  22  40  62  90 123 159 202 247 296 356
#     4  11  23  42  64  85 116 158 199 245 299 353
#     4  10  22  41  61  85 117 155 197 242 295 354
#     4   9  19  37  59  82 115 153 191 234 284 347
#     4   9  20  38  56  83 117 151 190 236 290 344
#
# _framework density 19.545594999999999
#
# number of rings (size 3 to 8) (size 9 to 14) (size 15 to 20)
#    0.000    1.875    1.250    1.500    3.500    5.250 
#    0.000    0.000    0.000    0.000    0.000    0.000 
#    0.000    0.000    0.000    0.000    0.000    0.000 
#
# Total GULP energy -396966.474257 kJ/mol
# GULP energy per Si atom -12405.202321 kJ/mol
# Density = 1.950111 g / cm^3
# Si number density = 19.545595 Si / 1000 Ang^3
#
#
#
# Elastic Constant Matrix: (Units=GPa)
#
#
# Indices 1 2 3 4 5 6 
#
# 1 86.7859 40.4234 42.2141 0.0000 -10.0980 0.0000
# 2 40.4234 48.5886 33.3984 0.0000 -1.4634 0.0000
# 3 42.2141 33.3984 122.7278 0.0000 -5.0295 0.0000
# 4 0.0000 0.0000 0.0000 36.5105 0.0000 -8.0409
# 5 -10.0980 -1.4634 -5.0295 0.0000 28.8247 0.0000
# 6 0.0000 0.0000 0.0000 -8.0409 0.0000 29.0473
#
#
#
# Elastic Compliance Matrix: (Units=1/GPa)
#
#
# Indices 1 2 3 4 5 6 
#
# 1 0.020550 -0.015039 -0.002731 0.000000 0.005959 0.000000
# 2 -0.015039 0.036323 -0.004887 0.000000 -0.004277 0.000000
# 3 -0.002731 -0.004887 0.010443 0.000000 0.000617 0.000000
# 4 0.000000 0.000000 0.000000 0.029168 0.000000 0.008074
# 5 0.005959 -0.004277 0.000617 0.000000 0.036671 0.000000
# 6 0.000000 0.000000 0.000000 0.008074 0.000000 0.036662
#
#
# Mechanical properties :
#
#
# Convention : Reuss Voigt Hill
#
# Bulk Modulus (GPa) = 45.45426 54.46380 49.95903
# Shear Modulus (GPa) = 22.47546 28.34759 25.41152
#
# Velocity S-wave (km/s) = 3.39470 3.81245 3.60962
# Velocity P-wave (km/s) = 6.21862 6.87788 6.55654
#
# Compressibility (1/GPa) = 0.02200014
#
# Stress axis : x y z
#
# Youngs Moduli (GPa) = 48.66271 27.53050 95.75899
#
# Poissons Ratio (x) = 0.41404 0.26156
# Poissons Ratio (y) = 0.73185 0.46799
# Poissons Ratio (z) = 0.13292 0.13454
#
# Static dielectric constant tensor:
#      x y z
#    x 3.828460 0.000000 0.355720 
#    y 0.000000 3.483020 0.000000 
#    z 0.355720 0.000000 3.978770 
# 
# 
# High freq. dielectric constant tensor:
#      x y z
#    x 1.768410 0.000000 0.002460 
#    y 0.000000 1.757960 0.000000 
#    z 0.002460 0.000000 1.772540 
# 
# From -- ./inp_files/249715.got.cif
#   From: 2010.06.25/outbox.cif.g09.slc.cpg/sg12_125_cif.got.tgz:249715.got - 2010.06.28 00:19:55.
