data_PCOD8111716
_publ_section_title
;
Structure prediction by ZEFSAII (Michael W. Deem and Ramdas Pophale) SiO2 
 PCOD8111716
Probable space group: C 2/M
;
_chemical_formula_sum "Si O2"
_cell_formula_units_Z 40
_cell_length_a 9.249092
_cell_length_b 16.881811
_cell_length_c 25.852824
_cell_angle_alpha 90.000000
_cell_angle_beta 152.744404
_cell_angle_gamma 90.000000
_cell_volume 1848.648630
_symmetry_space_group_name_H-M "C 2/M"
_symmetry_group_IT_number 12
_symmetry_cell_setting 'monoclinic'
loop_
_space_group_symop_operation_xyz
x,y,z
-x,y,-z
-x,-y,-z
x,-y,z
1/2+x,1/2+y,z
1/2-x,1/2+y,-z
1/2-x,1/2-y,-z
1/2+x,1/2-y,z
loop_
_atom_site_type_symbol
_atom_site_label
_atom_site_fract_x
_atom_site_fract_y
_atom_site_fract_z
Si Si1 0.837475 0.090218 0.582676
Si Si2 0.343590 0.827245 0.001612
Si Si3 0.258715 0.410821 0.766723
Si Si4 0.316742 0.302136 0.389670
Si Si5 0.028199 0.859707 0.748113
O O1 0.500000 0.112440 0.500000
O O2 0.934806 0.156948 0.571400
O O3 0.058988 0.096303 0.703174
O O4 0.846254 0.000000 0.562844
O O5 0.609438 0.869193 0.119994
O O6 0.500000 0.794750 0.000000
O O7 0.250000 0.750000 0.000000
O O8 0.048808 0.882900 0.894696
O O9 0.194127 0.500000 0.761635
O O10 0.320080 0.404677 0.724778
O O11 0.940315 0.366778 0.678707
O O12 0.500000 0.276110 0.500000
O O13 0.126302 0.228120 0.304860
#
# Coordination Sequence:
#
# PCOD8111716 Si02
#       5
#     8   8   8   8   8
#     4  11  25  43  63  92 130 170 213 267 326 379
#     4  10  22  40  66  93 128 169 209 259 318 380
#     4  11  24  42  66  99 132 169 215 266 322 381
#     4  12  25  42  66  95 130 173 218 266 321 385
#     4  11  23  41  68  92 128 169 218 264 313 386
#
# _framework density 21.637426999999999
#
# number of rings (size 3 to 8) (size 9 to 14) (size 15 to 20)
#    0.000    1.000    2.000    4.200    2.800   10.000 
#    0.000    0.000    0.000    3.000    0.000    0.000 
#    0.000    0.000    0.000    0.000    0.000    0.000 
#
# Total GULP energy -247868.172368 kJ/mol
# GULP energy per Si atom -12393.408618 kJ/mol
# Density = 2.158818 g / cm^3
# Si number density = 21.637427 Si / 1000 Ang^3
#
#
#
# Elastic Constant Matrix: (Units=GPa)
#
#
# Indices 1 2 3 4 5 6 
#
# 1 58.3065 -5.8238 32.9142 0.0024 0.3656 0.0004
# 2 -5.8238 88.2976 13.1937 0.0024 3.6797 -0.0007
# 3 32.9142 13.1937 102.6133 0.0049 -10.2449 -0.0030
# 4 0.0024 0.0024 0.0049 34.1539 0.0011 1.3736
# 5 0.3656 3.6797 -10.2449 0.0011 38.5708 0.0010
# 6 0.0004 -0.0007 -0.0030 1.3736 0.0010 24.0119
#
#
#
# Elastic Compliance Matrix: (Units=1/GPa)
#
#
# Indices 1 2 3 4 5 6 
#
# 1 0.021692 0.002661 -0.007546 0.000000 -0.002464 -0.000001
# 2 0.002661 0.011963 -0.002576 -0.000001 -0.001851 0.000000
# 3 -0.007546 -0.002576 0.012870 -0.000001 0.003736 0.000002
# 4 0.000000 -0.000001 -0.000001 0.029347 -0.000001 -0.001679
# 5 -0.002464 -0.001851 0.003736 -0.000001 0.027119 -0.000001
# 6 -0.000001 0.000000 0.000002 -0.001679 -0.000001 0.041742
#
#
# Mechanical properties :
#
#
# Convention : Reuss Voigt Hill
#
# Bulk Modulus (GPa) = 31.64386 36.64283 34.14334
# Shear Modulus (GPa) = 29.37915 33.27622 31.32768
#
# Velocity S-wave (km/s) = 3.68882 3.92586 3.80919
# Velocity P-wave (km/s) = 5.72709 6.12548 5.92963
#
# Compressibility (1/GPa) = 0.03160171
#
# Stress axis : x y z
#
# Youngs Moduli (GPa) = 46.10062 83.59135 77.70008
#
# Poissons Ratio (x) = -0.22243 0.58632
# Poissons Ratio (y) = -0.12267 0.20019
# Poissons Ratio (z) = 0.34787 0.21537
#
# Static dielectric constant tensor:
#      x y z
#    x 4.083510 0.000000 -0.223130 
#    y 0.000000 3.791250 -0.000030 
#    z -0.223130 -0.000030 4.820230 
# 
# 
# High freq. dielectric constant tensor:
#      x y z
#    x 1.852870 0.000000 -0.001800 
#    y 0.000000 1.852030 0.000000 
#    z -0.001800 0.000000 1.870040 
# 
# From -- ./inp_files/118935.got.cif
#   From: 2010.06.25/outbox.cif.g09.slc.cpg/sg12_60_cif.got.tgz:118935.got - 2010.06.28 00:19:55.
