data_PCOD8111629
_publ_section_title
;
Structure prediction by ZEFSAII (Michael W. Deem and Ramdas Pophale) SiO2 
 PCOD8111629
Probable space group: C 2/M
;
_chemical_formula_sum "Si O2"
_cell_formula_units_Z 48
_cell_length_a 29.038153
_cell_length_b 8.416793
_cell_length_c 16.021606
_cell_angle_alpha 90.000000
_cell_angle_beta 35.836147
_cell_angle_gamma 90.000000
_cell_volume 2292.586707
_symmetry_space_group_name_H-M "C 2/M"
_symmetry_group_IT_number 12
_symmetry_cell_setting 'monoclinic'
loop_
_space_group_symop_operation_xyz
x,y,z
-x,y,-z
-x,-y,-z
x,-y,z
1/2+x,1/2+y,z
1/2-x,1/2+y,-z
1/2-x,1/2-y,-z
1/2+x,1/2-y,z
loop_
_atom_site_type_symbol
_atom_site_label
_atom_site_fract_x
_atom_site_fract_y
_atom_site_fract_z
Si Si1 0.085568 0.684525 0.872959
Si Si2 0.990092 0.819002 0.612568
Si Si3 0.166385 0.816873 0.603085
Si Si4 0.670087 0.813210 0.077520
Si Si5 0.794771 0.687239 0.163052
Si Si6 0.642437 0.817841 0.462571
O O1 0.078853 0.500000 0.903945
O O2 0.109701 0.711865 0.742640
O O3 0.145982 0.756700 0.852882
O O4 0.000000 0.766221 0.000000
O O5 0.903593 0.768978 0.769642
O O6 0.000000 0.802033 0.500000
O O7 0.055483 0.703620 0.554425
O O8 0.005030 0.000000 0.618953
O O9 0.250000 0.750000 0.500000
O O10 0.148130 0.796551 0.533290
O O11 0.159646 0.000000 0.638289
O O12 0.664313 0.000000 0.100873
O O13 0.750000 0.750000 0.000000
O O14 0.669566 0.771585 0.979798
O O15 0.781681 0.500000 0.193211
O O16 0.709726 0.770139 0.297250
O O17 0.653774 0.000000 0.472413
#
# Coordination Sequence:
#
# PCOD8111629 Si02
#       6
#     8   8   8   8   8   8
#     4  10  22  40  64  92 127 168 211 262 319 377
#     4  11  25  45  68  96 130 167 209 263 322 378
#     4  12  24  41  64  94 129 169 216 264 315 374
#     4  11  24  42  66  96 130 169 211 259 318 380
#     4  10  22  41  63  91 128 167 208 261 321 377
#     4  12  25  41  66  96 128 168 215 264 316 378
#
# _framework density 20.937049999999999
#
# number of rings (size 3 to 8) (size 9 to 14) (size 15 to 20)
#    0.000    1.000    1.667    5.000    2.333    7.000 
#    0.000    0.000    0.000    0.000    0.000    0.000 
#    0.000    0.000    0.000    0.000    0.000    0.000 
#
# Total GULP energy -297641.272944 kJ/mol
# GULP energy per Si atom -12401.719706 kJ/mol
# Density = 2.088940 g / cm^3
# Si number density = 20.937050 Si / 1000 Ang^3
#
#
#
# Elastic Constant Matrix: (Units=GPa)
#
#
# Indices 1 2 3 4 5 6 
#
# 1 95.8453 34.8727 54.3611 -0.0053 -10.0933 0.0025
# 2 34.8727 58.2972 26.1824 -0.0182 0.8643 0.0109
# 3 54.3611 26.1824 168.9133 -0.0086 -10.6859 0.0062
# 4 -0.0053 -0.0182 -0.0086 24.9649 0.0061 3.0189
# 5 -10.0933 0.8643 -10.6859 0.0061 43.7373 -0.0031
# 6 0.0025 0.0109 0.0062 3.0189 -0.0031 29.9397
#
#
#
# Elastic Compliance Matrix: (Units=1/GPa)
#
#
# Indices 1 2 3 4 5 6 
#
# 1 0.015623 -0.007751 -0.003645 -0.000005 0.002868 0.000003
# 2 -0.007751 0.022333 -0.001126 0.000016 -0.002505 -0.000009
# 3 -0.003645 -0.001126 0.007329 0.000001 0.000972 -0.000001
# 4 -0.000005 0.000016 0.000001 0.040551 -0.000007 -0.004089
# 5 0.002868 -0.002505 0.000972 -0.000007 0.023813 0.000004
# 6 0.000003 -0.000009 -0.000001 -0.004089 0.000004 0.033813
#
#
# Mechanical properties :
#
#
# Convention : Reuss Voigt Hill
#
# Bulk Modulus (GPa) = 49.40324 61.54315 55.47320
# Shear Modulus (GPa) = 28.53042 33.57102 31.05072
#
# Velocity S-wave (km/s) = 3.69545 4.00862 3.85522
# Velocity P-wave (km/s) = 6.46960 7.13328 6.80953
#
# Compressibility (1/GPa) = 0.02024159
#
# Stress axis : x y z
#
# Youngs Moduli (GPa) = 64.00814 44.77739 136.43972
#
# Poissons Ratio (x) = 0.34707 0.49733
# Poissons Ratio (y) = 0.49612 0.15359
# Poissons Ratio (z) = 0.23331 0.05041
#
# Static dielectric constant tensor:
#      x y z
#    x 3.885320 0.000000 -0.075550 
#    y 0.000000 3.747140 -0.000030 
#    z -0.075550 -0.000030 4.027320 
# 
# 
# High freq. dielectric constant tensor:
#      x y z
#    x 1.828780 0.000000 -0.001710 
#    y 0.000000 1.816980 0.000000 
#    z -0.001710 0.000000 1.836100 
# 
# From -- ./inp_files/244718.got.cif
#   From: 2010.06.25/outbox.cif.g09.slc.cpg/sg12_123_cif.got.tgz:244718.got - 2010.06.28 00:19:55.
