data_PCOD8111927
_publ_section_title
;
Structure prediction by ZEFSAII (Michael W. Deem and Ramdas Pophale) SiO2 
 PCOD8111927
Probable space group: C 2/M
;
_chemical_formula_sum "Si O2"
_cell_formula_units_Z 56
_cell_length_a 15.848476
_cell_length_b 8.879377
_cell_length_c 20.817272
_cell_angle_alpha 90.000000
_cell_angle_beta 67.765510
_cell_angle_gamma 90.000000
_cell_volume 2711.673059
_symmetry_space_group_name_H-M "C 2/M"
_symmetry_group_IT_number 12
_symmetry_cell_setting 'monoclinic'
loop_
_space_group_symop_operation_xyz
x,y,z
-x,y,-z
-x,-y,-z
x,-y,z
1/2+x,1/2+y,z
1/2-x,1/2+y,-z
1/2-x,1/2-y,-z
1/2+x,1/2-y,z
loop_
_atom_site_type_symbol
_atom_site_label
_atom_site_fract_x
_atom_site_fract_y
_atom_site_fract_z
Si Si1 0.862070 0.328846 0.077819
Si Si2 0.956809 0.321929 0.578570
Si Si3 0.426821 0.825320 0.332817
Si Si4 0.764959 0.323610 0.789417
Si Si5 0.735777 0.674264 0.339334
Si Si6 0.439692 0.171575 0.921734
Si Si7 0.062805 0.823995 0.209226
O O1 0.827678 0.500000 0.095961
O O2 0.789547 0.217602 0.130364
O O3 0.957828 0.306906 0.084705
O O4 0.871465 0.288732 0.999814
O O5 0.947078 0.500000 0.581474
O O6 0.024923 0.268830 0.615666
O O7 0.000000 0.262389 0.500000
O O8 0.855589 0.256978 0.612924
O O9 0.317185 0.800976 0.367859
O O10 0.463511 0.727338 0.262075
O O11 0.448663 0.000000 0.313101
O O12 0.760933 0.500000 0.778692
O O13 0.724839 0.239296 0.738991
O O14 0.868783 0.270511 0.766039
O O15 0.712594 0.500000 0.337080
O O16 0.420437 0.286222 0.870015
O O17 0.423665 0.000000 0.903184
O O18 0.078061 0.000000 0.215087
#
# Coordination Sequence:
#
# PCOD8111927 Si02
#       7
#     8   8   8   8   8   8   8
#     4   9  19  37  59  83 113 153 201 250 305 369
#     4  10  22  42  67  95 129 169 209 250 300 362
#     4  10  22  41  64  91 128 168 204 252 312 365
#     4  12  24  38  58  84 118 159 202 256 315 363
#     4  11  23  40  64  94 126 165 210 255 307 365
#     4   9  19  37  59  82 114 155 197 249 311 368
#     4  12  24  37  58  87 118 156 206 258 305 364
#
# _framework density 20.651458000000002
#
# number of rings (size 3 to 8) (size 9 to 14) (size 15 to 20)
#    0.000    1.571    1.429    4.714    0.000    7.143 
#    0.000    1.429    0.000    0.000    0.000    0.000 
#    0.000    0.000    0.000    0.000    0.000    0.000 
#
# Total GULP energy -347260.721147 kJ/mol
# GULP energy per Si atom -12402.168612 kJ/mol
# Density = 2.060445 g / cm^3
# Si number density = 20.651458 Si / 1000 Ang^3
#
#
#
# Elastic Constant Matrix: (Units=GPa)
#
#
# Indices 1 2 3 4 5 6 
#
# 1 102.8776 23.5316 45.7216 0.0000 -2.3345 0.0000
# 2 23.5316 45.4443 29.2861 0.0000 0.5782 0.0000
# 3 45.7216 29.2861 119.1551 0.0000 0.0411 0.0000
# 4 0.0000 0.0000 0.0000 30.1505 0.0000 -4.2103
# 5 -2.3345 0.5782 0.0411 0.0000 28.1845 0.0000
# 6 0.0000 0.0000 0.0000 -4.2103 0.0000 28.7780
#
#
#
# Elastic Compliance Matrix: (Units=1/GPa)
#
#
# Indices 1 2 3 4 5 6 
#
# 1 0.012322 -0.003977 -0.003751 0.000000 0.001108 0.000000
# 2 -0.003977 0.027438 -0.005217 0.000000 -0.000885 0.000000
# 3 -0.003751 -0.005217 0.011114 0.000000 -0.000220 0.000000
# 4 0.000000 0.000000 0.000000 0.033859 0.000000 0.004954
# 5 0.001108 -0.000885 -0.000220 0.000000 0.035591 0.000000
# 6 0.000000 0.000000 0.000000 0.004954 0.000000 0.035473
#
#
# Mechanical properties :
#
#
# Convention : Reuss Voigt Hill
#
# Bulk Modulus (GPa) = 40.02726 51.61729 45.82227
# Shear Modulus (GPa) = 26.31354 28.68512 27.49933
#
# Velocity S-wave (km/s) = 3.57343 3.73099 3.65306
# Velocity P-wave (km/s) = 6.03740 6.60372 6.32690
#
# Compressibility (1/GPa) = 0.02498297
#
# Stress axis : x y z
#
# Youngs Moduli (GPa) = 81.15399 36.44588 89.97554
#
# Poissons Ratio (x) = 0.14496 0.33750
# Poissons Ratio (y) = 0.32278 0.46942
# Poissons Ratio (z) = 0.30441 0.19015
#
# Static dielectric constant tensor:
#      x y z
#    x 3.787150 0.000000 0.104240 
#    y 0.000000 3.570390 0.000000 
#    z 0.104240 0.000000 3.863950 
# 
# 
# High freq. dielectric constant tensor:
#      x y z
#    x 1.812920 0.000000 -0.000920 
#    y 0.000000 1.799460 0.000000 
#    z -0.000920 0.000000 1.807140 
# 
# From -- ./inp_files/338558.got.cif
#   From: 2010.06.25/outbox.cif.g09.slc.cpg/sg12_170_cif.got.tgz:338558.got - 2010.06.28 00:19:55.
