data_PCOD8111533
_publ_section_title
;
Structure prediction by ZEFSAII (Michael W. Deem and Ramdas Pophale) SiO2 
 PCOD8111533
Probable space group: C 2/M
;
_chemical_formula_sum "Si O2"
_cell_formula_units_Z 64
_cell_length_a 13.948011
_cell_length_b 19.660173
_cell_length_c 14.272491
_cell_angle_alpha 90.000000
_cell_angle_beta 121.769962
_cell_angle_gamma 90.000000
_cell_volume 3327.396665
_symmetry_space_group_name_H-M "C 2/M"
_symmetry_group_IT_number 12
_symmetry_cell_setting 'monoclinic'
loop_
_space_group_symop_operation_xyz
x,y,z
-x,y,-z
-x,-y,-z
x,-y,z
1/2+x,1/2+y,z
1/2-x,1/2+y,-z
1/2-x,1/2-y,-z
1/2+x,1/2-y,z
loop_
_atom_site_type_symbol
_atom_site_label
_atom_site_fract_x
_atom_site_fract_y
_atom_site_fract_z
Si Si1 0.702684 0.181048 0.937022
Si Si2 0.038241 0.317727 0.123336
Si Si3 0.872601 0.715893 0.462849
Si Si4 0.418698 0.579158 0.733509
Si Si5 0.322597 0.577991 0.132300
Si Si6 0.302495 0.356276 0.504372
Si Si7 0.297400 0.691234 0.784575
Si Si8 0.718910 0.921438 0.275198
O O1 0.568572 0.189478 0.864117
O O2 0.745994 0.168029 0.855718
O O3 0.750000 0.250000 0.000000
O O4 0.739766 0.120505 0.024185
O O5 0.106015 0.247350 0.154086
O O6 0.106483 0.378505 0.204796
O O7 0.000000 0.338598 0.000000
O O8 0.815810 0.660104 0.502943
O O9 0.870567 0.787645 0.515335
O O10 0.798923 0.722735 0.330850
O O11 0.000000 0.694868 0.500000
O O12 0.393606 0.500000 0.736835
O O13 0.548372 0.597002 0.820253
O O14 0.385021 0.599170 0.610937
O O15 0.346244 0.621804 0.769190
O O16 0.297362 0.500000 0.095682
O O17 0.300547 0.593730 0.229897
O O18 0.281640 0.400150 0.401740
O O19 0.684473 0.000000 0.263584
#
# Coordination Sequence:
#
# PCOD8111533 Si02
#       8
#     8   8   8   8   8   8   8   8
#     4  12  24  38  63  91 121 161 205 252 295 362
#     4  12  23  40  62  89 123 162 205 250 304 354
#     4  10  23  39  63  93 125 154 196 259 304 358
#     4  10  23  42  64  89 124 162 200 252 305 362
#     4  10  23  40  60  92 125 158 203 252 303 359
#     4  10  22  40  62  92 120 159 203 244 310 365
#     4  11  24  41  63  92 123 160 205 249 303 361
#     4  11  23  40  62  89 124 159 203 252 303 363
#
# _framework density 19.234255999999998
#
# number of rings (size 3 to 8) (size 9 to 14) (size 15 to 20)
#    0.000    1.250    3.750    1.125    3.500    1.250 
#    0.000    3.125    0.000    1.875    0.000    0.000 
#    0.000    0.000    0.000    0.000    0.000    0.000 
#
# Total GULP energy -396928.556431 kJ/mol
# GULP energy per Si atom -12404.017388 kJ/mol
# Density = 1.919048 g / cm^3
# Si number density = 19.234256 Si / 1000 Ang^3
#
#
#
# Elastic Constant Matrix: (Units=GPa)
#
#
# Indices 1 2 3 4 5 6 
#
# 1 116.0954 36.2531 29.7941 0.0000 -2.5956 0.0000
# 2 36.2531 78.1376 15.9391 0.0000 -4.6437 0.0000
# 3 29.7941 15.9391 73.2234 0.0000 -17.6306 0.0000
# 4 0.0000 0.0000 0.0000 31.1868 0.0000 0.4141
# 5 -2.5956 -4.6437 -17.6306 0.0000 34.7174 0.0000
# 6 0.0000 0.0000 0.0000 0.4141 0.0000 27.2313
#
#
#
# Elastic Compliance Matrix: (Units=1/GPa)
#
#
# Indices 1 2 3 4 5 6 
#
# 1 0.010951 -0.004385 -0.003925 0.000000 -0.001761 0.000000
# 2 -0.004385 0.015152 -0.001259 0.000000 0.001060 0.000000
# 3 -0.003925 -0.001259 0.017565 0.000000 0.008458 0.000000
# 4 0.000000 0.000000 0.000000 0.032071 0.000000 -0.000488
# 5 -0.001761 0.001060 0.008458 0.000000 0.033109 0.000000
# 6 0.000000 0.000000 0.000000 -0.000488 0.000000 0.036730
#
#
# Mechanical properties :
#
#
# Convention : Reuss Voigt Hill
#
# Bulk Modulus (GPa) = 40.76780 47.93654 44.35217
# Shear Modulus (GPa) = 28.91964 30.99177 29.95571
#
# Velocity S-wave (km/s) = 3.88177 4.01843 3.95069
# Velocity P-wave (km/s) = 6.42902 6.81960 6.62719
#
# Compressibility (1/GPa) = 0.02452916
#
# Stress axis : x y z
#
# Youngs Moduli (GPa) = 91.31708 65.99749 56.93255
#
# Poissons Ratio (x) = 0.28938 0.22348
# Poissons Ratio (y) = 0.40040 0.07168
# Poissons Ratio (z) = 0.35846 0.08309
#
# Static dielectric constant tensor:
#      x y z
#    x 3.609230 0.000000 -0.018470 
#    y 0.000000 3.260820 0.000000 
#    z -0.018470 0.000000 3.721480 
# 
# 
# High freq. dielectric constant tensor:
#      x y z
#    x 1.755030 0.000000 -0.003480 
#    y 0.000000 1.750040 0.000000 
#    z -0.003480 0.000000 1.757860 
# 
# From -- ./inp_files/216382.got.cif
#   From: 2010.06.25/outbox.cif.g09.slc.cpg/sg12_109_cif.got.tgz:216382.got - 2010.06.28 00:19:55.
