data_PCOD8111429
_publ_section_title
;
Structure prediction by ZEFSAII (Michael W. Deem and Ramdas Pophale) SiO2 
 PCOD8111429
Probable space group: C 2/M
;
_chemical_formula_sum "Si O2"
_cell_formula_units_Z 56
_cell_length_a 17.797590
_cell_length_b 8.998604
_cell_length_c 18.567591
_cell_angle_alpha 90.000000
_cell_angle_beta 104.174403
_cell_angle_gamma 90.000000
_cell_volume 2883.130364
_symmetry_space_group_name_H-M "C 2/M"
_symmetry_group_IT_number 12
_symmetry_cell_setting 'monoclinic'
loop_
_space_group_symop_operation_xyz
x,y,z
-x,y,-z
-x,-y,-z
x,-y,z
1/2+x,1/2+y,z
1/2-x,1/2+y,-z
1/2-x,1/2-y,-z
1/2+x,1/2-y,z
loop_
_atom_site_type_symbol
_atom_site_label
_atom_site_fract_x
_atom_site_fract_y
_atom_site_fract_z
Si Si1 0.197410 0.828937 0.929259
Si Si2 0.596169 0.175066 0.205134
Si Si3 0.910848 0.832398 0.500752
Si Si4 0.047055 0.674147 0.352473
Si Si5 0.624066 0.173861 0.645898
Si Si6 0.019484 0.830605 0.923956
Si Si7 0.255607 0.824201 0.204397
O O1 0.110264 0.813832 0.934994
O O2 0.204925 0.748465 0.855100
O O3 0.222944 0.000000 0.927671
O O4 0.250000 0.750000 0.000000
O O5 0.578824 0.223552 0.282694
O O6 0.522774 0.219708 0.140255
O O7 0.669820 0.263266 0.193952
O O8 0.610632 0.000000 0.202060
O O9 0.899634 0.752619 0.574853
O O10 0.860652 0.753872 0.426763
O O11 0.000000 0.822004 0.500000
O O12 0.881352 0.000000 0.501346
O O13 0.054530 0.500000 0.366428
O O14 0.957387 0.724620 0.337871
O O15 0.693047 0.221102 0.714864
O O16 0.623388 0.000000 0.630539
O O17 0.991988 0.000000 0.903495
O O18 0.000000 0.780429 0.000000
O O19 0.252767 0.000000 0.192394
#
# Coordination Sequence:
#
# PCOD8111429 Si02
#       7
#     8   8   8   8   8   8   8
#     4  11  23  39  62  90 119 151 187 229 277 331
#     4  11  23  38  58  84 113 148 191 236 282 334
#     4   9  17  29  50  81 111 139 177 228 281 332
#     4   9  18  34  55  79 108 142 183 229 278 337
#     4   9  18  34  56  79 106 145 187 228 279 336
#     4  10  22  40  61  86 116 149 184 226 278 333
#     4  11  23  39  58  81 114 153 192 234 282 335
#
# _framework density 19.423333
#
# number of rings (size 3 to 8) (size 9 to 14) (size 15 to 20)
#    0.000    2.000    0.000    3.429    0.000    7.714 
#    0.000    3.571    0.000    0.000    0.000    0.000 
#    0.000    0.000    0.000    0.000    0.000    0.000 
#
# Total GULP energy -347316.113885 kJ/mol
# GULP energy per Si atom -12404.146924 kJ/mol
# Density = 1.937912 g / cm^3
# Si number density = 19.423333 Si / 1000 Ang^3
#
#
#
# Elastic Constant Matrix: (Units=GPa)
#
#
# Indices 1 2 3 4 5 6 
#
# 1 65.4074 32.9990 42.0481 0.0000 -5.3060 0.0000
# 2 32.9990 87.9985 69.6791 0.0000 -0.8517 0.0000
# 3 42.0481 69.6791 157.8764 0.0000 -6.0743 0.0000
# 4 0.0000 0.0000 0.0000 38.7798 0.0000 -0.4294
# 5 -5.3060 -0.8517 -6.0743 0.0000 32.4611 0.0000
# 6 0.0000 0.0000 0.0000 -0.4294 0.0000 24.0715
#
#
#
# Elastic Compliance Matrix: (Units=1/GPa)
#
#
# Indices 1 2 3 4 5 6 
#
# 1 0.019988 -0.005125 -0.002963 0.000000 0.002578 0.000000
# 2 -0.005125 0.018814 -0.007003 0.000000 -0.001654 0.000000
# 3 -0.002963 -0.007003 0.010262 0.000000 0.001252 0.000000
# 4 0.000000 0.000000 0.000000 0.025792 0.000000 0.000460
# 5 0.002578 -0.001654 0.001252 0.000000 0.031418 0.000000
# 6 0.000000 0.000000 0.000000 0.000460 0.000000 0.041551
#
#
# Mechanical properties :
#
#
# Convention : Reuss Voigt Hill
#
# Bulk Modulus (GPa) = 52.95286 66.74830 59.85058
# Shear Modulus (GPa) = 27.12976 30.16622 28.64799
#
# Velocity S-wave (km/s) = 3.74138 3.94520 3.84464
# Velocity P-wave (km/s) = 6.78127 7.42916 7.11260
#
# Compressibility (1/GPa) = 0.01888472
#
# Stress axis : x y z
#
# Youngs Moduli (GPa) = 50.03028 53.15119 97.44834
#
# Poissons Ratio (x) = 0.27238 0.28869
# Poissons Ratio (y) = 0.25639 0.68238
# Poissons Ratio (z) = 0.14822 0.37219
#
# Static dielectric constant tensor:
#      x y z
#    x 3.437020 0.000000 -0.056670 
#    y 0.000000 3.618970 0.000000 
#    z -0.056670 0.000000 3.410400 
# 
# 
# High freq. dielectric constant tensor:
#      x y z
#    x 1.743470 0.000000 -0.002910 
#    y 0.000000 1.760570 0.000000 
#    z -0.002910 0.000000 1.773150 
# 
# From -- ./inp_files/275545.got.cif
#   From: 2010.06.25/outbox.cif.g09.slc.cpg/sg12_138_cif.got.tgz:275545.got - 2010.06.28 00:19:55.
