data_PCOD8111701
_publ_section_title
;
Structure prediction by ZEFSAII (Michael W. Deem and Ramdas Pophale) SiO2 
 PCOD8111701
Probable space group: C 2/M
;
_chemical_formula_sum "Si O2"
_cell_formula_units_Z 48
_cell_length_a 17.041748
_cell_length_b 14.286437
_cell_length_c 9.734039
_cell_angle_alpha 90.000000
_cell_angle_beta 100.111520
_cell_angle_gamma 90.000000
_cell_volume 2333.096550
_symmetry_space_group_name_H-M "C 2/M"
_symmetry_group_IT_number 12
_symmetry_cell_setting 'monoclinic'
loop_
_space_group_symop_operation_xyz
x,y,z
-x,y,-z
-x,-y,-z
x,-y,z
1/2+x,1/2+y,z
1/2-x,1/2+y,-z
1/2-x,1/2-y,-z
1/2+x,1/2-y,z
loop_
_atom_site_type_symbol
_atom_site_label
_atom_site_fract_x
_atom_site_fract_y
_atom_site_fract_z
Si Si1 0.551095 0.208403 0.774684
Si Si2 0.117384 0.390258 0.269708
Si Si3 0.989449 0.895331 0.654824
Si Si4 0.830762 0.105296 0.756519
Si Si5 0.168148 0.268156 0.051050
Si Si6 0.159351 0.609256 0.592212
O O1 0.468700 0.155897 0.773550
O O2 0.539362 0.319897 0.756033
O O3 0.592841 0.167228 0.652464
O O4 0.603881 0.192199 0.925153
O O5 0.110803 0.500000 0.241153
O O6 0.176595 0.345323 0.174697
O O7 0.152823 0.366900 0.429700
O O8 0.895440 0.887313 0.655827
O O9 0.000000 0.871904 0.500000
O O10 0.020798 0.000000 0.700790
O O11 0.858859 0.169874 0.890989
O O12 0.746674 0.139715 0.669549
O O13 0.823912 0.000000 0.811355
O O14 0.250000 0.250000 0.000000
O O15 0.143254 0.500000 0.614069
#
# Coordination Sequence:
#
# PCOD8111701 Si02
#       6
#     8   8   8   8   8   8
#     4  12  23  40  68  96 133 167 209 264 322 388
#     4  11  25  43  66  98 131 166 214 268 322 380
#     4  10  22  40  65  97 128 165 216 268 319 374
#     4  10  22  43  67  91 128 170 214 265 316 377
#     4  12  26  43  61  95 130 171 215 255 318 386
#     4  10  22  42  70  98 126 167 214 264 324 380
#
# _framework density 20.573516000000001
#
# number of rings (size 3 to 8) (size 9 to 14) (size 15 to 20)
#    0.000    1.167    3.333    2.500    0.000    6.667 
#    0.000    3.333    0.000    0.000    0.000    0.000 
#    0.000    0.000    0.000    0.000    0.000    0.000 
#
# Total GULP energy -297684.794619 kJ/mol
# GULP energy per Si atom -12403.533109 kJ/mol
# Density = 2.052669 g / cm^3
# Si number density = 20.573516 Si / 1000 Ang^3
#
#
#
# Elastic Constant Matrix: (Units=GPa)
#
#
# Indices 1 2 3 4 5 6 
#
# 1 68.5134 30.4907 34.5018 0.0000 -15.9483 0.0000
# 2 30.4907 122.5454 59.5955 0.0000 -7.9938 0.0000
# 3 34.5018 59.5955 117.9738 0.0000 -11.9717 0.0000
# 4 0.0000 0.0000 0.0000 31.3903 0.0000 -0.8059
# 5 -15.9483 -7.9938 -11.9717 0.0000 37.4327 0.0000
# 6 0.0000 0.0000 0.0000 -0.8059 0.0000 32.3259
#
#
#
# Elastic Compliance Matrix: (Units=1/GPa)
#
#
# Indices 1 2 3 4 5 6 
#
# 1 0.019054 -0.002557 -0.003630 0.000000 0.006411 0.000000
# 2 -0.002557 0.011173 -0.004925 0.000000 -0.000279 0.000000
# 3 -0.003630 -0.004925 0.012157 0.000000 0.001290 0.000000
# 4 0.000000 0.000000 0.000000 0.031877 0.000000 0.000795
# 5 0.006411 -0.000279 0.001290 0.000000 0.029799 0.000000
# 6 0.000000 0.000000 0.000000 0.000795 0.000000 0.030955
#
#
# Mechanical properties :
#
#
# Convention : Reuss Voigt Hill
#
# Bulk Modulus (GPa) = 49.60298 62.02316 55.81307
# Shear Modulus (GPa) = 30.49538 32.52609 31.51074
#
# Velocity S-wave (km/s) = 3.85420 3.98045 3.91783
# Velocity P-wave (km/s) = 6.63090 7.16505 6.90314
#
# Compressibility (1/GPa) = 0.02016008
#
# Stress axis : x y z
#
# Youngs Moduli (GPa) = 52.48213 89.49917 82.25948
#
# Poissons Ratio (x) = 0.22888 0.29860
# Poissons Ratio (y) = 0.13422 0.40510
# Poissons Ratio (z) = 0.19051 0.44075
#
# Static dielectric constant tensor:
#      x y z
#    x 3.823750 0.000000 -0.149540 
#    y 0.000000 3.978530 0.000000 
#    z -0.149540 0.000000 3.935220 
# 
# 
# High freq. dielectric constant tensor:
#      x y z
#    x 1.804950 0.000000 -0.012850 
#    y 0.000000 1.818430 0.000000 
#    z -0.012850 0.000000 1.807060 
# 
# From -- ./inp_files/73628.got.cif
#   From: 2010.06.25/outbox.cif.g09.slc.cpg/sg12_37_cif.got.tgz:73628.got - 2010.06.28 00:19:55.
