data_PCOD8111820
_publ_section_title
;
Structure prediction by ZEFSAII (Michael W. Deem and Ramdas Pophale) SiO2 
 PCOD8111820
Probable space group: C 2/M
;
_chemical_formula_sum "Si O2"
_cell_formula_units_Z 32
_cell_length_a 9.725582
_cell_length_b 27.587578
_cell_length_c 9.610739
_cell_angle_alpha 90.000000
_cell_angle_beta 138.185757
_cell_angle_gamma 90.000000
_cell_volume 1719.206264
_symmetry_space_group_name_H-M "C 2/M"
_symmetry_group_IT_number 12
_symmetry_cell_setting 'monoclinic'
loop_
_space_group_symop_operation_xyz
x,y,z
-x,y,-z
-x,-y,-z
x,-y,z
1/2+x,1/2+y,z
1/2-x,1/2+y,-z
1/2-x,1/2-y,-z
1/2+x,1/2-y,z
loop_
_atom_site_type_symbol
_atom_site_label
_atom_site_fract_x
_atom_site_fract_y
_atom_site_fract_z
Si Si1 0.510546 0.251035 0.849891
Si Si2 0.043052 0.000000 0.367074
Si Si3 0.663932 0.817125 0.506307
Si Si4 0.107671 0.429959 0.436385
Si Si5 0.099740 0.500000 0.924658
O O1 0.386126 0.210655 0.672444
O O2 0.395502 0.302790 0.733074
O O3 0.500000 0.236023 0.000000
O O4 0.750000 0.250000 0.000000
O O5 0.167465 0.047233 0.412930
O O6 0.000000 0.000000 0.500000
O O7 0.842301 0.000000 0.122329
O O8 0.500000 0.801499 0.500000
O O9 0.643024 0.873067 0.453149
O O10 0.000000 0.444567 0.500000
O O11 0.965391 0.451126 0.205732
O O12 0.000000 0.500000 0.000000
#
# Coordination Sequence:
#
# PCOD8111820 Si02
#       5
#     8   4   8   8   4
#     4  11  22  40  63  90 123 163 200 248 308 356
#     4  11  21  41  62  89 124 157 193 254 305 353
#     4  10  22  41  62  89 125 157 205 254 295 364
#     4  10  23  41  61  91 121 158 205 248 297 362
#     4  11  21  39  64  85 124 159 195 246 307 355
#
# _framework density 18.613242
#
# number of rings (size 3 to 8) (size 9 to 14) (size 15 to 20)
#    0.000    1.500    5.000    1.500    0.000    5.000 
#    4.500    0.000    0.000    0.000    0.000    0.000 
#    0.000    0.000    0.000    0.000    0.000    0.000 
#
# Total GULP energy -198334.036718 kJ/mol
# GULP energy per Si atom -12395.877295 kJ/mol
# Density = 1.857088 g / cm^3
# Si number density = 18.613242 Si / 1000 Ang^3
#
#
#
# Elastic Constant Matrix: (Units=GPa)
#
#
# Indices 1 2 3 4 5 6 
#
# 1 147.1826 56.1428 76.1387 0.0000 0.5599 0.0000
# 2 56.1428 122.5532 61.6545 0.0000 -4.8926 0.0000
# 3 76.1387 61.6545 161.1088 0.0000 10.5412 0.0000
# 4 0.0000 0.0000 0.0000 16.8755 0.0000 -0.4858
# 5 0.5599 -4.8926 10.5412 0.0000 52.7313 0.0000
# 6 0.0000 0.0000 0.0000 -0.4858 0.0000 26.3305
#
#
#
# Elastic Compliance Matrix: (Units=1/GPa)
#
#
# Indices 1 2 3 4 5 6 
#
# 1 0.009638 -0.002597 -0.003586 0.000000 0.000374 0.000000
# 2 -0.002597 0.010964 -0.003077 0.000000 0.001660 0.000000
# 3 -0.003586 -0.003077 0.009216 0.000000 -0.002090 0.000000
# 4 0.000000 0.000000 0.000000 0.059289 0.000000 0.001094
# 5 0.000374 0.001660 -0.002090 0.000000 0.019532 0.000000
# 6 0.000000 0.000000 0.000000 0.001094 0.000000 0.037999
#
#
# Mechanical properties :
#
#
# Convention : Reuss Voigt Hill
#
# Bulk Modulus (GPa) = 88.50439 90.96852 89.73646
# Shear Modulus (GPa) = 29.59939 34.98138 32.29039
#
# Velocity S-wave (km/s) = 3.99210 4.33989 4.16962
# Velocity P-wave (km/s) = 8.30069 8.60767 8.45557
#
# Compressibility (1/GPa) = 0.01129887
#
# Stress axis : x y z
#
# Youngs Moduli (GPa) = 103.75344 91.21143 108.50828
#
# Poissons Ratio (x) = 0.23683 0.38908
# Poissons Ratio (y) = 0.26940 0.33389
# Poissons Ratio (z) = 0.37203 0.28067
#
# Static dielectric constant tensor:
#      x y z
#    x 3.588040 0.000000 0.013440 
#    y 0.000000 3.348670 0.000000 
#    z 0.013440 0.000000 3.525490 
# 
# 
# High freq. dielectric constant tensor:
#      x y z
#    x 1.740120 0.000000 -0.002160 
#    y 0.000000 1.714980 0.000000 
#    z -0.002160 0.000000 1.736610 
# 
# From -- ./inp_files/40710.got.cif
#   From: 2010.06.25/outbox.cif.g09.slc.cpg/sg12_21_cif.got.tgz:40710.got - 2010.06.28 00:19:55.
