data_PCOD8111585
_publ_section_title
;
Structure prediction by ZEFSAII (Michael W. Deem and Ramdas Pophale) SiO2 
 PCOD8111585
Probable space group: C 2/M
;
_chemical_formula_sum "Si O2"
_cell_formula_units_Z 56
_cell_length_a 19.503740
_cell_length_b 8.734229
_cell_length_c 29.097082
_cell_angle_alpha 90.000000
_cell_angle_beta 32.975935
_cell_angle_gamma 90.000000
_cell_volume 2697.861562
_symmetry_space_group_name_H-M "C 2/M"
_symmetry_group_IT_number 12
_symmetry_cell_setting 'monoclinic'
loop_
_space_group_symop_operation_xyz
x,y,z
-x,y,-z
-x,-y,-z
x,-y,z
1/2+x,1/2+y,z
1/2-x,1/2+y,-z
1/2-x,1/2-y,-z
1/2+x,1/2-y,z
loop_
_atom_site_type_symbol
_atom_site_label
_atom_site_fract_x
_atom_site_fract_y
_atom_site_fract_z
Si Si1 0.277559 0.322400 0.873175
Si Si2 0.987374 0.176317 0.827920
Si Si3 0.027238 0.678013 0.068580
Si Si4 0.099174 0.820012 0.366908
Si Si5 0.242794 0.677842 0.365481
Si Si6 0.231643 0.821695 0.805463
Si Si7 0.683761 0.319636 0.492986
O O1 0.276050 0.500000 0.859611
O O2 0.397569 0.282179 0.836342
O O3 0.293560 0.219560 0.819147
O O4 0.151650 0.277174 0.970871
O O5 0.949322 0.283858 0.891454
O O6 0.129851 0.210734 0.733832
O O7 0.969901 0.000000 0.852619
O O8 0.994585 0.500000 0.081269
O O9 0.914859 0.777552 0.110712
O O10 0.127403 0.741081 0.399975
O O11 0.201822 0.772084 0.272013
O O12 0.961993 0.767278 0.426685
O O13 0.105406 0.000000 0.371349
O O14 0.222246 0.500000 0.386708
O O15 0.253078 0.762662 0.408249
O O16 0.247448 0.000000 0.785881
O O17 0.695962 0.500000 0.489329
O O18 0.750000 0.250000 0.500000
#
# Coordination Sequence:
#
# PCOD8111585 Si02
#       7
#     8   8   8   8   8   8   8
#     4  10  23  41  61  89 128 169 210 260 317 375
#     4  10  22  40  63  92 128 166 208 259 313 368
#     4  11  22  39  64  91 123 168 215 259 312 375
#     4  11  24  44  68  93 126 168 211 256 309 372
#     4  11  23  41  67  98 130 167 209 255 310 371
#     4  12  25  40  62  93 126 164 212 266 316 369
#     4  11  26  45  68  98 132 167 205 255 312 371
#
# _framework density 20.757180000000002
#
# number of rings (size 3 to 8) (size 9 to 14) (size 15 to 20)
#    0.000    1.143    1.429    4.286    2.000    8.000 
#    0.000    0.000    0.000    0.000    0.000    0.000 
#    0.000    0.000    0.000    0.000    0.000    0.000 
#
# Total GULP energy -347415.505643 kJ/mol
# GULP energy per Si atom -12407.696630 kJ/mol
# Density = 2.070994 g / cm^3
# Si number density = 20.757180 Si / 1000 Ang^3
#
#
#
# Elastic Constant Matrix: (Units=GPa)
#
#
# Indices 1 2 3 4 5 6 
#
# 1 142.4493 25.3327 26.8067 -0.0033 9.5607 0.0264
# 2 25.3327 38.9741 16.1824 -0.0086 3.5579 0.0118
# 3 26.8067 16.1824 46.2306 0.0035 10.1001 0.0161
# 4 -0.0033 -0.0086 0.0035 27.5967 -0.0016 4.5147
# 5 9.5607 3.5579 10.1001 -0.0016 36.2138 -0.0129
# 6 0.0264 0.0118 0.0161 4.5147 -0.0129 42.3724
#
#
#
# Elastic Compliance Matrix: (Units=1/GPa)
#
#
# Indices 1 2 3 4 5 6 
#
# 1 0.008413 -0.004028 -0.003269 0.000001 -0.000914 -0.000003
# 2 -0.004028 0.031949 -0.008939 0.000011 0.000418 -0.000004
# 3 -0.003269 -0.008939 0.027980 -0.000006 -0.006062 -0.000007
# 4 0.000001 0.000011 -0.000006 0.036879 0.000001 -0.003929
# 5 -0.000914 0.000418 -0.006062 0.000001 0.029505 0.000012
# 6 -0.000003 -0.000004 -0.000007 -0.003929 0.000012 0.024019
#
#
# Mechanical properties :
#
#
# Convention : Reuss Voigt Hill
#
# Bulk Modulus (GPa) = 27.87797 40.47750 34.17773
# Shear Modulus (GPa) = 24.60964 31.85873 28.23418
#
# Velocity S-wave (km/s) = 3.44698 3.92194 3.69211
# Velocity P-wave (km/s) = 5.41313 6.32864 5.88870
#
# Compressibility (1/GPa) = 0.03587062
#
# Stress axis : x y z
#
# Youngs Moduli (GPa) = 118.86756 31.29945 35.74042
#
# Poissons Ratio (x) = 0.12606 0.11682
# Poissons Ratio (y) = 0.47875 0.31949
# Poissons Ratio (z) = 0.38854 0.27979
#
# Static dielectric constant tensor:
#      x y z
#    x 3.921340 -0.000060 -0.036360 
#    y -0.000060 3.778210 0.000050 
#    z -0.036360 0.000050 3.800620 
# 
# 
# High freq. dielectric constant tensor:
#      x y z
#    x 1.829210 0.000000 0.000700 
#    y 0.000000 1.813960 0.000000 
#    z 0.000700 0.000000 1.818810 
# 
# From -- ./inp_files/362933.got.cif
#   From: 2010.06.25/outbox.cif.g09.slc.cpg/sg12_182_cif.got.tgz:362933.got - 2010.06.28 00:19:55.
