data_PCOD8111565
_publ_section_title
;
Structure prediction by ZEFSAII (Michael W. Deem and Ramdas Pophale) SiO2 
 PCOD8111565
Probable space group: C 2/M
;
_chemical_formula_sum "Si O2"
_cell_formula_units_Z 64
_cell_length_a 34.559337
_cell_length_b 8.792512
_cell_length_c 15.457388
_cell_angle_alpha 90.000000
_cell_angle_beta 42.925117
_cell_angle_gamma 90.000000
_cell_volume 3198.809171
_symmetry_space_group_name_H-M "C 2/M"
_symmetry_group_IT_number 12
_symmetry_cell_setting 'monoclinic'
loop_
_space_group_symop_operation_xyz
x,y,z
-x,y,-z
-x,-y,-z
x,-y,z
1/2+x,1/2+y,z
1/2-x,1/2+y,-z
1/2-x,1/2-y,-z
1/2+x,1/2-y,z
loop_
_atom_site_type_symbol
_atom_site_label
_atom_site_fract_x
_atom_site_fract_y
_atom_site_fract_z
Si Si1 0.210751 0.179113 0.991399
Si Si2 0.262776 0.175697 0.725855
Si Si3 0.889517 0.674360 0.573094
Si Si4 0.603170 0.822723 0.240074
Si Si5 0.914658 0.319687 0.147771
Si Si6 0.505158 0.321493 0.117859
Si Si7 0.284944 0.178307 0.365567
Si Si8 0.498932 0.676184 0.327113
O O1 0.231751 0.233640 0.863239
O O2 0.216415 0.000000 0.990097
O O3 0.250000 0.250000 0.000000
O O4 0.145839 0.230382 0.108738
O O5 0.329913 0.200585 0.624003
O O6 0.240935 0.276455 0.683530
O O7 0.248413 0.000000 0.731211
O O8 0.909736 0.500000 0.532070
O O9 0.883615 0.720092 0.682856
O O10 0.934095 0.782558 0.452908
O O11 0.539101 0.775169 0.323092
O O12 0.612033 0.000000 0.208406
O O13 0.920660 0.500000 0.127676
O O14 0.949354 0.264799 0.174795
O O15 0.849989 0.266731 0.265046
O O16 0.939099 0.239627 0.021963
O O17 0.497706 0.500000 0.112670
O O18 0.512960 0.284222 0.205372
O O19 0.250000 0.250000 0.500000
O O20 0.281176 0.000000 0.382600
O O21 0.509119 0.500000 0.330553
#
# Coordination Sequence:
#
# PCOD8111565 Si02
#       8
#     8   8   8   8   8   8   8   8
#     4  11  22  40  65  95 129 168 211 259 314 372
#     4  10  23  43  65  92 127 167 210 257 311 373
#     4  10  22  42  63  87 122 166 209 251 307 368
#     4  11  23  41  63  90 125 167 210 255 309 367
#     4  10  22  41  64  90 120 154 201 251 300 363
#     4  10  22  40  63  90 120 157 198 248 311 367
#     4  11  26  44  65  96 128 164 208 256 313 373
#     4  11  25  40  59  93 125 158 207 258 308 365
#
# _framework density 20.007446000000002
#
# number of rings (size 3 to 8) (size 9 to 14) (size 15 to 20)
#    0.000    1.500    1.250    3.375    3.500    8.000 
#    0.000    0.000    0.000    0.000    0.000    0.000 
#    0.000    0.000    0.000    0.000    0.000    0.000 
#
# Total GULP energy -397004.969195 kJ/mol
# GULP energy per Si atom -12406.405287 kJ/mol
# Density = 1.996191 g / cm^3
# Si number density = 20.007446 Si / 1000 Ang^3
#
#
#
# Elastic Constant Matrix: (Units=GPa)
#
#
# Indices 1 2 3 4 5 6 
#
# 1 103.6823 38.7868 56.2164 0.0000 -3.1534 -0.0002
# 2 38.7868 59.0979 46.3922 -0.0003 7.3264 -0.0009
# 3 56.2164 46.3922 126.6015 -0.0001 -7.3123 0.0000
# 4 0.0000 -0.0003 -0.0001 36.7445 0.0000 -1.9587
# 5 -3.1534 7.3264 -7.3123 0.0000 32.7658 0.0000
# 6 -0.0002 -0.0009 0.0000 -1.9587 0.0000 36.3531
#
#
#
# Elastic Compliance Matrix: (Units=1/GPa)
#
#
# Indices 1 2 3 4 5 6 
#
# 1 0.014232 -0.006626 -0.003776 0.000000 0.002009 0.000000
# 2 -0.006626 0.028724 -0.008096 0.000000 -0.008867 0.000001
# 3 -0.003776 -0.008096 0.012790 0.000000 0.004301 0.000000
# 4 0.000000 0.000000 0.000000 0.027293 0.000000 0.001471
# 5 0.002009 -0.008867 0.004301 0.000000 0.033656 0.000000
# 6 0.000000 0.000001 0.000000 0.001471 0.000000 0.027587
#
#
# Mechanical properties :
#
#
# Convention : Reuss Voigt Hill
#
# Bulk Modulus (GPa) = 53.32716 63.57472 58.45094
# Shear Modulus (GPa) = 26.66285 31.03843 28.85064
#
# Velocity S-wave (km/s) = 3.65450 3.94298 3.80148
# Velocity P-wave (km/s) = 6.67223 7.25079 6.96752
#
# Compressibility (1/GPa) = 0.01875217
#
# Stress axis : x y z
#
# Youngs Moduli (GPa) = 70.26610 34.81399 78.18372
#
# Poissons Ratio (x) = 0.23066 0.29518
# Poissons Ratio (y) = 0.46555 0.63296
# Poissons Ratio (z) = 0.26529 0.28185
#
# Static dielectric constant tensor:
#      x y z
#    x 3.356060 0.000000 -0.700340 
#    y 0.000000 3.664310 0.000000 
#    z -0.700340 0.000000 2.407810 
# 
# 
# High freq. dielectric constant tensor:
#      x y z
#    x 1.787530 0.000000 -0.002630 
#    y 0.000000 1.786510 0.000000 
#    z -0.002630 0.000000 1.792830 
# 
# From -- ./inp_files/249898.got.cif
#   From: 2010.06.25/outbox.cif.g09.slc.cpg/sg12_125_cif.got.tgz:249898.got - 2010.06.28 00:19:55.
