data_PCOD8111980
_publ_section_title
;
Structure prediction by ZEFSAII (Michael W. Deem and Ramdas Pophale) SiO2 
 PCOD8111980
Probable space group: C 2/M
;
_chemical_formula_sum "Si O2"
_cell_formula_units_Z 56
_cell_length_a 26.601620
_cell_length_b 17.307998
_cell_length_c 8.605149
_cell_angle_alpha 90.000000
_cell_angle_beta 138.056479
_cell_angle_gamma 90.000000
_cell_volume 2648.184766
_symmetry_space_group_name_H-M "C 2/M"
_symmetry_group_IT_number 12
_symmetry_cell_setting 'monoclinic'
loop_
_space_group_symop_operation_xyz
x,y,z
-x,y,-z
-x,-y,-z
x,-y,z
1/2+x,1/2+y,z
1/2-x,1/2+y,-z
1/2-x,1/2-y,-z
1/2+x,1/2-y,z
loop_
_atom_site_type_symbol
_atom_site_label
_atom_site_fract_x
_atom_site_fract_y
_atom_site_fract_z
Si Si1 0.069899 0.719239 0.437017
Si Si2 0.208815 0.411277 0.077819
Si Si3 0.096310 0.283675 0.854399
Si Si4 0.358354 0.360083 0.569527
Si Si5 0.426730 0.500000 0.219944
Si Si6 0.544236 0.500000 0.253570
Si Si7 0.166813 0.867134 0.126605
Si Si8 0.817236 0.412523 0.336581
O O1 0.086935 0.741637 0.653836
O O2 0.102527 0.780010 0.387778
O O3 0.106835 0.637374 0.477595
O O4 0.979686 0.714601 0.218216
O O5 0.206200 0.500000 0.129477
O O6 0.274409 0.363249 0.311300
O O7 0.131146 0.369445 0.946508
O O8 0.220433 0.406238 0.919872
O O9 0.153086 0.221781 0.056033
O O10 0.405427 0.426225 0.590835
O O11 0.359408 0.378506 0.755628
O O12 0.500000 0.500000 0.500000
O O13 0.464770 0.500000 0.147005
O O14 0.374799 0.422699 0.096463
O O15 0.500000 0.500000 0.000000
O O16 0.255921 0.883157 0.320237
O O17 0.840807 0.500000 0.428926
#
# Coordination Sequence:
#
# PCOD8111980 Si02
#       8
#     8   8   8   8   4   4   8   8
#     4  10  23  41  64  92 124 167 207 261 312 363
#     4  10  22  41  65  92 122 166 209 258 310 369
#     4  10  23  41  63  92 125 161 213 259 309 367
#     4  12  24  40  63  90 128 166 206 250 314 374
#     4  12  28  38  62  96 127 166 203 251 310 375
#     4  12  24  42  58  92 131 166 199 251 306 373
#     4  12  24  41  61  93 127 163 206 252 308 380
#     4  10  22  41  65  92 124 163 214 258 308 366
#
# _framework density 21.146560000000001
#
# number of rings (size 3 to 8) (size 9 to 14) (size 15 to 20)
#    0.000    1.143    2.857    2.571    6.000    5.143 
#    0.000    2.857    0.000    0.000    0.000    4.000 
#    0.000    0.000    0.000    0.000    0.000    0.000 
#
# Total GULP energy -346995.772794 kJ/mol
# GULP energy per Si atom -12392.706171 kJ/mol
# Density = 2.109843 g / cm^3
# Si number density = 21.146560 Si / 1000 Ang^3
#
#
#
# Elastic Constant Matrix: (Units=GPa)
#
#
# Indices 1 2 3 4 5 6 
#
# 1 96.0381 62.1698 22.0064 0.0000 19.2305 0.0000
# 2 62.1698 144.2780 33.3808 0.0000 20.3547 0.0000
# 3 22.0064 33.3808 56.6861 0.0000 10.7989 0.0000
# 4 0.0000 0.0000 0.0000 13.9660 0.0000 4.6302
# 5 19.2305 20.3547 10.7989 0.0000 26.3339 0.0000
# 6 0.0000 0.0000 0.0000 4.6302 0.0000 32.4970
#
#
#
# Elastic Compliance Matrix: (Units=1/GPa)
#
#
# Indices 1 2 3 4 5 6 
#
# 1 0.015606 -0.005428 -0.001616 0.000000 -0.006538 0.000000
# 2 -0.005428 0.010468 -0.003548 0.000000 -0.002672 0.000000
# 3 -0.001616 -0.003548 0.021272 0.000000 -0.004801 0.000000
# 4 0.000000 0.000000 0.000000 0.075153 0.000000 -0.010708
# 5 -0.006538 -0.002672 -0.004801 0.000000 0.046782 0.000000
# 6 0.000000 0.000000 0.000000 -0.010708 0.000000 0.032298
#
#
# Mechanical properties :
#
#
# Convention : Reuss Voigt Hill
#
# Bulk Modulus (GPa) = 38.22483 59.12401 48.67442
# Shear Modulus (GPa) = 21.59971 26.52238 24.06105
#
# Velocity S-wave (km/s) = 3.19945 3.54533 3.37682
# Velocity P-wave (km/s) = 5.63596 6.69172 6.18640
#
# Compressibility (1/GPa) = 0.02616101
#
# Stress axis : x y z
#
# Youngs Moduli (GPa) = 64.07770 95.52914 47.00950
#
# Poissons Ratio (x) = 0.51857 0.07599
# Poissons Ratio (y) = 0.34784 0.16678
# Poissons Ratio (z) = 0.10358 0.33892
#
# Static dielectric constant tensor:
#      x y z
#    x 3.847670 0.000000 0.120880 
#    y 0.000000 3.657160 0.000000 
#    z 0.120880 0.000000 3.764290 
# 
# 
# High freq. dielectric constant tensor:
#      x y z
#    x 1.836610 0.000000 0.008990 
#    y 0.000000 1.833680 0.000000 
#    z 0.008990 0.000000 1.816840 
# 
# From -- ./inp_files/105991.got.cif
#   From: 2010.06.25/outbox.cif.g09.slc.cpg/sg12_53_cif.got.tgz:105991.got - 2010.06.28 00:19:55.
