data_PCOD8111712
_publ_section_title
;
Structure prediction by ZEFSAII (Michael W. Deem and Ramdas Pophale) SiO2 
 PCOD8111712
Probable space group: C 2/M
;
_chemical_formula_sum "Si O2"
_cell_formula_units_Z 40
_cell_length_a 12.291394
_cell_length_b 16.112634
_cell_length_c 9.070066
_cell_angle_alpha 90.000000
_cell_angle_beta 81.644288
_cell_angle_gamma 90.000000
_cell_volume 1777.229166
_symmetry_space_group_name_H-M "C 2/M"
_symmetry_group_IT_number 12
_symmetry_cell_setting 'monoclinic'
loop_
_space_group_symop_operation_xyz
x,y,z
-x,y,-z
-x,-y,-z
x,-y,z
1/2+x,1/2+y,z
1/2-x,1/2+y,-z
1/2-x,1/2-y,-z
1/2+x,1/2-y,z
loop_
_atom_site_type_symbol
_atom_site_label
_atom_site_fract_x
_atom_site_fract_y
_atom_site_fract_z
Si Si1 0.928922 0.406695 0.142080
Si Si2 0.491210 0.332259 0.826908
Si Si3 0.937360 0.329510 0.658331
Si Si4 0.702004 0.400107 0.622894
Si Si5 0.296057 0.594840 0.710066
O O1 0.906601 0.500000 0.093067
O O2 0.811053 0.361162 0.193530
O O3 0.997330 0.406154 0.280962
O O4 0.000000 0.360725 0.000000
O O5 0.446065 0.245963 0.771668
O O6 0.607593 0.360691 0.740777
O O7 0.400784 0.399636 0.795257
O O8 0.500000 0.328256 0.000000
O O9 0.813793 0.357933 0.655315
O O10 0.000000 0.301655 0.500000
O O11 0.705055 0.500000 0.639579
O O12 0.679988 0.370219 0.458712
O O13 0.262275 0.500000 0.693466
#
# Coordination Sequence:
#
# PCOD8111712 Si02
#       5
#     8   8   8   8   8
#     4  10  22  40  66 101 139 176 220 280 344 407
#     4  12  29  45  67 100 142 184 231 281 344 405
#     4  12  25  43  73 101 138 177 231 281 345 406
#     4  11  25  46  74 104 136 179 231 284 340 411
#     4  10  22  44  71  98 134 178 228 280 337 409
#
# _framework density 22.506945000000002
#
# number of rings (size 3 to 8) (size 9 to 14) (size 15 to 20)
#    0.000    1.000    2.000    3.600    5.600    6.400 
#    0.000    0.000    0.000    0.000    0.000    0.000 
#    0.000    0.000    0.000    0.000    0.000    0.000 
#
# Total GULP energy -247924.263261 kJ/mol
# GULP energy per Si atom -12396.213163 kJ/mol
# Density = 2.245572 g / cm^3
# Si number density = 22.506945 Si / 1000 Ang^3
#
#
#
# Elastic Constant Matrix: (Units=GPa)
#
#
# Indices 1 2 3 4 5 6 
#
# 1 196.2874 33.2260 88.1261 0.0000 -6.5188 0.0000
# 2 33.2260 67.2739 35.3851 0.0000 -3.1937 0.0000
# 3 88.1261 35.3851 190.4547 0.0000 -9.0177 0.0000
# 4 0.0000 0.0000 0.0000 21.7528 0.0000 10.3438
# 5 -6.5188 -3.1937 -9.0177 0.0000 47.5358 0.0000
# 6 0.0000 0.0000 0.0000 10.3438 0.0000 28.4937
#
#
#
# Elastic Compliance Matrix: (Units=1/GPa)
#
#
# Indices 1 2 3 4 5 6 
#
# 1 0.006633 -0.001835 -0.002716 0.000000 0.000271 0.000000
# 2 -0.001835 0.016995 -0.002287 0.000000 0.000456 0.000000
# 3 -0.002716 -0.002287 0.006970 0.000000 0.000796 0.000000
# 4 0.000000 0.000000 0.000000 0.055562 0.000000 -0.020170
# 5 0.000271 0.000456 0.000796 0.000000 0.021256 0.000000
# 6 0.000000 0.000000 0.000000 -0.020170 0.000000 0.042418
#
#
# Mechanical properties :
#
#
# Convention : Reuss Voigt Hill
#
# Bulk Modulus (GPa) = 59.08925 85.27671 72.18298
# Shear Modulus (GPa) = 29.55948 39.37504 34.46726
#
# Velocity S-wave (km/s) = 3.62795 4.18719 3.91756
# Velocity P-wave (km/s) = 6.62270 7.83250 7.25287
#
# Compressibility (1/GPa) = 0.01692355
#
# Stress axis : x y z
#
# Youngs Moduli (GPa) = 150.75237 58.83936 143.47739
#
# Poissons Ratio (x) = 0.10797 0.38963
# Poissons Ratio (y) = 0.27662 0.32813
# Poissons Ratio (z) = 0.40938 0.13456
#
# Static dielectric constant tensor:
#      x y z
#    x 4.231980 0.000000 -0.100290 
#    y 0.000000 3.947110 0.000000 
#    z -0.100290 0.000000 4.403300 
# 
# 
# High freq. dielectric constant tensor:
#      x y z
#    x 1.903770 0.000000 -0.007920 
#    y 0.000000 1.877070 0.000000 
#    z -0.007920 0.000000 1.899740 
# 
# From -- ./inp_files/46906.got.cif
#   From: 2010.06.25/outbox.cif.g09.slc.cpg/sg12_24_cif.got.tgz:46906.got - 2010.06.28 00:19:55.
