data_PCOD8111608
_publ_section_title
;
Structure prediction by ZEFSAII (Michael W. Deem and Ramdas Pophale) SiO2 
 PCOD8111608
Probable space group: C 2/M
;
_chemical_formula_sum "Si O2"
_cell_formula_units_Z 56
_cell_length_a 13.420656
_cell_length_b 25.986183
_cell_length_c 13.856426
_cell_angle_alpha 90.000000
_cell_angle_beta 41.307150
_cell_angle_gamma 90.000000
_cell_volume 3189.878778
_symmetry_space_group_name_H-M "C 2/M"
_symmetry_group_IT_number 12
_symmetry_cell_setting 'monoclinic'
loop_
_space_group_symop_operation_xyz
x,y,z
-x,y,-z
-x,-y,-z
x,-y,z
1/2+x,1/2+y,z
1/2-x,1/2+y,-z
1/2-x,1/2-y,-z
1/2+x,1/2-y,z
loop_
_atom_site_type_symbol
_atom_site_label
_atom_site_fract_x
_atom_site_fract_y
_atom_site_fract_z
Si Si1 0.671000 0.823494 0.632364
Si Si2 0.836860 0.205819 0.820325
Si Si3 0.342759 0.857420 0.905083
Si Si4 0.325333 0.692849 0.127571
Si Si5 0.649985 0.378082 0.340061
Si Si6 0.342211 0.293854 0.326085
Si Si7 0.347471 0.939987 0.054767
O O1 0.496471 0.837297 0.745015
O O2 0.729286 0.865763 0.665145
O O3 0.706069 0.765871 0.643649
O O4 0.756035 0.827769 0.468402
O O5 0.784215 0.262299 0.830431
O O6 0.886938 0.174835 0.688901
O O7 0.977670 0.206217 0.790608
O O8 0.696571 0.179574 0.976335
O O9 0.214930 0.855427 0.913196
O O10 0.350126 0.914327 0.946192
O O11 0.291173 0.679428 0.263533
O O12 0.500000 0.709551 0.000000
O O13 0.500000 0.399848 0.500000
O O14 0.709631 0.420377 0.221327
O O15 0.327030 0.000000 0.051787
O O16 0.500000 0.926251 0.000000
#
# Coordination Sequence:
#
# PCOD8111608 Si02
#       7
#     8   8   8   8   8   8   8
#     4  11  21  34  50  80 117 153 187 222 266 314
#     4  11  21  33  51  78 111 152 190 223 264 315
#     4  11  22  36  56  79 108 144 185 235 281 321
#     4  12  22  33  53  79 112 155 198 226 260 320
#     4  11  21  34  56  81 118 148 175 224 281 332
#     4  11  22  34  49  75 119 157 191 218 255 318
#     4  10  22  40  64  88 105 131 180 238 293 344
#
# _framework density 17.555526
#
# number of rings (size 3 to 8) (size 9 to 14) (size 15 to 20)
#    0.000    1.000    7.143    1.286    0.000    0.857 
#    0.000    0.000    0.000    0.429    0.000    3.000 
#    0.000    0.000    0.000    0.000    0.000    0.000 
#
# Total GULP energy -347175.195055 kJ/mol
# GULP energy per Si atom -12399.114109 kJ/mol
# Density = 1.751557 g / cm^3
# Si number density = 17.555526 Si / 1000 Ang^3
#
#
#
# Elastic Constant Matrix: (Units=GPa)
#
#
# Indices 1 2 3 4 5 6 
#
# 1 111.2872 40.9035 37.6847 0.0000 12.0819 0.0000
# 2 40.9035 73.0479 32.6629 0.0000 7.9351 0.0000
# 3 37.6847 32.6629 83.0834 0.0000 1.8588 0.0000
# 4 0.0000 0.0000 0.0000 18.1975 0.0000 3.0401
# 5 12.0819 7.9351 1.8588 0.0000 35.4256 0.0000
# 6 0.0000 0.0000 0.0000 3.0401 0.0000 20.3984
#
#
#
# Elastic Compliance Matrix: (Units=1/GPa)
#
#
# Indices 1 2 3 4 5 6 
#
# 1 0.012349 -0.005003 -0.003569 0.000000 -0.002903 0.000000
# 2 -0.005003 0.019051 -0.005169 0.000000 -0.002290 0.000000
# 3 -0.003569 -0.005169 0.015652 0.000000 0.001554 0.000000
# 4 0.000000 0.000000 0.000000 0.056356 0.000000 -0.008399
# 5 -0.002903 -0.002290 0.001554 0.000000 0.029650 0.000000
# 6 0.000000 0.000000 0.000000 -0.008399 0.000000 0.050275
#
#
# Mechanical properties :
#
#
# Convention : Reuss Voigt Hill
#
# Bulk Modulus (GPa) = 51.10069 54.43562 52.76816
# Shear Modulus (GPa) = 23.00554 25.21547 24.11051
#
# Velocity S-wave (km/s) = 3.62393 3.79400 3.70994
# Velocity P-wave (km/s) = 6.83240 7.08996 6.96238
#
# Compressibility (1/GPa) = 0.01956921
#
# Stress axis : x y z
#
# Youngs Moduli (GPa) = 80.98132 52.48969 63.88819
#
# Poissons Ratio (x) = 0.26262 0.22802
# Poissons Ratio (y) = 0.40517 0.33025
# Poissons Ratio (z) = 0.28903 0.27133
#
# Static dielectric constant tensor:
#      x y z
#    x 3.328680 0.000000 0.092420 
#    y 0.000000 2.875810 0.000000 
#    z 0.092420 0.000000 3.422300 
# 
# 
# High freq. dielectric constant tensor:
#      x y z
#    x 1.684310 0.000000 0.000360 
#    y 0.000000 1.624270 0.000000 
#    z 0.000360 0.000000 1.695160 
# 
# From -- ./inp_files/136909.got.cif
#   From: 2010.06.25/outbox.cif.g09.slc.cpg/sg12_69_cif.got.tgz:136909.got - 2010.06.28 00:19:55.
