data_PCOD8111829
_publ_section_title
;
Structure prediction by ZEFSAII (Michael W. Deem and Ramdas Pophale) SiO2 
 PCOD8111829
Probable space group: C 2/M
;
_chemical_formula_sum "Si O2"
_cell_formula_units_Z 36
_cell_length_a 20.032120
_cell_length_b 18.452437
_cell_length_c 11.567215
_cell_angle_alpha 90.000000
_cell_angle_beta 157.269884
_cell_angle_gamma 90.000000
_cell_volume 1652.100026
_symmetry_space_group_name_H-M "C 2/M"
_symmetry_group_IT_number 12
_symmetry_cell_setting 'monoclinic'
loop_
_space_group_symop_operation_xyz
x,y,z
-x,y,-z
-x,-y,-z
x,-y,z
1/2+x,1/2+y,z
1/2-x,1/2+y,-z
1/2-x,1/2-y,-z
1/2+x,1/2-y,z
loop_
_atom_site_type_symbol
_atom_site_label
_atom_site_fract_x
_atom_site_fract_y
_atom_site_fract_z
Si Si1 0.861583 0.616748 0.944747
Si Si2 0.758380 0.500000 0.220280
Si Si3 0.122093 0.000000 0.480032
Si Si4 0.180753 0.237316 0.263046
Si Si5 0.443483 0.853248 0.528320
Si Si6 0.850002 0.500000 0.621122
O O1 0.683894 0.571276 0.649110
O O2 0.854784 0.686926 0.855395
O O3 0.887631 0.636770 0.121384
O O4 0.029534 0.570515 0.175445
O O5 0.865484 0.428829 0.358037
O O6 0.735578 0.500000 0.322429
O O7 0.581874 0.500000 0.865175
O O8 0.212781 0.000000 0.501958
O O9 0.250000 0.250000 0.500000
O O10 0.301239 0.190247 0.373498
O O11 0.000000 0.196032 0.000000
O O12 0.500000 0.811750 0.500000
#
# Coordination Sequence:
#
# PCOD8111829 Si02
#       6
#     8   4   4   8   8   4
#     4  10  22  41  62  95 135 176 213 268 337 389
#     4  10  24  39  66  97 125 173 229 273 316 402
#     4  11  21  35  67 100 131 168 220 283 328 383
#     4  12  25  43  70 101 135 171 222 276 330 395
#     4  11  26  47  68  92 136 184 220 267 335 398
#     4   9  19  36  64  93 135 174 214 265 341 387
#
# _framework density 21.790447
#
# number of rings (size 3 to 8) (size 9 to 14) (size 15 to 20)
#    0.000    1.333    2.222    4.000    6.222    0.889 
#    0.000    2.222    0.000    0.000    0.000    0.000 
#    0.000    0.000    0.000    0.000    0.000    0.000 
#
# Total GULP energy -223123.101611 kJ/mol
# GULP energy per Si atom -12395.727867 kJ/mol
# Density = 2.174085 g / cm^3
# Si number density = 21.790447 Si / 1000 Ang^3
#
#
#
# Elastic Constant Matrix: (Units=GPa)
#
#
# Indices 1 2 3 4 5 6 
#
# 1 161.9440 47.7553 65.0877 0.0000 -17.0065 0.0000
# 2 47.7553 99.1611 38.8158 0.0000 -2.0278 0.0000
# 3 65.0877 38.8158 168.0848 0.0000 -23.6386 0.0000
# 4 0.0000 0.0000 0.0000 26.7914 0.0000 -5.9911
# 5 -17.0065 -2.0278 -23.6386 0.0000 25.9436 0.0000
# 6 0.0000 0.0000 0.0000 -5.9911 0.0000 17.2078
#
#
#
# Elastic Compliance Matrix: (Units=1/GPa)
#
#
# Indices 1 2 3 4 5 6 
#
# 1 0.008252 -0.003121 -0.002005 0.000000 0.003338 0.000000
# 2 -0.003121 0.012331 -0.002055 0.000000 -0.002954 0.000000
# 3 -0.002005 -0.002055 0.008021 0.000000 0.005833 0.000000
# 4 0.000000 0.000000 0.000000 0.040477 0.000000 0.014092
# 5 0.003338 -0.002954 0.005833 0.000000 0.045817 0.000000
# 6 0.000000 0.000000 0.000000 0.014092 0.000000 0.063019
#
#
# Mechanical properties :
#
#
# Convention : Reuss Voigt Hill
#
# Bulk Modulus (GPa) = 70.21220 81.38973 75.80096
# Shear Modulus (GPa) = 25.37733 32.49063 28.93398
#
# Velocity S-wave (km/s) = 3.41634 3.86560 3.64789
# Velocity P-wave (km/s) = 6.91761 7.57337 7.25291
#
# Compressibility (1/GPa) = 0.01424254
#
# Stress axis : x y z
#
# Youngs Moduli (GPa) = 121.18665 81.09362 124.67808
#
# Poissons Ratio (x) = 0.25308 0.25000
# Poissons Ratio (y) = 0.37820 0.25617
# Poissons Ratio (z) = 0.24300 0.16662
#
# Static dielectric constant tensor:
#      x y z
#    x 3.854470 0.000000 -0.369590 
#    y 0.000000 4.194950 0.000000 
#    z -0.369590 0.000000 4.208990 
# 
# 
# High freq. dielectric constant tensor:
#      x y z
#    x 1.852800 0.000000 -0.026040 
#    y 0.000000 1.852350 0.000000 
#    z -0.026040 0.000000 1.864160 
# 
# From -- ./inp_files/169925.got.cif
#   From: 2010.06.25/outbox.cif.g09.slc.cpg/sg12_85_cif.got.tgz:169925.got - 2010.06.28 00:19:55.
