data_PCOD8111786
_publ_section_title
;
Structure prediction by ZEFSAII (Michael W. Deem and Ramdas Pophale) SiO2 
 PCOD8111786
Probable space group: C 2/M
;
_chemical_formula_sum "Si O2"
_cell_formula_units_Z 56
_cell_length_a 8.948159
_cell_length_b 17.771226
_cell_length_c 23.887266
_cell_angle_alpha 90.000000
_cell_angle_beta 45.263538
_cell_angle_gamma 90.000000
_cell_volume 2698.304475
_symmetry_space_group_name_H-M "C 2/M"
_symmetry_group_IT_number 12
_symmetry_cell_setting 'monoclinic'
loop_
_space_group_symop_operation_xyz
x,y,z
-x,y,-z
-x,-y,-z
x,-y,z
1/2+x,1/2+y,z
1/2-x,1/2+y,-z
1/2-x,1/2-y,-z
1/2+x,1/2-y,z
loop_
_atom_site_type_symbol
_atom_site_label
_atom_site_fract_x
_atom_site_fract_y
_atom_site_fract_z
Si Si1 0.936265 0.189364 0.454542
Si Si2 0.258948 0.912150 0.580746
Si Si3 0.079757 0.325171 0.915840
Si Si4 0.046946 0.918785 0.142554
Si Si5 0.159565 0.225151 0.686092
Si Si6 0.797907 0.917196 0.021336
Si Si7 0.772400 0.209289 0.210377
O O1 0.750000 0.250000 0.500000
O O2 0.876539 0.113404 0.437279
O O3 0.000000 0.166109 0.500000
O O4 0.135756 0.225495 0.373444
O O5 0.500000 0.899667 0.500000
O O6 0.195203 0.858207 0.649886
O O7 0.213440 0.000000 0.607217
O O8 0.290786 0.375034 0.859675
O O9 0.129309 0.248647 0.869831
O O10 0.905573 0.363918 0.921553
O O11 0.000000 0.306876 0.000000
O O12 0.820615 0.879455 0.190073
O O13 0.000593 0.000000 0.181995
O O14 0.164943 0.928425 0.053536
O O15 0.094854 0.224270 0.768081
O O16 0.965449 0.270397 0.710086
O O17 0.750338 0.000000 0.060415
O O18 0.000000 0.881326 0.000000
#
# Coordination Sequence:
#
# PCOD8111786 Si02
#       7
#     8   8   8   8   8   8   8
#     4  12  20  40  74 101 131 179 218 262 319 393
#     4  11  24  43  69 103 135 172 221 270 319 384
#     4  10  22  41  64  90 123 171 224 278 327 397
#     4  10  22  41  61  85 120 165 215 264 328 395
#     4  12  23  42  65  95 133 174 217 265 330 397
#     4   9  19  35  60  89 120 158 209 274 333 384
#     4  12  25  40  63  96 126 175 222 274 332 396
#
# _framework density 20.753772999999999
#
# number of rings (size 3 to 8) (size 9 to 14) (size 15 to 20)
#    0.000    1.143    5.714    0.429    2.000    5.429 
#    0.000    0.714    0.000    0.000    0.000    0.000 
#    0.000    0.000    0.000    0.000    0.000    0.000 
#
# Total GULP energy -346911.371899 kJ/mol
# GULP energy per Si atom -12389.691854 kJ/mol
# Density = 2.070654 g / cm^3
# Si number density = 20.753773 Si / 1000 Ang^3
#
#
#
# Elastic Constant Matrix: (Units=GPa)
#
#
# Indices 1 2 3 4 5 6 
#
# 1 131.6588 63.4226 40.2219 0.0062 -7.6981 -0.0004
# 2 63.4226 141.7576 55.3551 0.0054 -19.0995 -0.0029
# 3 40.2219 55.3551 78.9677 0.0099 -7.8227 -0.0123
# 4 0.0062 0.0054 0.0099 12.6046 -0.0061 2.3062
# 5 -7.6981 -19.0995 -7.8227 -0.0061 44.5342 0.0028
# 6 -0.0004 -0.0029 -0.0123 2.3062 0.0028 30.0908
#
#
#
# Elastic Compliance Matrix: (Units=1/GPa)
#
#
# Indices 1 2 3 4 5 6 
#
# 1 0.010091 -0.003483 -0.002721 -0.000001 -0.000227 -0.000001
# 2 -0.003483 0.011332 -0.005850 0.000003 0.003230 -0.000002
# 3 -0.002721 -0.005850 0.018171 -0.000012 0.000213 0.000008
# 4 -0.000001 0.000003 -0.000012 0.080465 0.000011 -0.006167
# 5 -0.000227 0.003230 0.000213 0.000011 0.023838 -0.000003
# 6 -0.000001 -0.000002 0.000008 -0.006167 -0.000003 0.033705
#
#
# Mechanical properties :
#
#
# Convention : Reuss Voigt Hill
#
# Bulk Modulus (GPa) = 64.56949 74.48702 69.52826
# Shear Modulus (GPa) = 24.16962 30.33823 27.25393
#
# Velocity S-wave (km/s) = 3.41631 3.82752 3.62775
# Velocity P-wave (km/s) = 6.83676 7.44996 7.14994
#
# Compressibility (1/GPa) = 0.01548719
#
# Stress axis : x y z
#
# Youngs Moduli (GPa) = 99.09693 88.24572 55.03333
#
# Poissons Ratio (x) = 0.30735 0.14974
# Poissons Ratio (y) = 0.34515 0.32192
# Poissons Ratio (z) = 0.26963 0.51620
#
# Static dielectric constant tensor:
#      x y z
#    x 4.034790 -0.000010 -0.023770 
#    y -0.000010 3.961380 0.000000 
#    z -0.023770 0.000000 3.658300 
# 
# 
# High freq. dielectric constant tensor:
#      x y z
#    x 1.827960 0.000000 -0.000770 
#    y 0.000000 1.802600 0.000000 
#    z -0.000770 0.000000 1.801730 
# 
# From -- ./inp_files/333303.got.cif
#   From: 2010.06.25/outbox.cif.g09.slc.cpg/sg12_167_cif.got.tgz:333303.got - 2010.06.28 00:19:55.
