data_PCOD8111457
_publ_section_title
;
Structure prediction by ZEFSAII (Michael W. Deem and Ramdas Pophale) SiO2 
 PCOD8111457
Probable space group: C 2/M
;
_chemical_formula_sum "Si O2"
_cell_formula_units_Z 48
_cell_length_a 18.549020
_cell_length_b 8.730769
_cell_length_c 29.533505
_cell_angle_alpha 90.000000
_cell_angle_beta 30.027038
_cell_angle_gamma 90.000000
_cell_volume 2393.388743
_symmetry_space_group_name_H-M "C 2/M"
_symmetry_group_IT_number 12
_symmetry_cell_setting 'monoclinic'
loop_
_space_group_symop_operation_xyz
x,y,z
-x,y,-z
-x,-y,-z
x,-y,z
1/2+x,1/2+y,z
1/2-x,1/2+y,-z
1/2-x,1/2-y,-z
1/2+x,1/2-y,z
loop_
_atom_site_type_symbol
_atom_site_label
_atom_site_fract_x
_atom_site_fract_y
_atom_site_fract_z
Si Si1 0.890240 0.319733 0.747308
Si Si2 0.857757 0.329936 0.548896
Si Si3 0.427423 0.819079 0.264289
Si Si4 0.077038 0.681339 0.912702
Si Si5 0.896300 0.178508 0.436888
Si Si6 0.408117 0.818942 0.915910
O O1 0.873290 0.500000 0.755406
O O2 0.735834 0.245227 0.828316
O O3 0.973101 0.267206 0.747670
O O4 0.973457 0.264704 0.657806
O O5 0.817201 0.500000 0.551911
O O6 0.724605 0.267409 0.650748
O O7 0.899598 0.207188 0.488269
O O8 0.000000 0.346233 0.500000
O O9 0.504144 0.767276 0.176247
O O10 0.399092 0.000000 0.280832
O O11 0.085327 0.500000 0.906373
O O12 0.991278 0.742943 0.915251
O O13 0.000000 0.740103 0.000000
O O14 0.750000 0.250000 0.500000
O O15 0.905127 0.000000 0.421200
O O16 0.392480 0.000000 0.926123
O O17 0.250000 0.750000 0.000000
#
# Coordination Sequence:
#
# PCOD8111457 Si02
#       6
#     8   8   8   8   8   8
#     4  11  23  39  62  91 123 161 208 260 309 366
#     4  11  25  42  62  92 127 164 211 259 308 370
#     4  10  22  40  61  87 121 164 209 254 309 368
#     4  10  22  40  62  91 125 161 203 255 312 372
#     4  12  24  41  65  92 125 167 211 257 311 368
#     4  10  22  40  62  90 121 159 205 251 309 374
#
# _framework density 20.055244999999999
#
# number of rings (size 3 to 8) (size 9 to 14) (size 15 to 20)
#    0.000    1.333    1.667    3.500    2.333    3.667 
#    0.000    0.000    0.000    0.000    0.000    0.000 
#    0.000    0.000    0.000    0.000    0.000    0.000 
#
# Total GULP energy -297655.915350 kJ/mol
# GULP energy per Si atom -12402.329806 kJ/mol
# Density = 2.000960 g / cm^3
# Si number density = 20.055245 Si / 1000 Ang^3
#
#
#
# Elastic Constant Matrix: (Units=GPa)
#
#
# Indices 1 2 3 4 5 6 
#
# 1 120.6008 69.5432 93.8912 -0.0001 0.9246 0.0000
# 2 69.5432 274.2216 136.5139 0.0002 -9.7575 -0.0004
# 3 93.8912 136.5139 237.0172 -0.0008 -4.3354 0.0008
# 4 -0.0001 0.0002 -0.0008 36.3340 0.0001 -5.8269
# 5 0.9246 -9.7575 -4.3354 0.0001 42.9796 -0.0002
# 6 0.0000 -0.0004 0.0008 -5.8269 -0.0002 24.4262
#
#
#
# Elastic Compliance Matrix: (Units=1/GPa)
#
#
# Indices 1 2 3 4 5 6 
#
# 1 0.012204 -0.000999 -0.004276 0.000000 -0.000921 0.000000
# 2 -0.000999 0.005227 -0.002597 0.000000 0.000946 0.000000
# 3 -0.004276 -0.002597 0.007413 0.000000 0.000250 0.000000
# 4 0.000000 0.000000 0.000000 0.028617 0.000000 0.006827
# 5 -0.000921 0.000946 0.000250 0.000000 0.023527 0.000000
# 6 0.000000 0.000000 0.000000 0.006827 0.000000 0.042568
#
#
# Mechanical properties :
#
#
# Convention : Reuss Voigt Hill
#
# Bulk Modulus (GPa) = 109.89516 136.85958 123.37737
# Shear Modulus (GPa) = 36.14447 42.87404 39.50926
#
# Velocity S-wave (km/s) = 4.24989 4.62865 4.44331
# Velocity P-wave (km/s) = 8.88804 9.84659 9.37957
#
# Compressibility (1/GPa) = 0.00909958
#
# Stress axis : x y z
#
# Youngs Moduli (GPa) = 81.94166 191.32379 134.88992
#
# Poissons Ratio (x) = 0.19115 0.57676
# Poissons Ratio (y) = 0.08187 0.35036
# Poissons Ratio (z) = 0.35036 0.49693
#
# Static dielectric constant tensor:
#      x y z
#    x 3.204990 0.000000 -0.539220 
#    y 0.000000 3.583050 0.000000 
#    z -0.539220 0.000000 3.111830 
# 
# 
# High freq. dielectric constant tensor:
#      x y z
#    x 1.792440 0.000000 0.001150 
#    y 0.000000 1.782510 0.000000 
#    z 0.001150 0.000000 1.800060 
# 
# From -- ./inp_files/244846.got.cif
#   From: 2010.06.25/outbox.cif.g09.slc.cpg/sg12_123_cif.got.tgz:244846.got - 2010.06.28 00:19:55.
