data_PCOD8111322
_publ_section_title
;
Structure prediction by ZEFSAII (Michael W. Deem and Ramdas Pophale) SiO2 
 PCOD8111322
Probable space group: C 2/M
;
_chemical_formula_sum "Si O2"
_cell_formula_units_Z 44
_cell_length_a 16.378503
_cell_length_b 14.432511
_cell_length_c 8.723887
_cell_angle_alpha 90.000000
_cell_angle_beta 92.298441
_cell_angle_gamma 90.000000
_cell_volume 2060.518874
_symmetry_space_group_name_H-M "C 2/M"
_symmetry_group_IT_number 12
_symmetry_cell_setting 'monoclinic'
loop_
_space_group_symop_operation_xyz
x,y,z
-x,y,-z
-x,-y,-z
x,-y,z
1/2+x,1/2+y,z
1/2-x,1/2+y,-z
1/2-x,1/2-y,-z
1/2+x,1/2-y,z
loop_
_atom_site_type_symbol
_atom_site_label
_atom_site_fract_x
_atom_site_fract_y
_atom_site_fract_z
Si Si1 0.514460 0.188132 0.773047
Si Si2 0.000000 0.165501 0.500000
Si Si3 0.250896 0.000000 0.383412
Si Si4 0.716672 0.370602 0.110213
Si Si5 0.433474 0.000000 0.367131
Si Si6 0.610494 0.500000 0.584858
Si Si7 0.592413 0.500000 0.945966
Si Si8 0.134723 0.310082 0.039719
O O1 0.498128 0.267100 0.646363
O O2 0.558293 0.094298 0.725761
O O3 0.427580 0.153371 0.835695
O O4 0.577024 0.232493 0.900828
O O5 0.076312 0.095012 0.507085
O O6 0.226424 0.089052 0.280395
O O7 0.344877 0.000000 0.437694
O O8 0.205145 0.000000 0.543416
O O9 0.695139 0.263244 0.124692
O O10 0.640242 0.411652 0.012561
O O11 0.802583 0.386900 0.024558
O O12 0.500000 0.000000 0.500000
O O13 0.593218 0.500000 0.762961
O O14 0.500000 0.500000 0.000000
#
# Coordination Sequence:
#
# PCOD8111322 Si02
#       8
#     8   4   4   8   4   4   4   8
#     4  11  23  41  66  96 134 173 224 270 328 392
#     4  11  24  43  66 102 128 175 218 271 334 398
#     4  11  23  44  66  94 135 174 216 274 329 395
#     4  10  22  41  65  98 133 169 215 275 333 383
#     4  12  25  44  63  92 131 181 217 271 325 384
#     4  11  26  42  68 100 134 169 220 265 344 398
#     4  11  26  41  66  96 132 172 212 276 329 393
#     4  10  22  39  67  98 127 171 221 274 326 390
#
# _framework density 21.353843000000001
#
# number of rings (size 3 to 8) (size 9 to 14) (size 15 to 20)
#    0.000    1.273    2.727    2.182   10.182    4.364 
#    0.000    0.909    0.000    0.000    0.000    0.000 
#    0.000    0.000    0.000    0.000    0.000    0.000 
#
# Total GULP energy -272609.394948 kJ/mol
# GULP energy per Si atom -12391.336134 kJ/mol
# Density = 2.130524 g / cm^3
# Si number density = 21.353843 Si / 1000 Ang^3
#
#
#
# Elastic Constant Matrix: (Units=GPa)
#
#
# Indices 1 2 3 4 5 6 
#
# 1 179.3280 28.0701 66.5363 0.0000 -29.0985 0.0000
# 2 28.0701 79.6241 30.6254 0.0000 -7.6081 0.0000
# 3 66.5363 30.6254 111.2477 0.0000 -15.8685 0.0000
# 4 0.0000 0.0000 0.0000 -28.2221 0.0000 -3.7888
# 5 -29.0985 -7.6081 -15.8685 0.0000 47.5566 0.0000
# 6 0.0000 0.0000 0.0000 -3.7888 0.0000 26.6615
#
#
#
# Elastic Compliance Matrix: (Units=1/GPa)
#
#
# Indices 1 2 3 4 5 6 
#
# 1 0.007689 -0.000905 -0.003884 0.000000 0.003264 0.000000
# 2 -0.000905 0.014199 -0.003279 0.000000 0.000624 0.000000
# 3 -0.003884 -0.003279 0.012390 0.000000 0.001233 0.000000
# 4 0.000000 0.000000 0.000000 -0.034770 0.000000 -0.004941
# 5 0.003264 0.000624 0.001233 0.000000 0.023536 0.000000
# 6 0.000000 0.000000 0.000000 -0.004941 0.000000 0.036805
#
#
# Mechanical properties :
#
#
# Convention : Reuss Voigt Hill
#
# Bulk Modulus (GPa) = 55.11746 68.96259 62.04003
# Shear Modulus (GPa) = 60.95262 25.53042 43.24152
#
# Velocity S-wave (km/s) = 5.34846 3.46148 4.50488
# Velocity P-wave (km/s) = 8.00056 6.95277 7.49500
#
# Compressibility (1/GPa) = 0.01814307
#
# Stress axis : x y z
#
# Youngs Moduli (GPa) = 130.06223 70.42931 80.70789
#
# Poissons Ratio (x) = 0.06372 0.31346
# Poissons Ratio (y) = 0.11768 0.26461
# Poissons Ratio (z) = 0.50515 0.23091
#
# Static dielectric constant tensor:
#      x y z
#    x 4.110620 0.000000 -0.056780 
#    y 0.000000 3.833870 0.000000 
#    z -0.056780 0.000000 3.780430 
# 
# 
# High freq. dielectric constant tensor:
#      x y z
#    x 1.858310 0.000000 -0.004690 
#    y 0.000000 1.832300 0.000000 
#    z -0.004690 0.000000 1.828130 
# 
# From -- ./inp_files/73100.got.cif
#   From: 2010.06.25/outbox.cif.g09.slc.cpg/sg12_37_cif.got.tgz:73100.got - 2010.06.28 00:19:55.
