data_PCOD8111768
_publ_section_title
;
Structure prediction by ZEFSAII (Michael W. Deem and Ramdas Pophale) SiO2 
 PCOD8111768
Probable space group: C 2/M
;
_chemical_formula_sum "Si O2"
_cell_formula_units_Z 60
_cell_length_a 21.115895
_cell_length_b 22.221401
_cell_length_c 6.509016
_cell_angle_alpha 90.000000
_cell_angle_beta 84.748554
_cell_angle_gamma 90.000000
_cell_volume 3041.371929
_symmetry_space_group_name_H-M "C 2/M"
_symmetry_group_IT_number 12
_symmetry_cell_setting 'monoclinic'
loop_
_space_group_symop_operation_xyz
x,y,z
-x,y,-z
-x,-y,-z
x,-y,z
1/2+x,1/2+y,z
1/2-x,1/2+y,-z
1/2-x,1/2-y,-z
1/2+x,1/2-y,z
loop_
_atom_site_type_symbol
_atom_site_label
_atom_site_fract_x
_atom_site_fract_y
_atom_site_fract_z
Si Si1 0.674407 0.382091 0.747440
Si Si2 0.885029 0.655327 0.300752
Si Si3 0.429619 0.636101 0.549172
Si Si4 0.227340 0.570856 0.582401
Si Si5 0.581053 0.231899 0.324547
Si Si6 0.820923 0.753845 0.048220
Si Si7 0.158423 0.933724 0.162573
Si Si8 0.000000 0.677143 0.000000
O O1 0.615796 0.390331 0.611976
O O2 0.742426 0.392311 0.617588
O O3 0.667394 0.318498 0.859277
O O4 0.667878 0.434305 0.916576
O O5 0.843227 0.595661 0.349084
O O6 0.911600 0.677920 0.513140
O O7 0.839665 0.705843 0.215983
O O8 0.942354 0.638974 0.121812
O O9 0.500000 0.608996 0.500000
O O10 0.434455 0.708184 0.543650
O O11 0.398424 0.612744 0.769681
O O12 0.221534 0.500000 0.534889
O O13 0.273596 0.584175 0.760102
O O14 0.524666 0.218525 0.179653
O O15 0.643997 0.242476 0.176022
O O16 0.750000 0.750000 0.000000
O O17 0.138571 0.000000 0.244805
#
# Coordination Sequence:
#
# PCOD8111768 Si02
#       8
#     8   8   8   8   8   8   8   4
#     4  11  21  38  58  88 119 155 198 247 303 351
#     4  11  22  39  62  90 125 157 197 249 303 361
#     4  11  23  36  58  84 117 159 204 247 297 353
#     4  10  23  41  64  89 119 159 201 246 302 361
#     4  11  22  38  59  90 124 159 194 247 304 359
#     4  11  22  33  58  93 122 152 193 243 304 363
#     4  10  22  41  59  82 120 160 203 250 294 350
#     4  10  24  40  61  88 125 162 200 240 308 366
#
# _framework density 19.727941000000001
#
# number of rings (size 3 to 8) (size 9 to 14) (size 15 to 20)
#    0.000    1.333    2.667    3.200    3.733    3.467 
#    0.000    1.000    0.000    1.600    0.000    0.000 
#    0.000    0.000    0.000    0.000    0.000    0.000 
#
# Total GULP energy -371930.833835 kJ/mol
# GULP energy per Si atom -12397.694461 kJ/mol
# Density = 1.968304 g / cm^3
# Si number density = 19.727941 Si / 1000 Ang^3
#
#
#
# Elastic Constant Matrix: (Units=GPa)
#
#
# Indices 1 2 3 4 5 6 
#
# 1 135.8710 34.4440 48.4564 0.0000 -15.2400 0.0000
# 2 34.4440 69.7923 26.6905 0.0000 -8.2768 0.0000
# 3 48.4564 26.6905 112.5577 0.0000 -7.7940 0.0000
# 4 0.0000 0.0000 0.0000 22.6096 0.0000 -3.2038
# 5 -15.2400 -8.2768 -7.7940 0.0000 33.9818 0.0000
# 6 0.0000 0.0000 0.0000 -3.2038 0.0000 19.3329
#
#
#
# Elastic Compliance Matrix: (Units=1/GPa)
#
#
# Indices 1 2 3 4 5 6 
#
# 1 0.009623 -0.003196 -0.003190 0.000000 0.002805 0.000000
# 2 -0.003196 0.017132 -0.002537 0.000000 0.002157 0.000000
# 3 -0.003190 -0.002537 0.010891 0.000000 0.000449 0.000000
# 4 0.000000 0.000000 0.000000 0.045292 0.000000 0.007506
# 5 0.002805 0.002157 0.000449 0.000000 0.031314 0.000000
# 6 0.000000 0.000000 0.000000 0.007506 0.000000 0.052969
#
#
# Mechanical properties :
#
#
# Convention : Reuss Voigt Hill
#
# Bulk Modulus (GPa) = 50.51130 59.71143 55.11137
# Shear Modulus (GPa) = 26.08691 29.09355 27.59023
#
# Velocity S-wave (km/s) = 3.64033 3.84440 3.74376
# Velocity P-wave (km/s) = 6.58247 7.07383 6.83257
#
# Compressibility (1/GPa) = 0.01979755
#
# Stress axis : x y z
#
# Youngs Moduli (GPa) = 103.92153 58.37135 91.82308
#
# Poissons Ratio (x) = 0.18657 0.29295
# Poissons Ratio (y) = 0.33215 0.23296
# Poissons Ratio (z) = 0.33155 0.14809
#
# Static dielectric constant tensor:
#      x y z
#    x 3.700080 0.000000 -0.147440 
#    y 0.000000 3.303140 0.000000 
#    z -0.147440 0.000000 3.831600 
# 
# 
# High freq. dielectric constant tensor:
#      x y z
#    x 1.772460 0.000000 -0.004780 
#    y 0.000000 1.743850 0.000000 
#    z -0.004780 0.000000 1.784520 
# 
# From -- ./inp_files/21889.got.cif
#   From: 2010.06.25/outbox.cif.g09.slc.cpg/sg12_11_cif.got.tgz:21889.got - 2010.06.28 00:19:55.
