data_PCOD8111073
_publ_section_title
;
Structure prediction by ZEFSAII (Michael W. Deem and Ramdas Pophale) SiO2 
 PCOD8111073
Probable space group: C 2/M
;
_chemical_formula_sum "Si O2"
_cell_formula_units_Z 56
_cell_length_a 31.040887
_cell_length_b 8.757005
_cell_length_c 11.846572
_cell_angle_alpha 90.000000
_cell_angle_beta 63.186372
_cell_angle_gamma 90.000000
_cell_volume 2873.956603
_symmetry_space_group_name_H-M "C 2/M"
_symmetry_group_IT_number 12
_symmetry_cell_setting 'monoclinic'
loop_
_space_group_symop_operation_xyz
x,y,z
-x,y,-z
-x,-y,-z
x,-y,z
1/2+x,1/2+y,z
1/2-x,1/2+y,-z
1/2-x,1/2-y,-z
1/2+x,1/2-y,z
loop_
_atom_site_type_symbol
_atom_site_label
_atom_site_fract_x
_atom_site_fract_y
_atom_site_fract_z
Si Si1 0.373435 0.823464 0.556739
Si Si2 0.708248 0.823851 0.182620
Si Si3 0.981039 0.320872 0.810107
Si Si4 0.414574 0.678154 0.298510
Si Si5 0.814645 0.180227 0.016676
Si Si6 0.548915 0.676775 0.376784
Si Si7 0.904878 0.820982 0.051985
O O1 0.318737 0.799691 0.666222
O O2 0.376870 0.764078 0.424714
O O3 0.407780 0.724339 0.594566
O O4 0.388937 0.000000 0.544365
O O5 0.763151 0.761910 0.127459
O O6 0.708934 0.000000 0.146032
O O7 0.679072 0.736564 0.118885
O O8 0.990489 0.500000 0.803160
O O9 0.949049 0.275802 0.739560
O O10 0.031629 0.235128 0.742234
O O11 0.952378 0.268569 0.955326
O O12 0.413262 0.500000 0.328123
O O13 0.397617 0.713763 0.192171
O O14 0.857822 0.244399 0.043170
O O15 0.817522 0.000000 0.015088
O O16 0.500000 0.711751 0.500000
O O17 0.554044 0.500000 0.337583
O O18 0.913180 0.000000 0.020047
#
# Coordination Sequence:
#
# PCOD8111073 Si02
#       7
#     8   8   8   8   8   8   8
#     4  11  22  36  56  83 115 148 182 226 280 329
#     4   9  19  35  57  86 115 141 173 221 279 331
#     4  12  24  37  57  83 112 145 183 230 282 330
#     4  11  23  39  56  77 109 149 192 231 268 324
#     4   9  18  36  60  84 110 141 180 224 271 325
#     4  11  22  36  56  80 110 146 182 223 269 323
#     4  10  22  39  59  80 107 147 191 231 271 322
#
# _framework density 19.485333000000001
#
# number of rings (size 3 to 8) (size 9 to 14) (size 15 to 20)
#    0.000    1.571    1.429    3.857    0.000    7.429 
#    0.000    0.714    0.000    0.000    0.000    0.000 
#    0.000    0.000    0.000    0.000    0.000    0.000 
#
# Total GULP energy -347313.403164 kJ/mol
# GULP energy per Si atom -12404.050113 kJ/mol
# Density = 1.944098 g / cm^3
# Si number density = 19.485333 Si / 1000 Ang^3
#
#
#
# Elastic Constant Matrix: (Units=GPa)
#
#
# Indices 1 2 3 4 5 6 
#
# 1 55.5055 15.4303 41.7409 0.0000 3.7224 0.0000
# 2 15.4303 37.4482 34.0225 0.0000 -5.0891 0.0000
# 3 41.7409 34.0225 135.9984 0.0000 -5.3588 0.0000
# 4 0.0000 0.0000 0.0000 32.4347 0.0000 2.0963
# 5 3.7224 -5.0891 -5.3588 0.0000 25.7314 0.0000
# 6 0.0000 0.0000 0.0000 2.0963 0.0000 19.7870
#
#
#
# Elastic Compliance Matrix: (Units=1/GPa)
#
#
# Indices 1 2 3 4 5 6 
#
# 1 0.024759 -0.005038 -0.006573 0.000000 -0.005947 0.000000
# 2 -0.005038 0.036254 -0.007272 0.000000 0.006385 0.000000
# 3 -0.006573 -0.007272 0.011263 0.000000 0.001858 0.000000
# 4 0.000000 0.000000 0.000000 0.031044 0.000000 -0.003289
# 5 -0.005947 0.006385 0.001858 0.000000 0.041373 0.000000
# 6 0.000000 0.000000 0.000000 -0.003289 0.000000 0.050887
#
#
# Mechanical properties :
#
#
# Convention : Reuss Voigt Hill
#
# Bulk Modulus (GPa) = 28.97746 45.70439 37.34093
# Shear Modulus (GPa) = 20.42094 24.77453 22.59774
#
# Velocity S-wave (km/s) = 3.24082 3.56960 3.40918
# Velocity P-wave (km/s) = 5.37658 6.36366 5.89083
#
# Compressibility (1/GPa) = 0.03450958
#
# Stress axis : x y z
#
# Youngs Moduli (GPa) = 40.39014 27.58346 88.78828
#
# Poissons Ratio (x) = 0.13897 0.58359
# Poissons Ratio (y) = 0.20349 0.64564
# Poissons Ratio (z) = 0.26548 0.20058
#
# Static dielectric constant tensor:
#      x y z
#    x 3.598140 0.000000 -0.109520 
#    y 0.000000 3.523280 0.000000 
#    z -0.109520 0.000000 3.823690 
# 
# 
# High freq. dielectric constant tensor:
#      x y z
#    x 1.744630 0.000000 -0.004750 
#    y 0.000000 1.758580 0.000000 
#    z -0.004750 0.000000 1.768560 
# 
# From -- ./inp_files/187262.got.cif
#   From: 2010.06.25/outbox.cif.g09.slc.cpg/sg12_94_cif.got.tgz:187262.got - 2010.06.28 00:19:55.
