data_PCOD8111273
_publ_section_title
;
Structure prediction by ZEFSAII (Michael W. Deem and Ramdas Pophale) SiO2 
 PCOD8111273
Probable space group: C 2/M
;
_chemical_formula_sum "Si O2"
_cell_formula_units_Z 64
_cell_length_a 15.153986
_cell_length_b 22.955854
_cell_length_c 8.775108
_cell_angle_alpha 90.000000
_cell_angle_beta 91.401527
_cell_angle_gamma 90.000000
_cell_volume 3051.707199
_symmetry_space_group_name_H-M "C 2/M"
_symmetry_group_IT_number 12
_symmetry_cell_setting 'monoclinic'
loop_
_space_group_symop_operation_xyz
x,y,z
-x,y,-z
-x,-y,-z
x,-y,z
1/2+x,1/2+y,z
1/2-x,1/2+y,-z
1/2-x,1/2-y,-z
1/2+x,1/2-y,z
loop_
_atom_site_type_symbol
_atom_site_label
_atom_site_fract_x
_atom_site_fract_y
_atom_site_fract_z
Si Si1 0.080572 0.565044 0.109986
Si Si2 0.654075 0.239094 0.554226
Si Si3 0.273379 0.890195 0.068699
Si Si4 0.336341 0.769499 0.090356
Si Si5 0.908966 0.617636 0.570714
Si Si6 0.589415 0.349420 0.924983
Si Si7 0.744945 0.432622 0.408119
Si Si8 0.409226 0.363501 0.431504
O O1 0.062154 0.500000 0.172559
O O2 0.085835 0.611030 0.247636
O O3 0.174463 0.560716 0.023061
O O4 0.000000 0.584992 0.000000
O O5 0.750000 0.250000 0.500000
O O6 0.671276 0.227902 0.730206
O O7 0.609255 0.185161 0.466972
O O8 0.595531 0.295966 0.519249
O O9 0.344767 0.837110 0.044966
O O10 0.260289 0.905563 0.243504
O O11 0.175473 0.878233 0.002844
O O12 0.410736 0.721372 0.052405
O O13 0.250000 0.750000 0.000000
O O14 0.834586 0.574521 0.505298
O O15 0.000000 0.597617 0.500000
O O16 0.591885 0.369217 0.750409
O O17 0.500000 0.373156 0.000000
O O18 0.718908 0.500000 0.393505
O O19 0.669659 0.399294 0.497323
O O20 0.500000 0.389652 0.500000
#
# Coordination Sequence:
#
# PCOD8111273 Si02
#       8
#     8   8   8   8   8   8   8   8
#     4  11  26  45  66  94 132 180 229 283 340 398
#     4  11  21  40  66  97 133 172 217 270 336 408
#     4  11  21  42  65  93 131 168 220 277 331 396
#     4   9  20  35  60  93 127 169 212 259 326 393
#     4  12  25  43  67  99 135 172 227 278 340 409
#     4  10  22  39  63  96 133 174 214 264 333 400
#     4  12  25  43  71  98 129 178 227 280 338 399
#     4  11  23  43  67  96 136 174 221 275 333 402
#
# _framework density 20.971867
#
# number of rings (size 3 to 8) (size 9 to 14) (size 15 to 20)
#    0.000    1.125    2.500    3.375    3.500    3.750 
#    2.250    0.625    0.000    2.625    0.000    0.000 
#    0.000    0.000    0.000    0.000    0.000    0.000 
#
# Total GULP energy -396609.977608 kJ/mol
# GULP energy per Si atom -12394.061800 kJ/mol
# Density = 2.092413 g / cm^3
# Si number density = 20.971867 Si / 1000 Ang^3
#
#
#
# Elastic Constant Matrix: (Units=GPa)
#
#
# Indices 1 2 3 4 5 6 
#
# 1 146.4016 31.7067 73.8607 0.0000 -3.8141 0.0000
# 2 31.7067 95.6818 46.9803 0.0000 7.9060 0.0000
# 3 73.8607 46.9803 143.1997 0.0000 6.1461 0.0000
# 4 0.0000 0.0000 0.0000 24.2140 0.0000 -0.4232
# 5 -3.8141 7.9060 6.1461 0.0000 39.6810 0.0000
# 6 0.0000 0.0000 0.0000 -0.4232 0.0000 -23.1895
#
#
#
# Elastic Compliance Matrix: (Units=1/GPa)
#
#
# Indices 1 2 3 4 5 6 
#
# 1 0.009420 -0.001011 -0.004605 0.000000 0.001820 0.000000
# 2 -0.001011 0.012705 -0.003558 0.000000 -0.002077 0.000000
# 3 -0.004605 -0.003558 0.010585 0.000000 -0.001373 0.000000
# 4 0.000000 0.000000 0.000000 0.041285 0.000000 -0.000753
# 5 0.001820 -0.002077 -0.001373 0.000000 0.026003 0.000000
# 6 0.000000 0.000000 0.000000 -0.000753 0.000000 -0.043109
#
#
# Mechanical properties :
#
#
# Convention : Reuss Voigt Hill
#
# Bulk Modulus (GPa) = 69.62702 76.70872 73.16787
# Shear Modulus (GPa) = 62.48179 23.65680 43.06930
#
# Velocity S-wave (km/s) = 5.46423 3.36225 4.53666
# Velocity P-wave (km/s) = 8.54884 7.19231 7.89975
#
# Compressibility (1/GPa) = 0.01436224
#
# Stress axis : x y z
#
# Youngs Moduli (GPa) = 106.15364 78.71098 94.47551
#
# Poissons Ratio (x) = 0.07956 0.43510
# Poissons Ratio (y) = 0.10730 0.33610
# Poissons Ratio (z) = 0.48888 0.28002
#
# Static dielectric constant tensor:
#      x y z
#    x 3.798810 0.000000 0.106850 
#    y 0.000000 3.933680 0.000000 
#    z 0.106850 0.000000 3.889030 
# 
# 
# High freq. dielectric constant tensor:
#      x y z
#    x 1.825560 0.000000 0.005910 
#    y 0.000000 1.818660 0.000000 
#    z 0.005910 0.000000 1.835430 
# 
# From -- ./inp_files/65866.got.cif
#   From: 2010.06.25/outbox.cif.g09.slc.cpg/sg12_33_cif.got.tgz:65866.got - 2010.06.28 00:19:55.
