data_PCOD8111075
_publ_section_title
;
Structure prediction by ZEFSAII (Michael W. Deem and Ramdas Pophale) SiO2 
 PCOD8111075
Probable space group: C 2/M
;
_chemical_formula_sum "Si O2"
_cell_formula_units_Z 64
_cell_length_a 25.841410
_cell_length_b 8.747003
_cell_length_c 15.279057
_cell_angle_alpha 90.000000
_cell_angle_beta 70.548001
_cell_angle_gamma 90.000000
_cell_volume 3256.471310
_symmetry_space_group_name_H-M "C 2/M"
_symmetry_group_IT_number 12
_symmetry_cell_setting 'monoclinic'
loop_
_space_group_symop_operation_xyz
x,y,z
-x,y,-z
-x,-y,-z
x,-y,z
1/2+x,1/2+y,z
1/2-x,1/2+y,-z
1/2-x,1/2-y,-z
1/2+x,1/2-y,z
loop_
_atom_site_type_symbol
_atom_site_label
_atom_site_fract_x
_atom_site_fract_y
_atom_site_fract_z
Si Si1 0.681200 0.318714 0.298314
Si Si2 0.847521 0.825823 0.499737
Si Si3 0.128452 0.181462 0.702742
Si Si4 0.453615 0.831787 0.463360
Si Si5 0.107464 0.318211 0.194339
Si Si6 0.308337 0.675997 0.984267
Si Si7 0.014704 0.331999 0.750066
Si Si8 0.792392 0.175075 0.189485
O O1 0.673541 0.500000 0.303645
O O2 0.685637 0.256756 0.397756
O O3 0.629694 0.249067 0.274054
O O4 0.737110 0.273970 0.218427
O O5 0.844206 0.749560 0.403656
O O6 0.910096 0.803947 0.492776
O O7 0.830534 0.000000 0.498866
O O8 0.065905 0.233204 0.757036
O O9 0.166072 0.239764 0.760828
O O10 0.126988 0.000000 0.696713
O O11 0.500000 0.771752 0.500000
O O12 0.480346 0.849921 0.355065
O O13 0.430060 0.000000 0.504977
O O14 0.107154 0.500000 0.203836
O O15 0.145959 0.268267 0.093303
O O16 0.046131 0.258633 0.202722
O O17 0.307823 0.500000 0.953244
O O18 0.250000 0.750000 0.000000
O O19 0.322213 0.688641 0.079366
O O20 0.017736 0.500000 0.793116
O O21 0.776199 0.000000 0.218768
#
# Coordination Sequence:
#
# PCOD8111075 Si02
#       8
#     8   8   8   8   8   8   8   8
#     4  11  22  34  53  83 115 146 184 230 279 329
#     4   9  19  33  49  75 109 143 182 226 269 318
#     4   9  19  38  59  78 108 150 190 226 269 325
#     4   9  16  28  47  71 101 140 183 224 269 322
#     4  11  22  37  58  84 115 147 181 228 281 333
#     4  11  22  38  60  86 113 142 180 226 281 337
#     4   9  19  34  53  79 109 143 184 228 274 324
#     4  10  22  39  59  81 108 145 185 227 278 334
#
# _framework density 19.653175999999998
#
# number of rings (size 3 to 8) (size 9 to 14) (size 15 to 20)
#    0.000    2.125    1.250    1.875    0.000    4.750 
#    0.000    3.125    0.000    3.750    0.000    0.000 
#    0.000    0.000    0.000    0.000    0.000    0.000 
#
# Total GULP energy -396448.046923 kJ/mol
# GULP energy per Si atom -12389.001466 kJ/mol
# Density = 1.960844 g / cm^3
# Si number density = 19.653176 Si / 1000 Ang^3
#
#
#
# Elastic Constant Matrix: (Units=GPa)
#
#
# Indices 1 2 3 4 5 6 
#
# 1 74.0625 17.5667 32.7945 0.0000 3.5210 0.0000
# 2 17.5667 44.4453 19.1052 0.0000 0.3515 0.0000
# 3 32.7945 19.1052 83.8736 0.0000 2.8918 0.0000
# 4 0.0000 0.0000 0.0000 24.0043 0.0000 -4.0235
# 5 3.5210 0.3515 2.8918 0.0000 35.5660 0.0000
# 6 0.0000 0.0000 0.0000 -4.0235 0.0000 26.4125
#
#
#
# Elastic Compliance Matrix: (Units=1/GPa)
#
#
# Indices 1 2 3 4 5 6 
#
# 1 0.017087 -0.004312 -0.005658 0.000000 -0.001189 0.000000
# 2 -0.004312 0.026032 -0.004261 0.000000 0.000516 0.000000
# 3 -0.005658 -0.004261 0.015127 0.000000 -0.000628 0.000000
# 4 0.000000 0.000000 0.000000 0.042751 0.000000 0.006512
# 5 -0.001189 0.000516 -0.000628 0.000000 0.028280 0.000000
# 6 0.000000 0.000000 0.000000 0.006512 0.000000 0.038853
#
#
# Mechanical properties :
#
#
# Convention : Reuss Voigt Hill
#
# Bulk Modulus (GPa) = 33.57593 37.92379 35.74986
# Shear Modulus (GPa) = 24.21082 26.05754 25.13418
#
# Velocity S-wave (km/s) = 3.51366 3.64520 3.58003
# Velocity P-wave (km/s) = 5.79503 6.08729 5.94295
#
# Compressibility (1/GPa) = 0.02978324
#
# Stress axis : x y z
#
# Youngs Moduli (GPa) = 58.52558 38.41486 66.10621
#
# Poissons Ratio (x) = 0.16564 0.37400
# Poissons Ratio (y) = 0.25236 0.28171
# Poissons Ratio (z) = 0.33112 0.16370
#
# Static dielectric constant tensor:
#      x y z
#    x 3.439650 0.000000 0.086270 
#    y 0.000000 3.514610 0.000000 
#    z 0.086270 0.000000 3.867330 
# 
# 
# High freq. dielectric constant tensor:
#      x y z
#    x 1.755780 0.000000 0.002320 
#    y 0.000000 1.753850 0.000000 
#    z 0.002320 0.000000 1.769000 
# 
# From -- ./inp_files/243743.got.cif
#   From: 2010.06.25/outbox.cif.g09.slc.cpg/sg12_122_cif.got.tgz:243743.got - 2010.06.28 00:19:55.
