data_PCOD8111766
_publ_section_title
;
Structure prediction by ZEFSAII (Michael W. Deem and Ramdas Pophale) SiO2 
 PCOD8111766
Probable space group: C 2/M
;
_chemical_formula_sum "Si O2"
_cell_formula_units_Z 56
_cell_length_a 14.997724
_cell_length_b 9.129122
_cell_length_c 24.026288
_cell_angle_alpha 90.000000
_cell_angle_beta 118.182093
_cell_angle_gamma 90.000000
_cell_volume 2899.607870
_symmetry_space_group_name_H-M "C 2/M"
_symmetry_group_IT_number 12
_symmetry_cell_setting 'monoclinic'
loop_
_space_group_symop_operation_xyz
x,y,z
-x,y,-z
-x,-y,-z
x,-y,z
1/2+x,1/2+y,z
1/2-x,1/2+y,-z
1/2-x,1/2-y,-z
1/2+x,1/2-y,z
loop_
_atom_site_type_symbol
_atom_site_label
_atom_site_fract_x
_atom_site_fract_y
_atom_site_fract_z
Si Si1 0.932977 0.664505 0.692615
Si Si2 0.405785 0.671112 0.315453
Si Si3 0.177442 0.669965 0.227494
Si Si4 0.084800 0.328491 0.570462
Si Si5 0.072117 0.827174 0.095384
Si Si6 0.754971 0.333273 0.559153
Si Si7 0.847196 0.173175 0.999782
O O1 0.975935 0.500000 0.712894
O O2 0.868653 0.711539 0.726792
O O3 0.867021 0.670702 0.616918
O O4 0.023472 0.781247 0.714985
O O5 0.414628 0.500000 0.331565
O O6 0.293847 0.716428 0.264735
O O7 0.447580 0.763529 0.379976
O O8 0.165529 0.500000 0.209963
O O9 0.122299 0.759260 0.163901
O O10 0.106175 0.500000 0.581970
O O11 0.185967 0.245593 0.583778
O O12 0.000000 0.294662 0.500000
O O13 0.953691 0.779497 0.059676
O O14 0.076563 0.000000 0.100701
O O15 0.137285 0.778811 0.060223
O O16 0.718745 0.500000 0.539294
O O17 0.750000 0.250000 0.500000
O O18 0.829444 0.000000 0.999634
O O19 0.750000 0.250000 0.000000
#
# Coordination Sequence:
#
# PCOD8111766 Si02
#       7
#     8   8   8   8   8   8   8
#     4  10  22  41  59  80 115 153 189 240 298 352
#     4  11  23  40  60  85 114 150 195 244 295 353
#     4  10  22  41  60  83 120 158 196 244 295 349
#     4  11  23  38  57  83 113 147 189 240 300 360
#     4   9  20  38  59  86 120 159 198 240 288 343
#     4  11  22  38  58  82 114 148 189 243 299 357
#     4   9  19  37  60  88 124 158 196 242 287 339
#
# _framework density 19.312957000000001
#
# number of rings (size 3 to 8) (size 9 to 14) (size 15 to 20)
#    0.000    1.857    1.429    3.000    0.000    9.714 
#    0.000    7.143    0.000    0.000    0.000    0.000 
#    0.000    0.000    0.000    0.000    0.000    0.000 
#
# Total GULP energy -347178.444462 kJ/mol
# GULP energy per Si atom -12399.230159 kJ/mol
# Density = 1.926900 g / cm^3
# Si number density = 19.312957 Si / 1000 Ang^3
#
#
#
# Elastic Constant Matrix: (Units=GPa)
#
#
# Indices 1 2 3 4 5 6 
#
# 1 137.9219 52.6950 42.5467 0.0000 9.9555 0.0000
# 2 52.6950 79.0744 50.7687 0.0000 9.5063 0.0000
# 3 42.5467 50.7687 116.4900 0.0000 3.6475 0.0000
# 4 0.0000 0.0000 0.0000 35.5413 0.0000 -1.6824
# 5 9.9555 9.5063 3.6475 0.0000 19.2716 0.0000
# 6 0.0000 0.0000 0.0000 -1.6824 0.0000 39.8449
#
#
#
# Elastic Compliance Matrix: (Units=1/GPa)
#
#
# Indices 1 2 3 4 5 6 
#
# 1 0.009894 -0.005638 -0.001090 0.000000 -0.002124 0.000000
# 2 -0.005638 0.021843 -0.007257 0.000000 -0.006488 0.000000
# 3 -0.001090 -0.007257 0.012087 0.000000 0.001855 0.000000
# 4 0.000000 0.000000 0.000000 0.028193 0.000000 0.001190
# 5 -0.002124 -0.006488 0.001855 0.000000 0.055836 0.000000
# 6 0.000000 0.000000 0.000000 0.001190 0.000000 0.025148
#
#
# Mechanical properties :
#
#
# Convention : Reuss Voigt Hill
#
# Bulk Modulus (GPa) = 63.07703 69.50079 66.28891
# Shear Modulus (GPa) = 26.84467 31.42997 29.13732
#
# Velocity S-wave (km/s) = 3.73229 4.03848 3.88840
# Velocity P-wave (km/s) = 7.16273 7.60332 7.38631
#
# Compressibility (1/GPa) = 0.01585363
#
# Stress axis : x y z
#
# Youngs Moduli (GPa) = 101.06899 45.78097 82.73193
#
# Poissons Ratio (x) = 0.25813 0.09017
# Poissons Ratio (y) = 0.56987 0.60040
# Poissons Ratio (z) = 0.11016 0.33224
#
# Static dielectric constant tensor:
#      x y z
#    x 3.427230 0.000000 0.155970 
#    y 0.000000 3.517370 0.000000 
#    z 0.155970 0.000000 3.352660 
# 
# 
# High freq. dielectric constant tensor:
#      x y z
#    x 1.764420 0.000000 -0.002270 
#    y 0.000000 1.751550 0.000000 
#    z -0.002270 0.000000 1.746850 
# 
# From -- ./inp_files/338435.got.cif
#   From: 2010.06.25/outbox.cif.g09.slc.cpg/sg12_170_cif.got.tgz:338435.got - 2010.06.28 00:19:55.
