data_PCOD8111204
_publ_section_title
;
Structure prediction by ZEFSAII (Michael W. Deem and Ramdas Pophale) SiO2 
 PCOD8111204
Probable space group: C 2/M
;
_chemical_formula_sum "Si O2"
_cell_formula_units_Z 64
_cell_length_a 29.244406
_cell_length_b 18.100049
_cell_length_c 9.262470
_cell_angle_alpha 90.000000
_cell_angle_beta 41.631024
_cell_angle_gamma 90.000000
_cell_volume 3257.121095
_symmetry_space_group_name_H-M "C 2/M"
_symmetry_group_IT_number 12
_symmetry_cell_setting 'monoclinic'
loop_
_space_group_symop_operation_xyz
x,y,z
-x,y,-z
-x,-y,-z
x,-y,z
1/2+x,1/2+y,z
1/2-x,1/2+y,-z
1/2-x,1/2-y,-z
1/2+x,1/2-y,z
loop_
_atom_site_type_symbol
_atom_site_label
_atom_site_fract_x
_atom_site_fract_y
_atom_site_fract_z
Si Si1 0.309001 0.267598 0.749011
Si Si2 0.000339 0.878236 0.323953
Si Si3 0.765000 0.684454 0.570764
Si Si4 0.364386 0.582571 0.498856
Si Si5 0.637983 0.584188 0.831964
Si Si6 0.514284 0.082102 0.742543
Si Si7 0.613417 0.081964 0.769148
Si Si8 0.042215 0.728872 0.536501
O O1 0.295772 0.215567 0.644621
O O2 0.315653 0.354320 0.687726
O O3 0.376573 0.238729 0.671553
O O4 0.250000 0.250000 0.000000
O O5 0.937227 0.924925 0.407798
O O6 0.985977 0.794482 0.293142
O O7 0.000000 0.888127 0.500000
O O8 0.070928 0.905981 0.088637
O O9 0.750000 0.750000 0.500000
O O10 0.696943 0.636500 0.759514
O O11 0.823099 0.635538 0.356278
O O12 0.330052 0.500000 0.591600
O O13 0.375632 0.603979 0.303849
O O14 0.663026 0.500000 0.786957
O O15 0.566172 0.105122 0.746432
O O16 0.522885 0.144156 0.603854
O O17 0.531925 0.000000 0.641254
O O18 0.435005 0.084056 0.976886
O O19 0.642980 0.000000 0.675541
O O20 0.000000 0.754797 0.500000
#
# Coordination Sequence:
#
# PCOD8111204 Si02
#       8
#     8   8   8   8   8   8   8   8
#     4  11  25  44  62  91 130 169 212 258 313 376
#     4  10  23  40  64  95 123 160 209 261 318 379
#     4  12  24  39  63  91 123 167 209 254 304 376
#     4  10  22  44  65  89 127 165 207 263 323 376
#     4  11  24  41  63  94 127 164 209 262 317 381
#     4   9  18  35  61  87 115 149 195 249 308 363
#     4   9  19  37  59  87 118 150 190 252 309 355
#     4  10  22  39  62  86 121 160 203 254 305 369
#
# _framework density 19.649253000000002
#
# number of rings (size 3 to 8) (size 9 to 14) (size 15 to 20)
#    0.000    1.750    2.500    1.875    7.000    2.250 
#    2.250    1.250    0.000    0.000    0.000    0.000 
#    0.000    0.000    0.000    0.000    0.000    0.000 
#
# Total GULP energy -396471.916102 kJ/mol
# GULP energy per Si atom -12389.747378 kJ/mol
# Density = 1.960453 g / cm^3
# Si number density = 19.649253 Si / 1000 Ang^3
#
#
#
# Elastic Constant Matrix: (Units=GPa)
#
#
# Indices 1 2 3 4 5 6 
#
# 1 102.3133 41.4204 41.6910 0.0000 -13.7086 0.0000
# 2 41.4204 129.2794 56.2134 0.0000 -7.9725 0.0000
# 3 41.6910 56.2134 105.1673 0.0000 -7.5822 0.0000
# 4 0.0000 0.0000 0.0000 27.2098 0.0000 -5.2166
# 5 -13.7086 -7.9725 -7.5822 0.0000 25.3631 0.0000
# 6 0.0000 0.0000 0.0000 -5.2166 0.0000 32.2267
#
#
#
# Elastic Compliance Matrix: (Units=1/GPa)
#
#
# Indices 1 2 3 4 5 6 
#
# 1 0.012807 -0.002266 -0.003494 0.000000 0.005165 0.000000
# 2 -0.002266 0.010541 -0.004687 0.000000 0.000688 0.000000
# 3 -0.003494 -0.004687 0.013446 0.000000 0.000658 0.000000
# 4 0.000000 0.000000 0.000000 0.037928 0.000000 0.006140
# 5 0.005165 0.000688 0.000658 0.000000 0.042632 0.000000
# 6 0.000000 0.000000 0.000000 0.006140 0.000000 0.032024
#
#
# Mechanical properties :
#
#
# Convention : Reuss Voigt Hill
#
# Bulk Modulus (GPa) = 62.88312 68.37886 65.63099
# Shear Modulus (GPa) = 28.47840 30.12228 29.30034
#
# Velocity S-wave (km/s) = 3.81115 3.91960 3.86575
# Velocity P-wave (km/s) = 7.17208 7.44041 7.30747
#
# Compressibility (1/GPa) = 0.01590252
#
# Stress axis : x y z
#
# Youngs Moduli (GPa) = 78.08375 94.86393 74.37054
#
# Poissons Ratio (x) = 0.21493 0.25981
# Poissons Ratio (y) = 0.17691 0.34856
# Poissons Ratio (z) = 0.27279 0.44461
#
# Static dielectric constant tensor:
#      x y z
#    x -13.151790 0.000000 -11.848520 
#    y 0.000000 3.331470 0.000000 
#    z -11.848520 0.000000 -4.963120 
# 
# 
# High freq. dielectric constant tensor:
#      x y z
#    x 1.768740 0.000000 -0.009830 
#    y 0.000000 1.790290 0.000000 
#    z -0.009830 0.000000 1.740530 
# 
# From -- ./inp_files/112841.got.cif
#   From: 2010.06.25/outbox.cif.g09.slc.cpg/sg12_57_cif.got.tgz:112841.got - 2010.06.28 00:19:55.
