data_PCOD8111008
_publ_section_title
;
Structure prediction by ZEFSAII (Michael W. Deem and Ramdas Pophale) SiO2 
 PCOD8111008
Probable space group: C 2/M
;
_chemical_formula_sum "Si O2"
_cell_formula_units_Z 36
_cell_length_a 7.805966
_cell_length_b 23.635887
_cell_length_c 11.126701
_cell_angle_alpha 90.000000
_cell_angle_beta 49.096613
_cell_angle_gamma 90.000000
_cell_volume 1551.602064
_symmetry_space_group_name_H-M "C 2/M"
_symmetry_group_IT_number 12
_symmetry_cell_setting 'monoclinic'
loop_
_space_group_symop_operation_xyz
x,y,z
-x,y,-z
-x,-y,-z
x,-y,z
1/2+x,1/2+y,z
1/2-x,1/2+y,-z
1/2-x,1/2-y,-z
1/2+x,1/2-y,z
loop_
_atom_site_type_symbol
_atom_site_label
_atom_site_fract_x
_atom_site_fract_y
_atom_site_fract_z
Si Si1 0.389807 0.301256 0.179234
Si Si2 0.000000 0.115475 0.500000
Si Si3 0.466537 0.586680 0.776911
Si Si4 0.674664 0.000000 0.315514
Si Si5 0.382869 0.205989 0.356626
Si Si6 0.730985 0.500000 0.974630
O O1 0.517970 0.346405 0.205462
O O2 0.436468 0.238183 0.206972
O O3 0.120552 0.313820 0.304221
O O4 0.500000 0.306814 0.000000
O O5 0.957590 0.076880 0.637209
O O6 0.772326 0.151809 0.590146
O O7 0.686761 0.557386 0.730012
O O8 0.256812 0.555575 0.943564
O O9 0.500000 0.000000 0.500000
O O10 0.578482 0.000000 0.219889
O O11 0.250000 0.250000 0.500000
O O12 0.500000 0.500000 0.000000
#
# Coordination Sequence:
#
# PCOD8111008 Si02
#       6
#     8   4   8   4   8   4
#     4  12  23  40  66  91 126 171 214 266 323 376
#     4  12  24  39  64  94 126 175 216 258 324 370
#     4  10  22  40  64  91 126 167 211 262 317 380
#     4  10  22  38  69  99 120 160 212 260 318 390
#     4  12  23  40  61  92 130 166 217 265 311 377
#     4   8  18  42  63  91 126 155 201 265 317 377
#
# _framework density 23.201824999999999
#
# number of rings (size 3 to 8) (size 9 to 14) (size 15 to 20)
#    0.000    1.333    4.444    2.667    3.111    1.778 
#    0.000    0.000    0.000    1.333    0.000    0.000 
#    0.000    0.000    0.000    0.000    0.000    0.000 
#
# Total GULP energy -223057.130998 kJ/mol
# GULP energy per Si atom -12392.062833 kJ/mol
# Density = 2.314902 g / cm^3
# Si number density = 23.201825 Si / 1000 Ang^3
#
#
#
# Elastic Constant Matrix: (Units=GPa)
#
#
# Indices 1 2 3 4 5 6 
#
# 1 59.3497 17.3845 30.9664 0.0000 19.3313 0.0000
# 2 17.3845 73.8431 34.3992 0.0000 15.0353 0.0000
# 3 30.9664 34.3992 191.0495 0.0000 44.3334 0.0000
# 4 0.0000 0.0000 0.0000 33.0849 0.0000 20.5381
# 5 19.3313 15.0353 44.3334 0.0000 50.3558 0.0000
# 6 0.0000 0.0000 0.0000 20.5381 0.0000 21.5522
#
#
#
# Elastic Compliance Matrix: (Units=1/GPa)
#
#
# Indices 1 2 3 4 5 6 
#
# 1 0.020308 -0.002958 -0.001452 0.000000 -0.005635 0.000000
# 2 -0.002958 0.015489 -0.001885 0.000000 -0.001830 0.000000
# 3 -0.001452 -0.001885 0.006974 0.000000 -0.005020 0.000000
# 4 0.000000 0.000000 0.000000 0.074002 0.000000 -0.070520
# 5 -0.005635 -0.001830 -0.005020 0.000000 0.026988 0.000000
# 6 0.000000 0.000000 0.000000 -0.070520 0.000000 0.113600
#
#
# Mechanical properties :
#
#
# Convention : Reuss Voigt Hill
#
# Bulk Modulus (GPa) = 33.13063 54.41583 43.77323
# Shear Modulus (GPa) = 17.85648 37.09805 27.47727
#
# Velocity S-wave (km/s) = 2.77720 4.00300 3.44506
# Velocity P-wave (km/s) = 4.95925 6.69847 5.89337
#
# Compressibility (1/GPa) = 0.03018355
#
# Stress axis : x y z
#
# Youngs Moduli (GPa) = 49.24049 64.56137 143.39552
#
# Poissons Ratio (x) = 0.19094 0.20814
# Poissons Ratio (y) = 0.14563 0.27028
# Poissons Ratio (z) = 0.07147 0.12169
#
# Static dielectric constant tensor:
#      x y z
#    x 4.149010 0.000000 0.342180 
#    y 0.000000 4.199250 0.000000 
#    z 0.342180 0.000000 5.368450 
# 
# 
# High freq. dielectric constant tensor:
#      x y z
#    x 1.890090 0.000000 0.026800 
#    y 0.000000 1.907000 0.000000 
#    z 0.026800 0.000000 1.938740 
# 
# From -- ./inp_files/39103.got.cif
#   From: 2010.06.25/outbox.cif.g09.slc.cpg/sg12_20_cif.got.tgz:39103.got - 2010.06.28 00:19:55.
