data_PCOD8111086
_publ_section_title
;
Structure prediction by ZEFSAII (Michael W. Deem and Ramdas Pophale) SiO2 
 PCOD8111086
Probable space group: C 2/M
;
_chemical_formula_sum "Si O2"
_cell_formula_units_Z 56
_cell_length_a 22.938964
_cell_length_b 20.758982
_cell_length_c 5.245117
_cell_angle_alpha 90.000000
_cell_angle_beta 76.101341
_cell_angle_gamma 90.000000
_cell_volume 2424.543337
_symmetry_space_group_name_H-M "C 2/M"
_symmetry_group_IT_number 12
_symmetry_cell_setting 'monoclinic'
loop_
_space_group_symop_operation_xyz
x,y,z
-x,y,-z
-x,-y,-z
x,-y,z
1/2+x,1/2+y,z
1/2-x,1/2+y,-z
1/2-x,1/2-y,-z
1/2+x,1/2-y,z
loop_
_atom_site_type_symbol
_atom_site_label
_atom_site_fract_x
_atom_site_fract_y
_atom_site_fract_z
Si Si1 0.313252 0.268321 0.321331
Si Si2 0.099460 0.428743 0.919811
Si Si3 0.665654 0.343550 0.201723
Si Si4 0.653092 0.147961 0.481241
Si Si5 0.553321 0.813506 0.246131
Si Si6 0.963840 0.169830 0.798909
Si Si7 0.271810 0.073034 0.938826
O O1 0.250000 0.250000 0.500000
O O2 0.343031 0.315722 0.502418
O O3 0.344159 0.197395 0.282138
O O4 0.310729 0.293134 0.036076
O O5 0.071932 0.500000 0.979658
O O6 0.111954 0.412982 0.609034
O O7 0.051104 0.376400 0.067568
O O8 0.165683 0.423956 0.975429
O O9 0.599770 0.366740 0.174066
O O10 0.714191 0.401592 0.158550
O O11 0.619050 0.188298 0.301616
O O12 0.717723 0.120001 0.318084
O O13 0.500000 0.821363 0.500000
O O14 0.548370 0.744641 0.109387
O O15 0.000000 0.163975 0.500000
O O16 0.000000 0.138721 0.000000
O O17 0.257552 0.000000 0.868275
#
# Coordination Sequence:
#
# PCOD8111086 Si02
#       7
#     8   8   8   8   8   8   8
#     4  12  23  36  62  97 132 162 202 264 321 381
#     4  10  22  39  59  84 121 168 215 258 308 363
#     4  12  24  41  64  98 126 167 213 252 325 385
#     4  11  21  38  59  87 125 163 205 257 317 368
#     4  10  23  37  58  83 118 165 210 261 311 368
#     4  11  24  42  65  92 127 162 206 266 325 379
#     4  10  23  41  61  89 126 166 206 254 309 382
#
# _framework density 23.097131999999998
#
# number of rings (size 3 to 8) (size 9 to 14) (size 15 to 20)
#    0.000    1.143    2.857    3.429    8.000    0.857 
#    0.000    0.714    0.000    0.857    0.000    0.000 
#    0.000    0.000    0.000    0.000    0.000    0.000 
#
# Total GULP energy -346890.788057 kJ/mol
# GULP energy per Si atom -12388.956716 kJ/mol
# Density = 2.304456 g / cm^3
# Si number density = 23.097132 Si / 1000 Ang^3
#
#
#
# Elastic Constant Matrix: (Units=GPa)
#
#
# Indices 1 2 3 4 5 6 
#
# 1 82.8924 5.9162 -1.1308 0.0000 -7.4130 0.0000
# 2 5.9162 69.1250 12.9113 0.0000 -8.5384 0.0000
# 3 -1.1308 12.9113 56.7404 0.0000 1.1643 0.0000
# 4 0.0000 0.0000 0.0000 21.7996 0.0000 -2.5989
# 5 -7.4130 -8.5384 1.1643 0.0000 37.1735 0.0000
# 6 0.0000 0.0000 0.0000 -2.5989 0.0000 22.6959
#
#
#
# Elastic Compliance Matrix: (Units=1/GPa)
#
#
# Indices 1 2 3 4 5 6 
#
# 1 0.012331 -0.000851 0.000393 0.000000 0.002251 0.000000
# 2 -0.000851 0.015659 -0.003653 0.000000 0.003541 0.000000
# 3 0.000393 -0.003653 0.018491 0.000000 -0.001340 0.000000
# 4 0.000000 0.000000 0.000000 0.046507 0.000000 0.005326
# 5 0.002251 0.003541 -0.001340 0.000000 0.028205 0.000000
# 6 0.000000 0.000000 0.000000 0.005326 0.000000 0.044671
#
#
# Mechanical properties :
#
#
# Convention : Reuss Voigt Hill
#
# Bulk Modulus (GPa) = 26.13691 27.12793 26.63242
# Shear Modulus (GPa) = 26.76110 29.07121 27.91616
#
# Velocity S-wave (km/s) = 3.40756 3.55160 3.48032
# Velocity P-wave (km/s) = 5.17906 5.34688 5.26364
#
# Compressibility (1/GPa) = 0.03826007
#
# Stress axis : x y z
#
# Youngs Moduli (GPa) = 81.09481 63.86061 54.08140
#
# Poissons Ratio (x) = 0.05433 -0.02126
# Poissons Ratio (y) = 0.06899 0.19755
# Poissons Ratio (z) = -0.03188 0.23327
#
# Static dielectric constant tensor:
#      x y z
#    x 4.425900 0.000000 0.094930 
#    y 0.000000 4.874400 0.000000 
#    z 0.094930 0.000000 4.329040 
# 
# 
# High freq. dielectric constant tensor:
#      x y z
#    x 1.913750 0.000000 -0.006270 
#    y 0.000000 1.873160 0.000000 
#    z -0.006270 0.000000 1.918670 
# 
# From -- ./inp_files/25367.got.cif
#   From: 2010.06.25/outbox.cif.g09.slc.cpg/sg12_13_cif.got.tgz:25367.got - 2010.06.28 00:19:55.
