data_PCOD8111557
_publ_section_title
;
Structure prediction by ZEFSAII (Michael W. Deem and Ramdas Pophale) SiO2 
 PCOD8111557
Probable space group: C 2/M
;
_chemical_formula_sum "Si O2"
_cell_formula_units_Z 44
_cell_length_a 11.520984
_cell_length_b 25.552940
_cell_length_c 12.752761
_cell_angle_alpha 90.000000
_cell_angle_beta 35.117636
_cell_angle_gamma 90.000000
_cell_volume 2159.715892
_symmetry_space_group_name_H-M "C 2/M"
_symmetry_group_IT_number 12
_symmetry_cell_setting 'monoclinic'
loop_
_space_group_symop_operation_xyz
x,y,z
-x,y,-z
-x,-y,-z
x,-y,z
1/2+x,1/2+y,z
1/2-x,1/2+y,-z
1/2-x,1/2-y,-z
1/2+x,1/2-y,z
loop_
_atom_site_type_symbol
_atom_site_label
_atom_site_fract_x
_atom_site_fract_y
_atom_site_fract_z
Si Si1 0.281660 0.305098 0.705920
Si Si2 0.077909 0.135570 0.208683
Si Si3 0.735230 0.059787 0.517978
Si Si4 0.504505 0.105537 0.120163
Si Si5 0.662543 0.685313 0.792203
Si Si6 0.000000 0.391040 0.500000
O O1 0.500000 0.317711 0.500000
O O2 0.291082 0.324840 0.817506
O O3 0.234651 0.244427 0.735402
O O4 0.106723 0.338347 0.777974
O O5 0.939871 0.094035 0.372863
O O6 0.934990 0.172054 0.246548
O O7 0.261903 0.106555 0.012126
O O8 0.609228 0.065301 0.718875
O O9 0.608400 0.073801 0.507283
O O10 0.802636 0.000000 0.457755
O O11 0.500000 0.087803 0.000000
O O12 0.847423 0.646390 0.676467
O O13 0.500000 0.674796 0.000000
#
# Coordination Sequence:
#
# PCOD8111557 Si02
#       6
#     8   8   8   8   8   4
#     4  11  21  39  60  89 123 157 195 237 295 353
#     4  10  23  40  60  88 121 157 199 242 292 355
#     4  11  23  41  64  87 118 156 201 252 301 348
#     4  10  22  40  63  88 123 156 195 248 295 351
#     4  11  22  37  61  89 122 160 196 235 290 356
#     4  10  23  40  60  90 122 156 199 246 292 352
#
# _framework density 20.373049999999999
#
# number of rings (size 3 to 8) (size 9 to 14) (size 15 to 20)
#    0.000    1.455    2.727    3.000    0.000    6.182 
#    0.000    6.364    0.000    6.000    0.000    0.000 
#    0.000    0.000    0.000    0.000    0.000    0.000 
#
# Total GULP energy -272711.721816 kJ/mol
# GULP energy per Si atom -12395.987355 kJ/mol
# Density = 2.032668 g / cm^3
# Si number density = 20.373050 Si / 1000 Ang^3
#
#
#
# Elastic Constant Matrix: (Units=GPa)
#
#
# Indices 1 2 3 4 5 6 
#
# 1 66.5447 46.7978 30.3141 0.0000 -13.6688 0.0000
# 2 46.7978 112.5588 26.3061 0.0000 2.9622 0.0000
# 3 30.3141 26.3061 124.9048 0.0000 -14.8493 -0.0001
# 4 0.0000 0.0000 0.0000 21.6106 0.0000 9.0853
# 5 -13.6688 2.9622 -14.8493 0.0000 35.0913 0.0001
# 6 0.0000 0.0000 -0.0001 9.0853 0.0001 20.6528
#
#
#
# Elastic Compliance Matrix: (Units=1/GPa)
#
#
# Indices 1 2 3 4 5 6 
#
# 1 0.025451 -0.010154 -0.002904 0.000000 0.009542 0.000000
# 2 -0.010154 0.013494 -0.001035 0.000000 -0.005532 0.000000
# 3 -0.002904 -0.001035 0.009271 0.000000 0.002879 0.000000
# 4 0.000000 0.000000 0.000000 0.056773 0.000000 -0.024975
# 5 0.009542 -0.005532 0.002879 0.000000 0.033899 0.000000
# 6 0.000000 0.000000 0.000000 -0.024975 0.000000 0.059406
#
#
# Mechanical properties :
#
#
# Convention : Reuss Voigt Hill
#
# Bulk Modulus (GPa) = 49.92658 56.76048 53.34353
# Shear Modulus (GPa) = 21.44464 28.84361 25.14413
#
# Velocity S-wave (km/s) = 3.24790 3.76676 3.51691
# Velocity P-wave (km/s) = 6.21486 6.84390 6.53695
#
# Compressibility (1/GPa) = 0.02002941
#
# Stress axis : x y z
#
# Youngs Moduli (GPa) = 39.29049 74.10959 107.86047
#
# Poissons Ratio (x) = 0.75252 0.31323
# Poissons Ratio (y) = 0.39896 0.11165
# Poissons Ratio (z) = 0.11410 0.07672
#
# Static dielectric constant tensor:
#      x y z
#    x 3.804500 0.000000 -0.248050 
#    y 0.000000 3.471040 0.000000 
#    z -0.248050 0.000000 4.108420 
# 
# 
# High freq. dielectric constant tensor:
#      x y z
#    x 1.793020 0.000000 -0.016170 
#    y 0.000000 1.781440 0.000000 
#    z -0.016170 0.000000 1.817670 
# 
# From -- ./inp_files/136855.got.cif
#   From: 2010.06.25/outbox.cif.g09.slc.cpg/sg12_69_cif.got.tgz:136855.got - 2010.06.28 00:19:55.
