data_PCOD8111770
_publ_section_title
;
Structure prediction by ZEFSAII (Michael W. Deem and Ramdas Pophale) SiO2 
 PCOD8111770
Probable space group: C 2/M
;
_chemical_formula_sum "Si O2"
_cell_formula_units_Z 64
_cell_length_a 9.059244
_cell_length_b 30.470116
_cell_length_c 17.201004
_cell_angle_alpha 90.000000
_cell_angle_beta 41.601342
_cell_angle_gamma 90.000000
_cell_volume 3152.471245
_symmetry_space_group_name_H-M "C 2/M"
_symmetry_group_IT_number 12
_symmetry_cell_setting 'monoclinic'
loop_
_space_group_symop_operation_xyz
x,y,z
-x,y,-z
-x,-y,-z
x,-y,z
1/2+x,1/2+y,z
1/2-x,1/2+y,-z
1/2-x,1/2-y,-z
1/2+x,1/2-y,z
loop_
_atom_site_type_symbol
_atom_site_label
_atom_site_fract_x
_atom_site_fract_y
_atom_site_fract_z
Si Si1 0.647049 0.115085 0.097567
Si Si2 0.142139 0.399948 0.279501
Si Si3 0.930672 0.168009 0.244595
Si Si4 0.332235 0.404473 0.773200
Si Si5 0.219410 0.294462 0.465204
Si Si6 0.834500 0.884214 0.493175
Si Si7 0.569302 0.450513 0.118425
Si Si8 0.141745 0.795017 0.019930
O O1 0.680064 0.116292 0.176686
O O2 0.399567 0.098054 0.179355
O O3 0.819751 0.082500 0.987480
O O4 0.683112 0.164925 0.054581
O O5 0.214446 0.362327 0.312852
O O6 0.303973 0.441676 0.226988
O O7 0.885396 0.412864 0.398916
O O8 0.911706 0.200344 0.325532
O O9 0.142037 0.136988 0.179095
O O10 0.964383 0.196896 0.156518
O O11 0.538823 0.404945 0.630930
O O12 0.334449 0.445851 0.831229
O O13 0.250000 0.250000 0.500000
O O14 0.242211 0.335086 0.515437
O O15 0.000000 0.294125 0.500000
O O16 0.000000 0.883490 0.500000
O O17 0.612759 0.500000 0.073033
O O18 0.250000 0.750000 0.000000
O O19 0.000000 0.788497 0.000000
#
# Coordination Sequence:
#
# PCOD8111770 Si02
#       8
#     8   8   8   8   8   8   8   8
#     4  12  22  42  68  96 138 172 217 276 330 395
#     4  11  21  42  71  92 133 171 216 270 333 396
#     4  10  22  41  59  89 126 173 217 269 326 390
#     4  10  23  39  69  96 130 171 213 267 337 391
#     4  11  23  38  60  88 127 169 225 282 324 378
#     4  11  22  42  66  95 123 175 223 267 338 393
#     4  11  25  43  70 103 132 169 219 269 333 405
#     4  12  26  40  60  92 132 179 225 268 330 393
#
# _framework density 20.301534
#
# number of rings (size 3 to 8) (size 9 to 14) (size 15 to 20)
#    0.000    1.000    6.250    1.125    1.750    4.000 
#    2.250    1.250    0.000    0.750    0.000    0.000 
#    0.000    0.000    0.000    0.000    0.000    0.000 
#
# Total GULP energy -396616.863285 kJ/mol
# GULP energy per Si atom -12394.276978 kJ/mol
# Density = 2.025533 g / cm^3
# Si number density = 20.301534 Si / 1000 Ang^3
#
#
#
# Elastic Constant Matrix: (Units=GPa)
#
#
# Indices 1 2 3 4 5 6 
#
# 1 110.1454 29.3950 33.4775 0.0000 -1.3454 0.0000
# 2 29.3950 103.6453 43.3229 0.0000 0.9338 0.0000
# 3 33.4775 43.3229 101.7272 0.0000 -0.4610 0.0000
# 4 0.0000 0.0000 0.0000 5.4895 0.0000 6.4484
# 5 -1.3454 0.9338 -0.4610 0.0000 43.2353 0.0000
# 6 0.0000 0.0000 0.0000 6.4484 0.0000 21.7097
#
#
#
# Elastic Compliance Matrix: (Units=1/GPa)
#
#
# Indices 1 2 3 4 5 6 
#
# 1 0.010374 -0.001848 -0.002626 0.000000 0.000335 0.000000
# 2 -0.001848 0.012071 -0.004534 0.000000 -0.000367 0.000000
# 3 -0.002626 -0.004534 0.012626 0.000000 0.000151 0.000000
# 4 0.000000 0.000000 0.000000 0.279783 0.000000 -0.083103
# 5 0.000335 -0.000367 0.000151 0.000000 0.023149 0.000000
# 6 0.000000 0.000000 0.000000 -0.083103 0.000000 0.070746
#
#
# Mechanical properties :
#
#
# Convention : Reuss Voigt Hill
#
# Bulk Modulus (GPa) = 58.63114 58.65653 58.64383
# Shear Modulus (GPa) = 11.56202 28.04174 19.80188
#
# Velocity S-wave (km/s) = 2.38904 3.72057 3.12651
# Velocity P-wave (km/s) = 6.04590 6.88565 6.47939
#
# Compressibility (1/GPa) = 0.01705578
#
# Stress axis : x y z
#
# Youngs Moduli (GPa) = 96.39350 82.84370 79.20170
#
# Poissons Ratio (x) = 0.15307 0.20795
# Poissons Ratio (y) = 0.17811 0.35912
# Poissons Ratio (z) = 0.25309 0.37564
#
# Static dielectric constant tensor:
#      x y z
#    x 4.072570 0.000000 0.239900 
#    y 0.000000 3.443220 0.000000 
#    z 0.239900 0.000000 3.957020 
# 
# 
# High freq. dielectric constant tensor:
#      x y z
#    x 1.814320 0.000000 0.009770 
#    y 0.000000 1.760220 0.000000 
#    z 0.009770 0.000000 1.800970 
# 
# From -- ./inp_files/260311.got.cif
#   From: 2010.06.25/outbox.cif.g09.slc.cpg/sg12_131_cif.got.tgz:260311.got - 2010.06.28 00:19:55.
