data_PCOD8111736
_publ_section_title
;
Structure prediction by ZEFSAII (Michael W. Deem and Ramdas Pophale) SiO2 
 PCOD8111736
Probable space group: C 2/M
;
_chemical_formula_sum "Si O2"
_cell_formula_units_Z 52
_cell_length_a 24.398583
_cell_length_b 12.658807
_cell_length_c 11.743768
_cell_angle_alpha 90.000000
_cell_angle_beta 135.749370
_cell_angle_gamma 90.000000
_cell_volume 2531.015330
_symmetry_space_group_name_H-M "C 2/M"
_symmetry_group_IT_number 12
_symmetry_cell_setting 'monoclinic'
loop_
_space_group_symop_operation_xyz
x,y,z
-x,y,-z
-x,-y,-z
x,-y,z
1/2+x,1/2+y,z
1/2-x,1/2+y,-z
1/2-x,1/2-y,-z
1/2+x,1/2-y,z
loop_
_atom_site_type_symbol
_atom_site_label
_atom_site_fract_x
_atom_site_fract_y
_atom_site_fract_z
Si Si1 0.220733 0.228968 0.080786
Si Si2 0.882983 0.378824 0.934524
Si Si3 0.860065 0.619279 0.415031
Si Si4 0.667003 0.807941 0.379801
Si Si5 0.500000 0.230381 0.500000
Si Si6 0.074629 0.883311 0.787382
Si Si7 0.511680 0.301528 0.139249
O O1 0.182938 0.334934 0.077171
O O2 0.292082 0.192124 0.264117
O O3 0.250000 0.250000 0.000000
O O4 0.155769 0.137816 0.974001
O O5 0.903007 0.500000 0.996755
O O6 0.847081 0.376740 0.754317
O O7 0.961971 0.308917 0.064683
O O8 0.852151 0.500000 0.358041
O O9 0.847512 0.618715 0.532007
O O10 0.946050 0.660912 0.504185
O O11 0.750000 0.750000 0.500000
O O12 0.603550 0.715502 0.291248
O O13 0.558695 0.300987 0.662702
O O14 0.009277 0.877558 0.788120
O O15 0.075124 0.000000 0.734416
O O16 0.500000 0.358983 0.000000
#
# Coordination Sequence:
#
# PCOD8111736 Si02
#       7
#     8   8   8   8   4   8   8
#     4  11  23  44  61  92 133 162 212 259 310 385
#     4  10  22  40  67  94 124 168 213 264 325 376
#     4  12  25  43  68  94 128 172 212 264 327 376
#     4  11  21  41  64  92 135 164 208 270 319 375
#     4  12  24  46  64  96 130 162 218 272 308 376
#     4  11  23  42  66  89 122 169 209 254 316 376
#     4   9  21  40  62  90 128 160 207 265 306 376
#
# _framework density 20.545114999999999
#
# number of rings (size 3 to 8) (size 9 to 14) (size 15 to 20)
#    0.000    1.231    4.615    1.385    0.000    4.923 
#    0.000    3.077    0.000    0.000    0.000    0.000 
#    0.000    0.000    0.000    0.000    0.000    0.000 
#
# Total GULP energy -322370.546568 kJ/mol
# GULP energy per Si atom -12398.867176 kJ/mol
# Density = 2.049835 g / cm^3
# Si number density = 20.545115 Si / 1000 Ang^3
#
#
#
# Elastic Constant Matrix: (Units=GPa)
#
#
# Indices 1 2 3 4 5 6 
#
# 1 133.2823 30.3422 32.0302 0.0000 -5.8002 0.0000
# 2 30.3422 86.2763 13.0780 0.0000 1.7864 0.0000
# 3 32.0302 13.0780 86.9058 0.0000 5.6594 0.0000
# 4 0.0000 0.0000 0.0000 12.3073 0.0000 -5.8308
# 5 -5.8002 1.7864 5.6594 0.0000 48.1770 0.0000
# 6 0.0000 0.0000 0.0000 -5.8308 0.0000 8.5249
#
#
#
# Elastic Compliance Matrix: (Units=1/GPa)
#
#
# Indices 1 2 3 4 5 6 
#
# 1 0.008900 -0.002711 -0.002971 0.000000 0.001521 0.000000
# 2 -0.002711 0.012690 -0.000865 0.000000 -0.000695 0.000000
# 3 -0.002971 -0.000865 0.012852 0.000000 -0.001835 0.000000
# 4 0.000000 0.000000 0.000000 0.120203 0.000000 0.082215
# 5 0.001521 -0.000695 -0.001835 0.000000 0.021181 0.000000
# 6 0.000000 0.000000 0.000000 0.082215 0.000000 0.173535
#
#
# Mechanical properties :
#
#
# Convention : Reuss Voigt Hill
#
# Bulk Modulus (GPa) = 46.84669 50.81838 48.83254
# Shear Modulus (GPa) = 13.52918 29.20277 21.36598
#
# Velocity S-wave (km/s) = 2.56893 3.77423 3.22833
# Velocity P-wave (km/s) = 5.62588 6.61678 6.14135
#
# Compressibility (1/GPa) = 0.02134623
#
# Stress axis : x y z
#
# Youngs Moduli (GPa) = 112.35484 78.80410 77.81156
#
# Poissons Ratio (x) = 0.21366 0.23121
# Poissons Ratio (y) = 0.30462 0.06731
# Poissons Ratio (z) = 0.33385 0.06817
#
# Static dielectric constant tensor:
#      x y z
#    x 4.141910 0.000000 -0.253360 
#    y 0.000000 3.348680 0.000000 
#    z -0.253360 0.000000 3.636990 
# 
# 
# High freq. dielectric constant tensor:
#      x y z
#    x 1.823240 0.000000 -0.003250 
#    y 0.000000 1.777110 0.000000 
#    z -0.003250 0.000000 1.813330 
# 
# From -- ./inp_files/175352.got.cif
#   From: 2010.06.25/outbox.cif.g09.slc.cpg/sg12_88_cif.got.tgz:175352.got - 2010.06.28 00:19:55.
