data_PCOD8111945
_publ_section_title
;
Structure prediction by ZEFSAII (Michael W. Deem and Ramdas Pophale) SiO2 
 PCOD8111945
Probable space group: C 2/M
;
_chemical_formula_sum "Si O2"
_cell_formula_units_Z 56
_cell_length_a 26.671418
_cell_length_b 8.583103
_cell_length_c 11.689297
_cell_angle_alpha 90.000000
_cell_angle_beta 103.609591
_cell_angle_gamma 90.000000
_cell_volume 2600.818638
_symmetry_space_group_name_H-M "C 2/M"
_symmetry_group_IT_number 12
_symmetry_cell_setting 'monoclinic'
loop_
_space_group_symop_operation_xyz
x,y,z
-x,y,-z
-x,-y,-z
x,-y,z
1/2+x,1/2+y,z
1/2-x,1/2+y,-z
1/2-x,1/2-y,-z
1/2+x,1/2-y,z
loop_
_atom_site_type_symbol
_atom_site_label
_atom_site_fract_x
_atom_site_fract_y
_atom_site_fract_z
Si Si1 0.837555 0.319115 0.820817
Si Si2 0.628703 0.318949 0.932061
Si Si3 0.924826 0.177720 0.717856
Si Si4 0.058651 0.819665 0.531663
Si Si5 0.739729 0.316104 0.618783
Si Si6 0.017450 0.319215 0.883310
Si Si7 0.148826 0.681944 0.712488
O O1 0.837037 0.500000 0.852669
O O2 0.887490 0.288375 0.769807
O O3 0.786804 0.267845 0.725657
O O4 0.838360 0.220767 0.937793
O O5 0.614989 0.500000 0.923830
O O6 0.577142 0.217587 0.901171
O O7 0.661329 0.272466 0.837230
O O8 0.915516 0.203049 0.578618
O O9 0.984172 0.219364 0.776024
O O10 0.913778 0.000000 0.747190
O O11 0.090753 0.719485 0.639989
O O12 0.000000 0.758019 0.500000
O O13 0.060074 0.000000 0.570213
O O14 0.732455 0.500000 0.607945
O O15 0.750000 0.250000 0.500000
O O16 0.687866 0.239521 0.637094
O O17 0.007711 0.500000 0.854246
O O18 0.000000 0.270112 0.000000
O O19 0.155082 0.500000 0.737011
#
# Coordination Sequence:
#
# PCOD8111945 Si02
#       7
#     8   8   8   8   8   8   8
#     4  11  24  42  64  93 127 165 212 266 320 378
#     4  12  25  42  66  94 129 170 216 266 321 385
#     4  11  22  36  61  94 128 169 215 265 319 379
#     4  10  22  41  64  93 129 169 215 264 316 378
#     4  11  25  46  72  99 130 167 213 266 320 379
#     4  11  22  37  60  91 131 172 212 263 316 375
#     4  12  26  44  68  96 131 172 213 262 323 384
#
# _framework density 21.531682
#
# number of rings (size 3 to 8) (size 9 to 14) (size 15 to 20)
#    0.000    0.857    1.429    6.000    0.000    8.286 
#    0.000    0.000    0.000    0.000    0.000    0.000 
#    0.000    0.000    0.000    0.000    0.000    0.000 
#
# Total GULP energy -347447.125438 kJ/mol
# GULP energy per Si atom -12408.825908 kJ/mol
# Density = 2.148268 g / cm^3
# Si number density = 21.531682 Si / 1000 Ang^3
#
#
#
# Elastic Constant Matrix: (Units=GPa)
#
#
# Indices 1 2 3 4 5 6 
#
# 1 93.9670 18.3818 39.5114 0.0000 -0.5234 0.0000
# 2 18.3818 76.7406 46.8285 0.0000 1.3540 0.0000
# 3 39.5114 46.8285 123.2647 0.0000 -1.6478 0.0000
# 4 0.0000 0.0000 0.0000 37.5359 0.0000 -0.1592
# 5 -0.5234 1.3540 -1.6478 0.0000 40.1927 0.0000
# 6 0.0000 0.0000 0.0000 -0.1592 0.0000 30.5671
#
#
#
# Elastic Compliance Matrix: (Units=1/GPa)
#
#
# Indices 1 2 3 4 5 6 
#
# 1 0.012329 -0.000706 -0.003683 0.000000 0.000033 0.000000
# 2 -0.000706 0.017032 -0.006255 0.000000 -0.000839 0.000000
# 3 -0.003683 -0.006255 0.011678 0.000000 0.000642 0.000000
# 4 0.000000 0.000000 0.000000 0.026642 0.000000 0.000139
# 5 0.000033 -0.000839 0.000642 0.000000 0.024935 0.000000
# 6 0.000000 0.000000 0.000000 0.000139 0.000000 0.032716
#
#
# Mechanical properties :
#
#
# Convention : Reuss Voigt Hill
#
# Bulk Modulus (GPa) = 50.63356 55.93509 53.28432
# Shear Modulus (GPa) = 32.63607 34.27586 33.45596
#
# Velocity S-wave (km/s) = 3.89745 3.99417 3.94611
# Velocity P-wave (km/s) = 6.61970 6.87791 6.75004
#
# Compressibility (1/GPa) = 0.01974975
#
# Stress axis : x y z
#
# Youngs Moduli (GPa) = 81.10884 58.71304 85.62933
#
# Poissons Ratio (x) = 0.04146 0.31539
# Poissons Ratio (y) = 0.05728 0.53564
# Poissons Ratio (z) = 0.29874 0.36727
#
# Static dielectric constant tensor:
#      x y z
#    x 3.854560 0.000000 -0.037930 
#    y 0.000000 3.807980 0.000000 
#    z -0.037930 0.000000 4.114800 
# 
# 
# High freq. dielectric constant tensor:
#      x y z
#    x 1.843090 0.000000 -0.003880 
#    y 0.000000 1.849310 0.000000 
#    z -0.003880 0.000000 1.861530 
# 
# From -- ./inp_files/186799.got.cif
#   From: 2010.06.25/outbox.cif.g09.slc.cpg/sg12_94_cif.got.tgz:186799.got - 2010.06.28 00:19:55.
