data_PCOD8111288
_publ_section_title
;
Structure prediction by ZEFSAII (Michael W. Deem and Ramdas Pophale) SiO2 
 PCOD8111288
Probable space group: C 2/M
;
_chemical_formula_sum "Si O2"
_cell_formula_units_Z 40
_cell_length_a 9.540817
_cell_length_b 17.083333
_cell_length_c 17.311493
_cell_angle_alpha 90.000000
_cell_angle_beta 43.407383
_cell_angle_gamma 90.000000
_cell_volume 1938.937999
_symmetry_space_group_name_H-M "C 2/M"
_symmetry_group_IT_number 12
_symmetry_cell_setting 'monoclinic'
loop_
_space_group_symop_operation_xyz
x,y,z
-x,y,-z
-x,-y,-z
x,-y,z
1/2+x,1/2+y,z
1/2-x,1/2+y,-z
1/2-x,1/2-y,-z
1/2+x,1/2-y,z
loop_
_atom_site_type_symbol
_atom_site_label
_atom_site_fract_x
_atom_site_fract_y
_atom_site_fract_z
Si Si1 0.166291 0.913166 0.622621
Si Si2 0.350658 0.296407 0.698926
Si Si3 0.550923 0.196926 0.067132
Si Si4 0.477039 0.130578 0.624068
Si Si5 0.054736 0.409623 0.760182
O O1 0.301598 0.898226 0.491958
O O2 0.303547 0.910454 0.643720
O O3 0.993837 0.846608 0.699216
O O4 0.068843 0.000000 0.656120
O O5 0.472014 0.224529 0.613047
O O6 0.157074 0.258818 0.822530
O O7 0.264921 0.358560 0.669917
O O8 0.575412 0.120368 0.113002
O O9 0.500000 0.171312 0.000000
O O10 0.750000 0.250000 0.000000
O O11 0.433977 0.105642 0.729333
O O12 0.106605 0.500000 0.750895
#
# Coordination Sequence:
#
# PCOD8111288 Si02
#       5
#     8   8   8   8   8
#     4  11  23  39  61  92 131 172 207 252 306 364
#     4  10  23  38  65  92 123 163 212 256 311 369
#     4  10  23  43  68  92 121 161 207 261 320 372
#     4  11  21  39  62  91 131 172 207 246 305 376
#     4  10  22  39  64  94 124 159 205 263 311 361
#
# _framework density 20.629849
#
# number of rings (size 3 to 8) (size 9 to 14) (size 15 to 20)
#    1.200    0.400    0.000    6.000    2.800    2.800 
#    0.000    2.000    0.000    1.800    0.000    0.000 
#    0.000    0.000    0.000    0.000    0.000    0.000 
#
# Total GULP energy -247802.001274 kJ/mol
# GULP energy per Si atom -12390.100064 kJ/mol
# Density = 2.058290 g / cm^3
# Si number density = 20.629849 Si / 1000 Ang^3
#
#
#
# Elastic Constant Matrix: (Units=GPa)
#
#
# Indices 1 2 3 4 5 6 
#
# 1 99.8644 34.7092 55.7811 -0.0081 15.8816 0.0019
# 2 34.7092 150.8000 26.2985 0.0017 3.6295 -0.0034
# 3 55.7811 26.2985 67.2294 0.0284 7.9117 -0.0102
# 4 -0.0081 0.0017 0.0284 20.2067 -0.0050 -6.1909
# 5 15.8816 3.6295 7.9117 -0.0050 47.6180 0.0037
# 6 0.0019 -0.0034 -0.0102 -6.1909 0.0037 29.8811
#
#
#
# Elastic Compliance Matrix: (Units=1/GPa)
#
#
# Indices 1 2 3 4 5 6 
#
# 1 0.019779 -0.001799 -0.015245 0.000028 -0.003927 0.000000
# 2 -0.001799 0.007281 -0.001388 0.000001 0.000276 0.000001
# 3 -0.015245 -0.001388 0.028003 -0.000045 0.000538 0.000001
# 4 0.000028 0.000001 -0.000045 0.052843 0.000003 0.010948
# 5 -0.003927 0.000276 0.000538 0.000003 0.022200 -0.000002
# 6 0.000000 0.000001 0.000001 0.010948 -0.000002 0.035734
#
#
# Mechanical properties :
#
#
# Convention : Reuss Voigt Hill
#
# Bulk Modulus (GPa) = 54.94820 61.27458 58.11139
# Shear Modulus (GPa) = 23.95003 32.94817 28.44910
#
# Velocity S-wave (km/s) = 3.41095 4.00072 3.71755
# Velocity P-wave (km/s) = 6.49661 7.14895 6.83057
#
# Compressibility (1/GPa) = 0.01819896
#
# Stress axis : x y z
#
# Youngs Moduli (GPa) = 50.55985 137.34768 35.71096
#
# Poissons Ratio (x) = 0.24713 0.54440
# Poissons Ratio (y) = 0.09097 0.04955
# Poissons Ratio (z) = 0.77076 0.19058
#
# Static dielectric constant tensor:
#      x y z
#    x 3.776740 -0.000010 -0.003460 
#    y -0.000010 3.659990 0.000010 
#    z -0.003460 0.000010 3.512130 
# 
# 
# High freq. dielectric constant tensor:
#      x y z
#    x 1.817700 0.000000 0.005630 
#    y 0.000000 1.806470 0.000000 
#    z 0.005630 0.000000 1.776730 
# 
# From -- ./inp_files/256373.got.cif
#   From: 2010.06.25/outbox.cif.g09.slc.cpg/sg12_129_cif.got.tgz:256373.got - 2010.06.28 00:19:55.
