data_PCOD8111366
_publ_section_title
;
Structure prediction by ZEFSAII (Michael W. Deem and Ramdas Pophale) SiO2 
 PCOD8111366
Probable space group: C 2/M
;
_chemical_formula_sum "Si O2"
_cell_formula_units_Z 52
_cell_length_a 12.621673
_cell_length_b 23.145514
_cell_length_c 8.885693
_cell_angle_alpha 90.000000
_cell_angle_beta 94.574530
_cell_angle_gamma 90.000000
_cell_volume 2587.553722
_symmetry_space_group_name_H-M "C 2/M"
_symmetry_group_IT_number 12
_symmetry_cell_setting 'monoclinic'
loop_
_space_group_symop_operation_xyz
x,y,z
-x,y,-z
-x,-y,-z
x,-y,z
1/2+x,1/2+y,z
1/2-x,1/2+y,-z
1/2-x,1/2-y,-z
1/2+x,1/2-y,z
loop_
_atom_site_type_symbol
_atom_site_label
_atom_site_fract_x
_atom_site_fract_y
_atom_site_fract_z
Si Si1 0.636160 0.165420 0.766917
Si Si2 0.410221 0.633201 0.399972
Si Si3 0.176005 0.785769 0.380678
Si Si4 0.875968 0.564231 0.999978
Si Si5 0.516759 0.278050 0.830222
Si Si6 0.500000 0.112230 0.500000
Si Si7 0.805870 0.566165 0.662870
O O1 0.750815 0.170693 0.704514
O O2 0.653445 0.112762 0.883386
O O3 0.602794 0.226067 0.838815
O O4 0.545582 0.152348 0.635382
O O5 0.500000 0.594111 0.500000
O O6 0.405765 0.684708 0.518368
O O7 0.440056 0.662443 0.242877
O O8 0.297478 0.602247 0.389701
O O9 0.250000 0.750000 0.500000
O O10 0.095357 0.754400 0.253899
O O11 0.830757 0.500000 0.039584
O O12 0.834603 0.585175 0.834286
O O13 0.000000 0.558420 0.000000
O O14 0.500000 0.296222 0.000000
O O15 0.404094 0.074474 0.558889
O O16 0.772726 0.500000 0.653148
#
# Coordination Sequence:
#
# PCOD8111366 Si02
#       7
#     8   8   8   8   8   4   8
#     4  12  23  38  64  88 126 170 204 252 318 379
#     4  10  23  44  64  90 131 166 211 266 312 368
#     4  11  22  41  60  90 125 167 205 257 316 370
#     4  10  22  40  59  89 130 163 201 253 312 376
#     4  11  26  39  61  94 127 166 215 261 307 377
#     4  12  23  36  64 100 126 158 213 262 310 392
#     4  11  24  42  67  93 126 168 210 264 319 374
#
# _framework density 20.096201000000001
#
# number of rings (size 3 to 8) (size 9 to 14) (size 15 to 20)
#    0.000    1.077    4.615    1.615    3.231    1.538 
#    0.000    0.000    0.000    0.462    0.000    0.000 
#    0.000    0.000    0.000    0.000    0.000    0.000 
#
# Total GULP energy -322100.054146 kJ/mol
# GULP energy per Si atom -12388.463621 kJ/mol
# Density = 2.005046 g / cm^3
# Si number density = 20.096201 Si / 1000 Ang^3
#
#
#
# Elastic Constant Matrix: (Units=GPa)
#
#
# Indices 1 2 3 4 5 6 
#
# 1 120.5891 35.8547 60.7749 0.0000 3.4162 0.0000
# 2 35.8547 72.7878 47.4004 0.0000 -8.4635 0.0000
# 3 60.7749 47.4004 137.2933 0.0000 -7.4821 0.0000
# 4 0.0000 0.0000 0.0000 26.7136 0.0000 -5.3523
# 5 3.4162 -8.4635 -7.4821 0.0000 38.0879 0.0000
# 6 0.0000 0.0000 0.0000 -5.3523 0.0000 20.5133
#
#
#
# Elastic Compliance Matrix: (Units=1/GPa)
#
#
# Indices 1 2 3 4 5 6 
#
# 1 0.011374 -0.003263 -0.004047 0.000000 -0.002540 0.000000
# 2 -0.003263 0.018952 -0.004906 0.000000 0.003540 0.000000
# 3 -0.004047 -0.004906 0.010845 0.000000 0.001403 0.000000
# 4 0.000000 0.000000 0.000000 0.039499 0.000000 0.010306
# 5 -0.002540 0.003540 0.001403 0.000000 0.027545 0.000000
# 6 0.000000 0.000000 0.000000 0.010306 0.000000 0.051438
#
#
# Mechanical properties :
#
#
# Convention : Reuss Voigt Hill
#
# Bulk Modulus (GPa) = 59.73555 68.74781 64.24168
# Shear Modulus (GPa) = 26.36215 29.50564 27.93390
#
# Velocity S-wave (km/s) = 3.62580 3.83589 3.73233
# Velocity P-wave (km/s) = 6.87880 7.34182 7.11408
#
# Compressibility (1/GPa) = 0.01674045
#
# Stress axis : x y z
#
# Youngs Moduli (GPa) = 87.91728 52.76399 92.20511
#
# Poissons Ratio (x) = 0.17216 0.37315
# Poissons Ratio (y) = 0.28686 0.45236
# Poissons Ratio (z) = 0.35580 0.25886
#
# Static dielectric constant tensor:
#      x y z
#    x 2.888160 0.000000 -0.273670 
#    y 0.000000 3.300690 0.000000 
#    z -0.273670 0.000000 3.753220 
# 
# 
# High freq. dielectric constant tensor:
#      x y z
#    x 1.795950 0.000000 0.004990 
#    y 0.000000 1.761090 0.000000 
#    z 0.004990 0.000000 1.800050 
# 
# From -- ./inp_files/52653.got.cif
#   From: 2010.06.25/outbox.cif.g09.slc.cpg/sg12_27_cif.got.tgz:52653.got - 2010.06.28 00:19:55.
