data_PCOD8111025
_publ_section_title
;
Structure prediction by ZEFSAII (Michael W. Deem and Ramdas Pophale) SiO2 
 PCOD8111025
Probable space group: C 2/M
;
_chemical_formula_sum "Si O2"
_cell_formula_units_Z 56
_cell_length_a 18.032212
_cell_length_b 8.922456
_cell_length_c 29.123410
_cell_angle_alpha 90.000000
_cell_angle_beta 141.548253
_cell_angle_gamma 90.000000
_cell_volume 2913.835302
_symmetry_space_group_name_H-M "C 2/M"
_symmetry_group_IT_number 12
_symmetry_cell_setting 'monoclinic'
loop_
_space_group_symop_operation_xyz
x,y,z
-x,y,-z
-x,-y,-z
x,-y,z
1/2+x,1/2+y,z
1/2-x,1/2+y,-z
1/2-x,1/2-y,-z
1/2+x,1/2-y,z
loop_
_atom_site_type_symbol
_atom_site_label
_atom_site_fract_x
_atom_site_fract_y
_atom_site_fract_z
Si Si1 0.176739 0.324613 0.004854
Si Si2 0.218173 0.674909 0.436865
Si Si3 0.639751 0.171631 0.575156
Si Si4 0.709218 0.677913 0.703252
Si Si5 0.650013 0.177120 0.851163
Si Si6 0.441117 0.173431 0.292013
Si Si7 0.526947 0.824907 0.156304
O O1 0.203270 0.500000 0.019540
O O2 0.220575 0.250008 0.073796
O O3 0.250000 0.250000 0.000000
O O4 0.037689 0.293633 0.924352
O O5 0.248453 0.500000 0.454255
O O6 0.250000 0.750000 0.500000
O O7 0.297454 0.750045 0.436753
O O8 0.081223 0.702850 0.357978
O O9 0.500000 0.182251 0.500000
O O10 0.673823 0.257714 0.637373
O O11 0.682005 0.000000 0.599127
O O12 0.707976 0.500000 0.699761
O O13 0.614407 0.728538 0.694803
O O14 0.840133 0.742896 0.780120
O O15 0.614576 0.227067 0.783079
O O16 0.550308 0.240177 0.838435
O O17 0.662407 0.000000 0.861461
O O18 0.412928 0.000000 0.288129
O O19 0.537831 0.000000 0.170666
#
# Coordination Sequence:
#
# PCOD8111025 Si02
#       7
#     8   8   8   8   8   8   8
#     4   9  16  29  50  76 106 137 174 221 272 324
#     4  11  23  40  62  86 113 146 183 223 270 323
#     4  11  24  41  60  84 115 147 179 221 274 325
#     4  11  22  37  58  82 109 145 189 229 268 322
#     4   9  17  33  55  76 103 140 181 223 270 324
#     4  10  22  39  56  78 113 150 180 222 279 326
#     4   8  16  32  53  77 105 139 177 221 274 325
#
# _framework density 19.218655999999999
#
# number of rings (size 3 to 8) (size 9 to 14) (size 15 to 20)
#    0.000    2.143    0.000    4.286    0.000    8.571 
#    0.000   10.714    0.000    4.286    0.000    0.000 
#    0.000    0.000    0.000    0.000    0.000    0.000 
#
# Total GULP energy -347131.582206 kJ/mol
# GULP energy per Si atom -12397.556507 kJ/mol
# Density = 1.917491 g / cm^3
# Si number density = 19.218656 Si / 1000 Ang^3
#
#
#
# Elastic Constant Matrix: (Units=GPa)
#
#
# Indices 1 2 3 4 5 6 
#
# 1 110.9422 54.0354 52.3489 0.0000 -13.0986 -0.0001
# 2 54.0354 85.3477 54.6793 0.0002 -5.9115 -0.0004
# 3 52.3489 54.6793 133.9252 0.0000 -17.9955 0.0000
# 4 0.0000 0.0002 0.0000 23.5880 0.0000 14.9237
# 5 -13.0986 -5.9115 -17.9955 0.0000 30.7174 0.0000
# 6 -0.0001 -0.0004 0.0000 14.9237 0.0000 2.5919
#
#
#
# Elastic Compliance Matrix: (Units=1/GPa)
#
#
# Indices 1 2 3 4 5 6 
#
# 1 0.013906 -0.007283 -0.002012 0.000000 0.003350 0.000000
# 2 -0.007283 0.019700 -0.005540 0.000001 -0.002560 -0.000002
# 3 -0.002012 -0.005540 0.011133 0.000000 0.004598 0.000001
# 4 0.000000 0.000001 0.000000 -0.016041 0.000000 0.092361
# 5 0.003350 -0.002560 0.004598 0.000000 0.036184 0.000000
# 6 0.000000 -0.000002 0.000001 0.092361 0.000000 -0.145983
#
#
# Mechanical properties :
#
#
# Convention : Reuss Voigt Hill
#
# Bulk Modulus (GPa) = 66.36464 72.48248 69.42356
# Shear Modulus (GPa) = -107.74119 22.65622 -42.54248
#
# Velocity S-wave (km/s) = -7.49549 3.43719 -4.71000
# Velocity P-wave (km/s) = 6.34851 7.31771 2.57345
#
# Compressibility (1/GPa) = 0.01506827
#
# Stress axis : x y z
#
# Youngs Moduli (GPa) = 71.91249 50.76127 89.82189
#
# Poissons Ratio (x) = 0.36970 0.18071
# Poissons Ratio (y) = 0.52375 0.49765
# Poissons Ratio (z) = 0.14468 0.28124
#
# Static dielectric constant tensor:
#      x y z
#    x 3.415160 0.000000 0.110190 
#    y 0.000000 3.561350 0.000000 
#    z 0.110190 0.000000 4.090590 
# 
# 
# High freq. dielectric constant tensor:
#      x y z
#    x 1.730730 0.000000 0.000070 
#    y 0.000000 1.741860 0.000000 
#    z 0.000070 0.000000 1.773140 
# 
# From -- ./inp_files/275296.got.cif
#   From: 2010.06.25/outbox.cif.g09.slc.cpg/sg12_138_cif.got.tgz:275296.got - 2010.06.28 00:19:55.
