data_PCOD8111558
_publ_section_title
;
Structure prediction by ZEFSAII (Michael W. Deem and Ramdas Pophale) SiO2 
 PCOD8111558
Probable space group: C 2/M
;
_chemical_formula_sum "Si O2"
_cell_formula_units_Z 64
_cell_length_a 13.781145
_cell_length_b 12.259322
_cell_length_c 19.341817
_cell_angle_alpha 90.000000
_cell_angle_beta 111.155064
_cell_angle_gamma 90.000000
_cell_volume 3047.528360
_symmetry_space_group_name_H-M "C 2/M"
_symmetry_group_IT_number 12
_symmetry_cell_setting 'monoclinic'
loop_
_space_group_symop_operation_xyz
x,y,z
-x,y,-z
-x,-y,-z
x,-y,z
1/2+x,1/2+y,z
1/2-x,1/2+y,-z
1/2-x,1/2-y,-z
1/2+x,1/2-y,z
loop_
_atom_site_type_symbol
_atom_site_label
_atom_site_fract_x
_atom_site_fract_y
_atom_site_fract_z
Si Si1 0.252748 0.326031 0.226859
Si Si2 0.602991 0.381214 0.616375
Si Si3 0.265769 0.872105 0.539469
Si Si4 0.976977 0.625850 0.816056
Si Si5 0.131854 0.379409 0.736907
Si Si6 0.494274 0.832436 0.577206
Si Si7 0.424621 0.735363 0.039592
Si Si8 0.246662 0.880619 0.929755
O O1 0.349620 0.373413 0.294876
O O2 0.142979 0.352936 0.233939
O O3 0.266306 0.194947 0.228104
O O4 0.259703 0.378755 0.154017
O O5 0.553480 0.500000 0.592127
O O6 0.699616 0.358241 0.591095
O O7 0.506697 0.299318 0.579309
O O8 0.250000 0.750000 0.500000
O O9 0.388817 0.872607 0.586070
O O10 0.242162 0.000000 0.502638
O O11 0.996574 0.500000 0.836941
O O12 0.044076 0.664048 0.767416
O O13 0.007301 0.689468 0.892915
O O14 0.168710 0.500000 0.765938
O O15 0.089255 0.378637 0.647247
O O16 0.500000 0.877357 0.500000
O O17 0.368351 0.642275 0.069415
O O18 0.500000 0.685388 0.000000
O O19 0.333897 0.800365 0.978562
O O20 0.279867 0.000000 0.962953
#
# Coordination Sequence:
#
# PCOD8111558 Si02
#       8
#     8   8   8   8   8   8   8   8
#     4  11  21  38  63  91 118 152 207 251 297 352
#     4  10  22  40  63  88 124 164 205 250 312 370
#     4  11  23  41  61  91 124 162 204 256 311 372
#     4  11  21  38  64  88 117 158 199 245 297 350
#     4  10  23  41  61  86 121 160 198 247 305 362
#     4  11  22  39  64  92 121 158 209 253 304 363
#     4  11  23  39  59  90 122 154 197 245 291 354
#     4  11  23  39  61  88 121 156 197 247 295 347
#
# _framework density 21.000624999999999
#
# number of rings (size 3 to 8) (size 9 to 14) (size 15 to 20)
#    0.000    1.250    3.750    2.625    0.000    4.500 
#    0.000    0.625    0.000    3.000    0.000    0.000 
#    0.000    0.000    0.000    0.000    0.000    0.000 
#
# Total GULP energy -396460.944043 kJ/mol
# GULP energy per Si atom -12389.404501 kJ/mol
# Density = 2.095283 g / cm^3
# Si number density = 21.000625 Si / 1000 Ang^3
#
#
#
# Elastic Constant Matrix: (Units=GPa)
#
#
# Indices 1 2 3 4 5 6 
#
# 1 66.1070 23.4811 8.0323 0.0000 -8.8738 0.0000
# 2 23.4811 117.3066 3.4338 0.0000 -7.8190 0.0000
# 3 8.0323 3.4338 71.1253 0.0000 -10.4420 0.0000
# 4 0.0000 0.0000 0.0000 82.5345 0.0000 -15.8849
# 5 -8.8738 -7.8190 -10.4420 0.0000 26.7121 0.0000
# 6 0.0000 0.0000 0.0000 -15.8849 0.0000 29.0416
#
#
#
# Elastic Compliance Matrix: (Units=1/GPa)
#
#
# Indices 1 2 3 4 5 6 
#
# 1 0.016930 -0.003070 -0.001135 0.000000 0.004282 0.000000
# 2 -0.003070 0.009251 0.000157 0.000000 0.001749 0.000000
# 3 -0.001135 0.000157 0.014992 0.000000 0.005529 0.000000
# 4 0.000000 0.000000 0.000000 0.013542 0.000000 0.007407
# 5 0.004282 0.001749 0.005529 0.000000 0.041532 0.000000
# 6 0.000000 0.000000 0.000000 0.007407 0.000000 0.038485
#
#
# Mechanical properties :
#
#
# Convention : Reuss Voigt Hill
#
# Bulk Modulus (GPa) = 30.23281 36.04812 33.14047
# Shear Modulus (GPa) = 32.49819 42.29707 37.39763
#
# Velocity S-wave (km/s) = 3.93808 4.49273 4.22451
# Velocity P-wave (km/s) = 5.92498 6.64194 6.29367
#
# Compressibility (1/GPa) = 0.03307665
#
# Stress axis : x y z
#
# Youngs Moduli (GPa) = 59.06594 108.09352 66.70185
#
# Poissons Ratio (x) = 0.33188 0.07571
# Poissons Ratio (y) = 0.18135 -0.01047
# Poissons Ratio (z) = 0.06705 -0.01696
#
# Static dielectric constant tensor:
#      x y z
#    x 3.931490 0.000000 -0.139800 
#    y 0.000000 4.343040 0.000000 
#    z -0.139800 0.000000 3.752070 
# 
# 
# High freq. dielectric constant tensor:
#      x y z
#    x 1.819580 0.000000 -0.008330 
#    y 0.000000 1.829370 0.000000 
#    z -0.008330 0.000000 1.819690 
# 
# From -- ./inp_files/309954.got.cif
#   From: 2010.06.25/outbox.cif.g09.slc.cpg/sg12_155_cif.got.tgz:309954.got - 2010.06.28 00:19:55.
