data_PCOD8111034
_publ_section_title
;
Structure prediction by ZEFSAII (Michael W. Deem and Ramdas Pophale) SiO2 
 PCOD8111034
Probable space group: C 2/M
;
_chemical_formula_sum "Si O2"
_cell_formula_units_Z 64
_cell_length_a 14.337954
_cell_length_b 9.281356
_cell_length_c 25.889575
_cell_angle_alpha 90.000000
_cell_angle_beta 60.750159
_cell_angle_gamma 90.000000
_cell_volume 3005.990875
_symmetry_space_group_name_H-M "C 2/M"
_symmetry_group_IT_number 12
_symmetry_cell_setting 'monoclinic'
loop_
_space_group_symop_operation_xyz
x,y,z
-x,y,-z
-x,-y,-z
x,-y,z
1/2+x,1/2+y,z
1/2-x,1/2+y,-z
1/2-x,1/2-y,-z
1/2+x,1/2-y,z
loop_
_atom_site_type_symbol
_atom_site_label
_atom_site_fract_x
_atom_site_fract_y
_atom_site_fract_z
Si Si1 0.780215 0.669007 0.940298
Si Si2 0.510059 0.168934 0.843450
Si Si3 0.897341 0.163035 0.491059
Si Si4 0.229212 0.663735 0.397458
Si Si5 0.652795 0.831322 0.714181
Si Si6 0.814947 0.336678 0.736900
Si Si7 0.480340 0.159601 0.616999
Si Si8 0.324734 0.337052 0.134249
O O1 0.785341 0.500000 0.950552
O O2 0.892238 0.726266 0.887447
O O3 0.692081 0.705540 0.920762
O O4 0.750000 0.750000 0.000000
O O5 0.543590 0.207170 0.775017
O O6 0.587266 0.236418 0.865043
O O7 0.519189 0.000000 0.848891
O O8 0.800334 0.255798 0.541086
O O9 0.000000 0.172315 0.500000
O O10 0.930777 0.226829 0.425908
O O11 0.858580 0.000000 0.493989
O O12 0.260330 0.500000 0.402110
O O13 0.331886 0.743201 0.343494
O O14 0.128245 0.673197 0.386818
O O15 0.747060 0.786389 0.727405
O O16 0.661684 0.000000 0.698746
O O17 0.782990 0.500000 0.726442
O O18 0.941079 0.313663 0.687339
O O19 0.790434 0.324594 0.804634
O O20 0.529625 0.000000 0.596983
O O21 0.367046 0.500000 0.126841
#
# Coordination Sequence:
#
# PCOD8111034 Si02
#       8
#     8   8   8   8   8   8   8   8
#     4  10  22  39  57  80 110 142 175 212 255 306
#     4   9  19  35  54  77 107 140 172 212 264 313
#     4   9  15  20  27  43  71 109 152 195 239 289
#     4   9  15  22  32  48  75 112 153 197 244 292
#     4   9  15  24  40  61  85 116 155 198 245 298
#     4   8  14  25  41  61  85 116 155 200 247 293
#     4   8  13  20  30  46  72 107 146 189 240 292
#     4   9  18  34  56  79 104 137 178 218 255 304
#
# _framework density 21.290816
#
# number of rings (size 3 to 8) (size 9 to 14) (size 15 to 20)
#    0.000    3.125    0.000    1.875    0.000    6.500 
#    0.000    2.500    0.000    0.000    0.000    0.000 
#    0.000    1.000    0.000    1.875    0.000   16.750 
#
# Total GULP energy -396542.482499 kJ/mol
# GULP energy per Si atom -12391.952578 kJ/mol
# Density = 2.124236 g / cm^3
# Si number density = 21.290816 Si / 1000 Ang^3
#
#
#
# Elastic Constant Matrix: (Units=GPa)
#
#
# Indices 1 2 3 4 5 6 
#
# 1 8.8565 6.0083 19.4286 0.0000 -4.4708 0.0000
# 2 6.0083 95.4682 58.2229 0.0000 -11.1268 0.0000
# 3 19.4286 58.2229 135.4954 0.0000 -5.7107 0.0000
# 4 0.0000 0.0000 0.0000 41.5580 0.0000 0.2226
# 5 -4.4708 -11.1268 -5.7107 0.0000 26.9859 0.0000
# 6 0.0000 0.0000 0.0000 0.2226 0.0000 11.8811
#
#
#
# Elastic Compliance Matrix: (Units=1/GPa)
#
#
# Indices 1 2 3 4 5 6 
#
# 1 0.185585 0.009671 -0.029566 0.000000 0.028477 0.000000
# 2 0.009671 0.015289 -0.007692 0.000000 0.006278 0.000000
# 3 -0.029566 -0.007692 0.014716 0.000000 -0.004956 0.000000
# 4 0.000000 0.000000 0.000000 0.024065 0.000000 -0.000451
# 5 0.028477 0.006278 -0.004956 0.000000 0.043314 0.000000
# 6 0.000000 0.000000 0.000000 -0.000451 0.000000 0.084176
#
#
# Mechanical properties :
#
#
# Convention : Reuss Voigt Hill
#
# Bulk Modulus (GPa) = 6.23381 45.23773 25.73577
# Shear Modulus (GPa) = 10.50880 26.49569 18.50224
#
# Velocity S-wave (km/s) = 2.22408 3.53153 2.95112
# Velocity P-wave (km/s) = 3.08702 6.15813 4.87095
#
# Compressibility (1/GPa) = 0.16041548
#
# Stress axis : x y z
#
# Youngs Moduli (GPa) = 5.38836 65.40781 67.95291
#
# Poissons Ratio (x) = -0.63253 2.00911
# Poissons Ratio (y) = -0.05211 0.52267
# Poissons Ratio (z) = 0.15931 0.50309
#
# Static dielectric constant tensor:
#      x y z
#    x 3.247180 0.000000 -0.026680 
#    y 0.000000 3.769390 0.000000 
#    z -0.026680 0.000000 4.340020 
# 
# 
# High freq. dielectric constant tensor:
#      x y z
#    x 1.793910 0.000000 0.002640 
#    y 0.000000 1.827130 0.000000 
#    z 0.002640 0.000000 1.852450 
# 
# From -- ./inp_files/375419.got.cif
#   From: 2010.06.25/outbox.cif.g09.slc.cpg/sg12_188_cif.got.tgz:375419.got - 2010.06.28 00:19:55.
