data_PCOD8111972
_publ_section_title
;
Structure prediction by ZEFSAII (Michael W. Deem and Ramdas Pophale) SiO2 
 PCOD8111972
Probable space group: C 2/M
;
_chemical_formula_sum "Si O2"
_cell_formula_units_Z 40
_cell_length_a 22.975775
_cell_length_b 12.627038
_cell_length_c 10.506175
_cell_angle_alpha 90.000000
_cell_angle_beta 146.617792
_cell_angle_gamma 90.000000
_cell_volume 1677.080154
_symmetry_space_group_name_H-M "C 2/M"
_symmetry_group_IT_number 12
_symmetry_cell_setting 'monoclinic'
loop_
_space_group_symop_operation_xyz
x,y,z
-x,y,-z
-x,-y,-z
x,-y,z
1/2+x,1/2+y,z
1/2-x,1/2+y,-z
1/2-x,1/2-y,-z
1/2+x,1/2-y,z
loop_
_atom_site_type_symbol
_atom_site_label
_atom_site_fract_x
_atom_site_fract_y
_atom_site_fract_z
Si Si1 0.392310 0.811164 0.856177
Si Si2 0.770016 0.116153 0.994324
Si Si3 0.666243 0.621015 0.408812
Si Si4 0.635050 0.261529 0.616725
Si Si5 0.435854 0.120041 0.208330
O O1 0.388504 0.688417 0.803091
O O2 0.292608 0.875049 0.618002
O O3 0.500000 0.863946 0.000000
O O4 0.390678 0.819196 0.003993
O O5 0.743553 0.189916 0.823589
O O6 0.659090 0.114637 0.866254
O O7 0.805064 0.000000 0.012935
O O8 0.862929 0.162093 0.254445
O O9 0.626811 0.500000 0.330876
O O10 0.635179 0.671225 0.488212
O O11 0.533934 0.185864 0.441554
O O12 0.473166 0.000000 0.244679
#
# Coordination Sequence:
#
# PCOD8111972 Si02
#       5
#     8   8   8   8   8
#     4  11  23  43  64  94 123 159 213 257 304 372
#     4  10  22  41  65  90 125 168 205 255 314 366
#     4  11  24  43  65  91 127 166 202 255 320 369
#     4  11  21  38  64  93 123 158 209 254 306 374
#     4  11  22  40  65  94 126 165 210 260 310 357
#
# _framework density 23.850978000000001
#
# number of rings (size 3 to 8) (size 9 to 14) (size 15 to 20)
#    0.000    1.200    4.000    2.400    0.000    3.600 
#    0.000    1.000    0.000   27.600    0.000    0.000 
#    0.000    0.000    0.000    0.000    0.000    0.000 
#
# Total GULP energy -247887.307822 kJ/mol
# GULP energy per Si atom -12394.365391 kJ/mol
# Density = 2.379669 g / cm^3
# Si number density = 23.850978 Si / 1000 Ang^3
#
#
#
# Elastic Constant Matrix: (Units=GPa)
#
#
# Indices 1 2 3 4 5 6 
#
# 1 45.9049 14.1247 16.1731 0.0000 1.3409 0.0000
# 2 14.1247 172.0601 45.3388 0.0000 -26.7179 0.0000
# 3 16.1731 45.3388 90.5713 0.0000 -1.9907 0.0000
# 4 0.0000 0.0000 0.0000 28.1337 0.0000 -1.9751
# 5 1.3409 -26.7179 -1.9907 0.0000 37.8332 0.0000
# 6 0.0000 0.0000 0.0000 -1.9751 0.0000 27.5821
#
#
#
# Elastic Compliance Matrix: (Units=1/GPa)
#
#
# Indices 1 2 3 4 5 6 
#
# 1 0.023502 -0.001280 -0.003598 0.000000 -0.001926 0.000000
# 2 -0.001280 0.007654 -0.003487 0.000000 0.005267 0.000000
# 3 -0.003598 -0.003487 0.013393 0.000000 -0.001630 0.000000
# 4 0.000000 0.000000 0.000000 0.035724 0.000000 0.002558
# 5 -0.001926 0.005267 -0.001630 0.000000 0.030134 0.000000
# 6 0.000000 0.000000 0.000000 0.002558 0.000000 0.036439
#
#
# Mechanical properties :
#
#
# Convention : Reuss Voigt Hill
#
# Bulk Modulus (GPa) = 35.94774 51.08995 43.51884
# Shear Modulus (GPa) = 28.92696 34.23647 31.58171
#
# Velocity S-wave (km/s) = 3.48634 3.79282 3.64280
# Velocity P-wave (km/s) = 5.59559 6.37555 5.99826
#
# Compressibility (1/GPa) = 0.02781816
#
# Stress axis : x y z
#
# Youngs Moduli (GPa) = 42.54945 130.65518 74.66461
#
# Poissons Ratio (x) = 0.16728 0.26865
# Poissons Ratio (y) = 0.05448 0.26035
# Poissons Ratio (z) = 0.15310 0.45559
#
# Static dielectric constant tensor:
#      x y z
#    x 4.019000 0.000000 -0.053170 
#    y 0.000000 4.654850 0.000000 
#    z -0.053170 0.000000 4.607870 
# 
# 
# High freq. dielectric constant tensor:
#      x y z
#    x 1.920750 0.000000 -0.005470 
#    y 0.000000 1.947640 0.000000 
#    z -0.005470 0.000000 1.960060 
# 
# From -- ./inp_files/140277.got.cif
#   From: 2010.06.25/outbox.cif.g09.slc.cpg/sg12_71_cif.got.tgz:140277.got - 2010.06.28 00:19:55.
