data_PCOD8111361
_publ_section_title
;
Structure prediction by ZEFSAII (Michael W. Deem and Ramdas Pophale) SiO2 
 PCOD8111361
Probable space group: C 2/M
;
_chemical_formula_sum "Si O2"
_cell_formula_units_Z 64
_cell_length_a 19.874385
_cell_length_b 8.936572
_cell_length_c 30.983333
_cell_angle_alpha 90.000000
_cell_angle_beta 143.213985
_cell_angle_gamma 90.000000
_cell_volume 3295.300230
_symmetry_space_group_name_H-M "C 2/M"
_symmetry_group_IT_number 12
_symmetry_cell_setting 'monoclinic'
loop_
_space_group_symop_operation_xyz
x,y,z
-x,y,-z
-x,-y,-z
x,-y,z
1/2+x,1/2+y,z
1/2-x,1/2+y,-z
1/2-x,1/2-y,-z
1/2+x,1/2-y,z
loop_
_atom_site_type_symbol
_atom_site_label
_atom_site_fract_x
_atom_site_fract_y
_atom_site_fract_z
Si Si1 0.242617 0.176251 0.930311
Si Si2 0.253036 0.671378 0.406437
Si Si3 0.419181 0.323998 0.077200
Si Si4 0.179294 0.827162 0.654769
Si Si5 0.699696 0.676509 0.811519
Si Si6 0.977136 0.328251 0.667118
Si Si7 0.327212 0.676908 0.802884
Si Si8 0.046462 0.673119 0.444725
O O1 0.141117 0.227525 0.909550
O O2 0.213710 0.233021 0.867701
O O3 0.258547 0.000000 0.939816
O O4 0.359180 0.249054 0.005395
O O5 0.283410 0.500000 0.433805
O O6 0.257435 0.698305 0.357642
O O7 0.127669 0.711710 0.356536
O O8 0.336944 0.780940 0.473928
O O9 0.411301 0.500000 0.066648
O O10 0.547809 0.270224 0.145458
O O11 0.240316 0.731992 0.722564
O O12 0.051981 0.770779 0.584527
O O13 0.179430 0.000000 0.668688
O O14 0.713730 0.500000 0.815004
O O15 0.577623 0.720546 0.731844
O O16 0.796660 0.753976 0.833363
O O17 0.015370 0.500000 0.692658
O O18 0.943283 0.295196 0.600685
O O19 0.317048 0.500000 0.800706
O O20 0.022484 0.500000 0.442215
#
# Coordination Sequence:
#
# PCOD8111361 Si02
#       8
#     8   8   8   8   8   8   8   8
#     4   9  20  39  61  89 120 151 192 237 283 339
#     4  10  23  40  59  85 116 152 196 243 291 348
#     4   9  20  39  62  88 118 154 192 234 286 340
#     4  11  23  39  59  85 117 154 196 241 292 346
#     4  11  23  38  60  87 118 156 195 239 290 343
#     4  10  22  40  59  84 118 154 195 240 289 345
#     4  11  23  39  60  85 118 155 195 242 288 345
#     4  11  22  38  61  86 115 153 196 242 291 346
#
# _framework density 19.421599000000001
#
# number of rings (size 3 to 8) (size 9 to 14) (size 15 to 20)
#    0.000    1.750    1.250    2.250    1.750    6.000 
#    0.000    2.500    0.000    0.000    0.000    0.000 
#    0.000    0.000    0.000    0.000    0.000    0.000 
#
# Total GULP energy -396990.180665 kJ/mol
# GULP energy per Si atom -12405.943146 kJ/mol
# Density = 1.937739 g / cm^3
# Si number density = 19.421599 Si / 1000 Ang^3
#
#
#
# Elastic Constant Matrix: (Units=GPa)
#
#
# Indices 1 2 3 4 5 6 
#
# 1 114.3798 40.9747 32.7768 0.0000 -0.5026 -0.0001
# 2 40.9747 64.2908 33.1834 0.0002 -3.5624 -0.0004
# 3 32.7768 33.1834 81.2487 0.0000 -8.2809 0.0000
# 4 0.0000 0.0002 0.0000 35.6138 0.0000 1.1164
# 5 -0.5026 -3.5624 -8.2809 0.0000 32.0956 0.0000
# 6 -0.0001 -0.0004 0.0000 1.1164 0.0000 27.6981
#
#
#
# Elastic Compliance Matrix: (Units=1/GPa)
#
#
# Indices 1 2 3 4 5 6 
#
# 1 0.011644 -0.006335 -0.002221 0.000000 -0.001094 0.000000
# 2 -0.006335 0.023156 -0.006829 0.000000 0.000709 0.000000
# 3 -0.002221 -0.006829 0.016342 0.000000 0.003424 0.000000
# 4 0.000000 0.000000 0.000000 0.028115 0.000000 -0.001133
# 5 -0.001094 0.000709 0.003424 0.000000 0.032102 0.000000
# 6 0.000000 0.000000 0.000000 -0.001133 0.000000 0.036149
#
#
# Mechanical properties :
#
#
# Convention : Reuss Voigt Hill
#
# Bulk Modulus (GPa) = 49.09100 52.64325 50.86712
# Shear Modulus (GPa) = 27.01675 29.28046 28.14860
#
# Velocity S-wave (km/s) = 3.73375 3.88702 3.81116
# Velocity P-wave (km/s) = 6.62716 6.87820 6.75385
#
# Compressibility (1/GPa) = 0.02037033
#
# Stress axis : x y z
#
# Youngs Moduli (GPa) = 85.88074 43.18498 61.19105
#
# Poissons Ratio (x) = 0.27358 0.13593
# Poissons Ratio (y) = 0.54407 0.41790
# Poissons Ratio (z) = 0.19078 0.29493
#
# Static dielectric constant tensor:
#      x y z
#    x 3.861910 0.000000 0.012590 
#    y 0.000000 3.519800 0.000000 
#    z 0.012590 0.000000 3.502150 
# 
# 
# High freq. dielectric constant tensor:
#      x y z
#    x 1.770690 0.000000 -0.000180 
#    y 0.000000 1.757860 0.000000 
#    z -0.000180 0.000000 1.756000 
# 
# From -- ./inp_files/378299.got.cif
#   From: 2010.06.25/outbox.cif.g09.slc.cpg/sg12_190_cif.got.tgz:378299.got - 2010.06.28 00:19:55.
