data_PCOD8111901
_publ_section_title
;
Structure prediction by ZEFSAII (Michael W. Deem and Ramdas Pophale) SiO2 
 PCOD8111901
Probable space group: C 2/M
;
_chemical_formula_sum "Si O2"
_cell_formula_units_Z 56
_cell_length_a 20.337513
_cell_length_b 8.699586
_cell_length_c 17.520879
_cell_angle_alpha 90.000000
_cell_angle_beta 116.775892
_cell_angle_gamma 90.000000
_cell_volume 2767.544165
_symmetry_space_group_name_H-M "C 2/M"
_symmetry_group_IT_number 12
_symmetry_cell_setting 'monoclinic'
loop_
_space_group_symop_operation_xyz
x,y,z
-x,y,-z
-x,-y,-z
x,-y,z
1/2+x,1/2+y,z
1/2-x,1/2+y,-z
1/2-x,1/2-y,-z
1/2+x,1/2-y,z
loop_
_atom_site_type_symbol
_atom_site_label
_atom_site_fract_x
_atom_site_fract_y
_atom_site_fract_z
Si Si1 0.353651 0.180716 0.782005
Si Si2 0.414611 0.319656 0.963497
Si Si3 0.825510 0.320312 0.510631
Si Si4 0.811866 0.178689 0.345222
Si Si5 0.605511 0.677909 0.764909
Si Si6 0.329610 0.819293 0.055517
Si Si7 0.434328 0.321455 0.685862
O O1 0.367465 0.230452 0.875793
O O2 0.271235 0.229304 0.716768
O O3 0.410400 0.268531 0.757313
O O4 0.365850 0.000000 0.779846
O O5 0.400167 0.500000 0.947313
O O6 0.500000 0.278333 0.000000
O O7 0.388953 0.262666 0.032514
O O8 0.816946 0.500000 0.512000
O O9 0.750000 0.250000 0.500000
O O10 0.842459 0.271850 0.433128
O O11 0.892417 0.270179 0.598663
O O12 0.864313 0.219827 0.302465
O O13 0.815122 0.000000 0.367430
O O14 0.621501 0.500000 0.793568
O O15 0.647448 0.786449 0.845944
O O16 0.519722 0.715363 0.721246
O O17 0.328422 0.000000 0.038839
O O18 0.250000 0.750000 0.000000
O O19 0.416676 0.500000 0.666916
#
# Coordination Sequence:
#
# PCOD8111901 Si02
#       7
#     8   8   8   8   8   8   8
#     4  11  22  37  62  92 122 160 208 262 312 367
#     4  11  24  41  62  90 126 166 210 261 316 375
#     4  12  24  40  64  93 125 161 207 257 310 372
#     4  10  22  41  64  90 122 160 205 253 307 369
#     4  10  23  43  65  92 127 167 208 254 312 375
#     4  12  25  42  66  93 127 169 214 263 316 377
#     4  11  23  40  64  92 128 168 206 254 312 374
#
# _framework density 20.234546000000002
#
# number of rings (size 3 to 8) (size 9 to 14) (size 15 to 20)
#    0.000    1.000    1.429    5.571    0.000    8.571 
#    0.000    2.857    0.000    0.000    0.000    0.000 
#    0.000    0.000    0.000    0.000    0.000    0.000 
#
# Total GULP energy -347437.099687 kJ/mol
# GULP energy per Si atom -12408.467846 kJ/mol
# Density = 2.018849 g / cm^3
# Si number density = 20.234546 Si / 1000 Ang^3
#
#
#
# Elastic Constant Matrix: (Units=GPa)
#
#
# Indices 1 2 3 4 5 6 
#
# 1 128.0618 44.6992 27.2572 0.0000 -8.4774 0.0000
# 2 44.6992 76.5840 31.8733 0.0000 8.7545 0.0000
# 3 27.2572 31.8733 104.4023 0.0000 -0.9931 0.0000
# 4 0.0000 0.0000 0.0000 42.3282 0.0000 -2.4634
# 5 -8.4774 8.7545 -0.9931 0.0000 24.9489 0.0000
# 6 0.0000 0.0000 0.0000 -2.4634 0.0000 27.7667
#
#
#
# Elastic Compliance Matrix: (Units=1/GPa)
#
#
# Indices 1 2 3 4 5 6 
#
# 1 0.010654 -0.006598 -0.000711 0.000000 0.005907 0.000000
# 2 -0.006598 0.019818 -0.004417 0.000000 -0.009372 0.000000
# 3 -0.000711 -0.004417 0.011129 0.000000 0.001751 0.000000
# 4 0.000000 0.000000 0.000000 0.023748 0.000000 0.002107
# 5 0.005907 -0.009372 0.001751 0.000000 0.045447 0.000000
# 6 0.000000 0.000000 0.000000 0.002107 0.000000 0.036201
#
#
# Mechanical properties :
#
#
# Convention : Reuss Voigt Hill
#
# Bulk Modulus (GPa) = 55.09742 57.41195 56.25468
# Shear Modulus (GPa) = 28.32893 32.68999 30.50946
#
# Velocity S-wave (km/s) = 3.74575 4.02376 3.88724
# Velocity P-wave (km/s) = 6.78204 7.07264 6.92887
#
# Compressibility (1/GPa) = 0.01814967
#
# Stress axis : x y z
#
# Youngs Moduli (GPa) = 93.86195 50.45956 89.85441
#
# Poissons Ratio (x) = 0.33291 0.06390
# Poissons Ratio (y) = 0.61926 0.39688
# Poissons Ratio (z) = 0.06675 0.22288
#
# Static dielectric constant tensor:
#      x y z
#    x 3.751060 0.000000 -0.129050 
#    y 0.000000 3.673300 0.000000 
#    z -0.129050 0.000000 3.488180 
# 
# 
# High freq. dielectric constant tensor:
#      x y z
#    x 1.801220 0.000000 -0.003610 
#    y 0.000000 1.796790 0.000000 
#    z -0.003610 0.000000 1.804190 
# 
# From -- ./inp_files/275581.got.cif
#   From: 2010.06.25/outbox.cif.g09.slc.cpg/sg12_138_cif.got.tgz:275581.got - 2010.06.28 00:19:55.
