data_PCOD8111885
_publ_section_title
;
Structure prediction by ZEFSAII (Michael W. Deem and Ramdas Pophale) SiO2 
 PCOD8111885
Probable space group: C 2/M
;
_chemical_formula_sum "Si O2"
_cell_formula_units_Z 64
_cell_length_a 9.338795
_cell_length_b 27.249749
_cell_length_c 15.460739
_cell_angle_alpha 90.000000
_cell_angle_beta 52.434519
_cell_angle_gamma 90.000000
_cell_volume 3118.666590
_symmetry_space_group_name_H-M "C 2/M"
_symmetry_group_IT_number 12
_symmetry_cell_setting 'monoclinic'
loop_
_space_group_symop_operation_xyz
x,y,z
-x,y,-z
-x,-y,-z
x,-y,z
1/2+x,1/2+y,z
1/2-x,1/2+y,-z
1/2-x,1/2-y,-z
1/2+x,1/2-y,z
loop_
_atom_site_type_symbol
_atom_site_label
_atom_site_fract_x
_atom_site_fract_y
_atom_site_fract_z
Si Si1 0.606098 0.896738 0.879563
Si Si2 0.864172 0.443573 0.629181
Si Si3 0.560034 0.730467 0.236258
Si Si4 0.154859 0.128510 0.492947
Si Si5 0.627702 0.944626 0.689669
Si Si6 0.460017 0.212099 0.108947
Si Si7 0.473022 0.378479 0.278946
Si Si8 0.593992 0.788324 0.557120
O O1 0.573477 0.928313 0.806046
O O2 0.496672 0.845688 0.902626
O O3 0.821088 0.891742 0.824578
O O4 0.500000 0.921434 0.000000
O O5 0.804575 0.500000 0.633512
O O6 0.686089 0.409369 0.709227
O O7 0.000000 0.426983 0.500000
O O8 0.961115 0.438717 0.685514
O O9 0.566462 0.754887 0.139182
O O10 0.748918 0.712937 0.203339
O O11 0.435946 0.680883 0.281632
O O12 0.521335 0.773805 0.317633
O O13 0.204127 0.085710 0.408494
O O14 0.056212 0.105850 0.611745
O O15 0.333634 0.157454 0.452666
O O16 0.000000 0.161020 0.500000
O O17 0.694501 0.000000 0.670246
O O18 0.500000 0.234690 0.000000
O O19 0.500000 0.787197 0.500000
O O20 0.750000 0.750000 0.500000
#
# Coordination Sequence:
#
# PCOD8111885 Si02
#       8
#     8   8   8   8   8   8   8   8
#     4  10  23  45  68  90 123 167 215 268 317 370
#     4  10  22  41  63  93 130 164 203 255 318 388
#     4  11  23  37  58  89 126 159 208 253 304 371
#     4  12  24  40  61  92 134 167 209 261 312 387
#     4  11  24  41  65  95 127 163 208 261 323 380
#     4  10  22  42  63  85 117 163 212 261 306 354
#     4  11  23  39  63  95 129 164 212 258 316 382
#     4  12  25  37  58  89 129 172 203 250 316 379
#
# _framework density 20.521591000000001
#
# number of rings (size 3 to 8) (size 9 to 14) (size 15 to 20)
#    0.000    1.125    3.750    2.250    3.500    2.000 
#    0.000    0.625    0.000    1.500    0.000    0.000 
#    0.000    0.000    0.000    0.000    0.000    0.000 
#
# Total GULP energy -396483.427898 kJ/mol
# GULP energy per Si atom -12390.107122 kJ/mol
# Density = 2.047488 g / cm^3
# Si number density = 20.521591 Si / 1000 Ang^3
#
#
#
# Elastic Constant Matrix: (Units=GPa)
#
#
# Indices 1 2 3 4 5 6 
#
# 1 104.9882 42.0226 37.9093 0.0000 16.5876 0.0000
# 2 42.0226 87.8842 35.9733 0.0000 7.6143 0.0000
# 3 37.9093 35.9733 138.0375 0.0000 17.8019 0.0000
# 4 0.0000 0.0000 0.0000 35.1425 0.0000 0.1202
# 5 16.5876 7.6143 17.8019 0.0000 37.8761 0.0000
# 6 0.0000 0.0000 0.0000 0.1202 0.0000 29.8429
#
#
#
# Elastic Compliance Matrix: (Units=1/GPa)
#
#
# Indices 1 2 3 4 5 6 
#
# 1 0.012768 -0.005085 -0.001695 0.000000 -0.003773 0.000000
# 2 -0.005085 0.014803 -0.002517 0.000000 0.000434 0.000000
# 3 -0.001695 -0.002517 0.008734 0.000000 -0.002857 0.000000
# 4 0.000000 0.000000 0.000000 0.028456 0.000000 -0.000115
# 5 -0.003773 0.000434 -0.002857 0.000000 0.029310 0.000000
# 6 0.000000 0.000000 0.000000 -0.000115 0.000000 0.033509
#
#
# Mechanical properties :
#
#
# Convention : Reuss Voigt Hill
#
# Bulk Modulus (GPa) = 56.45985 62.52449 59.49217
# Shear Modulus (GPa) = 32.87805 34.90595 33.89200
#
# Velocity S-wave (km/s) = 4.00699 4.12872 4.06831
# Velocity P-wave (km/s) = 6.99858 7.29810 7.14991
#
# Compressibility (1/GPa) = 0.01771170
#
# Stress axis : x y z
#
# Youngs Moduli (GPa) = 78.32006 67.55574 114.49097
#
# Poissons Ratio (x) = 0.34349 0.19405
# Poissons Ratio (y) = 0.39822 0.28820
# Poissons Ratio (z) = 0.13274 0.17005
#
# Static dielectric constant tensor:
#      x y z
#    x 3.799910 0.000000 0.024480 
#    y 0.000000 3.487600 0.000000 
#    z 0.024480 0.000000 3.724400 
# 
# 
# High freq. dielectric constant tensor:
#      x y z
#    x 1.807170 0.000000 0.004780 
#    y 0.000000 1.796810 0.000000 
#    z 0.004780 0.000000 1.798350 
# 
# From -- ./inp_files/201287.got.cif
#   From: 2010.06.25/outbox.cif.g09.slc.cpg/sg12_101_cif.got.tgz:201287.got - 2010.06.28 00:19:55.
