data_PCOD8111182
_publ_section_title
;
Structure prediction by ZEFSAII (Michael W. Deem and Ramdas Pophale) SiO2 
 PCOD8111182
Probable space group: C 2/M
;
_chemical_formula_sum "Si O2"
_cell_formula_units_Z 48
_cell_length_a 29.020033
_cell_length_b 16.678608
_cell_length_c 8.808344
_cell_angle_alpha 90.000000
_cell_angle_beta 148.766359
_cell_angle_gamma 90.000000
_cell_volume 2210.676230
_symmetry_space_group_name_H-M "C 2/M"
_symmetry_group_IT_number 12
_symmetry_cell_setting 'monoclinic'
loop_
_space_group_symop_operation_xyz
x,y,z
-x,y,-z
-x,-y,-z
x,-y,z
1/2+x,1/2+y,z
1/2-x,1/2+y,-z
1/2-x,1/2-y,-z
1/2+x,1/2-y,z
loop_
_atom_site_type_symbol
_atom_site_label
_atom_site_fract_x
_atom_site_fract_y
_atom_site_fract_z
Si Si1 0.148669 0.908503 0.794858
Si Si2 0.843429 0.670772 0.840529
Si Si3 0.522833 0.090695 0.388537
Si Si4 0.202331 0.329217 0.935884
Si Si5 0.673134 0.649659 0.191288
Si Si6 0.503245 0.590329 0.844217
O O1 0.062850 0.870227 0.466709
O O2 0.132346 0.000000 0.800141
O O3 0.232624 0.903255 0.918959
O O4 0.168757 0.853558 0.997042
O O5 0.771023 0.628064 0.528017
O O6 0.855723 0.763137 0.828750
O O7 0.808357 0.671117 0.913897
O O8 0.935080 0.625792 0.061270
O O9 0.500000 0.088494 0.500000
O O10 0.606296 0.149776 0.590563
O O11 0.542154 0.000000 0.384495
O O12 0.250000 0.250000 0.000000
O O13 0.602918 0.587885 0.062726
O O14 0.467451 0.500000 0.764404
O O15 0.500000 0.633800 0.000000
#
# Coordination Sequence:
#
# PCOD8111182 Si02
#       6
#     8   8   8   8   8   8
#     4  11  23  38  62  93 126 164 206 261 326 383
#     4  10  23  40  61  90 122 167 214 256 322 376
#     4   9  20  38  61  89 120 160 212 260 309 376
#     4  11  21  38  64  91 121 164 208 264 317 383
#     4  11  22  39  59  90 128 162 211 265 310 386
#     4  10  22  39  61  90 123 163 207 257 319 384
#
# _framework density 21.712813000000001
#
# number of rings (size 3 to 8) (size 9 to 14) (size 15 to 20)
#    0.000    1.667    1.667    2.500    2.333    4.667 
#    0.000    0.833    0.000    2.000    0.000    0.000 
#    0.000    0.000    0.000    0.000    0.000    0.000 
#
# Total GULP energy -297515.058073 kJ/mol
# GULP energy per Si atom -12396.460753 kJ/mol
# Density = 2.166339 g / cm^3
# Si number density = 21.712813 Si / 1000 Ang^3
#
#
#
# Elastic Constant Matrix: (Units=GPa)
#
#
# Indices 1 2 3 4 5 6 
#
# 1 76.6863 22.4508 56.0674 0.0000 5.8520 0.0000
# 2 22.4508 75.1849 52.2649 0.0000 13.1779 0.0000
# 3 56.0674 52.2649 220.3356 0.0000 8.5419 0.0000
# 4 0.0000 0.0000 0.0000 28.8753 0.0000 8.4387
# 5 5.8520 13.1779 8.5419 0.0000 40.3267 0.0000
# 6 0.0000 0.0000 0.0000 8.4387 0.0000 33.2535
#
#
#
# Elastic Compliance Matrix: (Units=1/GPa)
#
#
# Indices 1 2 3 4 5 6 
#
# 1 0.016400 -0.002233 -0.003609 0.000000 -0.000886 0.000000
# 2 -0.002233 0.017061 -0.003302 0.000000 -0.004552 0.000000
# 3 -0.003609 -0.003302 0.006229 0.000000 0.000283 0.000000
# 4 0.000000 0.000000 0.000000 0.037406 0.000000 -0.009492
# 5 -0.000886 -0.004552 0.000283 0.000000 0.026353 0.000000
# 6 0.000000 0.000000 0.000000 -0.009492 0.000000 0.032481
#
#
# Mechanical properties :
#
#
# Convention : Reuss Voigt Hill
#
# Bulk Modulus (GPa) = 46.72629 70.41922 58.57276
# Shear Modulus (GPa) = 30.98798 36.58602 33.78700
#
# Velocity S-wave (km/s) = 3.78190 4.10932 3.94900
# Velocity P-wave (km/s) = 6.37473 7.41741 6.91575
#
# Compressibility (1/GPa) = 0.02140123
#
# Stress axis : x y z
#
# Youngs Moduli (GPa) = 60.97449 58.61448 160.53231
#
# Poissons Ratio (x) = 0.13089 0.57940
# Poissons Ratio (y) = 0.13616 0.53011
# Poissons Ratio (z) = 0.22007 0.19356
#
# Static dielectric constant tensor:
#      x y z
#    x 3.736270 0.000000 0.069680 
#    y 0.000000 3.772660 0.000000 
#    z 0.069680 0.000000 4.179700 
# 
# 
# High freq. dielectric constant tensor:
#      x y z
#    x 1.839830 0.000000 0.007750 
#    y 0.000000 1.840660 0.000000 
#    z 0.007750 0.000000 1.864810 
# 
# From -- ./inp_files/77262.got.cif
#   From: 2010.06.25/outbox.cif.g09.slc.cpg/sg12_39_cif.got.tgz:77262.got - 2010.06.28 00:19:55.
