data_PCOD8111604
_publ_section_title
;
Structure prediction by ZEFSAII (Michael W. Deem and Ramdas Pophale) SiO2 
 PCOD8111604
Probable space group: C 2/M
;
_chemical_formula_sum "Si O2"
_cell_formula_units_Z 64
_cell_length_a 13.843224
_cell_length_b 15.820260
_cell_length_c 16.140394
_cell_angle_alpha 90.000000
_cell_angle_beta 52.449269
_cell_angle_gamma 90.000000
_cell_volume 2802.439951
_symmetry_space_group_name_H-M "C 2/M"
_symmetry_group_IT_number 12
_symmetry_cell_setting 'monoclinic'
loop_
_space_group_symop_operation_xyz
x,y,z
-x,y,-z
-x,-y,-z
x,-y,z
1/2+x,1/2+y,z
1/2-x,1/2+y,-z
1/2-x,1/2-y,-z
1/2+x,1/2-y,z
loop_
_atom_site_type_symbol
_atom_site_label
_atom_site_fract_x
_atom_site_fract_y
_atom_site_fract_z
Si Si1 0.942216 0.655516 0.681416
Si Si2 0.152931 0.819867 0.220778
Si Si3 0.727270 0.595628 0.688183
Si Si4 0.273451 0.096561 0.308529
Si Si5 0.052557 0.404598 0.148231
Si Si6 0.615137 0.762274 0.993981
Si Si7 0.045514 0.902815 0.125480
Si Si8 0.783289 0.346877 0.484792
O O1 0.953205 0.750984 0.710948
O O2 0.835043 0.652748 0.669300
O O3 0.909248 0.593772 0.775202
O O4 0.073452 0.633637 0.574702
O O5 0.183936 0.854509 0.294769
O O6 0.104066 0.893224 0.186056
O O7 0.265710 0.768173 0.123597
O O8 0.764583 0.500000 0.686235
O O9 0.598390 0.616894 0.798042
O O10 0.712694 0.610232 0.597653
O O11 0.411712 0.123616 0.217042
O O12 0.238287 0.113487 0.422052
O O13 0.255010 0.000000 0.297422
O O14 0.074540 0.500000 0.101065
O O15 0.128559 0.333754 0.058679
O O16 0.605744 0.666255 0.033105
O O17 0.500000 0.787843 0.000000
O O18 0.070204 0.000000 0.082932
O O19 0.750000 0.250000 0.500000
#
# Coordination Sequence:
#
# PCOD8111604 Si02
#       8
#     8   8   8   8   8   8   8   8
#     4  11  23  40  67  97 133 175 222 278 332 401
#     4  12  23  42  68  94 132 181 224 272 341 407
#     4  11  24  43  67  96 133 179 226 278 337 400
#     4  10  22  40  63  96 133 171 217 279 340 399
#     4  10  22  40  63  95 131 165 214 281 338 392
#     4  12  24  43  70  96 131 176 225 284 337 406
#     4  11  26  46  66  94 137 182 227 279 334 405
#     4  11  23  40  68 100 133 173 222 279 340 408
#
# _framework density 22.837242
#
# number of rings (size 3 to 8) (size 9 to 14) (size 15 to 20)
#    0.000    1.000    2.500    4.125    1.750    3.500 
#    0.000    2.500    0.000    4.500    0.000    0.000 
#    0.000    0.000    0.000    0.000    0.000    0.000 
#
# Total GULP energy -396861.160191 kJ/mol
# GULP energy per Si atom -12401.911256 kJ/mol
# Density = 2.278526 g / cm^3
# Si number density = 22.837242 Si / 1000 Ang^3
#
#
#
# Elastic Constant Matrix: (Units=GPa)
#
#
# Indices 1 2 3 4 5 6 
#
# 1 95.9600 10.1353 10.1507 0.0000 13.6340 0.0000
# 2 10.1353 100.3642 21.0667 0.0000 3.5426 0.0000
# 3 10.1507 21.0667 57.8801 0.0000 13.2305 0.0000
# 4 0.0000 0.0000 0.0000 16.9849 0.0000 4.9628
# 5 13.6340 3.5426 13.2305 0.0000 26.4741 0.0000
# 6 0.0000 0.0000 0.0000 4.9628 0.0000 34.1011
#
#
#
# Elastic Compliance Matrix: (Units=1/GPa)
#
#
# Indices 1 2 3 4 5 6 
#
# 1 0.011340 -0.000864 -0.000413 0.000000 -0.005518 0.000000
# 2 -0.000864 0.010862 -0.004032 0.000000 0.001006 0.000000
# 3 -0.000413 -0.004032 0.021050 0.000000 -0.009767 0.000000
# 4 0.000000 0.000000 0.000000 0.061490 0.000000 -0.008949
# 5 -0.005518 0.001006 -0.009767 0.000000 0.045361 0.000000
# 6 0.000000 0.000000 0.000000 -0.008949 0.000000 0.030627
#
#
# Mechanical properties :
#
#
# Convention : Reuss Voigt Hill
#
# Bulk Modulus (GPa) = 30.64283 37.43441 34.03862
# Shear Modulus (GPa) = 24.72494 29.70215 27.21355
#
# Velocity S-wave (km/s) = 3.29395 3.61030 3.45574
# Velocity P-wave (km/s) = 5.28335 5.81433 5.55519
#
# Compressibility (1/GPa) = 0.03263406
#
# Stress axis : x y z
#
# Youngs Moduli (GPa) = 88.18405 92.06640 47.50660
#
# Poissons Ratio (x) = 0.07952 0.01962
# Poissons Ratio (y) = 0.07616 0.19154
# Poissons Ratio (z) = 0.03642 0.37120
#
# Static dielectric constant tensor:
#      x y z
#    x 4.125590 0.000000 0.078960 
#    y 0.000000 4.103980 0.000000 
#    z 0.078960 0.000000 3.725880 
# 
# 
# High freq. dielectric constant tensor:
#      x y z
#    x 1.905020 0.000000 0.006350 
#    y 0.000000 1.907010 0.000000 
#    z 0.006350 0.000000 1.895170 
# 
# From -- ./inp_files/216780.got.cif
#   From: 2010.06.25/outbox.cif.g09.slc.cpg/sg12_109_cif.got.tgz:216780.got - 2010.06.28 00:19:55.
