data_PCOD8111150
_publ_section_title
;
Structure prediction by ZEFSAII (Michael W. Deem and Ramdas Pophale) SiO2 
 PCOD8111150
Probable space group: C 2/M
;
_chemical_formula_sum "Si O2"
_cell_formula_units_Z 28
_cell_length_a 10.223192
_cell_length_b 24.405872
_cell_length_c 5.108709
_cell_angle_alpha 90.000000
_cell_angle_beta 88.868407
_cell_angle_gamma 90.000000
_cell_volume 1274.404526
_symmetry_space_group_name_H-M "C 2/M"
_symmetry_group_IT_number 12
_symmetry_cell_setting 'monoclinic'
loop_
_space_group_symop_operation_xyz
x,y,z
-x,y,-z
-x,-y,-z
x,-y,z
1/2+x,1/2+y,z
1/2-x,1/2+y,-z
1/2-x,1/2-y,-z
1/2+x,1/2-y,z
loop_
_atom_site_type_symbol
_atom_site_label
_atom_site_fract_x
_atom_site_fract_y
_atom_site_fract_z
Si Si1 0.666590 0.763720 0.251660
Si Si2 0.147323 0.437286 0.901258
Si Si3 0.734551 0.122688 0.375380
Si Si4 0.500000 0.682174 0.500000
O O1 0.750000 0.750000 0.500000
O O2 0.637876 0.828805 0.272935
O O3 0.539535 0.724128 0.261588
O O4 0.750000 0.750000 0.000000
O O5 0.173658 0.500000 0.823220
O O6 0.177004 0.401299 0.645036
O O7 0.240468 0.421792 0.142254
O O8 0.000000 0.427813 0.000000
O O9 0.881994 0.143774 0.412249
#
# Coordination Sequence:
#
# PCOD8111150 Si02
#       4
#     8   8   8   4
#     4  10  22  39  60  94 133 176 210 251 321 404
#     4  11  25  45  69  95 128 173 234 284 326 388
#     4  11  23  43  68  98 132 179 213 277 341 387
#     4  10  24  42  65 102 141 168 216 276 326 416
#
# _framework density 21.971048
#
# number of rings (size 3 to 8) (size 9 to 14) (size 15 to 20)
#    0.000    1.429    0.000    5.143    4.000   12.571 
#    0.000    4.286    0.000    0.000    0.000    0.000 
#    0.000    0.000    0.000    0.000    0.000    0.000 
#
# Total GULP energy -173522.960795 kJ/mol
# GULP energy per Si atom -12394.497200 kJ/mol
# Density = 2.192104 g / cm^3
# Si number density = 21.971048 Si / 1000 Ang^3
#
#
#
# Elastic Constant Matrix: (Units=GPa)
#
#
# Indices 1 2 3 4 5 6 
#
# 1 96.5168 78.5963 47.7900 0.0000 -14.7340 0.0000
# 2 78.5963 145.8982 76.7951 0.0000 -18.5685 0.0000
# 3 47.7900 76.7951 195.2631 0.0000 -26.6411 0.0000
# 4 0.0000 0.0000 0.0000 35.2422 0.0000 -7.7639
# 5 -14.7340 -18.5685 -26.6411 0.0000 35.4709 0.0000
# 6 0.0000 0.0000 0.0000 -7.7639 0.0000 38.4764
#
#
#
# Elastic Compliance Matrix: (Units=1/GPa)
#
#
# Indices 1 2 3 4 5 6 
#
# 1 0.018730 -0.009512 -0.000514 0.000000 0.002415 0.000000
# 2 -0.009512 0.013631 -0.002895 0.000000 0.001010 0.000000
# 3 -0.000514 -0.002895 0.006852 0.000000 0.003417 0.000000
# 4 0.000000 0.000000 0.000000 0.029695 0.000000 0.005992
# 5 0.002415 0.001010 0.003417 0.000000 0.032291 0.000000
# 6 0.000000 0.000000 0.000000 0.005992 0.000000 0.027199
#
#
# Mechanical properties :
#
#
# Convention : Reuss Voigt Hill
#
# Bulk Modulus (GPa) = 74.78902 93.78231 84.28567
# Shear Modulus (GPa) = 31.50684 37.47102 34.48893
#
# Velocity S-wave (km/s) = 3.79095 4.13422 3.96630
# Velocity P-wave (km/s) = 7.29900 8.09729 7.70849
#
# Compressibility (1/GPa) = 0.01337095
#
# Stress axis : x y z
#
# Youngs Moduli (GPa) = 53.39049 73.36352 145.94722
#
# Poissons Ratio (x) = 0.69786 0.07495
# Poissons Ratio (y) = 0.50787 0.42251
# Poissons Ratio (z) = 0.02742 0.21238
#
# Static dielectric constant tensor:
#      x y z
#    x 4.175260 0.000000 -0.167760 
#    y 0.000000 4.860220 0.000000 
#    z -0.167760 0.000000 3.785800 
# 
# 
# High freq. dielectric constant tensor:
#      x y z
#    x 1.850840 0.000000 -0.003380 
#    y 0.000000 1.876050 0.000000 
#    z -0.003380 0.000000 1.883170 
# 
# From -- ./inp_files/6348.got.cif
#   From: 2010.06.25/outbox.cif.g09.slc.cpg/sg12_4_cif.got.tgz:6348.got - 2010.06.28 00:19:55.
