data_PCOD8111850
_publ_section_title
;
Structure prediction by ZEFSAII (Michael W. Deem and Ramdas Pophale) SiO2 
 PCOD8111850
Probable space group: C 2/M
;
_chemical_formula_sum "Si O2"
_cell_formula_units_Z 64
_cell_length_a 23.503404
_cell_length_b 8.782245
_cell_length_c 15.112269
_cell_angle_alpha 90.000000
_cell_angle_beta 87.859867
_cell_angle_gamma 90.000000
_cell_volume 3117.187712
_symmetry_space_group_name_H-M "C 2/M"
_symmetry_group_IT_number 12
_symmetry_cell_setting 'monoclinic'
loop_
_space_group_symop_operation_xyz
x,y,z
-x,y,-z
-x,-y,-z
x,-y,z
1/2+x,1/2+y,z
1/2-x,1/2+y,-z
1/2-x,1/2-y,-z
1/2+x,1/2-y,z
loop_
_atom_site_type_symbol
_atom_site_label
_atom_site_fract_x
_atom_site_fract_y
_atom_site_fract_z
Si Si1 0.212553 0.681884 0.081497
Si Si2 0.966738 0.319828 0.128680
Si Si3 0.085810 0.679307 0.050927
Si Si4 0.160157 0.820190 0.424013
Si Si5 0.454051 0.327210 0.304926
Si Si6 0.461235 0.822744 0.582098
Si Si7 0.331861 0.325346 0.381057
Si Si8 0.255803 0.320490 0.733279
O O1 0.215333 0.500000 0.076149
O O2 0.147393 0.744692 0.076725
O O3 0.236787 0.735801 0.174253
O O4 0.250000 0.750000 0.000000
O O5 0.960435 0.500000 0.143148
O O6 0.937205 0.225558 0.208019
O O7 0.033859 0.273170 0.118586
O O8 0.931316 0.264676 0.045603
O O9 0.090576 0.500000 0.049502
O O10 0.097465 0.763136 0.410721
O O11 0.183948 0.766262 0.518872
O O12 0.198738 0.758811 0.341489
O O13 0.159226 0.000000 0.424083
O O14 0.476174 0.500000 0.304130
O O15 0.504562 0.214894 0.331019
O O16 0.399769 0.309339 0.371128
O O17 0.500000 0.760714 0.500000
O O18 0.448760 0.000000 0.574123
O O19 0.312667 0.500000 0.367049
O O20 0.304798 0.219990 0.306741
O O21 0.260228 0.500000 0.749688
#
# Coordination Sequence:
#
# PCOD8111850 Si02
#       8
#     8   8   8   8   8   8   8   8
#     4  11  24  43  64  90 124 164 205 251 310 370
#     4   9  18  37  63  90 117 151 198 248 300 360
#     4   8  18  38  63  87 116 153 194 247 305 356
#     4  10  22  42  65  90 125 164 203 254 313 368
#     4  11  23  37  58  89 125 162 198 244 307 364
#     4  11  23  38  59  89 121 159 205 247 295 356
#     4  10  22  41  63  88 124 167 207 253 310 367
#     4  11  25  42  64  93 121 160 211 260 310 364
#
# _framework density 20.531327000000001
#
# number of rings (size 3 to 8) (size 9 to 14) (size 15 to 20)
#    0.000    1.875    1.250    2.625    3.500    3.000 
#    0.000    2.500    0.000    0.000    0.000    0.000 
#    0.000    0.000    0.000    0.000    0.000    0.000 
#
# Total GULP energy -396758.710303 kJ/mol
# GULP energy per Si atom -12398.709697 kJ/mol
# Density = 2.048460 g / cm^3
# Si number density = 20.531327 Si / 1000 Ang^3
#
#
#
# Elastic Constant Matrix: (Units=GPa)
#
#
# Indices 1 2 3 4 5 6 
#
# 1 85.6671 10.6747 41.1333 0.0000 12.5087 0.0000
# 2 10.6747 9.0490 36.3729 0.0000 -5.3133 0.0000
# 3 41.1333 36.3729 138.0916 0.0000 1.4586 0.0000
# 4 0.0000 0.0000 0.0000 29.3576 0.0000 -2.2642
# 5 12.5087 -5.3133 1.4586 0.0000 31.5231 0.0000
# 6 0.0000 0.0000 0.0000 -2.2642 0.0000 26.4853
#
#
#
# Elastic Compliance Matrix: (Units=1/GPa)
#
#
# Indices 1 2 3 4 5 6 
#
# 1 0.014004 0.018146 -0.008929 0.000000 -0.002085 0.000000
# 2 0.018146 -0.616811 0.158312 0.000000 -0.118490 0.000000
# 3 -0.008929 0.158312 -0.032133 0.000000 0.031714 0.000000
# 4 0.000000 0.000000 0.000000 0.034289 0.000000 0.002931
# 5 -0.002085 -0.118490 0.031714 0.000000 0.011111 0.000000
# 6 0.000000 0.000000 0.000000 0.002931 0.000000 0.038007
#
#
# Mechanical properties :
#
#
# Convention : Reuss Voigt Hill
#
# Bulk Modulus (GPa) = -3.33465 45.46327 21.06431
# Shear Modulus (GPa) = -5.06816 27.11500 11.02342
#
# Velocity S-wave (km/s) = -1.57285 3.63804 2.31964
# Velocity P-wave (km/s) = 2.21950 6.31178 4.17806
#
# Compressibility (1/GPa) = -0.29988119
#
# Stress axis : x y z
#
# Youngs Moduli (GPa) = 71.40987 -1.62124 -31.12085
#
# Poissons Ratio (x) = 0.02942 -0.27787
# Poissons Ratio (y) = -1.29577 4.92682
# Poissons Ratio (z) = 0.63760 0.25666
#
# Static dielectric constant tensor:
#      x y z
#    x 3.879830 0.000000 -0.036730 
#    y 0.000000 3.484610 0.000000 
#    z -0.036730 0.000000 3.867410 
# 
# 
# High freq. dielectric constant tensor:
#      x y z
#    x 1.807340 0.000000 0.000330 
#    y 0.000000 1.785500 0.000000 
#    z 0.000330 0.000000 1.814070 
# 
# From -- ./inp_files/238594.got.cif
#   From: 2010.06.25/outbox.cif.g09.slc.cpg/sg12_120_cif.got.tgz:238594.got - 2010.06.28 00:19:55.
