data_PCOD8111019
_publ_section_title
;
Structure prediction by ZEFSAII (Michael W. Deem and Ramdas Pophale) SiO2 
 PCOD8111019
Probable space group: C 2/M
;
_chemical_formula_sum "Si O2"
_cell_formula_units_Z 40
_cell_length_a 14.345100
_cell_length_b 9.353604
_cell_length_c 14.752343
_cell_angle_alpha 90.000000
_cell_angle_beta 87.018462
_cell_angle_gamma 90.000000
_cell_volume 1976.766072
_symmetry_space_group_name_H-M "C 2/M"
_symmetry_group_IT_number 12
_symmetry_cell_setting 'monoclinic'
loop_
_space_group_symop_operation_xyz
x,y,z
-x,y,-z
-x,-y,-z
x,-y,z
1/2+x,1/2+y,z
1/2-x,1/2+y,-z
1/2-x,1/2-y,-z
1/2+x,1/2-y,z
loop_
_atom_site_type_symbol
_atom_site_label
_atom_site_fract_x
_atom_site_fract_y
_atom_site_fract_z
Si Si1 0.184078 0.838335 0.799158
Si Si2 0.035528 0.668664 0.901221
Si Si3 0.865171 0.835901 0.585739
Si Si4 0.820772 0.837264 0.398215
Si Si5 0.397721 0.833215 0.751027
O O1 0.132726 0.819420 0.703530
O O2 0.292103 0.794510 0.783870
O O3 0.135950 0.737405 0.875515
O O4 0.175561 0.000000 0.834955
O O5 0.048395 0.500000 0.901111
O O6 0.962716 0.720932 0.828995
O O7 0.000000 0.723952 0.000000
O O8 0.896108 0.818847 0.477259
O O9 0.758632 0.782193 0.590251
O O10 0.925154 0.745457 0.655190
O O11 0.869693 0.000000 0.616438
O O12 0.778204 0.000000 0.405608
O O13 0.411212 0.000000 0.733016
#
# Coordination Sequence:
#
# PCOD8111019 Si02
#       5
#     8   8   8   8   8
#     4   9  18  34  55  77 103 136 170 206 254 308
#     4  10  22  39  56  75 101 133 171 217 266 312
#     4   9  15  25  47  77 104 135 175 209 240 293
#     4   8  15  28  46  72 108 142 167 201 252 300
#     4   9  19  36  54  74 106 141 168 206 262 310
#
# _framework density 20.23507
#
# number of rings (size 3 to 8) (size 9 to 14) (size 15 to 20)
#    0.000    3.000    0.000    1.800    0.000    6.000 
#    0.000    1.000    0.000    6.000    0.000    0.000 
#    0.000    0.000    0.000    0.000    0.000    0.000 
#
# Total GULP energy -247816.691769 kJ/mol
# GULP energy per Si atom -12390.834588 kJ/mol
# Density = 2.018901 g / cm^3
# Si number density = 20.235070 Si / 1000 Ang^3
#
#
#
# Elastic Constant Matrix: (Units=GPa)
#
#
# Indices 1 2 3 4 5 6 
#
# 1 20.0046 7.1763 6.2691 0.0000 4.0776 0.0000
# 2 7.1763 45.4962 23.7260 0.0000 -0.8767 0.0000
# 3 6.2691 23.7260 80.5764 0.0000 4.6675 0.0000
# 4 0.0000 0.0000 0.0000 34.0227 0.0000 -3.2646
# 5 4.0776 -0.8767 4.6675 0.0000 33.3022 0.0000
# 6 0.0000 0.0000 0.0000 -3.2646 0.0000 17.0038
#
#
#
# Elastic Compliance Matrix: (Units=1/GPa)
#
#
# Indices 1 2 3 4 5 6 
#
# 1 0.054685 -0.007960 -0.001523 0.000000 -0.006692 0.000000
# 2 -0.007960 0.027230 -0.007558 0.000000 0.002751 0.000000
# 3 -0.001523 -0.007558 0.014876 0.000000 -0.002097 0.000000
# 4 0.000000 0.000000 0.000000 0.029944 0.000000 0.005749
# 5 -0.006692 0.002751 -0.002097 0.000000 0.031214 0.000000
# 6 0.000000 0.000000 0.000000 0.005749 0.000000 0.059914
#
#
# Mechanical properties :
#
#
# Convention : Reuss Voigt Hill
#
# Bulk Modulus (GPa) = 15.94681 24.49112 20.21897
# Shear Modulus (GPa) = 18.32516 24.12612 21.22564
#
# Velocity S-wave (km/s) = 3.01261 3.45670 3.24227
# Velocity P-wave (km/s) = 4.47202 5.29729 4.90205
#
# Compressibility (1/GPa) = 0.06270847
#
# Stress axis : x y z
#
# Youngs Moduli (GPa) = 18.28638 36.72432 67.22219
#
# Poissons Ratio (x) = 0.29234 0.10238
# Poissons Ratio (y) = 0.14557 0.50806
# Poissons Ratio (z) = 0.02785 0.27756
#
# Static dielectric constant tensor:
#      x y z
#    x 3.213400 0.000000 0.195980 
#    y 0.000000 3.549180 0.000000 
#    z 0.195980 0.000000 4.110090 
# 
# 
# High freq. dielectric constant tensor:
#      x y z
#    x 1.753460 0.000000 0.011330 
#    y 0.000000 1.782860 0.000000 
#    z 0.011330 0.000000 1.801360 
# 
# From -- ./inp_files/211331.got.cif
#   From: 2010.06.25/outbox.cif.g09.slc.cpg/sg12_106_cif.got.tgz:211331.got - 2010.06.28 00:19:55.
