data_PCOD8111858
_publ_section_title
;
Structure prediction by ZEFSAII (Michael W. Deem and Ramdas Pophale) SiO2 
 PCOD8111858
Probable space group: C 2/M
;
_chemical_formula_sum "Si O2"
_cell_formula_units_Z 48
_cell_length_a 17.756651
_cell_length_b 8.440839
_cell_length_c 15.400879
_cell_angle_alpha 90.000000
_cell_angle_beta 90.703844
_cell_angle_gamma 90.000000
_cell_volume 2308.125476
_symmetry_space_group_name_H-M "C 2/M"
_symmetry_group_IT_number 12
_symmetry_cell_setting 'monoclinic'
loop_
_space_group_symop_operation_xyz
x,y,z
-x,y,-z
-x,-y,-z
x,-y,z
1/2+x,1/2+y,z
1/2-x,1/2+y,-z
1/2-x,1/2-y,-z
1/2+x,1/2-y,z
loop_
_atom_site_type_symbol
_atom_site_label
_atom_site_fract_x
_atom_site_fract_y
_atom_site_fract_z
Si Si1 0.462060 0.316560 0.089732
Si Si2 0.706795 0.316626 0.581729
Si Si3 0.540637 0.187077 0.585635
Si Si4 0.049009 0.315752 0.248581
Si Si5 0.297738 0.185972 0.080103
Si Si6 0.288256 0.317842 0.744662
O O1 0.476323 0.500000 0.112432
O O2 0.497868 0.206806 0.163652
O O3 0.374150 0.283524 0.082819
O O4 0.500000 0.269067 0.000000
O O5 0.692616 0.500000 0.566785
O O6 0.750000 0.250000 0.500000
O O7 0.627134 0.233445 0.591713
O O8 0.756638 0.290985 0.667751
O O9 0.500000 0.259751 0.500000
O O10 0.496935 0.250429 0.669401
O O11 0.536086 0.000000 0.583025
O O12 0.069470 0.500000 0.259502
O O13 0.124061 0.214134 0.240069
O O14 0.253747 0.224594 0.167414
O O15 0.313661 0.000000 0.069480
O O16 0.250000 0.250000 0.000000
O O17 0.275531 0.500000 0.718747
#
# Coordination Sequence:
#
# PCOD8111858 Si02
#       6
#     8   8   8   8   8   8
#     4  11  24  41  61  87 121 161 204 252 305 360
#     4  12  25  41  64  92 123 161 204 250 302 360
#     4  10  22  41  63  89 123 159 198 246 299 358
#     4  11  23  39  63  93 123 159 202 249 303 360
#     4  11  24  41  63  91 123 161 204 253 307 362
#     4  11  24  42  63  90 125 161 202 252 303 359
#
# _framework density 20.796095000000001
#
# number of rings (size 3 to 8) (size 9 to 14) (size 15 to 20)
#    0.000    1.000    0.000    6.500    0.000   15.000 
#    0.000    0.000    0.000    0.000    0.000    0.000 
#    0.000    0.000    0.000    0.000    0.000    0.000 
#
# Total GULP energy -297787.678426 kJ/mol
# GULP energy per Si atom -12407.819934 kJ/mol
# Density = 2.074876 g / cm^3
# Si number density = 20.796095 Si / 1000 Ang^3
#
#
#
# Elastic Constant Matrix: (Units=GPa)
#
#
# Indices 1 2 3 4 5 6 
#
# 1 146.6044 4.0880 58.6752 0.0000 -12.3239 0.0000
# 2 4.0880 27.2970 30.5152 0.0000 -13.7650 0.0000
# 3 58.6752 30.5152 156.0288 0.0000 -10.2997 0.0000
# 4 0.0000 0.0000 0.0000 33.9220 0.0000 2.7267
# 5 -12.3239 -13.7650 -10.2997 0.0000 48.9905 0.0000
# 6 0.0000 0.0000 0.0000 2.7267 0.0000 27.0079
#
#
#
# Elastic Compliance Matrix: (Units=1/GPa)
#
#
# Indices 1 2 3 4 5 6 
#
# 1 0.008458 0.004324 -0.003859 0.000000 0.002531 0.000000
# 2 0.004324 0.056350 -0.011692 0.000000 0.014462 0.000000
# 3 -0.003859 -0.011692 0.010005 0.000000 -0.002152 0.000000
# 4 0.000000 0.000000 0.000000 0.029721 0.000000 -0.003001
# 5 0.002531 0.014462 -0.002152 0.000000 0.024660 0.000000
# 6 0.000000 0.000000 0.000000 -0.003001 0.000000 0.037329
#
#
# Mechanical properties :
#
#
# Convention : Reuss Voigt Hill
#
# Bulk Modulus (GPa) = 19.09929 57.38744 38.24337
# Shear Modulus (GPa) = 24.22144 37.76086 30.99115
#
# Velocity S-wave (km/s) = 3.41649 4.26580 3.86455
# Velocity P-wave (km/s) = 4.97667 7.20541 6.19214
#
# Compressibility (1/GPa) = 0.05235796
#
# Stress axis : x y z
#
# Youngs Moduli (GPa) = 118.23375 17.74638 99.95157
#
# Poissons Ratio (x) = -0.07673 0.38573
# Poissons Ratio (y) = -0.51122 1.16862
# Poissons Ratio (z) = 0.45628 0.20749
#
# Static dielectric constant tensor:
#      x y z
#    x 3.793570 0.000000 -0.005570 
#    y 0.000000 3.702580 0.000000 
#    z -0.005570 0.000000 4.213540 
# 
# 
# High freq. dielectric constant tensor:
#      x y z
#    x 1.832030 0.000000 -0.002350 
#    y 0.000000 1.816930 0.000000 
#    z -0.002350 0.000000 1.834090 
# 
# From -- ./inp_files/221670.got.cif
#   From: 2010.06.25/outbox.cif.g09.slc.cpg/sg12_111_cif.got.tgz:221670.got - 2010.06.28 00:19:55.
