data_PCOD8111456
_publ_section_title
;
Structure prediction by ZEFSAII (Michael W. Deem and Ramdas Pophale) SiO2 
 PCOD8111456
Probable space group: C 2/M
;
_chemical_formula_sum "Si O2"
_cell_formula_units_Z 48
_cell_length_a 9.946290
_cell_length_b 21.554322
_cell_length_c 12.129071
_cell_angle_alpha 90.000000
_cell_angle_beta 107.866681
_cell_angle_gamma 90.000000
_cell_volume 2474.892806
_symmetry_space_group_name_H-M "C 2/M"
_symmetry_group_IT_number 12
_symmetry_cell_setting 'monoclinic'
loop_
_space_group_symop_operation_xyz
x,y,z
-x,y,-z
-x,-y,-z
x,-y,z
1/2+x,1/2+y,z
1/2-x,1/2+y,-z
1/2-x,1/2-y,-z
1/2+x,1/2-y,z
loop_
_atom_site_type_symbol
_atom_site_label
_atom_site_fract_x
_atom_site_fract_y
_atom_site_fract_z
Si Si1 0.845565 0.702641 0.405622
Si Si2 0.531390 0.000000 0.688360
Si Si3 0.268776 0.000000 0.458730
Si Si4 0.787664 0.323613 0.735941
Si Si5 0.417555 0.131241 0.219470
Si Si6 0.661870 0.809044 0.011680
Si Si7 0.841748 0.124076 0.486527
O O1 0.795806 0.763615 0.329043
O O2 0.840489 0.646862 0.314767
O O3 0.731894 0.682311 0.469426
O O4 0.000000 0.709475 0.500000
O O5 0.531668 0.939901 0.766782
O O6 0.396111 0.000000 0.576618
O O7 0.672945 0.000000 0.650232
O O8 0.170709 0.060122 0.450525
O O9 0.762148 0.335846 0.859342
O O10 0.732658 0.382663 0.651978
O O11 0.954859 0.318929 0.756064
O O12 0.325377 0.141301 0.085112
O O13 0.500000 0.791534 0.000000
O O14 0.750000 0.750000 0.000000
O O15 0.000000 0.143140 0.500000
#
# Coordination Sequence:
#
# PCOD8111456 Si02
#       7
#     8   4   4   8   8   8   8
#     4  12  22  38  62  91 127 165 202 255 312 377
#     4  11  20  40  68  88 119 163 218 255 287 373
#     4  11  21  40  61  87 122 167 205 251 308 372
#     4  11  23  38  59  90 129 156 203 256 310 367
#     4  11  22  40  65  92 119 162 215 255 300 361
#     4  10  22  40  61  87 121 163 204 252 306 365
#     4  12  25  37  58  94 127 161 202 257 318 367
#
# _framework density 19.394780000000001
#
# number of rings (size 3 to 8) (size 9 to 14) (size 15 to 20)
#    0.000    0.833    6.667    1.250    2.333    0.000 
#    0.000    4.583    0.000    0.000    0.000    1.750 
#    0.000    0.000    0.000    0.000    0.000    0.000 
#
# Total GULP energy -297472.863446 kJ/mol
# GULP energy per Si atom -12394.702644 kJ/mol
# Density = 1.935064 g / cm^3
# Si number density = 19.394780 Si / 1000 Ang^3
#
#
#
# Elastic Constant Matrix: (Units=GPa)
#
#
# Indices 1 2 3 4 5 6 
#
# 1 91.7677 18.5635 35.2492 0.0000 -2.8073 0.0000
# 2 18.5635 84.8746 33.4844 0.0000 5.6328 0.0000
# 3 35.2492 33.4844 147.4086 0.0000 -7.6794 0.0000
# 4 0.0000 0.0000 0.0000 26.2037 0.0000 0.1166
# 5 -2.8073 5.6328 -7.6794 0.0000 17.2802 0.0000
# 6 0.0000 0.0000 0.0000 0.1166 0.0000 17.4907
#
#
#
# Elastic Compliance Matrix: (Units=1/GPa)
#
#
# Indices 1 2 3 4 5 6 
#
# 1 0.012247 -0.001816 -0.002438 0.000000 0.001498 0.000000
# 2 -0.001816 0.013775 -0.003014 0.000000 -0.006125 0.000000
# 3 -0.002438 -0.003014 0.008274 0.000000 0.004263 0.000000
# 4 0.000000 0.000000 0.000000 0.038164 0.000000 -0.000254
# 5 0.001498 -0.006125 0.004263 0.000000 0.062004 0.000000
# 6 0.000000 0.000000 0.000000 -0.000254 0.000000 0.057175
#
#
# Mechanical properties :
#
#
# Convention : Reuss Voigt Hill
#
# Bulk Modulus (GPa) = 50.60909 55.40500 53.00704
# Shear Modulus (GPa) = 23.50067 27.97851 25.73959
#
# Velocity S-wave (km/s) = 3.48473 3.80225 3.64695
# Velocity P-wave (km/s) = 6.50707 6.92135 6.71740
#
# Compressibility (1/GPa) = 0.01975930
#
# Stress axis : x y z
#
# Youngs Moduli (GPa) = 81.65441 72.59651 120.86773
#
# Poissons Ratio (x) = 0.13185 0.29466
# Poissons Ratio (y) = 0.14830 0.36427
# Poissons Ratio (z) = 0.19907 0.21879
#
# Static dielectric constant tensor:
#      x y z
#    x 3.542050 0.000000 -0.135330 
#    y 0.000000 3.394780 0.000000 
#    z -0.135330 0.000000 4.052420 
# 
# 
# High freq. dielectric constant tensor:
#      x y z
#    x 1.748610 0.000000 -0.012770 
#    y 0.000000 1.740330 0.000000 
#    z -0.012770 0.000000 1.762860 
# 
# From -- ./inp_files/122598.got.cif
#   From: 2010.06.25/outbox.cif.g09.slc.cpg/sg12_62_cif.got.tgz:122598.got - 2010.06.28 00:19:55.
