data_PCOD8111753
_publ_section_title
;
Structure prediction by ZEFSAII (Michael W. Deem and Ramdas Pophale) SiO2 
 PCOD8111753
Probable space group: C 2/M
;
_chemical_formula_sum "Si O2"
_cell_formula_units_Z 48
_cell_length_a 17.921276
_cell_length_b 13.270367
_cell_length_c 14.663670
_cell_angle_alpha 90.000000
_cell_angle_beta 38.638511
_cell_angle_gamma 90.000000
_cell_volume 2177.512910
_symmetry_space_group_name_H-M "C 2/M"
_symmetry_group_IT_number 12
_symmetry_cell_setting 'monoclinic'
loop_
_space_group_symop_operation_xyz
x,y,z
-x,y,-z
-x,-y,-z
x,-y,z
1/2+x,1/2+y,z
1/2-x,1/2+y,-z
1/2-x,1/2-y,-z
1/2+x,1/2-y,z
loop_
_atom_site_type_symbol
_atom_site_label
_atom_site_fract_x
_atom_site_fract_y
_atom_site_fract_z
Si Si1 0.671857 0.247249 0.243992
Si Si2 0.061059 0.796103 0.032804
Si Si3 0.033974 0.115088 0.250146
Si Si4 0.958031 0.387022 0.409884
Si Si5 0.938292 0.386698 0.220924
Si Si6 0.817509 0.198232 0.569272
O O1 0.641268 0.316468 0.186222
O O2 0.571071 0.161009 0.355347
O O3 0.675606 0.320641 0.328550
O O4 0.796947 0.191460 0.108999
O O5 0.009416 0.856260 0.168674
O O6 0.027624 0.677515 0.072671
O O7 0.000000 0.840937 0.000000
O O8 0.915767 0.132783 0.422857
O O9 0.073153 0.000000 0.219304
O O10 0.932564 0.500000 0.470204
O O11 0.992112 0.388651 0.270783
O O12 0.839863 0.318288 0.534842
O O13 0.926612 0.500000 0.192737
O O14 0.810560 0.331639 0.346565
#
# Coordination Sequence:
#
# PCOD8111753 Si02
#       6
#     8   8   8   8   8   8
#     4  11  24  42  68  95 135 173 215 281 330 392
#     4  12  25  46  66  94 133 178 222 275 334 391
#     4  11  25  43  67  96 132 175 221 272 336 401
#     4  10  22  40  69  99 126 173 222 267 329 392
#     4  11  23  41  68  95 130 172 221 274 327 393
#     4  11  22  43  67  99 136 171 217 279 332 388
#
# _framework density 22.043496999999999
#
# number of rings (size 3 to 8) (size 9 to 14) (size 15 to 20)
#    0.000    1.000    5.000    3.500    0.000    5.333 
#    0.000    0.000    0.000    0.000    0.000    0.000 
#    0.000    0.000    0.000    0.000    0.000    0.000 
#
# Total GULP energy -297668.585717 kJ/mol
# GULP energy per Si atom -12402.857738 kJ/mol
# Density = 2.199332 g / cm^3
# Si number density = 22.043497 Si / 1000 Ang^3
#
#
#
# Elastic Constant Matrix: (Units=GPa)
#
#
# Indices 1 2 3 4 5 6 
#
# 1 94.8755 13.2069 25.4757 0.0000 3.0608 0.0000
# 2 13.2069 128.5777 15.3326 0.0000 -12.7160 0.0000
# 3 25.4757 15.3326 74.8808 0.0000 -4.1742 0.0000
# 4 0.0000 0.0000 0.0000 16.6010 0.0000 0.4928
# 5 3.0608 -12.7160 -4.1742 0.0000 47.6156 0.0000
# 6 0.0000 0.0000 0.0000 0.4928 0.0000 13.6181
#
#
#
# Elastic Compliance Matrix: (Units=1/GPa)
#
#
# Indices 1 2 3 4 5 6 
#
# 1 0.011750 -0.000874 -0.003893 0.000000 -0.001330 0.000000
# 2 -0.000874 0.008230 -0.001268 0.000000 0.002143 0.000000
# 3 -0.003893 -0.001268 0.015007 0.000000 0.001227 0.000000
# 4 0.000000 0.000000 0.000000 0.060302 0.000000 -0.002182
# 5 -0.001330 0.002143 0.001227 0.000000 0.021767 0.000000
# 6 0.000000 0.000000 0.000000 -0.002182 0.000000 0.073511
#
#
# Mechanical properties :
#
#
# Convention : Reuss Voigt Hill
#
# Bulk Modulus (GPa) = 43.63608 45.15163 44.39385
# Shear Modulus (GPa) = 23.77819 31.85485 27.81652
#
# Velocity S-wave (km/s) = 3.28791 3.80556 3.55617
# Velocity P-wave (km/s) = 5.85254 6.31167 6.08643
#
# Compressibility (1/GPa) = 0.02291681
#
# Stress axis : x y z
#
# Youngs Moduli (GPa) = 85.10643 121.50108 66.63544
#
# Poissons Ratio (x) = 0.10622 0.25939
# Poissons Ratio (y) = 0.07440 0.08452
# Poissons Ratio (z) = 0.33129 0.15411
#
# Static dielectric constant tensor:
#      x y z
#    x 4.157170 0.000000 0.154420 
#    y 0.000000 3.989430 0.000000 
#    z 0.154420 0.000000 3.814720 
# 
# 
# High freq. dielectric constant tensor:
#      x y z
#    x 1.882530 0.000000 0.013310 
#    y 0.000000 1.851210 0.000000 
#    z 0.013310 0.000000 1.861280 
# 
# From -- ./inp_files/225100.got.cif
#   From: 2010.06.25/outbox.cif.g09.slc.cpg/sg12_113_cif.got.tgz:225100.got - 2010.06.28 00:19:55.
