data_PCOD8111797
_publ_section_title
;
Structure prediction by ZEFSAII (Michael W. Deem and Ramdas Pophale) SiO2 
 PCOD8111797
Probable space group: C 2/M
;
_chemical_formula_sum "Si O2"
_cell_formula_units_Z 56
_cell_length_a 13.054260
_cell_length_b 19.711276
_cell_length_c 13.129984
_cell_angle_alpha 90.000000
_cell_angle_beta 63.586474
_cell_angle_gamma 90.000000
_cell_volume 3025.858126
_symmetry_space_group_name_H-M "C 2/M"
_symmetry_group_IT_number 12
_symmetry_cell_setting 'monoclinic'
loop_
_space_group_symop_operation_xyz
x,y,z
-x,y,-z
-x,-y,-z
x,-y,z
1/2+x,1/2+y,z
1/2-x,1/2+y,-z
1/2-x,1/2-y,-z
1/2+x,1/2-y,z
loop_
_atom_site_type_symbol
_atom_site_label
_atom_site_fract_x
_atom_site_fract_y
_atom_site_fract_z
Si Si1 0.317581 0.422324 0.813521
Si Si2 0.396681 0.361213 0.978318
Si Si3 0.265279 0.289862 0.194956
Si Si4 0.040474 0.922242 0.596421
Si Si5 0.532312 0.244984 0.208113
Si Si6 0.820145 0.802381 0.398979
Si Si7 0.909172 0.659590 0.122888
O O1 0.301323 0.500000 0.792800
O O2 0.337970 0.412696 0.924850
O O3 0.433209 0.394198 0.710026
O O4 0.201506 0.388442 0.820857
O O5 0.444325 0.295042 0.897866
O O6 0.500000 0.393356 0.000000
O O7 0.293263 0.349356 0.103441
O O8 0.144150 0.259066 0.225145
O O9 0.262545 0.313052 0.313776
O O10 0.362704 0.235252 0.124649
O O11 0.155068 0.876356 0.561682
O O12 0.000000 0.917606 0.500000
O O13 0.071412 0.000000 0.612713
O O14 0.443965 0.271327 0.329557
O O15 0.485699 0.170709 0.191159
O O16 0.750000 0.750000 0.500000
O O17 0.000000 0.633008 0.000000
#
# Coordination Sequence:
#
# PCOD8111797 Si02
#       7
#     8   8   8   8   8   8   8
#     4  11  24  38  56  83 120 159 192 235 280 347
#     4  12  18  34  59  86 112 144 193 228 296 342
#     4  11  20  35  56  86 115 151 185 238 305 345
#     4  10  22  41  62  83 115 161 199 236 292 353
#     4  11  20  33  55  88 112 146 184 238 297 345
#     4  11  24  35  57  88 118 147 192 258 291 334
#     4  11  19  33  55  82 114 152 186 234 281 347
#
# _framework density 18.507145999999999
#
# number of rings (size 3 to 8) (size 9 to 14) (size 15 to 20)
#    0.000    1.000    7.143    1.286    6.000    0.571 
#    0.000    0.714    0.000    0.857    0.000    1.000 
#    0.000    0.000    0.000    0.000    0.000    0.000 
#
# Total GULP energy -346873.388549 kJ/mol
# GULP energy per Si atom -12388.335305 kJ/mol
# Density = 1.846502 g / cm^3
# Si number density = 18.507146 Si / 1000 Ang^3
#
#
#
# Elastic Constant Matrix: (Units=GPa)
#
#
# Indices 1 2 3 4 5 6 
#
# 1 74.5400 20.0245 23.6003 0.0000 -4.4904 0.0000
# 2 20.0245 62.3135 25.4887 0.0000 -3.8814 0.0000
# 3 23.6003 25.4887 100.8144 0.0000 -2.0566 0.0000
# 4 0.0000 0.0000 0.0000 33.3410 0.0000 22.8515
# 5 -4.4904 -3.8814 -2.0566 0.0000 13.2339 0.0000
# 6 0.0000 0.0000 0.0000 22.8515 0.0000 85.1765
#
#
#
# Elastic Compliance Matrix: (Units=1/GPa)
#
#
# Indices 1 2 3 4 5 6 
#
# 1 0.015454 -0.003662 -0.002615 0.000000 0.003763 0.000000
# 2 -0.003662 0.019045 -0.003882 0.000000 0.003740 0.000000
# 3 -0.002615 -0.003882 0.011508 0.000000 -0.000237 0.000000
# 4 0.000000 0.000000 0.000000 0.036751 0.000000 -0.009860
# 5 0.003763 0.003740 -0.000237 0.000000 0.077900 0.000000
# 6 0.000000 0.000000 0.000000 -0.009860 0.000000 0.014386
#
#
# Mechanical properties :
#
#
# Convention : Reuss Voigt Hill
#
# Bulk Modulus (GPa) = 38.92602 41.76613 40.34607
# Shear Modulus (GPa) = 24.51884 37.58725 31.05304
#
# Velocity S-wave (km/s) = 3.64377 4.51150 4.10066
# Velocity P-wave (km/s) = 6.22747 7.05371 6.65343
#
# Compressibility (1/GPa) = 0.02568976
#
# Stress axis : x y z
#
# Youngs Moduli (GPa) = 64.70781 52.50614 86.89650
#
# Poissons Ratio (x) = 0.19228 0.22724
# Poissons Ratio (y) = 0.23697 0.33730
# Poissons Ratio (z) = 0.16922 0.20381
#
# Static dielectric constant tensor:
#      x y z
#    x 3.617370 0.000000 -0.003400 
#    y 0.000000 3.275080 0.000000 
#    z -0.003400 0.000000 3.406550 
# 
# 
# High freq. dielectric constant tensor:
#      x y z
#    x 1.727750 0.000000 0.002420 
#    y 0.000000 1.682990 0.000000 
#    z 0.002420 0.000000 1.718270 
# 
# From -- ./inp_files/133883.got.cif
#   From: 2010.06.25/outbox.cif.g09.slc.cpg/sg12_67_cif.got.tgz:133883.got - 2010.06.28 00:19:55.
