data_PCOD8111413
_publ_section_title
;
Structure prediction by ZEFSAII (Michael W. Deem and Ramdas Pophale) SiO2 
 PCOD8111413
Probable space group: C 2/M
;
_chemical_formula_sum "Si O2"
_cell_formula_units_Z 60
_cell_length_a 26.442518
_cell_length_b 15.721686
_cell_length_c 14.539600
_cell_angle_alpha 90.000000
_cell_angle_beta 149.909593
_cell_angle_gamma 90.000000
_cell_volume 3030.464209
_symmetry_space_group_name_H-M "C 2/M"
_symmetry_group_IT_number 12
_symmetry_cell_setting 'monoclinic'
loop_
_space_group_symop_operation_xyz
x,y,z
-x,y,-z
-x,-y,-z
x,-y,z
1/2+x,1/2+y,z
1/2-x,1/2+y,-z
1/2-x,1/2-y,-z
1/2+x,1/2-y,z
loop_
_atom_site_type_symbol
_atom_site_label
_atom_site_fract_x
_atom_site_fract_y
_atom_site_fract_z
Si Si1 0.634732 0.836510 0.049670
Si Si2 0.000000 0.267019 0.000000
Si Si3 0.556855 0.904152 0.330268
Si Si4 0.643040 0.739262 0.372552
Si Si5 0.600378 0.098301 0.610172
Si Si6 0.830945 0.092495 0.442802
Si Si7 0.706567 0.300750 0.017544
Si Si8 0.467921 0.405483 0.353314
O O1 0.735968 0.887660 0.229037
O O2 0.664110 0.753105 0.036958
O O3 0.577577 0.820473 0.057408
O O4 0.563428 0.894057 0.872590
O O5 0.934124 0.208671 0.828248
O O6 0.612195 0.832994 0.357482
O O7 0.587314 0.887078 0.482058
O O8 0.588819 0.000000 0.350507
O O9 0.750000 0.750000 0.500000
O O10 0.646289 0.667247 0.452028
O O11 0.500000 0.137198 0.500000
O O12 0.702742 0.142173 0.802748
O O13 0.610270 0.000000 0.652677
O O14 0.929004 0.086666 0.537375
O O15 0.812620 0.000000 0.461808
O O16 0.750000 0.250000 0.000000
O O17 0.613221 0.354705 0.833267
O O18 0.500000 0.360366 0.500000
O O19 0.423449 0.500000 0.302483
#
# Coordination Sequence:
#
# PCOD8111413 Si02
#       8
#     8   4   8   8   8   8   8   8
#     4  11  22  39  62  92 127 158 204 259 315 373
#     4  10  22  40  62  88 122 168 200 258 320 360
#     4  10  22  40  63  91 121 161 205 252 311 374
#     4  11  22  41  62  88 126 158 204 262 312 365
#     4  10  22  40  61  89 127 164 206 259 313 370
#     4  11  23  41  65  92 124 166 210 256 312 377
#     4  12  24  37  63  93 123 165 211 256 314 382
#     4  10  22  40  60  87 126 166 208 257 310 373
#
# _framework density 19.798946999999998
#
# number of rings (size 3 to 8) (size 9 to 14) (size 15 to 20)
#    0.000    1.333    1.333    4.800    0.000    3.200 
#    0.000    7.333    0.000    0.000    0.000    0.000 
#    0.000    0.000    0.000    0.000    0.000    0.000 
#
# Total GULP energy -371792.655776 kJ/mol
# GULP energy per Si atom -12393.088526 kJ/mol
# Density = 1.975388 g / cm^3
# Si number density = 19.798947 Si / 1000 Ang^3
#
#
#
# Elastic Constant Matrix: (Units=GPa)
#
#
# Indices 1 2 3 4 5 6 
#
# 1 95.6410 51.2551 47.5768 0.0000 1.7083 0.0000
# 2 51.2551 115.4611 73.3523 0.0000 -3.9755 0.0000
# 3 47.5768 73.3523 180.5286 0.0000 -1.1695 0.0000
# 4 0.0000 0.0000 0.0000 -6.4095 0.0000 53.6378
# 5 1.7083 -3.9755 -1.1695 0.0000 32.6659 0.0000
# 6 0.0000 0.0000 0.0000 53.6378 0.0000 -50.2929
#
#
#
# Elastic Compliance Matrix: (Units=1/GPa)
#
#
# Indices 1 2 3 4 5 6 
#
# 1 0.014111 -0.005318 -0.001567 0.000000 -0.001441 0.000000
# 2 -0.005318 0.013730 -0.004166 0.000000 0.001800 0.000000
# 3 -0.001567 -0.004166 0.007644 0.000000 -0.000151 0.000000
# 4 0.000000 0.000000 0.000000 0.019687 0.000000 0.020996
# 5 -0.001441 0.001800 -0.000151 0.000000 0.030902 0.000000
# 6 0.000000 0.000000 0.000000 0.020996 0.000000 0.002509
#
#
# Mechanical properties :
#
#
# Convention : Reuss Voigt Hill
#
# Bulk Modulus (GPa) = 74.72100 81.77766 78.24933
# Shear Modulus (GPa) = 43.42308 9.82246 26.62277
#
# Velocity S-wave (km/s) = 4.68824 2.22977 3.67093
# Velocity P-wave (km/s) = 8.19317 6.92985 7.58785
#
# Compressibility (1/GPa) = 0.01338312
#
# Stress axis : x y z
#
# Youngs Moduli (GPa) = 70.86554 72.83280 130.82246
#
# Poissons Ratio (x) = 0.38733 0.20505
# Poissons Ratio (y) = 0.37687 0.54495
# Poissons Ratio (z) = 0.11107 0.30339
#
# Static dielectric constant tensor:
#      x y z
#    x 3.681040 0.000000 0.001900 
#    y 0.000000 3.479740 0.000000 
#    z 0.001900 0.000000 4.123620 
# 
# 
# High freq. dielectric constant tensor:
#      x y z
#    x 1.777670 0.000000 0.000780 
#    y 0.000000 1.765640 0.000000 
#    z 0.000780 0.000000 1.800800 
# 
# From -- ./inp_files/246754.got.cif
#   From: 2010.06.25/outbox.cif.g09.slc.cpg/sg12_124_cif.got.tgz:246754.got - 2010.06.28 00:19:55.
