data_PCOD8111442
_publ_section_title
;
Structure prediction by ZEFSAII (Michael W. Deem and Ramdas Pophale) SiO2 
 PCOD8111442
Probable space group: C 2/M
;
_chemical_formula_sum "Si O2"
_cell_formula_units_Z 64
_cell_length_a 16.088943
_cell_length_b 8.995001
_cell_length_c 23.309404
_cell_angle_alpha 90.000000
_cell_angle_beta 90.596640
_cell_angle_gamma 90.000000
_cell_volume 3373.155411
_symmetry_space_group_name_H-M "C 2/M"
_symmetry_group_IT_number 12
_symmetry_cell_setting 'monoclinic'
loop_
_space_group_symop_operation_xyz
x,y,z
-x,y,-z
-x,-y,-z
x,-y,z
1/2+x,1/2+y,z
1/2-x,1/2+y,-z
1/2-x,1/2-y,-z
1/2+x,1/2-y,z
loop_
_atom_site_type_symbol
_atom_site_label
_atom_site_fract_x
_atom_site_fract_y
_atom_site_fract_z
Si Si1 0.734157 0.168423 0.058746
Si Si2 0.345458 0.173630 0.631802
Si Si3 0.495436 0.674457 0.566023
Si Si4 0.676477 0.330322 0.830728
Si Si5 0.833934 0.828593 0.843390
Si Si6 0.159434 0.827557 0.636234
Si Si7 0.587310 0.824655 0.738128
Si Si8 0.078974 0.172788 0.268071
O O1 0.818173 0.176936 0.099074
O O2 0.658238 0.244353 0.094755
O O3 0.708444 0.000000 0.045394
O O4 0.750000 0.250000 0.000000
O O5 0.415185 0.243152 0.591130
O O6 0.250590 0.198796 0.607925
O O7 0.348097 0.253439 0.694115
O O8 0.364640 0.000000 0.638772
O O9 0.500000 0.720024 0.500000
O O10 0.480644 0.500000 0.574391
O O11 0.584140 0.723275 0.594072
O O12 0.676697 0.500000 0.809596
O O13 0.757169 0.242811 0.807595
O O14 0.598855 0.245286 0.802182
O O15 0.910828 0.807265 0.800848
O O16 0.816450 0.000000 0.856664
O O17 0.157661 0.730027 0.694542
O O18 0.149257 0.000000 0.652963
O O19 0.502384 0.759743 0.712254
O O20 0.584448 0.000000 0.743140
O O21 0.071142 0.000000 0.283862
#
# Coordination Sequence:
#
# PCOD8111442 Si02
#       8
#     8   8   8   8   8   8   8   8
#     4   9  18  31  53  79 110 149 190 240 292 346
#     4  11  23  38  60  90 120 157 201 249 301 355
#     4  10  22  42  65  88 119 163 208 247 296 360
#     4   9  19  33  51  77 109 146 184 231 288 341
#     4   9  18  32  52  79 108 142 189 235 284 345
#     4  10  22  40  61  86 123 161 195 245 306 359
#     4  12  23  34  55  84 115 151 194 243 294 355
#     4  11  22  36  55  80 116 155 189 239 301 358
#
# _framework density 18.973331999999999
#
# number of rings (size 3 to 8) (size 9 to 14) (size 15 to 20)
#    0.750    1.125    1.250    3.375    0.000    5.750 
#    0.000    0.000    0.000    0.750    0.000    5.250 
#    0.000    0.000    0.000    0.000    0.000    0.000 
#
# Total GULP energy -396434.625492 kJ/mol
# GULP energy per Si atom -12388.582047 kJ/mol
# Density = 1.893015 g / cm^3
# Si number density = 18.973332 Si / 1000 Ang^3
#
#
#
# Elastic Constant Matrix: (Units=GPa)
#
#
# Indices 1 2 3 4 5 6 
#
# 1 104.0170 50.2764 44.3054 0.0000 -3.1341 0.0000
# 2 50.2764 143.4174 59.1159 0.0000 -6.9326 0.0000
# 3 44.3054 59.1159 116.4903 0.0000 -9.2642 0.0000
# 4 0.0000 0.0000 0.0000 30.7250 0.0000 -2.2669
# 5 -3.1341 -6.9326 -9.2642 0.0000 26.4533 0.0000
# 6 0.0000 0.0000 0.0000 -2.2669 0.0000 26.6258
#
#
#
# Elastic Compliance Matrix: (Units=1/GPa)
#
#
# Indices 1 2 3 4 5 6 
#
# 1 0.012450 -0.003060 -0.003219 0.000000 -0.000454 0.000000
# 2 -0.003060 0.009584 -0.003630 0.000000 0.000878 0.000000
# 3 -0.003219 -0.003630 0.011875 0.000000 0.002826 0.000000
# 4 0.000000 0.000000 0.000000 0.032753 0.000000 0.002789
# 5 -0.000454 0.000878 0.002826 0.000000 0.038969 0.000000
# 6 0.000000 0.000000 0.000000 0.002789 0.000000 0.037795
#
#
# Mechanical properties :
#
#
# Convention : Reuss Voigt Hill
#
# Bulk Modulus (GPa) = 70.95867 74.59111 72.77489
# Shear Modulus (GPa) = 29.77258 30.77596 30.27427
#
# Velocity S-wave (km/s) = 3.96559 4.03185 3.99886
# Velocity P-wave (km/s) = 7.64514 7.81495 7.73051
#
# Compressibility (1/GPa) = 0.01409271
#
# Stress axis : x y z
#
# Youngs Moduli (GPa) = 80.32151 104.34025 84.20707
#
# Poissons Ratio (x) = 0.31925 0.27102
# Poissons Ratio (y) = 0.24576 0.30568
# Poissons Ratio (z) = 0.25852 0.37877
#
# Static dielectric constant tensor:
#      x y z
#    x 3.355570 0.000000 0.085450 
#    y 0.000000 3.511370 0.000000 
#    z 0.085450 0.000000 3.348030 
# 
# 
# High freq. dielectric constant tensor:
#      x y z
#    x 1.717720 0.000000 0.001920 
#    y 0.000000 1.748460 0.000000 
#    z 0.001920 0.000000 1.727480 
# 
# From -- ./inp_files/338758.got.cif
#   From: 2010.06.25/outbox.cif.g09.slc.cpg/sg12_170_cif.got.tgz:338758.got - 2010.06.28 00:19:55.
