data_PCOD8111238
_publ_section_title
;
Structure prediction by ZEFSAII (Michael W. Deem and Ramdas Pophale) SiO2 
 PCOD8111238
Probable space group: C 2/M
;
_chemical_formula_sum "Si O2"
_cell_formula_units_Z 56
_cell_length_a 11.065901
_cell_length_b 16.312504
_cell_length_c 14.851398
_cell_angle_alpha 90.000000
_cell_angle_beta 95.757424
_cell_angle_gamma 90.000000
_cell_volume 2667.340247
_symmetry_space_group_name_H-M "C 2/M"
_symmetry_group_IT_number 12
_symmetry_cell_setting 'monoclinic'
loop_
_space_group_symop_operation_xyz
x,y,z
-x,y,-z
-x,-y,-z
x,-y,z
1/2+x,1/2+y,z
1/2-x,1/2+y,-z
1/2-x,1/2-y,-z
1/2+x,1/2-y,z
loop_
_atom_site_type_symbol
_atom_site_label
_atom_site_fract_x
_atom_site_fract_y
_atom_site_fract_z
Si Si1 0.350576 0.405663 0.304354
Si Si2 0.561976 0.910931 0.600609
Si Si3 0.083869 0.409560 0.235336
Si Si4 0.366830 0.743802 0.443751
Si Si5 0.426404 0.815731 0.085613
Si Si6 0.821689 0.090488 0.949144
Si Si7 0.052711 0.861991 0.871072
O O1 0.358800 0.500000 0.342593
O O2 0.225348 0.389052 0.243469
O O3 0.364213 0.339325 0.384878
O O4 0.449035 0.393072 0.232272
O O5 0.500000 0.912141 0.500000
O O6 0.454850 0.902792 0.664129
O O7 0.645496 0.829015 0.614981
O O8 0.630814 0.000000 0.619743
O O9 0.059059 0.500000 0.194284
O O10 0.012041 0.346198 0.170875
O O11 0.500000 0.743328 0.500000
O O12 0.250000 0.750000 0.500000
O O13 0.309873 0.870818 0.063136
O O14 0.384615 0.726412 0.113926
O O15 0.500000 0.812788 0.000000
O O16 0.912793 0.142793 0.893446
O O17 0.811840 0.000000 0.906805
O O18 0.870722 0.080838 0.055244
#
# Coordination Sequence:
#
# PCOD8111238 Si02
#       7
#     8   8   8   8   8   8   8
#     4  11  23  41  67  95 132 174 217 266 329 402
#     4   9  18  38  65  93 124 163 209 263 325 389
#     4  10  22  39  62  94 125 163 215 270 328 391
#     4  11  24  43  68  99 132 168 217 271 332 399
#     4  12  24  39  63  93 129 168 225 279 328 383
#     4  11  23  41  63  90 129 175 221 272 331 401
#     4  11  23  40  64  90 128 175 220 266 332 398
#
# _framework density 20.994698
#
# number of rings (size 3 to 8) (size 9 to 14) (size 15 to 20)
#    0.000    1.286    1.429    6.000    2.000    4.286 
#    2.571    0.000    0.000    0.000    0.000    0.000 
#    0.000    0.000    0.000    0.000    0.000    0.000 
#
# Total GULP energy -347005.670350 kJ/mol
# GULP energy per Si atom -12393.059655 kJ/mol
# Density = 2.094691 g / cm^3
# Si number density = 20.994698 Si / 1000 Ang^3
#
#
#
# Elastic Constant Matrix: (Units=GPa)
#
#
# Indices 1 2 3 4 5 6 
#
# 1 82.4667 50.7357 23.6067 0.0000 -3.2413 0.0000
# 2 50.7357 140.0097 55.6121 0.0000 -2.1351 0.0000
# 3 23.6067 55.6121 94.2699 0.0000 -14.1234 0.0000
# 4 0.0000 0.0000 0.0000 44.9450 0.0000 1.8158
# 5 -3.2413 -2.1351 -14.1234 0.0000 24.1022 0.0000
# 6 0.0000 0.0000 0.0000 1.8158 0.0000 31.0747
#
#
#
# Elastic Compliance Matrix: (Units=1/GPa)
#
#
# Indices 1 2 3 4 5 6 
#
# 1 0.015684 -0.005462 -0.000506 0.000000 0.001329 0.000000
# 2 -0.005462 0.011385 -0.005818 0.000000 -0.003135 0.000000
# 3 -0.000506 -0.005818 0.015434 0.000000 0.008461 0.000000
# 4 0.000000 0.000000 0.000000 0.022302 0.000000 -0.001303
# 5 0.001329 -0.003135 0.008461 0.000000 0.046349 0.000000
# 6 0.000000 0.000000 0.000000 -0.001303 0.000000 0.032257
#
#
# Mechanical properties :
#
#
# Convention : Reuss Voigt Hill
#
# Bulk Modulus (GPa) = 52.82563 64.07279 58.44921
# Shear Modulus (GPa) = 28.85286 32.47717 30.66501
#
# Velocity S-wave (km/s) = 3.71117 3.93736 3.82594
# Velocity P-wave (km/s) = 6.60149 7.15928 6.88603
#
# Compressibility (1/GPa) = 0.01893020
#
# Stress axis : x y z
#
# Youngs Moduli (GPa) = 63.76097 87.83646 64.79009
#
# Poissons Ratio (x) = 0.47976 0.03280
# Poissons Ratio (y) = 0.34826 0.37696
# Poissons Ratio (z) = 0.03228 0.51104
#
# Static dielectric constant tensor:
#      x y z
#    x 3.664730 0.000000 -0.175890 
#    y 0.000000 4.500020 0.000000 
#    z -0.175890 0.000000 3.631250 
# 
# 
# High freq. dielectric constant tensor:
#      x y z
#    x 1.808350 0.000000 -0.021580 
#    y 0.000000 1.849640 0.000000 
#    z -0.021580 0.000000 1.813900 
# 
# From -- ./inp_files/205005.got.cif
#   From: 2010.06.25/outbox.cif.g09.slc.cpg/sg12_103_cif.got.tgz:205005.got - 2010.06.28 00:19:55.
