data_PCOD8111066
_publ_section_title
;
Structure prediction by ZEFSAII (Michael W. Deem and Ramdas Pophale) SiO2 
 PCOD8111066
Probable space group: C 2/M
;
_chemical_formula_sum "Si O2"
_cell_formula_units_Z 64
_cell_length_a 23.786257
_cell_length_b 14.249177
_cell_length_c 15.656401
_cell_angle_alpha 90.000000
_cell_angle_beta 36.575005
_cell_angle_gamma 90.000000
_cell_volume 3162.006022
_symmetry_space_group_name_H-M "C 2/M"
_symmetry_group_IT_number 12
_symmetry_cell_setting 'monoclinic'
loop_
_space_group_symop_operation_xyz
x,y,z
-x,y,-z
-x,-y,-z
x,-y,z
1/2+x,1/2+y,z
1/2-x,1/2+y,-z
1/2-x,1/2-y,-z
1/2+x,1/2-y,z
loop_
_atom_site_type_symbol
_atom_site_label
_atom_site_fract_x
_atom_site_fract_y
_atom_site_fract_z
Si Si1 0.074726 0.149937 0.805885
Si Si2 0.172533 0.889106 0.511860
Si Si3 0.881442 0.353037 0.204115
Si Si4 0.365725 0.600758 0.092505
Si Si5 0.302474 0.749411 0.055224
Si Si6 0.474776 0.393550 0.440570
Si Si7 0.929438 0.399744 0.958062
Si Si8 0.176034 0.890642 0.125524
O O1 0.132543 0.152508 0.648134
O O2 0.076017 0.249873 0.849831
O O3 0.125831 0.087274 0.815748
O O4 0.967456 0.117153 0.922694
O O5 0.280460 0.859749 0.372005
O O6 0.112362 0.847337 0.505074
O O7 0.159663 0.000000 0.531125
O O8 0.876143 0.390428 0.114283
O O9 0.957932 0.408777 0.167378
O O10 0.327400 0.500000 0.104567
O O11 0.297628 0.688020 0.148769
O O12 0.399153 0.812093 0.934673
O O13 0.220921 0.829401 0.149035
O O14 0.295707 0.668487 0.992291
O O15 0.500000 0.342071 0.500000
O O16 0.445484 0.500000 0.499016
O O17 0.564152 0.390134 0.269437
O O18 0.897023 0.500000 0.957505
O O19 0.211845 0.000000 0.079710
#
# Coordination Sequence:
#
# PCOD8111066 Si02
#       8
#     8   8   8   8   8   8   8   8
#     4  11  20  36  53  84 121 157 194 238 284 354
#     4  11  22  35  55  83 117 157 196 237 294 349
#     4  11  21  37  54  82 119 157 196 239 287 356
#     4  11  20  35  59  84 118 158 193 237 291 346
#     4  11  21  36  59  85 115 146 194 240 287 350
#     4   9  20  36  55  80 111 148 191 236 288 342
#     4  11  21  37  58  82 116 156 195 237 293 355
#     4  10  22  39  58  85 116 147 189 248 301 342
#
# _framework density 20.240316
#
# number of rings (size 3 to 8) (size 9 to 14) (size 15 to 20)
#    0.000    1.375    2.500    5.625    1.750    1.000 
#    0.000    0.000    0.000    0.000    0.000    0.000 
#    0.000    4.500    0.000    0.000    0.000    0.000 
#
# Total GULP energy -396424.425786 kJ/mol
# GULP energy per Si atom -12388.263306 kJ/mol
# Density = 2.019425 g / cm^3
# Si number density = 20.240316 Si / 1000 Ang^3
#
#
#
# Elastic Constant Matrix: (Units=GPa)
#
#
# Indices 1 2 3 4 5 6 
#
# 1 91.6647 33.3320 31.9760 0.0000 -5.6280 0.0000
# 2 33.3320 141.3833 1.9168 0.0000 -10.1481 0.0000
# 3 31.9760 1.9168 82.0655 0.0000 1.5361 0.0000
# 4 0.0000 0.0000 0.0000 14.8043 0.0000 -4.3821
# 5 -5.6280 -10.1481 1.5361 0.0000 23.5457 0.0000
# 6 0.0000 0.0000 0.0000 -4.3821 0.0000 26.8394
#
#
#
# Elastic Compliance Matrix: (Units=1/GPa)
#
#
# Indices 1 2 3 4 5 6 
#
# 1 0.014078 -0.003073 -0.005458 0.000000 0.002397 0.000000
# 2 -0.003073 0.007974 0.000962 0.000000 0.002639 0.000000
# 3 -0.005458 0.000962 0.014324 0.000000 -0.001825 0.000000
# 4 0.000000 0.000000 0.000000 0.070978 0.000000 0.011589
# 5 0.002397 0.002639 -0.001825 0.000000 0.044300 0.000000
# 6 0.000000 0.000000 0.000000 0.011589 0.000000 0.039151
#
#
# Mechanical properties :
#
#
# Convention : Reuss Voigt Hill
#
# Bulk Modulus (GPa) = 47.08905 49.95148 48.52027
# Shear Modulus (GPa) = 23.47168 29.56380 26.51774
#
# Velocity S-wave (km/s) = 3.40906 3.82598 3.62352
# Velocity P-wave (km/s) = 6.22985 6.65209 6.44443
#
# Compressibility (1/GPa) = 0.02123636
#
# Stress axis : x y z
#
# Youngs Moduli (GPa) = 71.03279 125.40990 69.81335
#
# Poissons Ratio (x) = 0.38538 0.38107
# Poissons Ratio (y) = 0.21828 -0.06714
# Poissons Ratio (z) = 0.38773 -0.12061
#
# Static dielectric constant tensor:
#      x y z
#    x 3.955280 0.000000 -0.188830 
#    y 0.000000 3.861930 0.000000 
#    z -0.188830 0.000000 3.272180 
# 
# 
# High freq. dielectric constant tensor:
#      x y z
#    x 1.794790 0.000000 -0.009500 
#    y 0.000000 1.798330 0.000000 
#    z -0.009500 0.000000 1.748880 
# 
# From -- ./inp_files/290112.got.cif
#   From: 2010.06.25/outbox.cif.g09.slc.cpg/sg12_146_cif.got.tgz:290112.got - 2010.06.28 00:19:55.
