data_PCOD8111527
_publ_section_title
;
Structure prediction by ZEFSAII (Michael W. Deem and Ramdas Pophale) SiO2 
 PCOD8111527
Probable space group: C 2/M
;
_chemical_formula_sum "Si O2"
_cell_formula_units_Z 56
_cell_length_a 18.512448
_cell_length_b 14.418919
_cell_length_c 21.519419
_cell_angle_alpha 90.000000
_cell_angle_beta 150.063040
_cell_angle_gamma 90.000000
_cell_volume 2866.608687
_symmetry_space_group_name_H-M "C 2/M"
_symmetry_group_IT_number 12
_symmetry_cell_setting 'monoclinic'
loop_
_space_group_symop_operation_xyz
x,y,z
-x,y,-z
-x,-y,-z
x,-y,z
1/2+x,1/2+y,z
1/2-x,1/2+y,-z
1/2-x,1/2-y,-z
1/2+x,1/2-y,z
loop_
_atom_site_type_symbol
_atom_site_label
_atom_site_fract_x
_atom_site_fract_y
_atom_site_fract_z
Si Si1 0.891728 0.892639 0.231706
Si Si2 0.117484 0.749931 0.355791
Si Si3 0.891537 0.392638 0.231623
Si Si4 0.870354 0.606055 0.360207
Si Si5 0.370472 0.606055 0.360218
Si Si6 0.849339 0.250055 0.760558
Si Si7 0.810053 0.250036 0.974983
O O1 0.916887 0.880865 0.323679
O O2 0.743800 0.842568 0.100488
O O3 0.023882 0.842897 0.295333
O O4 0.885729 0.000000 0.207241
O O5 0.250000 0.750000 0.500000
O O6 0.182311 0.749799 0.335784
O O7 0.023843 0.657014 0.295418
O O8 0.885425 0.500000 0.207084
O O9 0.916586 0.380855 0.323516
O O10 0.743702 0.342504 0.100431
O O11 0.838639 0.500000 0.353124
O O12 0.722149 0.659619 0.262461
O O13 0.000000 0.645001 0.500000
O O14 0.500000 0.644969 0.500000
O O15 0.338658 0.500000 0.353033
O O16 0.222269 0.659668 0.262388
O O17 0.018457 0.250077 0.900577
O O18 0.750000 0.250000 0.000000
#
# Coordination Sequence:
#
# PCOD8111527 Si02
#       7
#     8   8   8   8   8   8   8
#     4  10  22  41  62  84 120 163 198 244 298 352
#     4  11  22  37  60  92 120 153 202 246 298 357
#     4  10  22  41  62  84 120 163 198 244 298 352
#     4  10  22  40  62  91 122 153 194 245 303 359
#     4  10  22  40  62  91 122 153 194 245 303 359
#     4  12  22  37  62  88 118 158 199 245 298 349
#     4  11  23  43  56  88 122 160 204 246 299 347
#
# _framework density 19.53528
#
# number of rings (size 3 to 8) (size 9 to 14) (size 15 to 20)
#    0.000    1.429    2.857    3.857    0.000    5.714 
#    0.000    2.857    0.000    0.000    0.000    0.000 
#    0.000    0.000    0.000    0.000    0.000    0.000 
#
# Total GULP energy -347306.254275 kJ/mol
# GULP energy per Si atom -12403.794796 kJ/mol
# Density = 1.949082 g / cm^3
# Si number density = 19.535280 Si / 1000 Ang^3
#
#
#
# Elastic Constant Matrix: (Units=GPa)
#
#
# Indices 1 2 3 4 5 6 
#
# 1 66.7554 35.3061 -2.8349 -0.0020 -0.1718 0.0000
# 2 35.3061 150.0427 40.0054 -0.0106 6.1988 -0.0013
# 3 -2.8349 40.0054 101.5705 -0.0131 7.5305 -0.0013
# 4 -0.0020 -0.0106 -0.0131 20.0001 -0.0049 -10.8380
# 5 -0.1718 6.1988 7.5305 -0.0049 41.6498 0.0007
# 6 0.0000 -0.0013 -0.0013 -10.8380 0.0007 20.3029
#
#
#
# Elastic Compliance Matrix: (Units=1/GPa)
#
#
# Indices 1 2 3 4 5 6 
#
# 1 0.017612 -0.004786 0.002350 0.000001 0.000360 0.000000
# 2 -0.004786 0.008761 -0.003534 0.000003 -0.000685 0.000002
# 3 0.002350 -0.003534 0.011416 0.000008 -0.001528 0.000005
# 4 0.000001 0.000003 0.000008 0.070350 0.000006 0.037554
# 5 0.000360 -0.000685 -0.001528 0.000006 0.024389 0.000002
# 6 0.000000 0.000002 0.000005 0.037554 0.000002 0.069301
#
#
# Mechanical properties :
#
#
# Convention : Reuss Voigt Hill
#
# Bulk Modulus (GPa) = 38.68420 51.48018 45.08219
# Shear Modulus (GPa) = 22.48348 32.78336 27.63342
#
# Velocity S-wave (km/s) = 3.39620 4.10098 3.76512
# Velocity P-wave (km/s) = 5.93499 6.98811 6.48297
#
# Compressibility (1/GPa) = 0.02585035
#
# Stress axis : x y z
#
# Youngs Moduli (GPa) = 56.78009 114.13848 87.59594
#
# Poissons Ratio (x) = 0.54622 -0.20583
# Poissons Ratio (y) = 0.27172 0.30953
# Poissons Ratio (z) = -0.13342 0.40332
#
# Static dielectric constant tensor:
#      x y z
#    x 3.696270 0.000030 -0.030340 
#    y 0.000030 3.813240 0.000030 
#    z -0.030340 0.000030 3.815090 
# 
# 
# High freq. dielectric constant tensor:
#      x y z
#    x 1.765880 0.000000 -0.011250 
#    y 0.000000 1.769120 0.000000 
#    z -0.011250 0.000000 1.768150 
# 
# From -- ./inp_files/86349.got.cif
#   From: 2010.06.25/outbox.cif.g09.slc.cpg/sg12_44_cif.got.tgz:86349.got - 2010.06.28 00:19:55.
