data_PCOD8111513
_publ_section_title
;
Structure prediction by ZEFSAII (Michael W. Deem and Ramdas Pophale) SiO2 
 PCOD8111513
Probable space group: C 2/M
;
_chemical_formula_sum "Si O2"
_cell_formula_units_Z 48
_cell_length_a 26.985993
_cell_length_b 8.458375
_cell_length_c 15.178593
_cell_angle_alpha 90.000000
_cell_angle_beta 138.919919
_cell_angle_gamma 90.000000
_cell_volume 2276.654168
_symmetry_space_group_name_H-M "C 2/M"
_symmetry_group_IT_number 12
_symmetry_cell_setting 'monoclinic'
loop_
_space_group_symop_operation_xyz
x,y,z
-x,y,-z
-x,-y,-z
x,-y,z
1/2+x,1/2+y,z
1/2-x,1/2+y,-z
1/2-x,1/2-y,-z
1/2+x,1/2-y,z
loop_
_atom_site_type_symbol
_atom_site_label
_atom_site_fract_x
_atom_site_fract_y
_atom_site_fract_z
Si Si1 0.591619 0.684168 0.453176
Si Si2 0.919187 0.183398 0.236523
Si Si3 0.829747 0.315300 0.957146
Si Si4 0.082518 0.685878 0.094940
Si Si5 0.165924 0.682367 0.718717
Si Si6 0.832123 0.815135 0.626487
O O1 0.602485 0.500000 0.488540
O O2 0.505714 0.738637 0.350642
O O3 0.645893 0.780728 0.590852
O O4 0.614960 0.725269 0.385170
O O5 0.887677 0.211575 0.291840
O O6 0.911869 0.000000 0.200995
O O7 0.871934 0.288207 0.105344
O O8 0.811462 0.500000 0.920899
O O9 0.881954 0.248820 0.948100
O O10 0.752582 0.219332 0.853786
O O11 0.073930 0.500000 0.074925
O O12 0.136745 0.726119 0.247418
O O13 0.000000 0.763459 0.000000
O O14 0.150825 0.500000 0.719394
O O15 0.750000 0.750000 0.500000
O O16 0.829358 0.000000 0.642261
#
# Coordination Sequence:
#
# PCOD8111513 Si02
#       6
#     8   8   8   8   8   8
#     4  10  23  42  62  87 120 157 196 242 296 350
#     4  11  23  41  64  88 118 155 196 244 297 352
#     4  11  23  40  62  88 121 158 197 242 292 349
#     4  10  22  40  62  89 121 156 195 243 296 347
#     4  12  25  40  61  89 120 155 198 245 293 350
#     4  11  23  39  61  89 121 157 198 243 291 347
#
# _framework density 21.083572
#
# number of rings (size 3 to 8) (size 9 to 14) (size 15 to 20)
#    0.000    1.167    0.000    6.000    0.000   10.333 
#    0.000    0.000    0.000    0.000    0.000    0.000 
#    0.000    0.000    0.000    0.000    0.000    0.000 
#
# Total GULP energy -297797.970880 kJ/mol
# GULP energy per Si atom -12408.248787 kJ/mol
# Density = 2.103558 g / cm^3
# Si number density = 21.083572 Si / 1000 Ang^3
#
#
#
# Elastic Constant Matrix: (Units=GPa)
#
#
# Indices 1 2 3 4 5 6 
#
# 1 93.6197 27.7689 2.8625 0.0000 7.6824 0.0000
# 2 27.7689 29.5059 12.7004 0.0000 5.1643 0.0000
# 3 2.8625 12.7004 92.6277 0.0000 4.4592 0.0000
# 4 0.0000 0.0000 0.0000 36.7362 0.0000 -4.5801
# 5 7.6824 5.1643 4.4592 0.0000 42.0629 0.0000
# 6 0.0000 0.0000 0.0000 -4.5801 0.0000 21.7786
#
#
#
# Elastic Compliance Matrix: (Units=1/GPa)
#
#
# Indices 1 2 3 4 5 6 
#
# 1 0.015081 -0.014686 0.001602 0.000000 -0.001121 0.000000
# 2 -0.014686 0.050973 -0.006396 0.000000 -0.002898 0.000000
# 3 0.001602 -0.006396 0.011659 0.000000 -0.000743 0.000000
# 4 0.000000 0.000000 0.000000 0.027954 0.000000 0.005879
# 5 -0.001121 -0.002898 -0.000743 0.000000 0.024413 0.000000
# 6 0.000000 0.000000 0.000000 0.005879 0.000000 0.047153
#
#
# Mechanical properties :
#
#
# Convention : Reuss Voigt Hill
#
# Bulk Modulus (GPa) = 25.80468 33.60187 29.70328
# Shear Modulus (GPa) = 21.82348 31.61028 26.71688
#
# Velocity S-wave (km/s) = 3.22078 3.87626 3.56362
# Velocity P-wave (km/s) = 5.10852 6.00049 5.57239
#
# Compressibility (1/GPa) = 0.03875266
#
# Stress axis : x y z
#
# Youngs Moduli (GPa) = 66.31044 19.61819 85.76968
#
# Poissons Ratio (x) = 0.28811 -0.13736
# Poissons Ratio (y) = 0.97383 0.54856
# Poissons Ratio (z) = -0.10620 0.12547
#
# Static dielectric constant tensor:
#      x y z
#    x 4.140760 0.000000 0.101570 
#    y 0.000000 3.683120 0.000000 
#    z 0.101570 0.000000 3.753020 
# 
# 
# High freq. dielectric constant tensor:
#      x y z
#    x 1.845130 0.000000 0.001900 
#    y 0.000000 1.820670 0.000000 
#    z 0.001900 0.000000 1.838310 
# 
# From -- ./inp_files/244830.got.cif
#   From: 2010.06.25/outbox.cif.g09.slc.cpg/sg12_123_cif.got.tgz:244830.got - 2010.06.28 00:19:55.
