data_PCOD8111883
_publ_section_title
;
Structure prediction by ZEFSAII (Michael W. Deem and Ramdas Pophale) SiO2 
 PCOD8111883
Probable space group: C 2/M
;
_chemical_formula_sum "Si O2"
_cell_formula_units_Z 52
_cell_length_a 11.758817
_cell_length_b 23.742289
_cell_length_c 12.198502
_cell_angle_alpha 90.000000
_cell_angle_beta 132.474795
_cell_angle_gamma 90.000000
_cell_volume 2511.878294
_symmetry_space_group_name_H-M "C 2/M"
_symmetry_group_IT_number 12
_symmetry_cell_setting 'monoclinic'
loop_
_space_group_symop_operation_xyz
x,y,z
-x,y,-z
-x,-y,-z
x,-y,z
1/2+x,1/2+y,z
1/2-x,1/2+y,-z
1/2-x,1/2-y,-z
1/2+x,1/2-y,z
loop_
_atom_site_type_symbol
_atom_site_label
_atom_site_fract_x
_atom_site_fract_y
_atom_site_fract_z
Si Si1 0.299081 0.109977 0.049778
Si Si2 0.847402 0.607984 0.695433
Si Si3 0.829238 0.619035 0.426330
Si Si4 0.822364 0.813147 0.848959
Si Si5 0.594240 0.500000 0.947711
Si Si6 0.678837 0.500000 0.592058
Si Si7 0.786213 0.000000 0.637765
Si Si8 0.679954 0.813397 0.135864
O O1 0.476922 0.092227 0.161659
O O2 0.284718 0.148656 0.146087
O O3 0.245363 0.146533 0.908889
O O4 0.196858 0.054920 0.998710
O O5 0.812653 0.621296 0.546401
O O6 0.751128 0.556856 0.687027
O O7 0.788684 0.662387 0.723115
O O8 0.706932 0.663394 0.293708
O O9 0.791013 0.555567 0.358808
O O10 0.000000 0.635727 0.500000
O O11 0.755882 0.750184 0.822502
O O12 0.000000 0.819322 0.000000
O O13 0.469499 0.500000 0.770955
O O14 0.500000 0.500000 0.000000
O O15 0.500000 0.500000 0.500000
O O16 0.738447 0.500000 0.506697
O O17 0.500000 0.809415 0.000000
#
# Coordination Sequence:
#
# PCOD8111883 Si02
#       8
#     8   8   8   8   4   4   4   8
#     4  11  21  39  65  92 128 164 206 257 310 375
#     4  10  22  41  63  92 122 164 214 250 314 375
#     4  11  21  39  66  89 128 162 206 260 310 372
#     4  11  22  40  64  92 126 165 209 261 310 359
#     4  12  25  36  62 100 127 157 207 261 311 369
#     4  10  23  40  63  83 125 164 198 258 317 374
#     4  10  23  38  57  92 124 163 198 249 320 371
#     4   9  22  40  62  89 123 167 210 255 306 369
#
# _framework density 20.701640000000001
#
# number of rings (size 3 to 8) (size 9 to 14) (size 15 to 20)
#    0.000    1.538    1.538    3.462    2.154    0.615 
#    0.000    3.077    0.000    0.000    0.000    0.000 
#    0.000    0.000    0.000    0.000    0.000    0.000 
#
# Total GULP energy -322354.504613 kJ/mol
# GULP energy per Si atom -12398.250177 kJ/mol
# Density = 2.065452 g / cm^3
# Si number density = 20.701640 Si / 1000 Ang^3
#
#
#
# Elastic Constant Matrix: (Units=GPa)
#
#
# Indices 1 2 3 4 5 6 
#
# 1 67.0790 47.5616 23.9098 0.0000 5.4768 0.0000
# 2 47.5616 177.2346 61.5582 0.0000 -1.6783 0.0000
# 3 23.9098 61.5582 106.2287 0.0000 -1.8697 0.0000
# 4 0.0000 0.0000 0.0000 25.1982 0.0000 -3.6116
# 5 5.4768 -1.6783 -1.8697 0.0000 36.9008 0.0000
# 6 0.0000 0.0000 0.0000 -3.6116 0.0000 21.3293
#
#
#
# Elastic Compliance Matrix: (Units=1/GPa)
#
#
# Indices 1 2 3 4 5 6 
#
# 1 0.018982 -0.004533 -0.001701 0.000000 -0.003110 0.000000
# 2 -0.004533 0.008147 -0.003686 0.000000 0.000857 0.000000
# 3 -0.001701 -0.003686 0.011944 0.000000 0.000690 0.000000
# 4 0.000000 0.000000 0.000000 0.040672 0.000000 0.006887
# 5 -0.003110 0.000857 0.000690 0.000000 0.027635 0.000000
# 6 0.000000 0.000000 0.000000 0.006887 0.000000 0.048050
#
#
# Mechanical properties :
#
#
# Convention : Reuss Voigt Hill
#
# Bulk Modulus (GPa) = 51.98812 68.51128 60.24970
# Shear Modulus (GPa) = 27.52095 31.18650 29.35373
#
# Velocity S-wave (km/s) = 3.65006 3.88554 3.76964
# Velocity P-wave (km/s) = 6.55221 7.30044 6.93642
#
# Compressibility (1/GPa) = 0.01923516
#
# Stress axis : x y z
#
# Youngs Moduli (GPa) = 52.68253 122.74696 83.72143
#
# Poissons Ratio (x) = 0.55636 0.14237
# Poissons Ratio (y) = 0.23879 0.30857
# Poissons Ratio (z) = 0.08959 0.45241
#
# Static dielectric constant tensor:
#      x y z
#    x 3.615880 0.000000 -0.106790 
#    y 0.000000 4.165560 0.000000 
#    z -0.106790 0.000000 3.795840 
# 
# 
# High freq. dielectric constant tensor:
#      x y z
#    x 1.801770 0.000000 -0.006530 
#    y 0.000000 1.821060 0.000000 
#    z -0.006530 0.000000 1.809570 
# 
# From -- ./inp_files/136067.got.cif
#   From: 2010.06.25/outbox.cif.g09.slc.cpg/sg12_69_cif.got.tgz:136067.got - 2010.06.28 00:19:55.
