data_PCOD8111181
_publ_section_title
;
Structure prediction by ZEFSAII (Michael W. Deem and Ramdas Pophale) SiO2 
 PCOD8111181
Probable space group: C 2/M
;
_chemical_formula_sum "Si O2"
_cell_formula_units_Z 64
_cell_length_a 31.807709
_cell_length_b 9.089018
_cell_length_c 18.670616
_cell_angle_alpha 90.000000
_cell_angle_beta 145.420756
_cell_angle_gamma 90.000000
_cell_volume 3063.435199
_symmetry_space_group_name_H-M "C 2/M"
_symmetry_group_IT_number 12
_symmetry_cell_setting 'monoclinic'
loop_
_space_group_symop_operation_xyz
x,y,z
-x,y,-z
-x,-y,-z
x,-y,z
1/2+x,1/2+y,z
1/2-x,1/2+y,-z
1/2-x,1/2-y,-z
1/2+x,1/2-y,z
loop_
_atom_site_type_symbol
_atom_site_label
_atom_site_fract_x
_atom_site_fract_y
_atom_site_fract_z
Si Si1 0.421595 0.831969 0.610251
Si Si2 0.342367 0.836194 0.859601
Si Si3 0.788316 0.165662 0.230682
Si Si4 0.671395 0.324803 0.408898
Si Si5 0.932940 0.668741 0.460593
Si Si6 0.922897 0.827674 0.859001
Si Si7 0.579629 0.168348 0.884492
Si Si8 0.704437 0.671315 0.996214
O O1 0.356255 0.730473 0.551312
O O2 0.447518 0.797799 0.564960
O O3 0.492876 0.802079 0.759359
O O4 0.394421 0.000000 0.577958
O O5 0.254394 0.833365 0.753222
O O6 0.356155 0.720213 0.816797
O O7 0.365248 0.000000 0.866374
O O8 0.392526 0.789401 0.997673
O O9 0.872200 0.213780 0.352992
O O10 0.745138 0.288315 0.126113
O O11 0.784428 0.000000 0.192110
O O12 0.683225 0.500000 0.427375
O O13 0.750000 0.250000 0.500000
O O14 0.605813 0.279475 0.260280
O O15 0.906375 0.500000 0.413955
O O16 0.000000 0.699400 0.500000
O O17 0.932201 0.000000 0.873700
O O18 0.000000 0.757606 0.000000
O O19 0.600124 0.000000 0.895366
O O20 0.620566 0.268187 0.882287
O O21 0.702800 0.500000 0.979473
O O22 0.750000 0.750000 0.000000
#
# Coordination Sequence:
#
# PCOD8111181 Si02
#       8
#     8   8   8   8   8   8   8   8
#     4  10  22  41  65  91 126 166 207 257 312 375
#     4   9  19  35  58  88 121 156 197 246 302 362
#     4  10  22  40  59  86 120 156 204 256 307 366
#     4  11  25  43  64  93 128 168 216 267 322 387
#     4  10  23  41  62  91 122 162 210 255 312 378
#     4  10  22  39  61  90 123 158 204 260 313 372
#     4   9  19  37  59  88 123 160 202 250 307 373
#     4  11  22  36  58  87 119 157 199 252 313 374
#
# _framework density 20.891577999999999
#
# number of rings (size 3 to 8) (size 9 to 14) (size 15 to 20)
#    0.000    2.000    0.000    3.375    3.500    5.000 
#    0.000    0.000    0.000    0.000    0.000    0.000 
#    0.000    0.000    0.000    0.000    0.000    0.000 
#
# Total GULP energy -396541.925235 kJ/mol
# GULP energy per Si atom -12391.935164 kJ/mol
# Density = 2.084403 g / cm^3
# Si number density = 20.891578 Si / 1000 Ang^3
#
#
#
# Elastic Constant Matrix: (Units=GPa)
#
#
# Indices 1 2 3 4 5 6 
#
# 1 140.7961 50.0287 39.8030 0.0000 2.9476 0.0000
# 2 50.0287 77.3106 33.8978 0.0000 7.0571 0.0000
# 3 39.8030 33.8978 73.1194 0.0000 9.3019 0.0000
# 4 0.0000 0.0000 0.0000 29.2078 0.0000 5.4161
# 5 2.9476 7.0571 9.3019 0.0000 22.7541 0.0000
# 6 0.0000 0.0000 0.0000 5.4161 0.0000 39.2929
#
#
#
# Elastic Compliance Matrix: (Units=1/GPa)
#
#
# Indices 1 2 3 4 5 6 
#
# 1 0.009769 -0.005080 -0.003167 0.000000 0.001605 0.000000
# 2 -0.005080 0.018969 -0.005658 0.000000 -0.002912 0.000000
# 3 -0.003167 -0.005658 0.018722 0.000000 -0.005488 0.000000
# 4 0.000000 0.000000 0.000000 0.035135 0.000000 -0.004843
# 5 0.001605 -0.002912 -0.005488 0.000000 0.046887 0.000000
# 6 0.000000 0.000000 0.000000 -0.004843 0.000000 0.026117
#
#
# Mechanical properties :
#
#
# Convention : Reuss Voigt Hill
#
# Bulk Modulus (GPa) = 50.89185 59.85390 55.37288
# Shear Modulus (GPa) = 26.32147 29.41741 27.86944
#
# Velocity S-wave (km/s) = 3.55337 3.75654 3.65636
# Velocity P-wave (km/s) = 6.42247 6.89401 6.66241
#
# Compressibility (1/GPa) = 0.01964951
#
# Stress axis : x y z
#
# Youngs Moduli (GPa) = 102.36334 52.71873 53.41403
#
# Poissons Ratio (x) = 0.26779 0.16917
# Poissons Ratio (y) = 0.51996 0.30223
# Poissons Ratio (z) = 0.32420 0.29830
#
# Static dielectric constant tensor:
#      x y z
#    x 3.770830 0.000000 0.030190 
#    y 0.000000 3.676300 0.000000 
#    z 0.030190 0.000000 3.913980 
# 
# 
# High freq. dielectric constant tensor:
#      x y z
#    x 1.825450 0.000000 0.005690 
#    y 0.000000 1.811970 0.000000 
#    z 0.005690 0.000000 1.809850 
# 
# From -- ./inp_files/295701.got.cif
#   From: 2010.06.25/outbox.cif.g09.slc.cpg/sg12_148_cif.got.tgz:295701.got - 2010.06.28 00:19:55.
