data_PCOD8111225
_publ_section_title
;
Structure prediction by ZEFSAII (Michael W. Deem and Ramdas Pophale) SiO2 
 PCOD8111225
Probable space group: C 2/M
;
_chemical_formula_sum "Si O2"
_cell_formula_units_Z 56
_cell_length_a 25.884401
_cell_length_b 18.386008
_cell_length_c 8.604868
_cell_angle_alpha 90.000000
_cell_angle_beta 43.375038
_cell_angle_gamma 90.000000
_cell_volume 2812.429607
_symmetry_space_group_name_H-M "C 2/M"
_symmetry_group_IT_number 12
_symmetry_cell_setting 'monoclinic'
loop_
_space_group_symop_operation_xyz
x,y,z
-x,y,-z
-x,-y,-z
x,-y,z
1/2+x,1/2+y,z
1/2-x,1/2+y,-z
1/2-x,1/2-y,-z
1/2+x,1/2-y,z
loop_
_atom_site_type_symbol
_atom_site_label
_atom_site_fract_x
_atom_site_fract_y
_atom_site_fract_z
Si Si1 0.291308 0.817026 0.485146
Si Si2 0.944688 0.657118 0.992127
Si Si3 0.789879 0.918116 0.548000
Si Si4 0.545803 0.417113 0.741840
Si Si5 0.817586 0.707500 0.771380
Si Si6 0.648684 0.916686 0.064921
Si Si7 0.971591 0.777272 0.390984
O O1 0.250000 0.750000 0.500000
O O2 0.376228 0.811861 0.241320
O O3 0.247431 0.887847 0.525351
O O4 0.284039 0.822497 0.685178
O O5 0.914816 0.600807 0.926696
O O6 0.000000 0.619471 0.000000
O O7 0.986962 0.724046 0.819428
O O8 0.870594 0.884307 0.412807
O O9 0.732665 0.907969 0.815609
O O10 0.806936 0.000000 0.468621
O O11 0.546123 0.500000 0.673926
O O12 0.509897 0.360792 0.697255
O O13 0.500000 0.414593 0.000000
O O14 0.882442 0.764280 0.587294
O O15 0.750000 0.750000 0.000000
O O16 0.854491 0.640522 0.787004
O O17 0.634707 0.000000 0.151862
O O18 0.000000 0.761807 0.500000
#
# Coordination Sequence:
#
# PCOD8111225 Si02
#       7
#     8   8   8   8   8   8   8
#     4  11  23  37  63  89 118 162 211 254 296 366
#     4  11  22  41  63  90 123 162 215 257 309 370
#     4   9  20  40  61  86 121 159 203 252 307 366
#     4  10  22  39  62  91 123 163 208 255 310 371
#     4  12  24  40  61  94 126 163 211 257 316 371
#     4  10  22  42  64  90 129 167 206 259 321 378
#     4  12  24  39  62  89 128 163 201 263 312 369
#
# _framework density 19.911608999999999
#
# number of rings (size 3 to 8) (size 9 to 14) (size 15 to 20)
#    0.000    1.286    2.857    3.857    2.000    1.143 
#    0.000    1.429    0.000    5.143    0.000    0.000 
#    0.000    0.000    0.000    0.000    0.000    0.000 
#
# Total GULP energy -347108.527679 kJ/mol
# GULP energy per Si atom -12396.733131 kJ/mol
# Density = 1.986629 g / cm^3
# Si number density = 19.911609 Si / 1000 Ang^3
#
#
#
# Elastic Constant Matrix: (Units=GPa)
#
#
# Indices 1 2 3 4 5 6 
#
# 1 101.2220 34.3452 21.6195 0.0000 13.8220 0.0000
# 2 34.3452 97.2643 32.8036 0.0000 8.7199 0.0000
# 3 21.6195 32.8036 79.7832 0.0000 -3.0943 0.0000
# 4 0.0000 0.0000 0.0000 22.3243 0.0000 1.0468
# 5 13.8220 8.7199 -3.0943 0.0000 41.1608 0.0000
# 6 0.0000 0.0000 0.0000 1.0468 0.0000 29.7122
#
#
#
# Elastic Compliance Matrix: (Units=1/GPa)
#
#
# Indices 1 2 3 4 5 6 
#
# 1 0.011871 -0.003194 -0.002038 0.000000 -0.003463 0.000000
# 2 -0.003194 0.013153 -0.004622 0.000000 -0.002061 0.000000
# 3 -0.002038 -0.004622 0.015095 0.000000 0.002798 0.000000
# 4 0.000000 0.000000 0.000000 0.044868 0.000000 -0.001581
# 5 -0.003463 -0.002061 0.002798 0.000000 0.026105 0.000000
# 6 0.000000 0.000000 0.000000 -0.001581 0.000000 0.033712
#
#
# Mechanical properties :
#
#
# Convention : Reuss Voigt Hill
#
# Bulk Modulus (GPa) = 48.99391 50.64512 49.81952
# Shear Modulus (GPa) = 29.18572 31.27287 30.22929
#
# Velocity S-wave (km/s) = 3.83268 3.96736 3.90060
# Velocity P-wave (km/s) = 6.65170 6.81739 6.73505
#
# Compressibility (1/GPa) = 0.02041070
#
# Stress axis : x y z
#
# Youngs Moduli (GPa) = 84.23763 76.02884 66.24603
#
# Poissons Ratio (x) = 0.24284 0.13500
# Poissons Ratio (y) = 0.26906 0.30621
# Poissons Ratio (z) = 0.17166 0.35143
#
# Static dielectric constant tensor:
#      x y z
#    x 3.581620 0.000000 -0.121300 
#    y 0.000000 4.003140 0.000000 
#    z -0.121300 0.000000 3.670870 
# 
# 
# High freq. dielectric constant tensor:
#      x y z
#    x 1.781860 0.000000 -0.009000 
#    y 0.000000 1.774610 0.000000 
#    z -0.009000 0.000000 1.783570 
# 
# From -- ./inp_files/105934.got.cif
#   From: 2010.06.25/outbox.cif.g09.slc.cpg/sg12_53_cif.got.tgz:105934.got - 2010.06.28 00:19:55.
