data_PCOD8111065
_publ_section_title
;
Structure prediction by ZEFSAII (Michael W. Deem and Ramdas Pophale) SiO2 
 PCOD8111065
Probable space group: C 2/M
;
_chemical_formula_sum "Si O2"
_cell_formula_units_Z 64
_cell_length_a 9.101206
_cell_length_b 34.824753
_cell_length_c 14.116713
_cell_angle_alpha 90.000000
_cell_angle_beta 131.593341
_cell_angle_gamma 90.000000
_cell_volume 3346.183354
_symmetry_space_group_name_H-M "C 2/M"
_symmetry_group_IT_number 12
_symmetry_cell_setting 'monoclinic'
loop_
_space_group_symop_operation_xyz
x,y,z
-x,y,-z
-x,-y,-z
x,-y,z
1/2+x,1/2+y,z
1/2-x,1/2+y,-z
1/2-x,1/2-y,-z
1/2+x,1/2-y,z
loop_
_atom_site_type_symbol
_atom_site_label
_atom_site_fract_x
_atom_site_fract_y
_atom_site_fract_z
Si Si1 0.781698 0.211718 0.367352
Si Si2 0.165640 0.849208 0.142490
Si Si3 0.074055 0.287168 0.638732
Si Si4 0.649344 0.370339 0.650512
Si Si5 0.497790 0.404308 0.771580
Si Si6 0.146623 0.542604 0.647369
Si Si7 0.685094 0.958445 0.015784
Si Si8 0.457988 0.088229 0.216851
O O1 0.789880 0.248795 0.302260
O O2 0.619718 0.217836 0.379839
O O3 0.745806 0.171636 0.297284
O O4 0.000000 0.209221 0.500000
O O5 0.280446 0.818359 0.254916
O O6 0.050650 0.877519 0.161565
O O7 0.326618 0.873335 0.152861
O O8 0.000000 0.831360 0.000000
O O9 0.000000 0.297944 0.500000
O O10 0.500000 0.372814 0.500000
O O11 0.523860 0.377965 0.690660
O O12 0.817534 0.402125 0.711514
O O13 0.336696 0.436864 0.685679
O O14 0.695652 0.426192 0.879264
O O15 0.198804 0.500000 0.709954
O O16 0.046744 0.570105 0.681370
O O17 0.000000 0.537398 0.500000
O O18 0.627106 0.944100 0.887521
O O19 0.793683 0.000000 0.050249
O O20 0.500000 0.965868 0.000000
#
# Coordination Sequence:
#
# PCOD8111065 Si02
#       8
#     8   8   8   8   8   8   8   8
#     4  10  22  39  63  95 126 159 215 257 307 365
#     4  11  24  40  63  92 129 161 205 258 314 365
#     4  11  23  40  67  93 127 167 212 262 306 370
#     4  11  23  38  63  94 124 155 205 257 310 374
#     4  11  23  38  63  86 121 160 202 254 307 366
#     4  10  22  39  58  84 120 156 196 249 312 373
#     4  11  22  38  62  89 117 157 209 255 300 364
#     4  11  21  41  60  88 119 159 202 254 308 362
#
# _framework density 19.126268
#
# number of rings (size 3 to 8) (size 9 to 14) (size 15 to 20)
#    0.000    1.250    3.750    3.000    5.250    2.000 
#    0.000    2.500    2.750    3.000    0.000    0.000 
#    0.000    0.000    0.000    0.000    0.000    0.000 
#
# Total GULP energy -396648.745285 kJ/mol
# GULP energy per Si atom -12395.273290 kJ/mol
# Density = 1.908274 g / cm^3
# Si number density = 19.126268 Si / 1000 Ang^3
#
#
#
# Elastic Constant Matrix: (Units=GPa)
#
#
# Indices 1 2 3 4 5 6 
#
# 1 82.0338 29.8531 18.1085 0.0000 10.4484 0.0000
# 2 29.8531 114.7059 38.5860 0.0000 1.9485 0.0000
# 3 18.1085 38.5860 89.4774 0.0000 1.8231 0.0000
# 4 0.0000 0.0000 0.0000 38.1446 0.0000 -3.2068
# 5 10.4484 1.9485 1.8231 0.0000 21.4383 0.0000
# 6 0.0000 0.0000 0.0000 -3.2068 0.0000 32.6749
#
#
#
# Elastic Compliance Matrix: (Units=1/GPa)
#
#
# Indices 1 2 3 4 5 6 
#
# 1 0.014512 -0.003183 -0.001429 0.000000 -0.006662 0.000000
# 2 -0.003183 0.010902 -0.004076 0.000000 0.000907 0.000000
# 3 -0.001429 -0.004076 0.013224 0.000000 -0.000058 0.000000
# 4 0.000000 0.000000 0.000000 0.026434 0.000000 0.002594
# 5 -0.006662 0.000907 -0.000058 0.000000 0.049815 0.000000
# 6 0.000000 0.000000 0.000000 0.002594 0.000000 0.030859
#
#
# Mechanical properties :
#
#
# Convention : Reuss Voigt Hill
#
# Bulk Modulus (GPa) = 47.02908 51.03472 49.03190
# Shear Modulus (GPa) = 29.37563 31.76286 30.56925
#
# Velocity S-wave (km/s) = 3.92328 4.07958 4.00219
# Velocity P-wave (km/s) = 6.72049 6.99511 6.85918
#
# Compressibility (1/GPa) = 0.02126344
#
# Stress axis : x y z
#
# Youngs Moduli (GPa) = 68.90654 91.72631 75.62090
#
# Poissons Ratio (x) = 0.29199 0.10803
# Poissons Ratio (y) = 0.21935 0.30820
# Poissons Ratio (z) = 0.09844 0.37384
#
# Static dielectric constant tensor:
#      x y z
#    x 3.818440 0.000000 0.070450 
#    y 0.000000 4.053090 0.000000 
#    z 0.070450 0.000000 3.374390 
# 
# 
# High freq. dielectric constant tensor:
#      x y z
#    x 1.754630 0.000000 0.004860 
#    y 0.000000 1.757040 0.000000 
#    z 0.004860 0.000000 1.730370 
# 
# From -- ./inp_files/201333.got.cif
#   From: 2010.06.25/outbox.cif.g09.slc.cpg/sg12_101_cif.got.tgz:201333.got - 2010.06.28 00:19:55.
