data_PCOD8111466
_publ_section_title
;
Structure prediction by ZEFSAII (Michael W. Deem and Ramdas Pophale) SiO2 
 PCOD8111466
Probable space group: C 2/M
;
_chemical_formula_sum "Si O2"
_cell_formula_units_Z 64
_cell_length_a 27.451078
_cell_length_b 18.334377
_cell_length_c 6.448294
_cell_angle_alpha 90.000000
_cell_angle_beta 76.414194
_cell_angle_gamma 90.000000
_cell_volume 3154.606872
_symmetry_space_group_name_H-M "C 2/M"
_symmetry_group_IT_number 12
_symmetry_cell_setting 'monoclinic'
loop_
_space_group_symop_operation_xyz
x,y,z
-x,y,-z
-x,-y,-z
x,-y,z
1/2+x,1/2+y,z
1/2-x,1/2+y,-z
1/2-x,1/2-y,-z
1/2+x,1/2-y,z
loop_
_atom_site_type_symbol
_atom_site_label
_atom_site_fract_x
_atom_site_fract_y
_atom_site_fract_z
Si Si1 0.044097 0.824054 0.311859
Si Si2 0.104857 0.584995 0.345389
Si Si3 0.633300 0.674795 0.527021
Si Si4 0.455903 0.175946 0.900053
Si Si5 0.895143 0.084995 0.055104
Si Si6 0.193347 0.416353 0.949808
Si Si7 0.193347 0.083647 0.163497
Si Si8 0.633300 0.825205 0.706380
O O1 0.092473 0.803339 0.397425
O O2 0.024254 0.750000 0.225746
O O3 0.000000 0.856403 0.500000
O O4 0.058652 0.884756 0.127352
O O5 0.095387 0.500000 0.391944
O O6 0.058652 0.615244 0.255345
O O7 0.106080 0.625012 0.563466
O O8 0.157775 0.600465 0.179859
O O9 0.606080 0.625011 0.724373
O O10 0.679021 0.631484 0.377421
O O11 0.655381 0.750000 0.594619
O O12 0.500000 0.143597 0.000000
O O13 0.407527 0.196660 0.082371
O O14 0.904613 0.000000 0.082719
O O15 0.842225 0.100465 0.995409
O O16 0.187593 0.500000 0.885936
O O17 0.250000 0.397962 0.961137
O O18 0.179021 0.368516 0.764536
O O19 0.187593 0.000000 0.238878
#
# Coordination Sequence:
#
# PCOD8111466 Si02
#       8
#     8   8   8   8   8   8   8   8
#     4  11  23  39  63  88 117 158 199 240 292 356
#     4  10  22  40  61  88 121 156 196 247 296 344
#     4  11  21  37  60  87 119 157 199 242 295 349
#     4  11  23  39  63  88 117 158 199 240 292 356
#     4  10  22  40  61  88 121 156 196 247 296 344
#     4   9  20  38  59  85 119 158 199 243 294 352
#     4   9  20  38  59  85 119 158 199 243 294 352
#     4  11  21  37  60  87 119 157 199 242 295 349
#
# _framework density 20.287790000000001
#
# number of rings (size 3 to 8) (size 9 to 14) (size 15 to 20)
#    0.000    1.750    2.500    1.500    0.000    3.000 
#    0.000    5.000    0.000    0.000    0.000    0.000 
#    0.000    0.000    0.000    0.000    0.000    0.000 
#
# Total GULP energy -396954.020829 kJ/mol
# GULP energy per Si atom -12404.813151 kJ/mol
# Density = 2.024161 g / cm^3
# Si number density = 20.287790 Si / 1000 Ang^3
#
#
#
# Elastic Constant Matrix: (Units=GPa)
#
#
# Indices 1 2 3 4 5 6 
#
# 1 61.5472 7.0622 4.1792 0.0000 -5.8955 0.0000
# 2 7.0622 99.0516 26.8481 0.0000 5.9000 0.0000
# 3 4.1792 26.8481 67.5017 0.0000 7.6711 0.0000
# 4 0.0000 0.0000 0.0000 32.7682 0.0000 1.4747
# 5 -5.8955 5.9000 7.6711 0.0000 22.8440 0.0000
# 6 0.0000 0.0000 0.0000 1.4747 0.0000 27.8229
#
#
#
# Elastic Compliance Matrix: (Units=1/GPa)
#
#
# Indices 1 2 3 4 5 6 
#
# 1 0.016949 -0.001199 -0.001149 0.000000 0.005070 0.000000
# 2 -0.001199 0.011448 -0.004271 0.000000 -0.001832 0.000000
# 3 -0.001149 -0.004271 0.017147 0.000000 -0.004951 0.000000
# 4 0.000000 0.000000 0.000000 0.030590 0.000000 -0.001621
# 5 0.005070 -0.001832 -0.004951 0.000000 0.047219 0.000000
# 6 0.000000 0.000000 0.000000 -0.001621 0.000000 0.036028
#
#
# Mechanical properties :
#
#
# Convention : Reuss Voigt Hill
#
# Bulk Modulus (GPa) = 30.95324 33.80883 32.38103
# Shear Modulus (GPa) = 27.26472 29.35440 28.30956
#
# Velocity S-wave (km/s) = 3.66990 3.80794 3.73956
# Velocity P-wave (km/s) = 5.76609 6.00289 5.88568
#
# Compressibility (1/GPa) = 0.03230680
#
# Stress axis : x y z
#
# Youngs Moduli (GPa) = 59.00093 87.35155 58.31940
#
# Poissons Ratio (x) = 0.10474 0.06698
# Poissons Ratio (y) = 0.07075 0.24908
# Poissons Ratio (z) = 0.06777 0.37307
#
# Static dielectric constant tensor:
#      x y z
#    x 3.559800 0.000000 0.045510 
#    y 0.000000 3.681390 0.000000 
#    z 0.045510 0.000000 3.712420 
# 
# 
# High freq. dielectric constant tensor:
#      x y z
#    x 1.781990 0.000000 0.004730 
#    y 0.000000 1.796060 0.000000 
#    z 0.004730 0.000000 1.797840 
# 
# From -- ./inp_files/29883.got.cif
#   From: 2010.06.25/outbox.cif.g09.slc.cpg/sg12_15_cif.got.tgz:29883.got - 2010.06.28 00:19:55.
