data_PCOD8111545
_publ_section_title
;
Structure prediction by ZEFSAII (Michael W. Deem and Ramdas Pophale) SiO2 
 PCOD8111545
Probable space group: C 2/M
;
_chemical_formula_sum "Si O2"
_cell_formula_units_Z 48
_cell_length_a 28.257433
_cell_length_b 13.664924
_cell_length_c 11.998915
_cell_angle_alpha 90.000000
_cell_angle_beta 151.804114
_cell_angle_gamma 90.000000
_cell_volume 2189.133325
_symmetry_space_group_name_H-M "C 2/M"
_symmetry_group_IT_number 12
_symmetry_cell_setting 'monoclinic'
loop_
_space_group_symop_operation_xyz
x,y,z
-x,y,-z
-x,-y,-z
x,-y,z
1/2+x,1/2+y,z
1/2-x,1/2+y,-z
1/2-x,1/2-y,-z
1/2+x,1/2-y,z
loop_
_atom_site_type_symbol
_atom_site_label
_atom_site_fract_x
_atom_site_fract_y
_atom_site_fract_z
Si Si1 0.619940 0.308459 0.746859
Si Si2 0.889961 0.390595 0.595425
Si Si3 0.320314 0.611040 0.356486
Si Si4 0.900051 0.395378 0.362243
Si Si5 0.309901 0.294109 0.868013
Si Si6 0.491409 0.701576 0.859291
O O1 0.500000 0.301321 0.500000
O O2 0.653522 0.382435 0.720359
O O3 0.664761 0.198529 0.811566
O O4 0.659781 0.340912 0.949853
O O5 0.907024 0.500000 0.677918
O O6 0.930349 0.379574 0.553259
O O7 0.772315 0.365909 0.354681
O O8 0.950502 0.311949 0.792975
O O9 0.287096 0.500000 0.313561
O O10 0.229746 0.682945 0.201318
O O11 0.418197 0.637396 0.631307
O O12 0.841938 0.500000 0.226994
O O13 0.000000 0.400463 0.500000
O O14 0.400795 0.293880 0.972354
O O15 0.500000 0.653937 0.000000
#
# Coordination Sequence:
#
# PCOD8111545 Si02
#       6
#     8   8   8   8   8   8
#     4  11  19  39  64  91 133 173 206 254 315 384
#     4  10  22  40  62  94 126 160 210 260 315 378
#     4  11  25  42  63  97 132 168 213 258 315 383
#     4   9  16  29  54  86 122 161 198 242 300 365
#     4  11  23  42  64  95 129 169 208 261 318 375
#     4  11  24  46  69  89 123 169 216 267 321 374
#
# _framework density 21.926485
#
# number of rings (size 3 to 8) (size 9 to 14) (size 15 to 20)
#    0.000    1.500    5.000    1.500    0.000    6.333 
#    0.000    1.667    0.000    0.000    0.000    0.000 
#    0.000    0.000    0.000    0.000    0.000    0.000 
#
# Total GULP energy -297565.099561 kJ/mol
# GULP energy per Si atom -12398.545815 kJ/mol
# Density = 2.187658 g / cm^3
# Si number density = 21.926485 Si / 1000 Ang^3
#
#
#
# Elastic Constant Matrix: (Units=GPa)
#
#
# Indices 1 2 3 4 5 6 
#
# 1 120.3669 12.8609 58.6849 0.0000 -1.3943 0.0000
# 2 12.8609 87.3242 0.0947 0.0000 -5.5941 0.0000
# 3 58.6849 0.0947 76.5432 0.0000 0.0249 0.0000
# 4 0.0000 0.0000 0.0000 6.8068 0.0000 -2.5102
# 5 -1.3943 -5.5941 0.0249 0.0000 21.9665 0.0000
# 6 0.0000 0.0000 0.0000 -2.5102 0.0000 17.6716
#
#
#
# Elastic Compliance Matrix: (Units=1/GPa)
#
#
# Indices 1 2 3 4 5 6 
#
# 1 0.013608 -0.001969 -0.010431 0.000000 0.000374 0.000000
# 2 -0.001969 0.011926 0.001494 0.000000 0.002911 0.000000
# 3 -0.010431 0.001494 0.021060 0.000000 -0.000306 0.000000
# 4 0.000000 0.000000 0.000000 0.155034 0.000000 0.022022
# 5 0.000374 0.002911 -0.000306 0.000000 0.046289 0.000000
# 6 0.000000 0.000000 0.000000 0.022022 0.000000 0.059716
#
#
# Mechanical properties :
#
#
# Convention : Reuss Voigt Hill
#
# Bulk Modulus (GPa) = 40.35087 47.50172 43.92629
# Shear Modulus (GPa) = 14.80573 23.46189 19.13381
#
# Velocity S-wave (km/s) = 2.60137 3.27467 2.95724
# Velocity P-wave (km/s) = 5.24076 6.00076 5.63359
#
# Compressibility (1/GPa) = 0.02478261
#
# Stress axis : x y z
#
# Youngs Moduli (GPa) = 73.48464 83.84766 47.48306
#
# Poissons Ratio (x) = 0.16509 0.49530
# Poissons Ratio (y) = 0.14468 -0.07093
# Poissons Ratio (z) = 0.76652 -0.12525
#
# Static dielectric constant tensor:
#      x y z
#    x 3.803510 0.000000 0.041550 
#    y 0.000000 4.328050 0.000000 
#    z 0.041550 0.000000 3.847120 
# 
# 
# High freq. dielectric constant tensor:
#      x y z
#    x 1.852380 0.000000 0.009100 
#    y 0.000000 1.857750 0.000000 
#    z 0.009100 0.000000 1.860100 
# 
# From -- ./inp_files/183891.got.cif
#   From: 2010.06.25/outbox.cif.g09.slc.cpg/sg12_92_cif.got.tgz:183891.got - 2010.06.28 00:19:55.
