data_PCOD8111916
_publ_section_title
;
Structure prediction by ZEFSAII (Michael W. Deem and Ramdas Pophale) SiO2 
 PCOD8111916
Probable space group: C 2/M
;
_chemical_formula_sum "Si O2"
_cell_formula_units_Z 56
_cell_length_a 13.313655
_cell_length_b 13.742464
_cell_length_c 14.280065
_cell_angle_alpha 90.000000
_cell_angle_beta 87.222366
_cell_angle_gamma 90.000000
_cell_volume 2609.645715
_symmetry_space_group_name_H-M "C 2/M"
_symmetry_group_IT_number 12
_symmetry_cell_setting 'monoclinic'
loop_
_space_group_symop_operation_xyz
x,y,z
-x,y,-z
-x,-y,-z
x,-y,z
1/2+x,1/2+y,z
1/2-x,1/2+y,-z
1/2-x,1/2-y,-z
1/2+x,1/2-y,z
loop_
_atom_site_type_symbol
_atom_site_label
_atom_site_fract_x
_atom_site_fract_y
_atom_site_fract_z
Si Si1 0.297756 0.385828 0.446366
Si Si2 0.402899 0.612880 0.051684
Si Si3 0.401531 0.770975 0.558293
Si Si4 0.692113 0.614195 0.761628
Si Si5 0.272745 0.387724 0.885764
Si Si6 0.109716 0.726758 0.226903
Si Si7 0.540055 0.887778 0.893795
O O1 0.303602 0.500000 0.465184
O O2 0.364837 0.333021 0.520592
O O3 0.182019 0.352983 0.457028
O O4 0.341532 0.356383 0.341614
O O5 0.428163 0.500000 0.062391
O O6 0.383351 0.658141 0.156040
O O7 0.500000 0.665018 0.000000
O O8 0.304929 0.629987 0.992115
O O9 0.500000 0.807379 0.500000
O O10 0.427118 0.755362 0.665701
O O11 0.694697 0.500000 0.772785
O O12 0.804044 0.646753 0.779076
O O13 0.287962 0.500000 0.856947
O O14 0.345972 0.327679 0.814573
O O15 0.156934 0.356266 0.883273
O O16 0.017360 0.684720 0.172397
O O17 0.526888 0.000000 0.862556
O O18 0.500000 0.873780 0.000000
#
# Coordination Sequence:
#
# PCOD8111916 Si02
#       7
#     8   8   8   8   8   8   8
#     4   9  20  40  64  88 116 153 196 246 305 361
#     4   9  18  33  54  83 121 160 196 238 288 346
#     4  10  23  41  60  88 121 152 197 253 304 362
#     4   9  18  35  59  86 117 154 199 248 298 358
#     4  10  23  40  57  86 127 165 202 245 293 350
#     4  11  23  38  61  87 118 159 203 246 302 361
#     4  10  22  41  64  91 124 161 203 249 294 347
#
# _framework density 21.458850999999999
#
# number of rings (size 3 to 8) (size 9 to 14) (size 15 to 20)
#    0.000    2.286    0.000    1.286    0.000   12.571 
#    0.000    2.857    0.000    0.857    0.000    0.000 
#    0.000    0.000    0.000    0.000    0.000    0.000 
#
# Total GULP energy -347170.646641 kJ/mol
# GULP energy per Si atom -12398.951666 kJ/mol
# Density = 2.141001 g / cm^3
# Si number density = 21.458851 Si / 1000 Ang^3
#
#
#
# Elastic Constant Matrix: (Units=GPa)
#
#
# Indices 1 2 3 4 5 6 
#
# 1 130.9146 52.4156 82.2129 0.0000 -8.0672 0.0000
# 2 52.4156 57.7067 54.2390 0.0000 8.2841 0.0000
# 3 82.2129 54.2390 177.5335 0.0000 -16.4580 0.0000
# 4 0.0000 0.0000 0.0000 18.4172 0.0000 2.7262
# 5 -8.0672 8.2841 -16.4580 0.0000 38.9482 0.0000
# 6 0.0000 0.0000 0.0000 2.7262 0.0000 27.3470
#
#
#
# Elastic Compliance Matrix: (Units=1/GPa)
#
#
# Indices 1 2 3 4 5 6 
#
# 1 0.013864 -0.010458 -0.002865 0.000000 0.003885 0.000000
# 2 -0.010458 0.035361 -0.007138 0.000000 -0.012703 0.000000
# 3 -0.002865 -0.007138 0.009602 0.000000 0.004982 0.000000
# 4 0.000000 0.000000 0.000000 0.055110 0.000000 -0.005494
# 5 0.003885 -0.012703 0.004982 0.000000 0.031287 0.000000
# 6 0.000000 0.000000 0.000000 -0.005494 0.000000 0.037115
#
#
# Mechanical properties :
#
#
# Convention : Reuss Voigt Hill
#
# Bulk Modulus (GPa) = 55.84967 82.65442 69.25205
# Shear Modulus (GPa) = 21.81215 28.76164 25.28689
#
# Velocity S-wave (km/s) = 3.19166 3.66500 3.43649
# Velocity P-wave (km/s) = 6.29803 7.51737 6.93455
#
# Compressibility (1/GPa) = 0.01790521
#
# Stress axis : x y z
#
# Youngs Moduli (GPa) = 72.12694 28.27993 104.14335
#
# Poissons Ratio (x) = 0.29575 0.29839
# Poissons Ratio (y) = 0.75430 0.74337
# Poissons Ratio (z) = 0.20665 0.20186
#
# Static dielectric constant tensor:
#      x y z
#    x 3.938130 0.000000 -0.173850 
#    y 0.000000 3.815790 0.000000 
#    z -0.173850 0.000000 4.224460 
# 
# 
# High freq. dielectric constant tensor:
#      x y z
#    x 1.844740 0.000000 -0.002930 
#    y 0.000000 1.845420 0.000000 
#    z -0.002930 0.000000 1.843210 
# 
# From -- ./inp_files/205039.got.cif
#   From: 2010.06.25/outbox.cif.g09.slc.cpg/sg12_103_cif.got.tgz:205039.got - 2010.06.28 00:19:55.
