data_PCOD8111606
_publ_section_title
;
Structure prediction by ZEFSAII (Michael W. Deem and Ramdas Pophale) SiO2 
 PCOD8111606
Probable space group: C 2/M
;
_chemical_formula_sum "Si O2"
_cell_formula_units_Z 40
_cell_length_a 19.840087
_cell_length_b 18.876386
_cell_length_c 5.155870
_cell_angle_alpha 90.000000
_cell_angle_beta 106.659532
_cell_angle_gamma 90.000000
_cell_volume 1849.870479
_symmetry_space_group_name_H-M "C 2/M"
_symmetry_group_IT_number 12
_symmetry_cell_setting 'monoclinic'
loop_
_space_group_symop_operation_xyz
x,y,z
-x,y,-z
-x,-y,-z
x,-y,z
1/2+x,1/2+y,z
1/2-x,1/2+y,-z
1/2-x,1/2-y,-z
1/2+x,1/2-y,z
loop_
_atom_site_type_symbol
_atom_site_label
_atom_site_fract_x
_atom_site_fract_y
_atom_site_fract_z
Si Si1 0.797966 0.356869 0.873919
Si Si2 0.573069 0.920060 0.222352
Si Si3 0.641300 0.639014 0.584295
Si Si4 0.923641 0.917413 0.985565
Si Si5 0.147323 0.700161 0.553830
O O1 0.859560 0.415853 0.899856
O O2 0.719745 0.385860 0.747370
O O3 0.809536 0.295611 0.669041
O O4 0.800949 0.324948 0.162704
O O5 0.584182 0.858844 0.454636
O O6 0.570863 0.000000 0.338080
O O7 0.500000 0.902912 0.000000
O O8 0.590957 0.598987 0.729987
O O9 0.621470 0.721738 0.595341
O O10 0.630791 0.617752 0.274338
O O11 0.920134 0.000000 0.933033
O O12 0.000000 0.886716 0.000000
#
# Coordination Sequence:
#
# PCOD8111606 Si02
#       5
#     8   8   8   8   8
#     4  10  22  40  63  97 130 170 217 270 325 381
#     4   9  22  42  62  90 135 178 216 267 324 383
#     4  12  22  42  71  97 129 170 221 271 324 394
#     4  11  26  46  65  95 136 171 208 268 339 394
#     4  10  22  40  65  94 132 167 219 270 329 378
#
# _framework density 21.623135000000001
#
# number of rings (size 3 to 8) (size 9 to 14) (size 15 to 20)
#    1.200    0.400    0.000    4.800    0.000    5.600 
#    3.600    2.000    0.000    0.000    0.000    0.000 
#    0.000    0.000    0.000    0.000    0.000    0.000 
#
# Total GULP energy -247831.678794 kJ/mol
# GULP energy per Si atom -12391.583940 kJ/mol
# Density = 2.157392 g / cm^3
# Si number density = 21.623135 Si / 1000 Ang^3
#
#
#
# Elastic Constant Matrix: (Units=GPa)
#
#
# Indices 1 2 3 4 5 6 
#
# 1 100.8855 33.7665 22.2514 0.0000 14.1689 0.0000
# 2 33.7665 78.6630 21.8267 0.0000 22.4129 0.0000
# 3 22.2514 21.8267 114.7433 0.0000 7.9905 0.0000
# 4 0.0000 0.0000 0.0000 -50.3473 0.0000 -36.0143
# 5 14.1689 22.4129 7.9905 0.0000 33.6873 0.0000
# 6 0.0000 0.0000 0.0000 -36.0143 0.0000 4.5037
#
#
#
# Elastic Compliance Matrix: (Units=1/GPa)
#
#
# Indices 1 2 3 4 5 6 
#
# 1 0.011880 -0.004179 -0.001377 0.000000 -0.001890 0.000000
# 2 -0.004179 0.017774 -0.001901 0.000000 -0.009617 0.000000
# 3 -0.001377 -0.001901 0.009370 0.000000 -0.000379 0.000000
# 4 0.000000 0.000000 0.000000 -0.002956 0.000000 -0.023635
# 5 -0.001890 -0.009617 -0.000379 0.000000 0.036968 0.000000
# 6 0.000000 0.000000 0.000000 -0.023635 0.000000 0.033041
#
#
# Mechanical properties :
#
#
# Convention : Reuss Voigt Hill
#
# Bulk Modulus (GPa) = 41.47707 49.99786 45.73746
# Shear Modulus (GPa) = 38.75123 11.99855 25.37489
#
# Velocity S-wave (km/s) = 4.23794 2.35817 3.42936
# Velocity P-wave (km/s) = 6.57041 5.53057 6.07279
#
# Compressibility (1/GPa) = 0.02410971
#
# Stress axis : x y z
#
# Youngs Moduli (GPa) = 84.17416 56.26264 106.72195
#
# Poissons Ratio (x) = 0.23512 0.14699
# Poissons Ratio (y) = 0.35177 0.20286
# Poissons Ratio (z) = 0.11593 0.10695
#
# Static dielectric constant tensor:
#      x y z
#    x 3.782450 0.000000 0.093800 
#    y 0.000000 3.743530 0.000000 
#    z 0.093800 0.000000 3.884450 
# 
# 
# High freq. dielectric constant tensor:
#      x y z
#    x 1.842660 0.000000 0.007650 
#    y 0.000000 1.838890 0.000000 
#    z 0.007650 0.000000 1.859320 
# 
# From -- ./inp_files/24389.got.cif
#   From: 2010.06.25/outbox.cif.g09.slc.cpg/sg12_13_cif.got.tgz:24389.got - 2010.06.28 00:19:55.
