data_PCOD8111057
_publ_section_title
;
Structure prediction by ZEFSAII (Michael W. Deem and Ramdas Pophale) SiO2 
 PCOD8111057
Probable space group: C 2/M
;
_chemical_formula_sum "Si O2"
_cell_formula_units_Z 64
_cell_length_a 11.931839
_cell_length_b 14.879628
_cell_length_c 18.286923
_cell_angle_alpha 90.000000
_cell_angle_beta 100.185697
_cell_angle_gamma 90.000000
_cell_volume 3195.516101
_symmetry_space_group_name_H-M "C 2/M"
_symmetry_group_IT_number 12
_symmetry_cell_setting 'monoclinic'
loop_
_space_group_symop_operation_xyz
x,y,z
-x,y,-z
-x,-y,-z
x,-y,z
1/2+x,1/2+y,z
1/2-x,1/2+y,-z
1/2-x,1/2-y,-z
1/2+x,1/2-y,z
loop_
_atom_site_type_symbol
_atom_site_label
_atom_site_fract_x
_atom_site_fract_y
_atom_site_fract_z
Si Si1 0.226798 0.400937 0.416865
Si Si2 0.927376 0.813171 0.691245
Si Si3 0.848038 0.896946 0.289858
Si Si4 0.772288 0.604017 0.422081
Si Si5 0.807295 0.265264 0.813754
Si Si6 0.021951 0.639721 0.651092
Si Si7 0.150506 0.600590 0.815638
Si Si8 0.460707 0.102259 0.913730
O O1 0.273197 0.500000 0.436762
O O2 0.310051 0.358069 0.365441
O O3 0.234234 0.352767 0.497029
O O4 0.099234 0.408440 0.370735
O O5 0.810111 0.841571 0.640829
O O6 0.899903 0.761609 0.763220
O O7 0.015656 0.895758 0.709043
O O8 0.998192 0.745837 0.647901
O O9 0.790671 0.831479 0.225295
O O10 0.805713 0.000000 0.275815
O O11 0.737059 0.500000 0.416642
O O12 0.900904 0.614718 0.409138
O O13 0.751740 0.172772 0.835712
O O14 0.867889 0.321329 0.884898
O O15 0.083185 0.608855 0.732074
O O16 0.203922 0.500000 0.824656
O O17 0.067313 0.615741 0.873348
O O18 0.412100 0.000000 0.899631
O O19 0.500000 0.120481 0.000000
#
# Coordination Sequence:
#
# PCOD8111057 Si02
#       8
#     8   8   8   8   8   8   8   8
#     4  10  22  39  58  81 113 157 209 265 318 370
#     4  12  23  38  56  87 120 154 202 260 302 365
#     4  11  22  39  60  86 119 161 205 255 313 367
#     4  11  24  41  58  81 114 160 210 258 316 370
#     4  12  21  41  63  92 122 160 206 246 293 360
#     4  12  21  38  60  85 116 150 208 261 302 359
#     4  11  22  38  64  92 121 160 202 247 298 354
#     4  10  22  41  66  98 130 158 192 240 296 354
#
# _framework density 20.028063
#
# number of rings (size 3 to 8) (size 9 to 14) (size 15 to 20)
#    0.000    0.875    5.000    2.250    0.000    5.000 
#    2.250    1.875    0.000    0.375    0.000    0.000 
#    0.000    0.000    0.000    0.000    0.000    0.000 
#
# Total GULP energy -396697.797373 kJ/mol
# GULP energy per Si atom -12396.806168 kJ/mol
# Density = 1.998248 g / cm^3
# Si number density = 20.028063 Si / 1000 Ang^3
#
#
#
# Elastic Constant Matrix: (Units=GPa)
#
#
# Indices 1 2 3 4 5 6 
#
# 1 95.0089 35.0081 27.7731 0.0000 3.1293 0.0000
# 2 35.0081 113.4280 31.4720 0.0000 5.1303 0.0000
# 3 27.7731 31.4720 84.2099 0.0000 8.7467 0.0000
# 4 0.0000 0.0000 0.0000 36.9827 0.0000 7.0175
# 5 3.1293 5.1303 8.7467 0.0000 17.4526 0.0000
# 6 0.0000 0.0000 0.0000 7.0175 0.0000 42.2904
#
#
#
# Elastic Compliance Matrix: (Units=1/GPa)
#
#
# Indices 1 2 3 4 5 6 
#
# 1 0.012519 -0.003036 -0.003011 0.000000 0.000156 0.000000
# 2 -0.003036 0.010592 -0.002838 0.000000 -0.001147 0.000000
# 3 -0.003011 -0.002838 0.014543 0.000000 -0.005914 0.000000
# 4 0.000000 0.000000 0.000000 0.027919 0.000000 -0.004633
# 5 0.000156 -0.001147 -0.005914 0.000000 0.060571 0.000000
# 6 0.000000 0.000000 0.000000 -0.004633 0.000000 0.024415
#
#
# Mechanical properties :
#
#
# Convention : Reuss Voigt Hill
#
# Bulk Modulus (GPa) = 50.28859 53.46148 51.87503
# Shear Modulus (GPa) = 28.57848 32.57135 30.57492
#
# Velocity S-wave (km/s) = 3.78156 4.03710 3.91142
# Velocity P-wave (km/s) = 6.65060 6.96291 6.80855
#
# Compressibility (1/GPa) = 0.01988523
#
# Stress axis : x y z
#
# Youngs Moduli (GPa) = 79.88029 94.40653 68.76088
#
# Poissons Ratio (x) = 0.28657 0.20701
# Poissons Ratio (y) = 0.24248 0.19518
# Poissons Ratio (z) = 0.24048 0.26797
#
# Static dielectric constant tensor:
#      x y z
#    x 3.599200 0.000000 -0.160960 
#    y 0.000000 3.849730 0.000000 
#    z -0.160960 0.000000 3.628730 
# 
# 
# High freq. dielectric constant tensor:
#      x y z
#    x 1.777860 0.000000 -0.011470 
#    y 0.000000 1.795830 0.000000 
#    z -0.011470 0.000000 1.761910 
# 
# From -- ./inp_files/263349.got.cif
#   From: 2010.06.25/outbox.cif.g09.slc.cpg/sg12_132_cif.got.tgz:263349.got - 2010.06.28 00:19:55.
