data_PCOD8111283
_publ_section_title
;
Structure prediction by ZEFSAII (Michael W. Deem and Ramdas Pophale) SiO2 
 PCOD8111283
Probable space group: C 2/M
;
_chemical_formula_sum "Si O2"
_cell_formula_units_Z 64
_cell_length_a 31.133267
_cell_length_b 8.660350
_cell_length_c 19.575310
_cell_angle_alpha 90.000000
_cell_angle_beta 37.710255
_cell_angle_gamma 90.000000
_cell_volume 3228.382675
_symmetry_space_group_name_H-M "C 2/M"
_symmetry_group_IT_number 12
_symmetry_cell_setting 'monoclinic'
loop_
_space_group_symop_operation_xyz
x,y,z
-x,y,-z
-x,-y,-z
x,-y,z
1/2+x,1/2+y,z
1/2-x,1/2+y,-z
1/2-x,1/2-y,-z
1/2+x,1/2-y,z
loop_
_atom_site_type_symbol
_atom_site_label
_atom_site_fract_x
_atom_site_fract_y
_atom_site_fract_z
Si Si1 0.563341 0.682287 0.872708
Si Si2 0.196738 0.322513 0.015163
Si Si3 0.208770 0.677211 0.737548
Si Si4 0.059297 0.320036 0.727748
Si Si5 0.937069 0.183828 0.627746
Si Si6 0.712821 0.676344 0.231379
Si Si7 0.800746 0.175949 0.489923
Si Si8 0.446389 0.319260 0.772212
O O1 0.562058 0.500000 0.872856
O O2 0.637706 0.733695 0.809757
O O3 0.552377 0.739417 0.809590
O O4 0.500000 0.745930 0.000000
O O5 0.178660 0.500000 0.056655
O O6 0.129848 0.212769 0.101703
O O7 0.250000 0.250000 0.000000
O O8 0.230597 0.310936 0.898849
O O9 0.187474 0.500000 0.778511
O O10 0.248988 0.754190 0.751550
O O11 0.265585 0.689852 0.607055
O O12 0.061733 0.500000 0.739745
O O13 0.127629 0.269605 0.600311
O O14 0.996345 0.279944 0.756977
O O15 0.862366 0.252908 0.694710
O O16 0.951209 0.239117 0.687557
O O17 0.000000 0.243824 0.500000
O O18 0.932803 0.000000 0.633147
O O19 0.696196 0.500000 0.271502
O O20 0.750000 0.250000 0.500000
O O21 0.816389 0.000000 0.449827
O O22 0.464663 0.500000 0.754854
#
# Coordination Sequence:
#
# PCOD8111283 Si02
#       8
#     8   8   8   8   8   8   8   8
#     4  11  25  44  64  90 125 161 203 259 315 368
#     4  11  21  38  62  89 122 162 206 256 307 364
#     4  10  22  39  64  93 122 161 207 252 305 370
#     4  12  26  43  64  91 124 167 211 254 310 377
#     4   9  18  34  60  89 120 159 202 249 300 360
#     4   9  19  36  58  89 120 156 206 249 292 359
#     4  11  22  39  65  94 123 160 205 259 312 365
#     4  11  23  40  63  92 123 159 207 261 314 369
#
# _framework density 19.824166999999999
#
# number of rings (size 3 to 8) (size 9 to 14) (size 15 to 20)
#    0.000    1.500    2.500    2.625    3.500    1.500 
#    0.000    0.625    0.000    1.500    0.000    0.000 
#    0.000    0.000    0.000    0.000    0.000    0.000 
#
# Total GULP energy -396785.628674 kJ/mol
# GULP energy per Si atom -12399.550896 kJ/mol
# Density = 1.977905 g / cm^3
# Si number density = 19.824167 Si / 1000 Ang^3
#
#
#
# Elastic Constant Matrix: (Units=GPa)
#
#
# Indices 1 2 3 4 5 6 
#
# 1 160.3143 23.5266 58.8605 -0.0035 4.2332 0.0018
# 2 23.5266 53.1222 27.2093 0.0050 5.1119 0.0074
# 3 58.8605 27.2093 117.0353 0.0053 -7.8019 -0.0087
# 4 -0.0035 0.0050 0.0053 28.3059 0.0018 -5.9549
# 5 4.2332 5.1119 -7.8019 0.0018 35.5668 -0.0033
# 6 0.0018 0.0074 -0.0087 -5.9549 -0.0033 30.0681
#
#
#
# Elastic Compliance Matrix: (Units=1/GPa)
#
#
# Indices 1 2 3 4 5 6 
#
# 1 0.007854 -0.001423 -0.003722 0.000002 -0.001547 -0.000001
# 2 -0.001423 0.022271 -0.004733 -0.000005 -0.004070 -0.000008
# 3 -0.003722 -0.004733 0.011764 -0.000001 0.003704 0.000005
# 4 0.000002 -0.000005 -0.000001 0.036864 -0.000001 0.007301
# 5 -0.001547 -0.004070 0.003704 -0.000001 0.029698 0.000005
# 6 -0.000001 -0.000008 0.000005 0.007301 0.000005 0.034704
#
#
# Mechanical properties :
#
#
# Convention : Reuss Voigt Hill
#
# Bulk Modulus (GPa) = 45.18462 61.07385 53.12923
# Shear Modulus (GPa) = 29.36191 33.51320 31.43755
#
# Velocity S-wave (km/s) = 3.85270 4.11606 3.98656
# Velocity P-wave (km/s) = 6.52942 7.31190 6.93171
#
# Compressibility (1/GPa) = 0.02213142
#
# Stress axis : x y z
#
# Youngs Moduli (GPa) = 127.32193 44.90194 85.00612
#
# Poissons Ratio (x) = 0.06389 0.31642
# Poissons Ratio (y) = 0.18117 0.40236
# Poissons Ratio (z) = 0.47394 0.21254
#
# Static dielectric constant tensor:
#      x y z
#    x 3.755770 -0.000040 0.006000 
#    y -0.000040 3.544080 0.000060 
#    z 0.006000 0.000060 3.720270 
# 
# 
# High freq. dielectric constant tensor:
#      x y z
#    x 1.790760 0.000000 -0.001100 
#    y 0.000000 1.752220 0.000000 
#    z -0.001100 0.000000 1.786700 
# 
# From -- ./inp_files/295614.got.cif
#   From: 2010.06.25/outbox.cif.g09.slc.cpg/sg12_148_cif.got.tgz:295614.got - 2010.06.28 00:19:55.
