data_PCOD8111759
_publ_section_title
;
Structure prediction by ZEFSAII (Michael W. Deem and Ramdas Pophale) SiO2 
 PCOD8111759
Probable space group: C 2/M
;
_chemical_formula_sum "Si O2"
_cell_formula_units_Z 44
_cell_length_a 26.229018
_cell_length_b 13.050707
_cell_length_c 7.562349
_cell_angle_alpha 90.000000
_cell_angle_beta 51.347557
_cell_angle_gamma 90.000000
_cell_volume 2021.601350
_symmetry_space_group_name_H-M "C 2/M"
_symmetry_group_IT_number 12
_symmetry_cell_setting 'monoclinic'
loop_
_space_group_symop_operation_xyz
x,y,z
-x,y,-z
-x,-y,-z
x,-y,z
1/2+x,1/2+y,z
1/2-x,1/2+y,-z
1/2-x,1/2-y,-z
1/2+x,1/2-y,z
loop_
_atom_site_type_symbol
_atom_site_label
_atom_site_fract_x
_atom_site_fract_y
_atom_site_fract_z
Si Si1 0.317855 0.500000 0.082878
Si Si2 0.594303 0.718622 0.650143
Si Si3 0.000110 0.613472 0.292802
Si Si4 0.257689 0.000000 0.418525
Si Si5 0.862178 0.666285 0.112020
Si Si6 0.820623 0.207264 0.878768
Si Si7 0.388903 0.500000 0.274242
O O1 0.252101 0.500000 0.346786
O O2 0.381501 0.500000 0.075341
O O3 0.317177 0.592279 0.949920
O O4 0.534406 0.795486 0.742030
O O5 0.635972 0.757611 0.725947
O O6 0.640711 0.717688 0.384158
O O7 0.572071 0.601335 0.743219
O O8 0.966873 0.500000 0.340475
O O9 0.000000 0.642463 0.500000
O O10 0.071829 0.601134 0.052468
O O11 0.297579 0.901104 0.272167
O O12 0.185699 0.000000 0.483426
O O13 0.859004 0.729413 0.940699
O O14 0.750000 0.250000 0.000000
#
# Coordination Sequence:
#
# PCOD8111759 Si02
#       7
#     4   8   8   4   8   8   4
#     4  10  23  47  67 100 148 186 232 291 358 421
#     4  12  25  44  73 101 142 190 241 292 352 428
#     4  11  25  48  72 106 144 188 240 295 358 423
#     4  10  22  40  74 101 147 188 225 299 351 422
#     4  12  23  44  70 107 143 185 242 291 355 424
#     4  12  25  42  70 103 143 187 235 296 358 423
#     4  10  23  45  69 103 141 188 240 285 351 424
#
# _framework density 21.764925000000002
#
# number of rings (size 3 to 8) (size 9 to 14) (size 15 to 20)
#    0.545    0.182    4.545    3.273    1.273    3.636 
#    1.636    3.182    0.000    0.000    0.000    0.000 
#    0.000    0.000    0.000    0.000    0.000    0.000 
#
# Total GULP energy -272739.843159 kJ/mol
# GULP energy per Si atom -12397.265598 kJ/mol
# Density = 2.171539 g / cm^3
# Si number density = 21.764925 Si / 1000 Ang^3
#
#
#
# Elastic Constant Matrix: (Units=GPa)
#
#
# Indices 1 2 3 4 5 6 
#
# 1 95.1608 61.4512 23.4415 0.0000 13.6789 0.0000
# 2 61.4512 166.2604 20.8026 0.0000 4.6189 0.0000
# 3 23.4415 20.8026 105.7939 0.0000 17.1547 0.0000
# 4 0.0000 0.0000 0.0000 37.2648 0.0000 2.7773
# 5 13.6789 4.6189 17.1547 0.0000 42.6984 0.0000
# 6 0.0000 0.0000 0.0000 2.7773 0.0000 -41.8091
#
#
#
# Elastic Compliance Matrix: (Units=1/GPa)
#
#
# Indices 1 2 3 4 5 6 
#
# 1 0.014747 -0.005142 -0.001691 0.000000 -0.003489 0.000000
# 2 -0.005142 0.007961 -0.000592 0.000000 0.001024 0.000000
# 3 -0.001691 -0.000592 0.010531 0.000000 -0.003625 0.000000
# 4 0.000000 0.000000 0.000000 0.026703 0.000000 0.001774
# 5 -0.003489 0.001024 -0.003625 0.000000 0.025884 0.000000
# 6 0.000000 0.000000 0.000000 0.001774 0.000000 -0.023800
#
#
# Mechanical properties :
#
#
# Convention : Reuss Voigt Hill
#
# Bulk Modulus (GPa) = 54.37948 64.28953 59.33451
# Shear Modulus (GPa) = 60.23727 25.06546 42.65137
#
# Velocity S-wave (km/s) = 5.26653 3.39727 4.43158
# Velocity P-wave (km/s) = 7.87534 6.70752 7.31477
#
# Compressibility (1/GPa) = 0.01838929
#
# Stress axis : x y z
#
# Youngs Moduli (GPa) = 67.80955 125.61413 94.95547
#
# Poissons Ratio (x) = 0.64593 0.16055
# Poissons Ratio (y) = 0.34869 0.05622
# Poissons Ratio (z) = 0.11465 0.07437
#
# Static dielectric constant tensor:
#      x y z
#    x 3.915650 0.000000 0.245940 
#    y 0.000000 4.098370 0.000000 
#    z 0.245940 0.000000 4.078210 
# 
# 
# High freq. dielectric constant tensor:
#      x y z
#    x 1.843600 0.000000 0.018400 
#    y 0.000000 1.871050 0.000000 
#    z 0.018400 0.000000 1.863400 
# 
# From -- ./inp_files/103040.got.cif
#   From: 2010.06.25/outbox.cif.g09.slc.cpg/sg12_52_cif.got.tgz:103040.got - 2010.06.28 00:19:55.
