data_PCOD8111583
_publ_section_title
;
Structure prediction by ZEFSAII (Michael W. Deem and Ramdas Pophale) SiO2 
 PCOD8111583
Probable space group: C 2/M
;
_chemical_formula_sum "Si O2"
_cell_formula_units_Z 36
_cell_length_a 13.094466
_cell_length_b 23.689758
_cell_length_c 6.163178
_cell_angle_alpha 90.000000
_cell_angle_beta 58.711477
_cell_angle_gamma 90.000000
_cell_volume 1633.793452
_symmetry_space_group_name_H-M "C 2/M"
_symmetry_group_IT_number 12
_symmetry_cell_setting 'monoclinic'
loop_
_space_group_symop_operation_xyz
x,y,z
-x,y,-z
-x,-y,-z
x,-y,z
1/2+x,1/2+y,z
1/2-x,1/2+y,-z
1/2-x,1/2-y,-z
1/2+x,1/2-y,z
loop_
_atom_site_type_symbol
_atom_site_label
_atom_site_fract_x
_atom_site_fract_y
_atom_site_fract_z
Si Si1 0.500000 0.154619 0.500000
Si Si2 0.636887 0.340836 0.800424
Si Si3 0.121280 0.281467 0.735672
Si Si4 0.794981 0.630212 0.017435
Si Si5 0.627251 0.564460 0.465310
O O1 0.405843 0.192705 0.471522
O O2 0.422372 0.117353 0.757276
O O3 0.681588 0.281657 0.636980
O O4 0.659768 0.396296 0.632607
O O5 0.500000 0.336631 0.000000
O O6 0.703146 0.342892 0.953350
O O7 0.196532 0.325852 0.793992
O O8 0.000000 0.269847 0.000000
O O9 0.734972 0.572618 0.173182
O O10 0.500000 0.581448 0.500000
O O11 0.624731 0.500000 0.547992
#
# Coordination Sequence:
#
# PCOD8111583 Si02
#       5
#     4   8   8   8   8
#     4  10  22  40  63  92 127 168 204 250 324 388
#     4  11  22  38  65  96 129 169 208 256 323 381
#     4   9  21  37  63  97 131 163 205 258 317 387
#     4  11  22  41  63  92 130 167 207 262 316 376
#     4  11  25  42  62  91 127 169 221 268 305 360
#
# _framework density 22.034611000000002
#
# number of rings (size 3 to 8) (size 9 to 14) (size 15 to 20)
#    0.000    1.556    2.222    2.000    1.556    6.667 
#    0.000    0.556    0.000   12.667    0.000    0.000 
#    0.000    0.000    0.000    0.000    0.000    0.000 
#
# Total GULP energy -223157.484817 kJ/mol
# GULP energy per Si atom -12397.638045 kJ/mol
# Density = 2.198446 g / cm^3
# Si number density = 22.034611 Si / 1000 Ang^3
#
#
#
# Elastic Constant Matrix: (Units=GPa)
#
#
# Indices 1 2 3 4 5 6 
#
# 1 118.4871 43.2405 42.1450 0.0000 23.1482 0.0000
# 2 43.2405 116.8583 59.5481 0.0000 -1.1550 0.0000
# 3 42.1450 59.5481 100.9147 0.0000 6.7277 0.0000
# 4 0.0000 0.0000 0.0000 31.0239 0.0000 -4.1955
# 5 23.1482 -1.1550 6.7277 0.0000 45.9242 0.0000
# 6 0.0000 0.0000 0.0000 -4.1955 0.0000 23.9051
#
#
#
# Elastic Compliance Matrix: (Units=1/GPa)
#
#
# Indices 1 2 3 4 5 6 
#
# 1 0.011557 -0.002943 -0.002723 0.000000 -0.005500 0.000000
# 2 -0.002943 0.013073 -0.006671 0.000000 0.002790 0.000000
# 3 -0.002723 -0.006671 0.015050 0.000000 -0.001000 0.000000
# 4 0.000000 0.000000 0.000000 0.033017 0.000000 0.005795
# 5 -0.005500 0.002790 -0.001000 0.000000 0.024764 0.000000
# 6 0.000000 0.000000 0.000000 0.005795 0.000000 0.042849
#
#
# Mechanical properties :
#
#
# Convention : Reuss Voigt Hill
#
# Bulk Modulus (GPa) = 66.64326 69.56970 68.10648
# Shear Modulus (GPa) = 29.41397 32.92574 31.16985
#
# Velocity S-wave (km/s) = 3.65759 3.86978 3.76518
# Velocity P-wave (km/s) = 6.93886 7.18390 7.06244
#
# Compressibility (1/GPa) = 0.01500527
#
# Stress axis : x y z
#
# Youngs Moduli (GPa) = 86.52781 76.49073 66.44550
#
# Poissons Ratio (x) = 0.22512 0.18094
# Poissons Ratio (y) = 0.25466 0.44328
# Poissons Ratio (z) = 0.23563 0.51029
#
# Static dielectric constant tensor:
#      x y z
#    x 4.095720 0.000000 -0.366530 
#    y 0.000000 3.790730 0.000000 
#    z -0.366530 0.000000 4.268010 
# 
# 
# High freq. dielectric constant tensor:
#      x y z
#    x 1.888180 0.000000 -0.018480 
#    y 0.000000 1.834880 0.000000 
#    z -0.018480 0.000000 1.895920 
# 
# From -- ./inp_files/11241.got.cif
#   From: 2010.06.25/outbox.cif.g09.slc.cpg/sg12_6_cif.got.tgz:11241.got - 2010.06.28 00:19:55.
