data_PCOD8111928
_publ_section_title
;
Structure prediction by ZEFSAII (Michael W. Deem and Ramdas Pophale) SiO2 
 PCOD8111928
Probable space group: C 2/M
;
_chemical_formula_sum "Si O2"
_cell_formula_units_Z 48
_cell_length_a 14.422738
_cell_length_b 17.733181
_cell_length_c 9.413837
_cell_angle_alpha 90.000000
_cell_angle_beta 82.077948
_cell_angle_gamma 90.000000
_cell_volume 2384.714748
_symmetry_space_group_name_H-M "C 2/M"
_symmetry_group_IT_number 12
_symmetry_cell_setting 'monoclinic'
loop_
_space_group_symop_operation_xyz
x,y,z
-x,y,-z
-x,-y,-z
x,-y,z
1/2+x,1/2+y,z
1/2-x,1/2+y,-z
1/2-x,1/2-y,-z
1/2+x,1/2-y,z
loop_
_atom_site_type_symbol
_atom_site_label
_atom_site_fract_x
_atom_site_fract_y
_atom_site_fract_z
Si Si1 0.552064 0.190951 0.347490
Si Si2 0.085333 0.863192 0.327753
Si Si3 0.253139 0.321970 0.201407
Si Si4 0.951372 0.417456 0.160295
Si Si5 0.736382 0.848788 0.881247
Si Si6 0.613582 0.585257 0.629507
O O1 0.500000 0.163517 0.500000
O O2 0.541515 0.279901 0.328922
O O3 0.662087 0.169881 0.321746
O O4 0.499808 0.149531 0.232821
O O5 0.161916 0.877049 0.190452
O O6 0.132484 0.877696 0.471434
O O7 0.998028 0.918242 0.318053
O O8 0.282474 0.235430 0.172283
O O9 0.336766 0.365937 0.259485
O O10 0.231725 0.356786 0.051929
O O11 0.963375 0.500000 0.230895
O O12 0.841128 0.402499 0.169459
O O13 0.000000 0.418494 0.000000
O O14 0.652623 0.500000 0.625098
#
# Coordination Sequence:
#
# PCOD8111928 Si02
#       6
#     8   8   8   8   8   8
#     4  11  22  40  66  91 120 159 204 255 296 360
#     4  10  22  41  64  92 117 162 207 251 301 356
#     4  10  23  40  62  96 119 158 206 254 300 351
#     4  11  24  41  61  89 128 164 196 247 311 367
#     4  10  22  41  65  89 122 159 210 250 294 361
#     4  11  23  41  62  91 130 160 196 251 311 364
#
# _framework density 20.128194000000001
#
# number of rings (size 3 to 8) (size 9 to 14) (size 15 to 20)
#    0.000    1.500    3.333    2.000    2.333    5.000 
#    0.000    0.833    0.000    0.000    0.000    0.000 
#    0.000    0.000    0.000    0.000    0.000    0.000 
#
# Total GULP energy -297628.733048 kJ/mol
# GULP energy per Si atom -12401.197210 kJ/mol
# Density = 2.008238 g / cm^3
# Si number density = 20.128194 Si / 1000 Ang^3
#
#
#
# Elastic Constant Matrix: (Units=GPa)
#
#
# Indices 1 2 3 4 5 6 
#
# 1 87.3912 32.6555 39.2674 0.0000 -3.3783 0.0000
# 2 32.6555 93.4397 55.5444 0.0000 9.3608 0.0000
# 3 39.2674 55.5444 77.2784 0.0000 -1.3368 0.0000
# 4 0.0000 0.0000 0.0000 23.4558 0.0000 -2.9282
# 5 -3.3783 9.3608 -1.3368 0.0000 39.2068 0.0000
# 6 0.0000 0.0000 0.0000 -2.9282 0.0000 12.6958
#
#
#
# Elastic Compliance Matrix: (Units=1/GPa)
#
#
# Indices 1 2 3 4 5 6 
#
# 1 0.014985 -0.001517 -0.006499 0.000000 0.001432 0.000000
# 2 -0.001517 0.019839 -0.013581 0.000000 -0.005331 0.000000
# 3 -0.006499 -0.013581 0.026066 0.000000 0.003571 0.000000
# 4 0.000000 0.000000 0.000000 0.043897 0.000000 0.010124
# 5 0.001432 -0.005331 0.003571 0.000000 0.027024 0.000000
# 6 0.000000 0.000000 0.000000 0.010124 0.000000 0.081101
#
#
# Mechanical properties :
#
#
# Convention : Reuss Voigt Hill
#
# Bulk Modulus (GPa) = 56.51042 57.00485 56.75764
# Shear Modulus (GPa) = 19.08351 23.78116 21.43234
#
# Velocity S-wave (km/s) = 3.08246 3.44100 3.26665
# Velocity P-wave (km/s) = 6.38788 6.64603 6.51823
#
# Compressibility (1/GPa) = 0.01769585
#
# Stress axis : x y z
#
# Youngs Moduli (GPa) = 66.73172 50.40467 38.36420
#
# Poissons Ratio (x) = 0.07647 0.24934
# Poissons Ratio (y) = 0.10124 0.52103
# Poissons Ratio (z) = 0.43371 0.68455
#
# Static dielectric constant tensor:
#      x y z
#    x 3.645180 0.000000 -0.149270 
#    y 0.000000 3.681140 0.000000 
#    z -0.149270 0.000000 3.519200 
# 
# 
# High freq. dielectric constant tensor:
#      x y z
#    x 1.791410 0.000000 -0.010520 
#    y 0.000000 1.785240 0.000000 
#    z -0.010520 0.000000 1.780540 
# 
# From -- ./inp_files/61683.got.cif
#   From: 2010.06.25/outbox.cif.g09.slc.cpg/sg12_31_cif.got.tgz:61683.got - 2010.06.28 00:19:55.
