data_PCOD8111356
_publ_section_title
;
Structure prediction by ZEFSAII (Michael W. Deem and Ramdas Pophale) SiO2 
 PCOD8111356
Probable space group: C 2/M
;
_chemical_formula_sum "Si O2"
_cell_formula_units_Z 48
_cell_length_a 24.533403
_cell_length_b 13.603950
_cell_length_c 19.554144
_cell_angle_alpha 90.000000
_cell_angle_beta 21.981324
_cell_angle_gamma 90.000000
_cell_volume 2442.792086
_symmetry_space_group_name_H-M "C 2/M"
_symmetry_group_IT_number 12
_symmetry_cell_setting 'monoclinic'
loop_
_space_group_symop_operation_xyz
x,y,z
-x,y,-z
-x,-y,-z
x,-y,z
1/2+x,1/2+y,z
1/2-x,1/2+y,-z
1/2-x,1/2-y,-z
1/2+x,1/2-y,z
loop_
_atom_site_type_symbol
_atom_site_label
_atom_site_fract_x
_atom_site_fract_y
_atom_site_fract_z
Si Si1 0.626779 0.244440 0.086401
Si Si2 0.316506 0.609562 0.781840
Si Si3 0.863621 0.110193 0.567098
Si Si4 0.432476 0.386359 0.238831
Si Si5 0.099565 0.712342 0.818807
Si Si6 0.112813 0.611920 0.663198
O O1 0.566712 0.350208 0.130638
O O2 0.486979 0.178318 0.271617
O O3 0.750000 0.250000 0.000000
O O4 0.698319 0.190324 0.938298
O O5 0.262390 0.500000 0.865096
O O6 0.342512 0.616015 0.671931
O O7 0.467607 0.631601 0.646548
O O8 0.767442 0.193522 0.643167
O O9 0.821119 0.000000 0.590458
O O10 0.456560 0.500000 0.192495
O O11 0.424921 0.324936 0.176811
O O12 0.283133 0.366647 0.453486
O O13 0.065488 0.639817 0.795413
O O14 0.000000 0.686543 0.000000
O O15 0.075372 0.500000 0.691376
#
# Coordination Sequence:
#
# PCOD8111356 Si02
#       6
#     8   8   8   8   8   8
#     4  11  22  34  58  84 111 148 190 238 277 334
#     4   9  19  34  52  82 119 146 173 224 291 347
#     4   9  18  32  54  84 117 146 174 220 289 354
#     4  10  24  43  58  79 117 160 197 235 278 333
#     4  11  21  34  60  88 111 147 192 240 281 332
#     4  10  22  40  59  83 118 150 187 237 290 348
#
# _framework density 19.649647000000002
#
# number of rings (size 3 to 8) (size 9 to 14) (size 15 to 20)
#    0.000    2.000    0.000    6.000    4.667    4.333 
#    0.000    0.000    0.000    0.000    0.000    3.500 
#    0.000    0.000    0.000    0.000    0.000    0.000 
#
# Total GULP energy -297460.650049 kJ/mol
# GULP energy per Si atom -12394.193752 kJ/mol
# Density = 1.960492 g / cm^3
# Si number density = 19.649647 Si / 1000 Ang^3
#
#
#
# Elastic Constant Matrix: (Units=GPa)
#
#
# Indices 1 2 3 4 5 6 
#
# 1 90.4969 36.3294 30.0462 0.0007 -30.7477 -0.0004
# 2 36.3294 108.4457 33.0601 0.0010 -25.5757 -0.0007
# 3 30.0462 33.0601 82.2466 0.0014 -14.8549 -0.0010
# 4 0.0007 0.0010 0.0014 33.1754 -0.0010 -3.8934
# 5 -30.7477 -25.5757 -14.8549 -0.0010 37.0386 0.0006
# 6 -0.0004 -0.0007 -0.0010 -3.8934 0.0006 22.1846
#
#
#
# Elastic Compliance Matrix: (Units=1/GPa)
#
#
# Indices 1 2 3 4 5 6 
#
# 1 0.016747 -0.001955 -0.003304 0.000000 0.011227 0.000000
# 2 -0.001955 0.012137 -0.003174 0.000000 0.005485 0.000000
# 3 -0.003304 -0.003174 0.014824 0.000000 0.001011 0.000000
# 4 0.000000 0.000000 0.000000 0.030777 0.000001 0.005401
# 5 0.011227 0.005485 0.001011 0.000001 0.040512 -0.000001
# 6 0.000000 0.000000 0.000000 0.005401 -0.000001 0.046024
#
#
# Mechanical properties :
#
#
# Convention : Reuss Voigt Hill
#
# Bulk Modulus (GPa) = 37.25562 53.34006 45.29784
# Shear Modulus (GPa) = 26.76173 30.59664 28.67918
#
# Velocity S-wave (km/s) = 3.69446 3.95030 3.82452
# Velocity P-wave (km/s) = 6.09916 6.92900 6.52728
#
# Compressibility (1/GPa) = 0.02684159
#
# Stress axis : x y z
#
# Youngs Moduli (GPa) = 59.71392 82.39072 67.45827
#
# Poissons Ratio (x) = 0.16108 0.22290
# Poissons Ratio (y) = 0.11674 0.21410
# Poissons Ratio (z) = 0.19731 0.26150
#
# Static dielectric constant tensor:
#      x y z
#    x 3.661070 0.000000 -0.369940 
#    y 0.000000 3.663610 0.000000 
#    z -0.369940 0.000000 3.896320 
# 
# 
# High freq. dielectric constant tensor:
#      x y z
#    x 1.756680 0.000000 -0.020640 
#    y 0.000000 1.754720 0.000000 
#    z -0.020640 0.000000 1.774350 
# 
# From -- ./inp_files/328194.got.cif
#   From: 2010.06.25/outbox.cif.g09.slc.cpg/sg12_165_cif.got.tgz:328194.got - 2010.06.28 00:19:55.
