data_PCOD8111596
_publ_section_title
;
Structure prediction by ZEFSAII (Michael W. Deem and Ramdas Pophale) SiO2 
 PCOD8111596
Probable space group: C 2/M
;
_chemical_formula_sum "Si O2"
_cell_formula_units_Z 56
_cell_length_a 17.029408
_cell_length_b 15.425709
_cell_length_c 19.451126
_cell_angle_alpha 90.000000
_cell_angle_beta 33.839042
_cell_angle_gamma 90.000000
_cell_volume 2845.357257
_symmetry_space_group_name_H-M "C 2/M"
_symmetry_group_IT_number 12
_symmetry_cell_setting 'monoclinic'
loop_
_space_group_symop_operation_xyz
x,y,z
-x,y,-z
-x,-y,-z
x,-y,z
1/2+x,1/2+y,z
1/2-x,1/2+y,-z
1/2-x,1/2-y,-z
1/2+x,1/2-y,z
loop_
_atom_site_type_symbol
_atom_site_label
_atom_site_fract_x
_atom_site_fract_y
_atom_site_fract_z
Si Si1 0.378308 0.770888 0.729258
Si Si2 0.176926 0.171904 0.094682
Si Si3 0.808901 0.715788 0.526994
Si Si4 0.831899 0.500000 0.035750
Si Si5 0.395114 0.402763 0.251305
Si Si6 0.339497 0.658165 0.627342
Si Si7 0.151508 0.901981 0.871099
Si Si8 0.833157 0.500000 0.196323
O O1 0.384551 0.706380 0.788800
O O2 0.529284 0.811598 0.601106
O O3 0.321079 0.720380 0.705363
O O4 0.271814 0.849076 0.823187
O O5 0.043251 0.147045 0.145523
O O6 0.275063 0.087461 0.039051
O O7 0.250000 0.250000 0.000000
O O8 0.750000 0.750000 0.500000
O O9 0.721263 0.631772 0.611600
O O10 0.788992 0.791215 0.597014
O O11 0.789415 0.500000 0.147450
O O12 0.000639 0.500000 0.910603
O O13 0.428089 0.500000 0.250144
O O14 0.326106 0.397496 0.226529
O O15 0.500000 0.624989 0.500000
O O16 0.232384 0.580902 0.716768
O O17 0.159687 0.000000 0.893403
O O18 0.000000 0.861360 0.000000
#
# Coordination Sequence:
#
# PCOD8111596 Si02
#       8
#     8   8   8   4   8   8   8   4
#     4  11  22  40  67  93 128 166 214 269 319 389
#     4  12  25  43  67  91 131 179 214 270 326 388
#     4  11  23  41  63  93 128 169 216 264 322 382
#     4  11  26  42  64 100 131 170 223 267 329 387
#     4  11  23  42  67  91 129 170 213 262 326 391
#     4  10  22  40  65  94 125 167 212 263 327 389
#     4  10  22  40  63  94 125 162 212 267 315 381
#     4  11  23  42  66  96 133 160 215 279 314 391
#
# _framework density 19.681184999999999
#
# number of rings (size 3 to 8) (size 9 to 14) (size 15 to 20)
#    0.000    1.143    5.000    1.071    2.000    1.714 
#    2.571    1.429    0.000    0.000    0.000    0.000 
#    0.000    0.000    0.000    0.000    0.000    0.000 
#
# Total GULP energy -347242.980299 kJ/mol
# GULP energy per Si atom -12401.535011 kJ/mol
# Density = 1.963639 g / cm^3
# Si number density = 19.681185 Si / 1000 Ang^3
#
#
#
# Elastic Constant Matrix: (Units=GPa)
#
#
# Indices 1 2 3 4 5 6 
#
# 1 64.6837 32.1487 10.7784 0.0002 1.9779 -0.0003
# 2 32.1487 113.4552 59.6966 0.0017 -12.5629 -0.0011
# 3 10.7784 59.6966 106.8140 0.0042 -6.8476 -0.0038
# 4 0.0002 0.0017 0.0042 36.3154 -0.0015 -10.1871
# 5 1.9779 -12.5629 -6.8476 -0.0015 36.9153 0.0012
# 6 -0.0003 -0.0011 -0.0038 -10.1871 0.0012 24.8333
#
#
#
# Elastic Compliance Matrix: (Units=1/GPa)
#
#
# Indices 1 2 3 4 5 6 
#
# 1 0.018444 -0.006329 0.001492 0.000000 -0.002865 0.000000
# 2 -0.006329 0.014992 -0.007480 0.000000 0.004054 -0.000001
# 3 0.001492 -0.007480 0.013383 -0.000001 -0.000143 0.000001
# 4 0.000000 0.000000 -0.000001 0.031117 0.000001 0.012765
# 5 -0.002865 0.004054 -0.000143 0.000001 0.028596 -0.000001
# 6 0.000000 -0.000001 0.000001 0.012765 -0.000001 0.045505
#
#
# Mechanical properties :
#
#
# Convention : Reuss Voigt Hill
#
# Bulk Modulus (GPa) = 45.07451 54.46671 49.77061
# Shear Modulus (GPa) = 27.16414 31.76810 29.46612
#
# Velocity S-wave (km/s) = 3.71915 4.02199 3.87353
# Velocity P-wave (km/s) = 6.43388 7.02162 6.73416
#
# Compressibility (1/GPa) = 0.02218549
#
# Stress axis : x y z
#
# Youngs Moduli (GPa) = 54.21725 66.70135 74.72175
#
# Poissons Ratio (x) = 0.42214 -0.11150
# Poissons Ratio (y) = 0.34313 0.55895
# Poissons Ratio (z) = -0.08090 0.49895
#
# Static dielectric constant tensor:
#      x y z
#    x 3.580370 0.000010 0.157660 
#    y 0.000010 3.358050 -0.000040 
#    z 0.157660 -0.000040 3.285220 
# 
# 
# High freq. dielectric constant tensor:
#      x y z
#    x 1.772690 0.000000 0.001920 
#    y 0.000000 1.765770 0.000000 
#    z 0.001920 0.000000 1.779520 
# 
# From -- ./inp_files/316739.got.cif
#   From: 2010.06.25/outbox.cif.g09.slc.cpg/sg12_159_cif.got.tgz:316739.got - 2010.06.28 00:19:55.
