data_PCOD8111874
_publ_section_title
;
Structure prediction by ZEFSAII (Michael W. Deem and Ramdas Pophale) SiO2 
 PCOD8111874
Probable space group: C 2/M
;
_chemical_formula_sum "Si O2"
_cell_formula_units_Z 56
_cell_length_a 9.500280
_cell_length_b 14.375629
_cell_length_c 24.732794
_cell_angle_alpha 90.000000
_cell_angle_beta 121.830084
_cell_angle_gamma 90.000000
_cell_volume 2869.849142
_symmetry_space_group_name_H-M "C 2/M"
_symmetry_group_IT_number 12
_symmetry_cell_setting 'monoclinic'
loop_
_space_group_symop_operation_xyz
x,y,z
-x,y,-z
-x,-y,-z
x,-y,z
1/2+x,1/2+y,z
1/2-x,1/2+y,-z
1/2-x,1/2-y,-z
1/2+x,1/2-y,z
loop_
_atom_site_type_symbol
_atom_site_label
_atom_site_fract_x
_atom_site_fract_y
_atom_site_fract_z
Si Si1 0.309388 0.243609 0.952218
Si Si2 0.595374 0.107820 0.855686
Si Si3 0.198460 0.273465 0.660684
Si Si4 0.837286 0.601265 0.442678
Si Si5 0.438025 0.772218 0.252783
Si Si6 0.247579 0.889062 0.844551
Si Si7 0.590054 0.682614 0.462601
O O1 0.251071 0.337672 0.911529
O O2 0.248911 0.152481 0.905923
O O3 0.500000 0.239966 0.000000
O O4 0.250000 0.250000 0.000000
O O5 0.579335 0.142612 0.791512
O O6 0.427798 0.127981 0.855083
O O7 0.640247 0.000000 0.865012
O O8 0.212559 0.363459 0.626160
O O9 0.373138 0.222892 0.689600
O O10 0.174879 0.297550 0.718732
O O11 0.047368 0.212268 0.608371
O O12 0.906781 0.500000 0.445447
O O13 0.681315 0.595907 0.451966
O O14 0.000000 0.659540 0.500000
O O15 0.385848 0.671169 0.217105
O O16 0.202451 0.000000 0.835915
O O17 0.500000 0.653445 0.500000
O O18 0.750000 0.750000 0.500000
#
# Coordination Sequence:
#
# PCOD8111874 Si02
#       7
#     8   8   8   8   8   8   8
#     4  11  22  39  64  97 127 159 204 253 300 361
#     4  10  22  41  63  90 126 164 202 255 307 356
#     4  12  21  38  63  88 116 160 205 247 306 372
#     4  11  24  40  59  90 125 153 197 261 319 373
#     4  11  23  39  62  92 120 161 210 259 301 364
#     4  10  22  41  64  89 126 170 205 249 308 364
#     4  12  20  38  65  88 115 160 202 249 314 385
#
# _framework density 19.51322
#
# number of rings (size 3 to 8) (size 9 to 14) (size 15 to 20)
#    0.000    1.000    7.143    0.000    0.000    2.571 
#    0.000    2.143    0.000    0.000    0.000    0.000 
#    0.000    0.000    0.000    0.000    0.000    0.000 
#
# Total GULP energy -346900.788489 kJ/mol
# GULP energy per Si atom -12389.313875 kJ/mol
# Density = 1.946881 g / cm^3
# Si number density = 19.513220 Si / 1000 Ang^3
#
#
#
# Elastic Constant Matrix: (Units=GPa)
#
#
# Indices 1 2 3 4 5 6 
#
# 1 103.8800 20.4656 38.5739 0.0000 -24.4739 0.0000
# 2 20.4656 89.0683 41.0677 0.0000 -11.6270 0.0000
# 3 38.5739 41.0677 121.6510 0.0000 -12.8246 0.0000
# 4 0.0000 0.0000 0.0000 13.3834 0.0000 0.6156
# 5 -24.4739 -11.6270 -12.8246 0.0000 49.8104 0.0000
# 6 0.0000 0.0000 0.0000 0.6156 0.0000 19.5458
#
#
#
# Elastic Compliance Matrix: (Units=1/GPa)
#
#
# Indices 1 2 3 4 5 6 
#
# 1 0.012078 -0.000712 -0.003064 0.000000 0.004979 0.000000
# 2 -0.000712 0.013536 -0.004161 0.000000 0.001739 0.000000
# 3 -0.003064 -0.004161 0.010624 0.000000 0.000258 0.000000
# 4 0.000000 0.000000 0.000000 0.074828 0.000000 -0.002357
# 5 0.004979 0.001739 0.000258 0.000000 0.022995 0.000000
# 6 0.000000 0.000000 0.000000 -0.002357 0.000000 0.051236
#
#
# Mechanical properties :
#
#
# Convention : Reuss Voigt Hill
#
# Bulk Modulus (GPa) = 49.10760 57.20149 53.15455
# Shear Modulus (GPa) = 24.04321 30.84739 27.44530
#
# Velocity S-wave (km/s) = 3.51401 3.98030 3.75440
# Velocity P-wave (km/s) = 6.45641 7.10645 6.78921
#
# Compressibility (1/GPa) = 0.02036345
#
# Stress axis : x y z
#
# Youngs Moduli (GPa) = 82.79680 73.87547 94.12933
#
# Poissons Ratio (x) = 0.05262 0.28844
# Poissons Ratio (y) = 0.05897 0.39163
# Poissons Ratio (z) = 0.25372 0.30736
#
# Static dielectric constant tensor:
#      x y z
#    x 3.852710 0.000000 -0.094760 
#    y 0.000000 3.439660 0.000000 
#    z -0.094760 0.000000 3.594790 
# 
# 
# High freq. dielectric constant tensor:
#      x y z
#    x 1.776160 0.000000 -0.000880 
#    y 0.000000 1.738940 0.000000 
#    z -0.000880 0.000000 1.776360 
# 
# From -- ./inp_files/333016.got.cif
#   From: 2010.06.25/outbox.cif.g09.slc.cpg/sg12_167_cif.got.tgz:333016.got - 2010.06.28 00:19:55.
