data_PCOD8111030
_publ_section_title
;
Structure prediction by ZEFSAII (Michael W. Deem and Ramdas Pophale) SiO2 
 PCOD8111030
Probable space group: C 2/M
;
_chemical_formula_sum "Si O2"
_cell_formula_units_Z 36
_cell_length_a 11.217306
_cell_length_b 15.357107
_cell_length_c 10.955743
_cell_angle_alpha 90.000000
_cell_angle_beta 103.427607
_cell_angle_gamma 90.000000
_cell_volume 1835.704198
_symmetry_space_group_name_H-M "C 2/M"
_symmetry_group_IT_number 12
_symmetry_cell_setting 'monoclinic'
loop_
_space_group_symop_operation_xyz
x,y,z
-x,y,-z
-x,-y,-z
x,-y,z
1/2+x,1/2+y,z
1/2-x,1/2+y,-z
1/2-x,1/2-y,-z
1/2+x,1/2-y,z
loop_
_atom_site_type_symbol
_atom_site_label
_atom_site_fract_x
_atom_site_fract_y
_atom_site_fract_z
Si Si1 0.786819 0.000000 0.557159
Si Si2 0.026369 0.093816 0.256481
Si Si3 0.116691 0.500000 0.736651
Si Si4 0.219087 0.853564 0.120258
Si Si5 0.721226 0.339528 0.833531
Si Si6 0.666717 0.000000 0.273350
O O1 0.869281 0.085895 0.612080
O O2 0.760329 0.000000 0.408762
O O3 0.661767 0.000000 0.606511
O O4 0.092143 0.112582 0.144180
O O5 0.915499 0.159328 0.258864
O O6 0.959839 0.000000 0.225253
O O7 0.166499 0.413397 0.814435
O O8 0.970730 0.500000 0.708733
O O9 0.230005 0.756709 0.178722
O O10 0.209012 0.856506 0.973567
O O11 0.811730 0.411852 0.798321
#
# Coordination Sequence:
#
# PCOD8111030 Si02
#       6
#     4   8   4   8   8   4
#     4   8  20  41  65  79 110 157 199 246 285 338
#     4   9  19  39  63  77 113 157 194 235 287 340
#     4  10  22  41  61  77 122 159 193 234 295 352
#     4  10  22  39  56  86 123 155 189 228 297 352
#     4  11  23  34  59  93 118 148 191 246 285 345
#     4  12  23  38  61  88 118 150 200 242 295 326
#
# _framework density 19.611001000000002
#
# number of rings (size 3 to 8) (size 9 to 14) (size 15 to 20)
#    0.667    1.333    2.222    1.667    3.111    4.444 
#    0.000    4.444    9.778    0.000    0.000    0.000 
#    0.000    0.000    0.000    0.000    0.000    0.000 
#
# Total GULP energy -223045.599772 kJ/mol
# GULP energy per Si atom -12391.422210 kJ/mol
# Density = 1.956637 g / cm^3
# Si number density = 19.611001 Si / 1000 Ang^3
#
#
#
# Elastic Constant Matrix: (Units=GPa)
#
#
# Indices 1 2 3 4 5 6 
#
# 1 82.5416 14.4009 12.4167 0.0000 13.5289 0.0000
# 2 14.4009 105.8918 37.9730 0.0000 1.8278 0.0000
# 3 12.4167 37.9730 58.4695 0.0000 3.5582 0.0000
# 4 0.0000 0.0000 0.0000 15.7137 0.0000 2.3258
# 5 13.5289 1.8278 3.5582 0.0000 18.2884 0.0000
# 6 0.0000 0.0000 0.0000 2.3258 0.0000 12.1262
#
#
#
# Elastic Compliance Matrix: (Units=1/GPa)
#
#
# Indices 1 2 3 4 5 6 
#
# 1 0.014219 -0.001169 -0.001647 0.000000 -0.010081 0.000000
# 2 -0.001169 0.012409 -0.007881 0.000000 0.001158 0.000000
# 3 -0.001647 -0.007881 0.022718 0.000000 -0.002414 0.000000
# 4 0.000000 0.000000 0.000000 0.065498 0.000000 -0.012563
# 5 -0.010081 0.001158 -0.002414 0.000000 0.062491 0.000000
# 6 0.000000 0.000000 0.000000 -0.012563 0.000000 0.084875
#
#
# Mechanical properties :
#
#
# Convention : Reuss Voigt Hill
#
# Bulk Modulus (GPa) = 35.77585 41.83157 38.80371
# Shear Modulus (GPa) = 17.06940 21.36649 19.21794
#
# Velocity S-wave (km/s) = 2.95345 3.30436 3.13382
# Velocity P-wave (km/s) = 5.46927 5.99461 5.73795
#
# Compressibility (1/GPa) = 0.02795182
#
# Stress axis : x y z
#
# Youngs Moduli (GPa) = 70.32746 80.58814 44.01817
#
# Poissons Ratio (x) = 0.09422 0.07249
# Poissons Ratio (y) = 0.08223 0.34691
# Poissons Ratio (z) = 0.11581 0.63512
#
# Static dielectric constant tensor:
#      x y z
#    x 3.504180 0.000000 0.006270 
#    y 0.000000 3.660600 0.000000 
#    z 0.006270 0.000000 3.312050 
# 
# 
# High freq. dielectric constant tensor:
#      x y z
#    x 1.773170 0.000000 -0.001850 
#    y 0.000000 1.756300 0.000000 
#    z -0.001850 0.000000 1.747790 
# 
# From -- ./inp_files/130136.got.cif
#   From: 2010.06.25/outbox.cif.g09.slc.cpg/sg12_66_cif.got.tgz:130136.got - 2010.06.28 00:19:55.
