data_PCOD8111622
_publ_section_title
;
Structure prediction by ZEFSAII (Michael W. Deem and Ramdas Pophale) SiO2 
 PCOD8111622
Probable space group: C 2/M
;
_chemical_formula_sum "Si O2"
_cell_formula_units_Z 48
_cell_length_a 14.780789
_cell_length_b 13.503823
_cell_length_c 16.715741
_cell_angle_alpha 90.000000
_cell_angle_beta 139.538318
_cell_angle_gamma 90.000000
_cell_volume 2165.130637
_symmetry_space_group_name_H-M "C 2/M"
_symmetry_group_IT_number 12
_symmetry_cell_setting 'monoclinic'
loop_
_space_group_symop_operation_xyz
x,y,z
-x,y,-z
-x,-y,-z
x,-y,z
1/2+x,1/2+y,z
1/2-x,1/2+y,-z
1/2-x,1/2-y,-z
1/2+x,1/2-y,z
loop_
_atom_site_type_symbol
_atom_site_label
_atom_site_fract_x
_atom_site_fract_y
_atom_site_fract_z
Si Si1 0.479977 0.783891 0.117170
Si Si2 0.604524 0.808221 0.506331
Si Si3 0.062320 0.615313 0.745768
Si Si4 0.229650 0.282184 0.160713
Si Si5 0.101078 0.109336 0.274830
Si Si6 0.498384 0.608008 0.616218
O O1 0.477720 0.860231 0.189524
O O2 0.618482 0.787598 0.156852
O O3 0.476051 0.672034 0.150339
O O4 0.343930 0.806021 0.973151
O O5 0.500000 0.856925 0.500000
O O6 0.573690 0.855303 0.398461
O O7 0.756275 0.830772 0.642028
O O8 0.581229 0.689013 0.491176
O O9 0.097328 0.500000 0.762067
O O10 0.194214 0.675810 0.798792
O O11 0.342105 0.364958 0.257379
O O12 0.082867 0.101177 0.356127
O O13 0.106505 0.000000 0.239234
O O14 0.493770 0.500000 0.570907
#
# Coordination Sequence:
#
# PCOD8111622 Si02
#       6
#     8   8   8   8   8   8
#     4  11  23  42  67  95 129 173 216 269 324 390
#     4  11  23  42  64  91 130 167 210 271 322 381
#     4  11  24  42  66  95 128 173 219 267 327 392
#     4  10  23  43  65  94 133 166 214 275 328 378
#     4  11  22  38  64  92 124 168 213 259 320 383
#     4  10  22  40  64  91 124 167 212 261 319 385
#
# _framework density 22.169563
#
# number of rings (size 3 to 8) (size 9 to 14) (size 15 to 20)
#    0.000    1.333    3.333    3.500    0.000    5.667 
#    0.000    3.333    0.000    0.000    0.000    0.000 
#    0.000    0.000    0.000    0.000    0.000    0.000 
#
# Total GULP energy -297509.842275 kJ/mol
# GULP energy per Si atom -12396.243428 kJ/mol
# Density = 2.211910 g / cm^3
# Si number density = 22.169563 Si / 1000 Ang^3
#
#
#
# Elastic Constant Matrix: (Units=GPa)
#
#
# Indices 1 2 3 4 5 6 
#
# 1 73.2939 20.2969 0.9707 0.0000 -2.2781 0.0000
# 2 20.2969 138.8543 8.8738 0.0000 5.0023 0.0000
# 3 0.9707 8.8738 45.6385 0.0000 -4.8277 0.0000
# 4 0.0000 0.0000 0.0000 15.1844 0.0000 10.8046
# 5 -2.2781 5.0023 -4.8277 0.0000 37.4603 0.0000
# 6 0.0000 0.0000 0.0000 10.8046 0.0000 23.0516
#
#
#
# Elastic Compliance Matrix: (Units=1/GPa)
#
#
# Indices 1 2 3 4 5 6 
#
# 1 0.014271 -0.002144 0.000239 0.000000 0.001185 0.000000
# 2 -0.002144 0.007666 -0.001589 0.000000 -0.001359 0.000000
# 3 0.000239 -0.001589 0.022546 0.000000 0.003132 0.000000
# 4 0.000000 0.000000 0.000000 0.098812 0.000000 -0.046315
# 5 0.001185 -0.001359 0.003132 0.000000 0.027352 0.000000
# 6 0.000000 0.000000 0.000000 -0.046315 0.000000 0.065089
#
#
# Mechanical properties :
#
#
# Convention : Reuss Voigt Hill
#
# Bulk Modulus (GPa) = 26.66994 35.34104 31.00549
# Shear Modulus (GPa) = 19.59068 30.31563 24.95316
#
# Velocity S-wave (km/s) = 2.97589 3.70191 3.35858
# Velocity P-wave (km/s) = 4.88508 5.85218 5.39036
#
# Compressibility (1/GPa) = 0.03749539
#
# Stress axis : x y z
#
# Youngs Moduli (GPa) = 70.07166 130.45182 44.35281
#
# Poissons Ratio (x) = 0.27969 -0.01059
# Poissons Ratio (y) = 0.15023 0.07046
# Poissons Ratio (z) = -0.01673 0.20724
#
# Static dielectric constant tensor:
#      x y z
#    x 4.190790 0.000000 -0.087400 
#    y 0.000000 4.152650 0.000000 
#    z -0.087400 0.000000 4.099630 
# 
# 
# High freq. dielectric constant tensor:
#      x y z
#    x 1.888910 0.000000 -0.007560 
#    y 0.000000 1.861720 0.000000 
#    z -0.007560 0.000000 1.870820 
# 
# From -- ./inp_files/270432.got.cif
#   From: 2010.06.25/outbox.cif.g09.slc.cpg/sg12_136_cif.got.tgz:270432.got - 2010.06.28 00:19:55.
