data_PCOD8111863
_publ_section_title
;
Structure prediction by ZEFSAII (Michael W. Deem and Ramdas Pophale) SiO2 
 PCOD8111863
Probable space group: C 2/M
;
_chemical_formula_sum "Si O2"
_cell_formula_units_Z 56
_cell_length_a 15.148638
_cell_length_b 8.706686
_cell_length_c 24.354208
_cell_angle_alpha 90.000000
_cell_angle_beta 119.233447
_cell_angle_gamma 90.000000
_cell_volume 2803.071471
_symmetry_space_group_name_H-M "C 2/M"
_symmetry_group_IT_number 12
_symmetry_cell_setting 'monoclinic'
loop_
_space_group_symop_operation_xyz
x,y,z
-x,y,-z
-x,-y,-z
x,-y,z
1/2+x,1/2+y,z
1/2-x,1/2+y,-z
1/2-x,1/2-y,-z
1/2+x,1/2-y,z
loop_
_atom_site_type_symbol
_atom_site_label
_atom_site_fract_x
_atom_site_fract_y
_atom_site_fract_z
Si Si1 0.306763 0.676102 0.380716
Si Si2 0.581095 0.820272 0.290775
Si Si3 0.583554 0.679752 0.071373
Si Si4 0.768644 0.817946 0.065379
Si Si5 0.507559 0.324562 0.632506
Si Si6 0.483616 0.179918 0.146085
Si Si7 0.650357 0.820199 0.495018
O O1 0.299934 0.500000 0.397769
O O2 0.195221 0.741138 0.334065
O O3 0.373977 0.692643 0.346254
O O4 0.361078 0.769657 0.445529
O O5 0.506648 0.737102 0.310491
O O6 0.547372 0.779847 0.219351
O O7 0.574978 0.000000 0.300382
O O8 0.593070 0.500000 0.087305
O O9 0.691076 0.744145 0.084715
O O10 0.551906 0.770512 0.115842
O O11 0.500000 0.711843 0.000000
O O12 0.881256 0.777261 0.118305
O O13 0.754049 0.000000 0.059114
O O14 0.750000 0.750000 0.000000
O O15 0.471536 0.500000 0.618647
O O16 0.445382 0.229967 0.569108
O O17 0.457547 0.000000 0.133659
O O18 0.750000 0.750000 0.500000
O O19 0.659211 0.000000 0.494675
#
# Coordination Sequence:
#
# PCOD8111863 Si02
#       7
#     8   8   8   8   8   8   8
#     4  10  22  41  63  89 125 163 205 256 310 369
#     4  10  23  43  64  88 124 169 209 255 306 367
#     4  11  23  40  65  96 128 163 205 257 313 373
#     4  12  24  40  65  95 127 164 206 257 314 374
#     4  11  23  39  63  93 125 165 208 256 312 370
#     4  11  24  42  65  95 130 168 211 258 314 377
#     4  12  23  37  61  92 123 160 207 261 316 370
#
# _framework density 19.978085
#
# number of rings (size 3 to 8) (size 9 to 14) (size 15 to 20)
#    0.000    1.000    2.857    4.286    0.000    5.714 
#    0.000    1.429    0.000    0.000    0.000    0.000 
#    0.000    0.000    0.000    0.000    0.000    0.000 
#
# Total GULP energy -347360.515938 kJ/mol
# GULP energy per Si atom -12405.732712 kJ/mol
# Density = 1.993261 g / cm^3
# Si number density = 19.978085 Si / 1000 Ang^3
#
#
#
# Elastic Constant Matrix: (Units=GPa)
#
#
# Indices 1 2 3 4 5 6 
#
# 1 122.9871 21.8580 38.7940 0.0000 -17.3098 0.0000
# 2 21.8580 84.4563 40.3691 0.0000 -9.7132 0.0000
# 3 38.7940 40.3691 101.4570 0.0000 -18.2824 0.0000
# 4 0.0000 0.0000 0.0000 30.6008 0.0000 -3.9840
# 5 -17.3098 -9.7132 -18.2824 0.0000 27.3765 0.0000
# 6 0.0000 0.0000 0.0000 -3.9840 0.0000 36.0946
#
#
#
# Elastic Compliance Matrix: (Units=1/GPa)
#
#
# Indices 1 2 3 4 5 6 
#
# 1 0.009680 -0.000764 -0.002664 0.000000 0.004070 0.000000
# 2 -0.000764 0.014734 -0.005361 0.000000 0.001165 0.000000
# 3 -0.002664 -0.005361 0.014053 0.000000 0.005798 0.000000
# 4 0.000000 0.000000 0.000000 0.033155 0.000000 0.003660
# 5 0.004070 0.001165 0.005798 0.000000 0.043387 0.000000
# 6 0.000000 0.000000 0.000000 0.003660 0.000000 0.028109
#
#
# Mechanical properties :
#
#
# Convention : Reuss Voigt Hill
#
# Bulk Modulus (GPa) = 47.86920 56.77141 52.32030
# Shear Modulus (GPa) = 29.82251 32.67301 31.24776
#
# Velocity S-wave (km/s) = 3.86782 4.04845 3.95916
# Velocity P-wave (km/s) = 6.63020 7.09449 6.86627
#
# Compressibility (1/GPa) = 0.02089026
#
# Stress axis : x y z
#
# Youngs Moduli (GPa) = 103.30738 67.86798 71.15989
#
# Poissons Ratio (x) = 0.05184 0.18956
# Poissons Ratio (y) = 0.07890 0.38147
# Poissons Ratio (z) = 0.27520 0.36383
#
# Static dielectric constant tensor:
#      x y z
#    x 3.897670 0.000000 0.112010 
#    y 0.000000 3.815070 0.000000 
#    z 0.112010 0.000000 3.717880 
# 
# 
# High freq. dielectric constant tensor:
#      x y z
#    x 1.796980 0.000000 -0.003500 
#    y 0.000000 1.788410 0.000000 
#    z -0.003500 0.000000 1.773990 
# 
# From -- ./inp_files/338431.got.cif
#   From: 2010.06.25/outbox.cif.g09.slc.cpg/sg12_170_cif.got.tgz:338431.got - 2010.06.28 00:19:55.
