data_PCOD8111553
_publ_section_title
;
Structure prediction by ZEFSAII (Michael W. Deem and Ramdas Pophale) SiO2 
 PCOD8111553
Probable space group: C 2/M
;
_chemical_formula_sum "Si O2"
_cell_formula_units_Z 64
_cell_length_a 15.604304
_cell_length_b 17.523410
_cell_length_c 14.886249
_cell_angle_alpha 90.000000
_cell_angle_beta 47.690758
_cell_angle_gamma 90.000000
_cell_volume 3010.230220
_symmetry_space_group_name_H-M "C 2/M"
_symmetry_group_IT_number 12
_symmetry_cell_setting 'monoclinic'
loop_
_space_group_symop_operation_xyz
x,y,z
-x,y,-z
-x,-y,-z
x,-y,z
1/2+x,1/2+y,z
1/2-x,1/2+y,-z
1/2-x,1/2-y,-z
1/2+x,1/2-y,z
loop_
_atom_site_type_symbol
_atom_site_label
_atom_site_fract_x
_atom_site_fract_y
_atom_site_fract_z
Si Si1 0.165483 0.359201 0.831169
Si Si2 0.949501 0.176515 0.313545
Si Si3 0.582088 0.589171 0.361766
Si Si4 0.570740 0.912321 0.075174
Si Si5 0.723880 0.914298 0.482559
Si Si6 0.809769 0.587690 0.701614
Si Si7 0.994905 0.349218 0.698143
Si Si8 0.903114 0.811056 0.143237
O O1 0.285747 0.390678 0.707840
O O2 0.156026 0.271547 0.808174
O O3 0.062491 0.408945 0.861963
O O4 0.155999 0.368751 0.945846
O O5 0.825057 0.145188 0.434672
O O6 0.960555 0.168015 0.198347
O O7 0.049746 0.127555 0.289807
O O8 0.965531 0.262338 0.334799
O O9 0.500000 0.619872 0.500000
O O10 0.566100 0.500000 0.361011
O O11 0.584357 0.868298 0.159755
O O12 0.609556 0.000000 0.057261
O O13 0.680982 0.904294 0.411290
O O14 0.611988 0.899145 0.622934
O O15 0.770250 0.000000 0.467623
O O16 0.809163 0.500000 0.733813
O O17 0.920965 0.630701 0.662603
O O18 0.691660 0.626818 0.818875
O O19 0.000000 0.810355 0.000000
#
# Coordination Sequence:
#
# PCOD8111553 Si02
#       8
#     8   8   8   8   8   8   8   8
#     4  11  21  43  64  92 127 163 214 265 320 378
#     4  11  24  41  61  94 127 167 214 264 321 382
#     4  11  26  44  66  94 132 176 218 265 323 386
#     4  11  22  37  65  95 126 165 210 266 324 380
#     4  10  22  40  63  87 125 168 210 262 317 382
#     4  10  23  40  60  90 125 163 211 262 317 378
#     4  12  22  38  62  96 127 163 214 262 323 382
#     4  11  22  44  68  91 126 170 212 262 326 389
#
# _framework density 21.260832000000001
#
# number of rings (size 3 to 8) (size 9 to 14) (size 15 to 20)
#    0.000    1.125    2.500    4.500    1.750    5.750 
#    0.000    3.750    0.000    0.000    0.000    0.000 
#    0.000    0.000    0.000    0.000    0.000    0.000 
#
# Total GULP energy -396973.033808 kJ/mol
# GULP energy per Si atom -12405.407307 kJ/mol
# Density = 2.121244 g / cm^3
# Si number density = 21.260832 Si / 1000 Ang^3
#
#
#
# Elastic Constant Matrix: (Units=GPa)
#
#
# Indices 1 2 3 4 5 6 
#
# 1 70.2082 45.6190 11.2014 0.0000 -9.9980 0.0000
# 2 45.6190 125.5645 30.9871 0.0000 0.4238 0.0000
# 3 11.2014 30.9871 77.4635 0.0000 -7.4822 0.0000
# 4 0.0000 0.0000 0.0000 19.9379 0.0000 -8.6007
# 5 -9.9980 0.4238 -7.4822 0.0000 26.7952 0.0000
# 6 0.0000 0.0000 0.0000 -8.6007 0.0000 36.6821
#
#
#
# Elastic Compliance Matrix: (Units=1/GPa)
#
#
# Indices 1 2 3 4 5 6 
#
# 1 0.020137 -0.007558 0.000872 0.000000 0.007877 0.000000
# 2 -0.007558 0.011708 -0.003988 0.000000 -0.004119 0.000000
# 3 0.000872 -0.003988 0.014816 0.000000 0.004526 0.000000
# 4 0.000000 0.000000 0.000000 0.055799 0.000000 0.013083
# 5 0.007877 -0.004119 0.004526 0.000000 0.041588 0.000000
# 6 0.000000 0.000000 0.000000 0.013083 0.000000 0.030329
#
#
# Mechanical properties :
#
#
# Convention : Reuss Voigt Hill
#
# Bulk Modulus (GPa) = 39.50601 49.87235 44.68918
# Shear Modulus (GPa) = 24.49039 29.04496 26.76768
#
# Velocity S-wave (km/s) = 3.39765 3.70012 3.55211
# Velocity P-wave (km/s) = 5.83215 6.46242 6.15536
#
# Compressibility (1/GPa) = 0.02531261
#
# Stress axis : x y z
#
# Youngs Moduli (GPa) = 49.66082 85.41159 67.49559
#
# Poissons Ratio (x) = 0.64551 -0.05887
# Poissons Ratio (y) = 0.37532 0.26920
# Poissons Ratio (z) = -0.04332 0.34066
#
# Static dielectric constant tensor:
#      x y z
#    x 3.817960 0.000000 0.078630 
#    y 0.000000 3.930550 0.000000 
#    z 0.078630 0.000000 3.851000 
# 
# 
# High freq. dielectric constant tensor:
#      x y z
#    x 1.832630 0.000000 0.005770 
#    y 0.000000 1.842840 0.000000 
#    z 0.005770 0.000000 1.831800 
# 
# From -- ./inp_files/216794.got.cif
#   From: 2010.06.25/outbox.cif.g09.slc.cpg/sg12_109_cif.got.tgz:216794.got - 2010.06.28 00:19:55.
