data_PCOD8111097
_publ_section_title
;
Structure prediction by ZEFSAII (Michael W. Deem and Ramdas Pophale) SiO2 
 PCOD8111097
Probable space group: C 2/M
;
_chemical_formula_sum "Si O2"
_cell_formula_units_Z 64
_cell_length_a 14.541309
_cell_length_b 21.920555
_cell_length_c 17.565318
_cell_angle_alpha 90.000000
_cell_angle_beta 32.194116
_cell_angle_gamma 90.000000
_cell_volume 2983.091809
_symmetry_space_group_name_H-M "C 2/M"
_symmetry_group_IT_number 12
_symmetry_cell_setting 'monoclinic'
loop_
_space_group_symop_operation_xyz
x,y,z
-x,y,-z
-x,-y,-z
x,-y,z
1/2+x,1/2+y,z
1/2-x,1/2+y,-z
1/2-x,1/2-y,-z
1/2+x,1/2-y,z
loop_
_atom_site_type_symbol
_atom_site_label
_atom_site_fract_x
_atom_site_fract_y
_atom_site_fract_z
Si Si1 0.615925 0.568625 0.172499
Si Si2 0.745347 0.432829 0.514932
Si Si3 0.813118 0.772921 0.157057
Si Si4 0.315787 0.373422 0.592426
Si Si5 0.489498 0.153954 0.423472
Si Si6 0.830545 0.204117 0.881815
Si Si7 0.160806 0.431337 0.842767
Si Si8 0.302687 0.747357 0.338742
O O1 0.667448 0.500000 0.101999
O O2 0.409315 0.575773 0.315668
O O3 0.694794 0.631247 0.078668
O O4 0.670952 0.569515 0.222044
O O5 0.820830 0.500000 0.467116
O O6 0.670125 0.423732 0.482860
O O7 0.907176 0.391101 0.420698
O O8 0.674834 0.827914 0.257841
O O9 0.751709 0.718864 0.143015
O O10 0.832859 0.745978 0.227267
O O11 0.000000 0.798944 0.000000
O O12 0.500000 0.357991 0.500000
O O13 0.186130 0.394333 0.748510
O O14 0.230888 0.315641 0.609086
O O15 0.500000 0.122587 0.500000
O O16 0.370920 0.212870 0.517857
O O17 0.034833 0.217196 0.733073
O O18 0.750000 0.250000 0.000000
O O19 0.111345 0.500000 0.853470
O O20 0.000000 0.401233 0.000000
#
# Coordination Sequence:
#
# PCOD8111097 Si02
#       8
#     8   8   8   8   8   8   8   8
#     4  10  22  40  63  92 129 173 220 267 317 386
#     4  11  23  40  65  95 125 168 224 274 321 388
#     4  11  23  41  64  98 130 163 212 267 323 399
#     4  12  23  36  61  94 131 165 204 260 328 388
#     4  10  23  43  67  90 124 164 214 277 334 380
#     4  12  24  39  66  95 132 173 213 268 331 381
#     4  10  22  39  59  86 127 179 218 248 307 394
#     4  11  24  40  61  96 125 164 212 261 328 385
#
# _framework density 21.454249999999998
#
# number of rings (size 3 to 8) (size 9 to 14) (size 15 to 20)
#    0.000    1.125    3.750    3.000    3.500    2.750 
#    0.000    0.000    0.000    0.375    0.000    0.000 
#    0.000    0.000    0.000    0.000    0.000    0.000 
#
# Total GULP energy -396607.745276 kJ/mol
# GULP energy per Si atom -12393.992040 kJ/mol
# Density = 2.140542 g / cm^3
# Si number density = 21.454250 Si / 1000 Ang^3
#
#
#
# Elastic Constant Matrix: (Units=GPa)
#
#
# Indices 1 2 3 4 5 6 
#
# 1 73.5931 38.0000 26.3731 0.0158 -13.1379 0.0040
# 2 38.0000 143.4909 47.2855 0.0202 4.2780 -0.0012
# 3 26.3731 47.2855 115.0483 0.1126 -10.2740 -0.0467
# 4 0.0158 0.0202 0.1126 16.8763 -0.0303 -0.4222
# 5 -13.1379 4.2780 -10.2740 -0.0303 31.8485 -0.0012
# 6 0.0040 -0.0012 -0.0467 -0.4222 -0.0012 27.6847
#
#
#
# Elastic Compliance Matrix: (Units=1/GPa)
#
#
# Indices 1 2 3 4 5 6 
#
# 1 0.017751 -0.004393 -0.001603 0.000013 0.007396 -0.000005
# 2 -0.004393 0.009303 -0.003182 0.000007 -0.004088 -0.000004
# 3 -0.001603 -0.003182 0.010653 -0.000060 0.003203 0.000017
# 4 0.000013 0.000007 -0.000060 0.059278 0.000041 0.000904
# 5 0.007396 -0.004088 0.003203 0.000041 0.036032 0.000006
# 6 -0.000005 -0.000004 0.000017 0.000904 0.000006 0.036135
#
#
# Mechanical properties :
#
#
# Convention : Reuss Voigt Hill
#
# Bulk Modulus (GPa) = 51.67522 61.71660 56.69591
# Shear Modulus (GPa) = 25.77875 29.98016 27.87945
#
# Velocity S-wave (km/s) = 3.47012 3.74224 3.60875
# Velocity P-wave (km/s) = 6.33989 6.89213 6.62177
#
# Compressibility (1/GPa) = 0.01935163
#
# Stress axis : x y z
#
# Youngs Moduli (GPa) = 56.33331 107.49418 93.86858
#
# Poissons Ratio (x) = 0.47225 0.15049
# Poissons Ratio (y) = 0.24748 0.29865
# Poissons Ratio (z) = 0.09031 0.34200
#
# Static dielectric constant tensor:
#      x y z
#    x 3.906750 -0.000100 -0.153310 
#    y -0.000100 3.881890 0.000150 
#    z -0.153310 0.000150 3.867180 
# 
# 
# High freq. dielectric constant tensor:
#      x y z
#    x 1.833740 -0.000010 -0.015630 
#    y -0.000010 1.837290 0.000010 
#    z -0.015630 0.000010 1.834760 
# 
# From -- ./inp_files/272811.got.cif
#   From: 2010.06.25/outbox.cif.g09.slc.cpg/sg12_137_cif.got.tgz:272811.got - 2010.06.28 00:19:55.
