data_PCOD8111723
_publ_section_title
;
Structure prediction by ZEFSAII (Michael W. Deem and Ramdas Pophale) SiO2 
 PCOD8111723
Probable space group: C 2/M
;
_chemical_formula_sum "Si O2"
_cell_formula_units_Z 48
_cell_length_a 17.032563
_cell_length_b 29.894612
_cell_length_c 9.027181
_cell_angle_alpha 90.000000
_cell_angle_beta 149.186686
_cell_angle_gamma 90.000000
_cell_volume 2354.510555
_symmetry_space_group_name_H-M "C 2/M"
_symmetry_group_IT_number 12
_symmetry_cell_setting 'monoclinic'
loop_
_space_group_symop_operation_xyz
x,y,z
-x,y,-z
-x,-y,-z
x,-y,z
1/2+x,1/2+y,z
1/2-x,1/2+y,-z
1/2-x,1/2-y,-z
1/2+x,1/2-y,z
loop_
_atom_site_type_symbol
_atom_site_label
_atom_site_fract_x
_atom_site_fract_y
_atom_site_fract_z
Si Si1 0.419575 0.782940 0.525491
Si Si2 0.597817 0.377061 0.799854
Si Si3 0.862573 0.051996 0.884394
Si Si4 0.967697 0.549475 0.775790
Si Si5 0.075650 0.626931 0.771047
Si Si6 0.558463 0.704907 0.931334
O O1 0.500000 0.770776 0.500000
O O2 0.478136 0.831400 0.676026
O O3 0.237515 0.783807 0.215830
O O4 0.463164 0.746902 0.718528
O O5 0.500000 0.392009 0.500000
O O6 0.629712 0.420486 0.951228
O O7 0.754735 0.356254 0.990747
O O8 0.517438 0.338065 0.764357
O O9 0.706645 0.063079 0.543691
O O10 0.875130 0.000000 0.947322
O O11 0.000000 0.066707 0.000000
O O12 0.003176 0.500000 0.768246
O O13 0.082973 0.585937 0.896508
O O14 0.000000 0.549371 0.000000
O O15 0.000000 0.607581 0.500000
O O16 0.500000 0.693557 0.000000
#
# Coordination Sequence:
#
# PCOD8111723 Si02
#       6
#     8   8   8   8   8   8
#     4  11  23  43  67  92 129 167 208 267 325 382
#     4  12  26  42  64  94 126 173 217 264 319 380
#     4  10  22  42  64  91 131 168 206 264 322 376
#     4  10  22  40  66  95 126 167 211 260 321 385
#     4  11  22  43  64  91 128 166 214 264 321 375
#     4  12  25  43  66  96 128 166 215 266 324 386
#
# _framework density 20.386402
#
# number of rings (size 3 to 8) (size 9 to 14) (size 15 to 20)
#    0.000    1.000    5.000    2.000    4.667    2.000 
#    0.000    0.000    0.000    0.000    0.000    0.000 
#    0.000    0.000    0.000    0.000    0.000    0.000 
#
# Total GULP energy -297673.072392 kJ/mol
# GULP energy per Si atom -12403.044683 kJ/mol
# Density = 2.034000 g / cm^3
# Si number density = 20.386402 Si / 1000 Ang^3
#
#
#
# Elastic Constant Matrix: (Units=GPa)
#
#
# Indices 1 2 3 4 5 6 
#
# 1 89.5027 36.7809 39.7726 0.0000 -4.9760 0.0000
# 2 36.7809 116.6222 35.0111 0.0000 -21.5557 0.0000
# 3 39.7726 35.0111 120.3457 0.0000 -13.7216 0.0000
# 4 0.0000 0.0000 0.0000 -113.0507 0.0000 -34.4056
# 5 -4.9760 -21.5557 -13.7216 0.0000 31.3637 0.0000
# 6 0.0000 0.0000 0.0000 -34.4056 0.0000 -1.3017
#
#
#
# Elastic Compliance Matrix: (Units=1/GPa)
#
#
# Indices 1 2 3 4 5 6 
#
# 1 0.014312 -0.003716 -0.003874 0.000000 -0.001978 0.000000
# 2 -0.003716 0.011373 -0.001322 0.000000 0.006648 0.000000
# 3 -0.003874 -0.001322 0.010315 0.000000 0.002989 0.000000
# 4 0.000000 0.000000 0.000000 0.001256 0.000000 -0.033191
# 5 -0.001978 0.006648 0.002989 0.000000 0.037447 0.000000
# 6 0.000000 0.000000 0.000000 -0.033191 0.000000 0.109060
#
#
# Mechanical properties :
#
#
# Convention : Reuss Voigt Hill
#
# Bulk Modulus (GPa) = 55.02434 61.06663 58.04548
# Shear Modulus (GPa) = 24.07947 -2.27066 10.90441
#
# Velocity S-wave (km/s) = 3.44052 -1.05652 2.31527
# Velocity P-wave (km/s) = 6.54463 5.34147 5.97342
#
# Compressibility (1/GPa) = 0.01817378
#
# Stress axis : x y z
#
# Youngs Moduli (GPa) = 69.87318 87.93141 96.94312
#
# Poissons Ratio (x) = 0.32678 0.37558
# Poissons Ratio (y) = 0.25967 0.12819
# Poissons Ratio (z) = 0.27071 0.11627
#
# Static dielectric constant tensor:
#      x y z
#    x 3.697550 0.000000 0.111610 
#    y 0.000000 3.775280 0.000000 
#    z 0.111610 0.000000 4.312930 
# 
# 
# High freq. dielectric constant tensor:
#      x y z
#    x 1.792940 0.000000 0.003480 
#    y 0.000000 1.806890 0.000000 
#    z 0.003480 0.000000 1.801340 
# 
# From -- ./inp_files/80824.got.cif
#   From: 2010.06.25/outbox.cif.g09.slc.cpg/sg12_41_cif.got.tgz:80824.got - 2010.06.28 00:19:55.
