data_PCOD8111743
_publ_section_title
;
Structure prediction by ZEFSAII (Michael W. Deem and Ramdas Pophale) SiO2 
 PCOD8111743
Probable space group: C 2/M
;
_chemical_formula_sum "Si O2"
_cell_formula_units_Z 56
_cell_length_a 9.314719
_cell_length_b 17.715689
_cell_length_c 29.406941
_cell_angle_alpha 90.000000
_cell_angle_beta 146.394351
_cell_angle_gamma 90.000000
_cell_volume 2685.805872
_symmetry_space_group_name_H-M "C 2/M"
_symmetry_group_IT_number 12
_symmetry_cell_setting 'monoclinic'
loop_
_space_group_symop_operation_xyz
x,y,z
-x,y,-z
-x,-y,-z
x,-y,z
1/2+x,1/2+y,z
1/2-x,1/2+y,-z
1/2-x,1/2-y,-z
1/2+x,1/2-y,z
loop_
_atom_site_type_symbol
_atom_site_label
_atom_site_fract_x
_atom_site_fract_y
_atom_site_fract_z
Si Si1 0.893965 0.411795 0.922095
Si Si2 0.352320 0.329731 0.008335
Si Si3 0.093995 0.686789 0.397759
Si Si4 0.760744 0.647524 0.464462
Si Si5 0.739972 0.914893 0.352307
Si Si6 0.694640 0.836383 0.811998
Si Si7 0.569536 0.698970 0.216140
O O1 0.841527 0.500000 0.903867
O O2 0.623257 0.371537 0.839412
O O3 0.000000 0.389118 0.000000
O O4 0.106667 0.385888 0.940676
O O5 0.551091 0.369529 0.096317
O O6 0.500000 0.318600 0.000000
O O7 0.250000 0.250000 0.000000
O O8 0.163011 0.647594 0.462842
O O9 0.203846 0.771431 0.426721
O O10 0.231187 0.642475 0.392479
O O11 0.780788 0.684656 0.311460
O O12 0.502753 0.596977 0.392863
O O13 0.000000 0.610401 0.500000
O O14 0.503536 0.902009 0.254663
O O15 0.721868 0.000000 0.365992
O O16 0.575711 0.777137 0.815750
O O17 0.772093 0.788816 0.788214
#
# Coordination Sequence:
#
# PCOD8111743 Si02
#       7
#     8   8   8   8   8   8   8
#     4  11  24  43  64  94 136 176 220 275 335 392
#     4  12  23  40  68  96 127 170 222 271 330 399
#     4  10  22  40  67  98 128 171 222 266 323 401
#     4  11  22  40  68  98 131 168 218 269 329 398
#     4  11  25  44  66  96 134 175 217 274 335 396
#     4  11  23  39  66  97 127 167 225 270 324 392
#     4  11  22  38  66  97 128 170 218 274 326 389
#
# _framework density 20.850352000000001
#
# number of rings (size 3 to 8) (size 9 to 14) (size 15 to 20)
#    0.000    1.000    4.286    3.429    2.000    4.571 
#    0.000    0.000    0.000    0.000    0.000    0.000 
#    0.000    0.000    0.000    0.000    0.000    0.000 
#
# Total GULP energy -347226.854801 kJ/mol
# GULP energy per Si atom -12400.959100 kJ/mol
# Density = 2.080290 g / cm^3
# Si number density = 20.850352 Si / 1000 Ang^3
#
#
#
# Elastic Constant Matrix: (Units=GPa)
#
#
# Indices 1 2 3 4 5 6 
#
# 1 105.8597 22.4866 32.6617 0.0017 16.8157 0.0019
# 2 22.4866 76.3857 22.2817 0.0011 0.3797 0.0019
# 3 32.6617 22.2817 126.7578 0.0024 13.9032 0.0069
# 4 0.0017 0.0011 0.0024 22.0725 0.0031 -0.5828
# 5 16.8157 0.3797 13.9032 0.0031 32.0020 0.0025
# 6 0.0019 0.0019 0.0069 -0.5828 0.0025 18.7442
#
#
#
# Elastic Compliance Matrix: (Units=1/GPa)
#
#
# Indices 1 2 3 4 5 6 
#
# 1 0.011442 -0.002791 -0.001892 0.000000 -0.005157 0.000001
# 2 -0.002791 0.014506 -0.002072 -0.000001 0.002194 -0.000001
# 3 -0.001892 -0.002072 0.009061 0.000000 -0.002918 -0.000003
# 4 0.000000 -0.000001 0.000000 0.045342 -0.000004 0.001410
# 5 -0.005157 0.002194 -0.002918 -0.000004 0.035200 -0.000003
# 6 0.000001 -0.000001 -0.000003 0.001410 -0.000003 0.053394
#
#
# Mechanical properties :
#
#
# Convention : Reuss Voigt Hill
#
# Bulk Modulus (GPa) = 46.51048 51.54035 49.02542
# Shear Modulus (GPa) = 26.36841 30.00196 28.18518
#
# Velocity S-wave (km/s) = 3.56005 3.79742 3.68065
# Velocity P-wave (km/s) = 6.26529 6.63325 6.45190
#
# Compressibility (1/GPa) = 0.02150053
#
# Stress axis : x y z
#
# Youngs Moduli (GPa) = 87.39488 68.93510 110.36614
#
# Poissons Ratio (x) = 0.19239 0.20882
# Poissons Ratio (y) = 0.24391 0.22863
# Poissons Ratio (z) = 0.16536 0.14280
#
# Static dielectric constant tensor:
#      x y z
#    x 3.938070 0.000000 0.222550 
#    y 0.000000 3.378640 0.000000 
#    z 0.222550 0.000000 4.182890 
# 
# 
# High freq. dielectric constant tensor:
#      x y z
#    x 1.824510 0.000000 0.017280 
#    y 0.000000 1.783480 0.000000 
#    z 0.017280 0.000000 1.835280 
# 
# From -- ./inp_files/356730.got.cif
#   From: 2010.06.25/outbox.cif.g09.slc.cpg/sg12_179_cif.got.tgz:356730.got - 2010.06.28 00:19:55.
