data_PCOD8111214
_publ_section_title
;
Structure prediction by ZEFSAII (Michael W. Deem and Ramdas Pophale) SiO2 
 PCOD8111214
Probable space group: C 2/M
;
_chemical_formula_sum "Si O2"
_cell_formula_units_Z 64
_cell_length_a 20.598734
_cell_length_b 24.140412
_cell_length_c 16.890189
_cell_angle_alpha 90.000000
_cell_angle_beta 22.257778
_cell_angle_gamma 90.000000
_cell_volume 3181.267379
_symmetry_space_group_name_H-M "C 2/M"
_symmetry_group_IT_number 12
_symmetry_cell_setting 'monoclinic'
loop_
_space_group_symop_operation_xyz
x,y,z
-x,y,-z
-x,-y,-z
x,-y,z
1/2+x,1/2+y,z
1/2-x,1/2+y,-z
1/2-x,1/2-y,-z
1/2+x,1/2-y,z
loop_
_atom_site_type_symbol
_atom_site_label
_atom_site_fract_x
_atom_site_fract_y
_atom_site_fract_z
Si Si1 0.070492 0.654556 0.002741
Si Si2 0.837643 0.061667 0.238749
Si Si3 0.683560 0.747758 0.329919
Si Si4 0.767441 0.062733 0.042654
Si Si5 0.366050 0.401471 0.376375
Si Si6 0.807339 0.364781 0.721525
Si Si7 0.758514 0.210131 0.563746
Si Si8 0.526424 0.062512 0.167765
O O1 0.932535 0.690036 0.205576
O O2 0.122944 0.601941 0.996367
O O3 0.226333 0.694855 0.809867
O O4 0.000000 0.630413 0.000000
O O5 0.884370 0.099944 0.260471
O O6 0.695396 0.091565 0.347358
O O7 0.776178 0.000000 0.334936
O O8 0.000000 0.057121 0.000000
O O9 0.500000 0.745833 0.500000
O O10 0.785836 0.805367 0.191853
O O11 0.667656 0.741519 0.442908
O O12 0.752484 0.107805 0.129267
O O13 0.614569 0.075222 0.153136
O O14 0.746511 0.000000 0.099488
O O15 0.961574 0.067064 0.786810
O O16 0.376780 0.341726 0.405153
O O17 0.180415 0.429747 0.601720
O O18 0.000000 0.345019 0.500000
O O19 0.750000 0.250000 0.500000
O O20 0.568328 0.000000 0.095718
#
# Coordination Sequence:
#
# PCOD8111214 Si02
#       8
#     8   8   8   8   8   8   8   8
#     4   9  21  41  63  87 119 155 198 253 310 362
#     4  11  21  34  55  83 118 161 205 248 295 357
#     4  10  23  41  62  88 122 159 204 259 307 363
#     4  11  23  38  59  91 127 165 205 247 308 368
#     4  11  22  38  61  88 123 163 205 250 307 365
#     4  11  23  37  56  84 121 163 206 250 304 362
#     4  10  22  39  62  90 116 160 205 253 308 365
#     4  10  22  40  64  91 124 159 199 257 308 371
#
# _framework density 20.117768000000002
#
# number of rings (size 3 to 8) (size 9 to 14) (size 15 to 20)
#    0.000    1.625    1.250    3.000    3.500    6.750 
#    0.000    1.250    0.000    0.375    0.000    0.000 
#    0.000    0.000    0.000    0.000    0.000    0.000 
#
# Total GULP energy -396531.170446 kJ/mol
# GULP energy per Si atom -12391.599076 kJ/mol
# Density = 2.007198 g / cm^3
# Si number density = 20.117768 Si / 1000 Ang^3
#
#
#
# Elastic Constant Matrix: (Units=GPa)
#
#
# Indices 1 2 3 4 5 6 
#
# 1 117.5680 84.3418 38.1009 -0.2134 10.5470 0.2507
# 2 84.3418 148.1023 38.5884 -0.4435 19.1296 0.4803
# 3 38.1009 38.5884 66.8875 -0.3118 3.8075 0.2852
# 4 -0.2134 -0.4435 -0.3118 45.0125 0.1557 -5.8125
# 5 10.5470 19.1296 3.8075 0.1557 34.8930 -0.1479
# 6 0.2507 0.4803 0.2852 -5.8125 -0.1479 55.6118
#
#
#
# Elastic Compliance Matrix: (Units=1/GPa)
#
#
# Indices 1 2 3 4 5 6 
#
# 1 0.015394 -0.007629 -0.004368 -0.000030 0.000007 0.000016
# 2 -0.007629 0.012287 -0.002505 0.000074 -0.004157 -0.000062
# 3 -0.004368 -0.002505 0.018848 0.000077 0.000637 -0.000046
# 4 -0.000030 0.000074 0.000077 0.022521 -0.000130 0.002353
# 5 0.000007 -0.004157 0.000637 -0.000130 0.030868 0.000101
# 6 0.000016 -0.000062 -0.000046 0.002353 0.000101 0.018229
#
#
# Mechanical properties :
#
#
# Convention : Reuss Voigt Hill
#
# Bulk Modulus (GPa) = 57.06504 72.73552 64.90028
# Shear Modulus (GPa) = 32.68111 38.53858 35.60985
#
# Velocity S-wave (km/s) = 4.03487 4.38156 4.21178
# Velocity P-wave (km/s) = 7.08053 7.86326 7.48214
#
# Compressibility (1/GPa) = 0.01752386
#
# Stress axis : x y z
#
# Youngs Moduli (GPa) = 64.96116 81.38588 53.05550
#
# Poissons Ratio (x) = 0.62093 0.23173
# Poissons Ratio (y) = 0.49562 0.13293
# Poissons Ratio (z) = 0.28373 0.20391
#
# Static dielectric constant tensor:
#      x y z
#    x 3.892420 -0.001410 -0.079970 
#    y -0.001410 4.099150 -0.001100 
#    z -0.079970 -0.001100 3.378350 
# 
# 
# High freq. dielectric constant tensor:
#      x y z
#    x 1.783940 -0.000020 -0.005160 
#    y -0.000020 1.796640 0.000040 
#    z -0.005160 0.000040 1.776880 
# 
# From -- ./inp_files/228139.got.cif
#   From: 2010.06.25/outbox.cif.g09.slc.cpg/sg12_115_cif.got.tgz:228139.got - 2010.06.28 00:19:55.
