data_PCOD8111476
_publ_section_title
;
Structure prediction by ZEFSAII (Michael W. Deem and Ramdas Pophale) SiO2 
 PCOD8111476
Probable space group: C 2/M
;
_chemical_formula_sum "Si O2"
_cell_formula_units_Z 64
_cell_length_a 15.429723
_cell_length_b 26.386520
_cell_length_c 9.470042
_cell_angle_alpha 90.000000
_cell_angle_beta 57.518373
_cell_angle_gamma 90.000000
_cell_volume 3252.445541
_symmetry_space_group_name_H-M "C 2/M"
_symmetry_group_IT_number 12
_symmetry_cell_setting 'monoclinic'
loop_
_space_group_symop_operation_xyz
x,y,z
-x,y,-z
-x,-y,-z
x,-y,z
1/2+x,1/2+y,z
1/2-x,1/2+y,-z
1/2-x,1/2-y,-z
1/2+x,1/2-y,z
loop_
_atom_site_type_symbol
_atom_site_label
_atom_site_fract_x
_atom_site_fract_y
_atom_site_fract_z
Si Si1 0.887682 0.196588 0.354440
Si Si2 0.899310 0.057990 0.998023
Si Si3 0.429548 0.804659 0.194120
Si Si4 0.119715 0.201585 0.135010
Si Si5 0.221329 0.152209 0.294732
Si Si6 0.104700 0.057223 0.327767
Si Si7 0.720281 0.650896 0.801261
Si Si8 0.430067 0.806567 0.691546
O O1 0.879917 0.254820 0.310570
O O2 0.847793 0.189580 0.548588
O O3 0.812659 0.160207 0.330831
O O4 0.005511 0.178000 0.245651
O O5 0.807312 0.093994 0.129262
O O6 0.866631 0.000000 0.054860
O O7 0.917814 0.068452 0.816795
O O8 0.000000 0.072010 0.000000
O O9 0.341456 0.843350 0.224185
O O10 0.498055 0.833386 0.253182
O O11 0.500000 0.788141 0.000000
O O12 0.201514 0.170020 0.153120
O O13 0.121886 0.259556 0.181388
O O14 0.158345 0.194547 0.941169
O O15 0.189660 0.093227 0.326439
O O16 0.000000 0.067407 0.500000
O O17 0.144386 0.000000 0.314502
O O18 0.842872 0.655803 0.711546
O O19 0.500000 0.787424 0.500000
#
# Coordination Sequence:
#
# PCOD8111476 Si02
#       8
#     8   8   8   8   8   8   8   8
#     4  11  22  35  54  86 119 149 188 236 283 348
#     4  10  22  40  62  89 118 146 184 237 296 353
#     4  11  23  39  55  79 118 156 200 239 274 327
#     4  11  20  35  56  83 114 148 191 231 285 345
#     4  12  22  36  59  84 113 159 192 230 288 346
#     4  10  22  40  61  89 119 146 183 237 296 351
#     4  12  22  36  59  83 113 152 194 232 285 342
#     4  11  23  39  54  79 117 157 194 238 278 327
#
# _framework density 19.677499999999998
#
# number of rings (size 3 to 8) (size 9 to 14) (size 15 to 20)
#    0.000    1.000    1.250    8.250    1.750    0.000 
#    0.000    0.000    0.000    1.500    0.000    0.000 
#    0.000    0.000    0.000    0.000    0.000    0.000 
#
# Total GULP energy -396850.861132 kJ/mol
# GULP energy per Si atom -12401.589410 kJ/mol
# Density = 1.963271 g / cm^3
# Si number density = 19.677500 Si / 1000 Ang^3
#
#
#
# Elastic Constant Matrix: (Units=GPa)
#
#
# Indices 1 2 3 4 5 6 
#
# 1 140.2118 49.0598 8.4872 0.0000 -1.2521 0.0000
# 2 49.0598 102.9235 22.9639 0.0000 -6.3739 0.0000
# 3 8.4872 22.9639 50.2836 0.0000 2.5766 0.0000
# 4 0.0000 0.0000 0.0000 18.6188 0.0000 -6.2239
# 5 -1.2521 -6.3739 2.5766 0.0000 27.8591 0.0000
# 6 0.0000 0.0000 0.0000 -6.2239 0.0000 20.5777
#
#
#
# Elastic Compliance Matrix: (Units=1/GPa)
#
#
# Indices 1 2 3 4 5 6 
#
# 1 0.008580 -0.004246 0.000523 0.000000 -0.000634 0.000000
# 2 -0.004246 0.013166 -0.005466 0.000000 0.003327 0.000000
# 3 0.000523 -0.005466 0.022465 0.000000 -0.003305 0.000000
# 4 0.000000 0.000000 0.000000 0.059750 0.000000 0.018072
# 5 -0.000634 0.003327 -0.003305 0.000000 0.036933 0.000000
# 6 0.000000 0.000000 0.000000 0.018072 0.000000 0.054062
#
#
# Mechanical properties :
#
#
# Convention : Reuss Voigt Hill
#
# Bulk Modulus (GPa) = 38.71087 50.49341 44.60214
# Shear Modulus (GPa) = 22.52807 27.60499 25.06653
#
# Velocity S-wave (km/s) = 3.38726 3.74955 3.57300
# Velocity P-wave (km/s) = 5.91721 6.66796 6.30377
#
# Compressibility (1/GPa) = 0.02583253
#
# Stress axis : x y z
#
# Youngs Moduli (GPa) = 116.54487 75.95603 44.51445
#
# Poissons Ratio (x) = 0.32251 -0.02330
# Poissons Ratio (y) = 0.49485 0.24333
# Poissons Ratio (z) = -0.06099 0.41520
#
# Static dielectric constant tensor:
#      x y z
#    x 3.829330 0.000000 0.228990 
#    y 0.000000 3.361890 0.000000 
#    z 0.228990 0.000000 3.622400 
# 
# 
# High freq. dielectric constant tensor:
#      x y z
#    x 1.775180 0.000000 0.019830 
#    y 0.000000 1.730160 0.000000 
#    z 0.019830 0.000000 1.774470 
# 
# From -- ./inp_files/68217.got.cif
#   From: 2010.06.25/outbox.cif.g09.slc.cpg/sg12_35_cif.got.tgz:68217.got - 2010.06.28 00:19:55.
