data_PCOD8111698
_publ_section_title
;
Structure prediction by ZEFSAII (Michael W. Deem and Ramdas Pophale) SiO2 
 PCOD8111698
Probable space group: C 2/M
;
_chemical_formula_sum "Si O2"
_cell_formula_units_Z 36
_cell_length_a 12.830356
_cell_length_b 26.270888
_cell_length_c 9.262266
_cell_angle_alpha 90.000000
_cell_angle_beta 33.524231
_cell_angle_gamma 90.000000
_cell_volume 1724.239422
_symmetry_space_group_name_H-M "C 2/M"
_symmetry_group_IT_number 12
_symmetry_cell_setting 'monoclinic'
loop_
_space_group_symop_operation_xyz
x,y,z
-x,y,-z
-x,-y,-z
x,-y,z
1/2+x,1/2+y,z
1/2-x,1/2+y,-z
1/2-x,1/2-y,-z
1/2+x,1/2-y,z
loop_
_atom_site_type_symbol
_atom_site_label
_atom_site_fract_x
_atom_site_fract_y
_atom_site_fract_z
Si Si1 0.576797 0.329351 0.060071
Si Si2 0.777352 0.942661 0.777651
Si Si3 0.279272 0.857770 0.375225
Si Si4 0.500000 0.231701 0.000000
Si Si5 0.923560 0.390944 0.737699
O O1 0.442646 0.352629 0.338404
O O2 0.564987 0.267720 0.058835
O O3 0.500000 0.354491 0.000000
O O4 0.790873 0.343548 0.848277
O O5 0.676883 0.903553 0.785354
O O6 0.000000 0.936502 0.500000
O O7 0.716876 0.000000 0.806997
O O8 0.701734 0.931283 0.027009
O O9 0.400354 0.867954 0.378701
O O10 0.328998 0.804048 0.245488
O O11 0.000000 0.416366 0.500000
#
# Coordination Sequence:
#
# PCOD8111698 Si02
#       5
#     8   8   8   4   8
#     4  10  23  40  61  96 143 170 216 273 323 392
#     4  11  25  46  72  98 132 175 221 279 343 391
#     4  12  22  43  67  98 131 178 226 270 325 397
#     4  10  22  40  65  96 137 182 220 262 334 388
#     4  12  23  41  70  97 134 176 222 273 330 391
#
# _framework density 20.878769999999999
#
# number of rings (size 3 to 8) (size 9 to 14) (size 15 to 20)
#    0.667    0.222    6.667    0.667    0.000    3.111 
#    0.000    3.333    0.000    4.000    0.000    0.000 
#    0.000    0.000    0.000    0.000    0.000    0.000 
#
# Total GULP energy -223120.482118 kJ/mol
# GULP energy per Si atom -12395.582340 kJ/mol
# Density = 2.083125 g / cm^3
# Si number density = 20.878770 Si / 1000 Ang^3
#
#
#
# Elastic Constant Matrix: (Units=GPa)
#
#
# Indices 1 2 3 4 5 6 
#
# 1 96.0594 47.9683 39.5633 0.0000 4.2103 0.0000
# 2 47.9683 134.2073 39.5961 0.0000 15.6509 0.0000
# 3 39.5633 39.5961 147.7230 0.0000 20.8964 0.0000
# 4 0.0000 0.0000 0.0000 24.8930 0.0000 -0.4564
# 5 4.2103 15.6509 20.8964 0.0000 36.6021 0.0000
# 6 0.0000 0.0000 0.0000 -0.4564 0.0000 27.0537
#
#
#
# Elastic Compliance Matrix: (Units=1/GPa)
#
#
# Indices 1 2 3 4 5 6 
#
# 1 0.013592 -0.004258 -0.002758 0.000000 0.001832 0.000000
# 2 -0.004258 0.009626 -0.001008 0.000000 -0.003051 0.000000
# 3 -0.002758 -0.001008 0.008347 0.000000 -0.004017 0.000000
# 4 0.000000 0.000000 0.000000 0.040184 0.000000 0.000678
# 5 0.001832 -0.003051 -0.004017 0.000000 0.030708 0.000000
# 6 0.000000 0.000000 0.000000 0.000678 0.000000 0.036975
#
#
# Mechanical properties :
#
#
# Convention : Reuss Voigt Hill
#
# Bulk Modulus (GPa) = 64.44857 70.24945 67.34901
# Shear Modulus (GPa) = 31.12297 34.43388 32.77843
#
# Velocity S-wave (km/s) = 3.86508 4.06548 3.96655
# Velocity P-wave (km/s) = 7.13116 7.46705 7.30104
#
# Compressibility (1/GPa) = 0.01551625
#
# Stress axis : x y z
#
# Youngs Moduli (GPa) = 73.57189 103.88198 119.80985
#
# Poissons Ratio (x) = 0.44233 0.33044
# Poissons Ratio (y) = 0.31327 0.12081
# Poissons Ratio (z) = 0.20292 0.10475
#
# Static dielectric constant tensor:
#      x y z
#    x 3.588530 0.000000 0.174760 
#    y 0.000000 3.561760 0.000000 
#    z 0.174760 0.000000 3.963280 
# 
# 
# High freq. dielectric constant tensor:
#      x y z
#    x 1.806680 0.000000 -0.001730 
#    y 0.000000 1.797560 0.000000 
#    z -0.001730 0.000000 1.842100 
# 
# From -- ./inp_files/52250.got.cif
#   From: 2010.06.25/outbox.cif.g09.slc.cpg/sg12_27_cif.got.tgz:52250.got - 2010.06.28 00:19:55.
