data_PCOD8111946
_publ_section_title
;
Structure prediction by ZEFSAII (Michael W. Deem and Ramdas Pophale) SiO2 
 PCOD8111946
Probable space group: C 2/M
;
_chemical_formula_sum "Si O2"
_cell_formula_units_Z 36
_cell_length_a 12.608053
_cell_length_b 20.639317
_cell_length_c 7.103499
_cell_angle_alpha 90.000000
_cell_angle_beta 72.592197
_cell_angle_gamma 90.000000
_cell_volume 1763.822581
_symmetry_space_group_name_H-M "C 2/M"
_symmetry_group_IT_number 12
_symmetry_cell_setting 'monoclinic'
loop_
_space_group_symop_operation_xyz
x,y,z
-x,y,-z
-x,-y,-z
x,-y,z
1/2+x,1/2+y,z
1/2-x,1/2+y,-z
1/2-x,1/2-y,-z
1/2+x,1/2-y,z
loop_
_atom_site_type_symbol
_atom_site_label
_atom_site_fract_x
_atom_site_fract_y
_atom_site_fract_z
Si Si1 0.572470 0.264424 0.131812
Si Si2 0.717941 0.424805 0.505582
Si Si3 0.233329 0.342740 0.153455
Si Si4 0.000000 0.146262 0.500000
Si Si5 0.877637 0.573634 0.084936
O O1 0.632084 0.208616 0.222955
O O2 0.503880 0.309042 0.312191
O O3 0.500000 0.233508 0.000000
O O4 0.657176 0.307351 0.969627
O O5 0.698805 0.500000 0.574168
O O6 0.745310 0.378839 0.664122
O O7 0.608543 0.399181 0.455998
O O8 0.827713 0.418550 0.319390
O O9 0.208274 0.395375 0.010976
O O10 0.886853 0.500000 0.016802
O O11 0.000000 0.605636 0.000000
#
# Coordination Sequence:
#
# PCOD8111946 Si02
#       5
#     8   8   8   4   8
#     4  11  24  41  64  95 131 169 213 262 323 382
#     4  11  24  42  68  99 129 169 216 265 324 382
#     4  11  23  41  65  93 130 169 216 262 317 386
#     4  12  23  44  66  98 135 166 212 270 320 388
#     4  10  22  41  64  93 131 170 214 265 316 379
#
# _framework density 20.410216999999999
#
# number of rings (size 3 to 8) (size 9 to 14) (size 15 to 20)
#    0.000    1.111    4.444    1.667    0.000    5.333 
#    0.000    4.444    0.000    0.000    0.000    0.000 
#    0.000    0.000    0.000    0.000    0.000    0.000 
#
# Total GULP energy -223167.325293 kJ/mol
# GULP energy per Si atom -12398.184738 kJ/mol
# Density = 2.036376 g / cm^3
# Si number density = 20.410217 Si / 1000 Ang^3
#
#
#
# Elastic Constant Matrix: (Units=GPa)
#
#
# Indices 1 2 3 4 5 6 
#
# 1 87.6357 43.0804 44.3312 0.0000 1.9187 0.0000
# 2 43.0804 99.1422 59.8677 0.0000 1.0822 0.0000
# 3 44.3312 59.8677 75.0243 0.0000 12.6986 0.0000
# 4 0.0000 0.0000 0.0000 31.3959 0.0000 10.7521
# 5 1.9187 1.0822 12.6986 0.0000 34.9142 0.0000
# 6 0.0000 0.0000 0.0000 10.7521 0.0000 36.4509
#
#
#
# Elastic Compliance Matrix: (Units=1/GPa)
#
#
# Indices 1 2 3 4 5 6 
#
# 1 0.016747 -0.002112 -0.008595 0.000000 0.002271 0.000000
# 2 -0.002112 0.020729 -0.016202 0.000000 0.005366 0.000000
# 3 -0.008595 -0.016202 0.033216 0.000000 -0.011107 0.000000
# 4 0.000000 0.000000 0.000000 0.035430 0.000000 -0.010451
# 5 0.002271 0.005366 -0.011107 0.000000 0.032390 0.000000
# 6 0.000000 0.000000 0.000000 -0.010451 0.000000 0.030517
#
#
# Mechanical properties :
#
#
# Convention : Reuss Voigt Hill
#
# Bulk Modulus (GPa) = 59.25811 61.81787 60.53799
# Shear Modulus (GPa) = 21.88446 28.18706 25.03576
#
# Velocity S-wave (km/s) = 3.27805 3.72025 3.50613
# Velocity P-wave (km/s) = 6.58969 6.98621 6.79085
#
# Compressibility (1/GPa) = 0.01687533
#
# Stress axis : x y z
#
# Youngs Moduli (GPa) = 59.71170 48.24111 30.10565
#
# Poissons Ratio (x) = 0.10188 0.25876
# Poissons Ratio (y) = 0.12610 0.48777
# Poissons Ratio (z) = 0.51322 0.78160
#
# Static dielectric constant tensor:
#      x y z
#    x 3.113870 0.000000 -0.301260 
#    y 0.000000 3.843100 0.000000 
#    z -0.301260 0.000000 3.538350 
# 
# 
# High freq. dielectric constant tensor:
#      x y z
#    x 1.809130 0.000000 -0.001070 
#    y 0.000000 1.812120 0.000000 
#    z -0.001070 0.000000 1.795770 
# 
# From -- ./inp_files/6920.got.cif
#   From: 2010.06.25/outbox.cif.g09.slc.cpg/sg12_4_cif.got.tgz:6920.got - 2010.06.28 00:19:55.
