data_PCOD8111964
_publ_section_title
;
Structure prediction by ZEFSAII (Michael W. Deem and Ramdas Pophale) SiO2 
 PCOD8111964
Probable space group: C 2/M
;
_chemical_formula_sum "Si O2"
_cell_formula_units_Z 64
_cell_length_a 10.011978
_cell_length_b 14.085556
_cell_length_c 24.189095
_cell_angle_alpha 90.000000
_cell_angle_beta 81.067431
_cell_angle_gamma 90.000000
_cell_volume 3369.877185
_symmetry_space_group_name_H-M "C 2/M"
_symmetry_group_IT_number 12
_symmetry_cell_setting 'monoclinic'
loop_
_space_group_symop_operation_xyz
x,y,z
-x,y,-z
-x,-y,-z
x,-y,z
1/2+x,1/2+y,z
1/2-x,1/2+y,-z
1/2-x,1/2-y,-z
1/2+x,1/2-y,z
loop_
_atom_site_type_symbol
_atom_site_label
_atom_site_fract_x
_atom_site_fract_y
_atom_site_fract_z
Si Si1 0.337511 0.390409 0.391566
Si Si2 0.219612 0.765926 0.705116
Si Si3 0.491175 0.889551 0.124031
Si Si4 0.108774 0.236983 0.038347
Si Si5 0.648857 0.612697 0.490649
Si Si6 0.563068 0.236874 0.221098
Si Si7 0.673383 0.389920 0.134075
Si Si8 0.157366 0.891235 0.370767
O O1 0.303961 0.500000 0.384082
O O2 0.261167 0.335005 0.348221
O O3 0.279475 0.355873 0.456054
O O4 0.497665 0.371659 0.379292
O O5 0.315250 0.801405 0.748555
O O6 0.266843 0.662169 0.683144
O O7 0.065743 0.761988 0.733925
O O8 0.571119 0.836039 0.070355
O O9 0.532387 0.847198 0.180422
O O10 0.333184 0.873605 0.124566
O O11 0.531185 0.000000 0.119493
O O12 0.113313 0.150611 0.081153
O O13 0.250000 0.250000 0.000000
O O14 0.000000 0.207614 0.000000
O O15 0.500000 0.658334 0.500000
O O16 0.633341 0.500000 0.494060
O O17 0.718644 0.639990 0.427484
O O18 0.606648 0.334482 0.189104
O O19 0.634294 0.500000 0.141909
O O20 0.189657 0.000000 0.357147
#
# Coordination Sequence:
#
# PCOD8111964 Si02
#       8
#     8   8   8   8   8   8   8   8
#     4   9  18  33  54  80 110 144 184 233 289 348
#     4  12  22  36  57  84 113 145 191 243 293 338
#     4  10  22  41  65  88 116 162 202 227 278 343
#     4  11  22  39  63  98 133 153 183 240 283 322
#     4   7  12  27  50  76 106 139 180 228 278 345
#     4  11  24  40  57  84 117 150 192 250 287 323
#     4  10  22  41  65  88 116 161 201 229 279 340
#     4   9  18  33  55  80 107 146 189 228 283 356
#
# _framework density 18.991790000000002
#
# number of rings (size 3 to 8) (size 9 to 14) (size 15 to 20)
#    0.000    2.125    3.750    1.500    0.000    3.500 
#    0.000    1.250    0.000    0.000    0.000    2.625 
#    0.000    0.000    0.000    0.000    0.000    0.000 
#
# Total GULP energy -396664.298650 kJ/mol
# GULP energy per Si atom -12395.759333 kJ/mol
# Density = 1.894856 g / cm^3
# Si number density = 18.991790 Si / 1000 Ang^3
#
#
#
# Elastic Constant Matrix: (Units=GPa)
#
#
# Indices 1 2 3 4 5 6 
#
# 1 61.0918 31.4925 32.2278 0.0000 6.2778 0.0000
# 2 31.4925 100.2758 49.7304 0.0000 12.3661 0.0000
# 3 32.2278 49.7304 120.6730 0.0000 21.5497 0.0000
# 4 0.0000 0.0000 0.0000 24.7973 0.0000 -0.0719
# 5 6.2778 12.3661 21.5497 0.0000 33.4792 0.0000
# 6 0.0000 0.0000 0.0000 -0.0719 0.0000 18.3742
#
#
#
# Elastic Compliance Matrix: (Units=1/GPa)
#
#
# Indices 1 2 3 4 5 6 
#
# 1 0.020693 -0.004732 -0.003611 0.000000 0.000192 0.000000
# 2 -0.004732 0.013681 -0.004102 0.000000 -0.001526 0.000000
# 3 -0.003611 -0.004102 0.011920 0.000000 -0.005481 0.000000
# 4 0.000000 0.000000 0.000000 0.040327 0.000000 0.000158
# 5 0.000192 -0.001526 -0.005481 0.000000 0.033925 0.000000
# 6 0.000000 0.000000 0.000000 0.000158 0.000000 0.054425
#
#
# Mechanical properties :
#
#
# Convention : Reuss Voigt Hill
#
# Bulk Modulus (GPa) = 46.71658 56.54914 51.63286
# Shear Modulus (GPa) = 24.15518 26.56948 25.36233
#
# Velocity S-wave (km/s) = 3.57020 3.74438 3.65833
# Velocity P-wave (km/s) = 6.45344 6.96664 6.71494
#
# Compressibility (1/GPa) = 0.02140568
#
# Stress axis : x y z
#
# Youngs Moduli (GPa) = 48.32533 73.09412 83.89066
#
# Poissons Ratio (x) = 0.34587 0.30290
# Poissons Ratio (y) = 0.22867 0.34411
# Poissons Ratio (z) = 0.17449 0.29982
#
# Static dielectric constant tensor:
#      x y z
#    x 3.266750 0.000000 0.110470 
#    y 0.000000 3.316990 0.000000 
#    z 0.110470 0.000000 3.871440 
# 
# 
# High freq. dielectric constant tensor:
#      x y z
#    x 1.716850 0.000000 0.006340 
#    y 0.000000 1.726060 0.000000 
#    z 0.006340 0.000000 1.763670 
# 
# From -- ./inp_files/332957.got.cif
#   From: 2010.06.25/outbox.cif.g09.slc.cpg/sg12_167_cif.got.tgz:332957.got - 2010.06.28 00:19:55.
