data_PCOD8111241
_publ_section_title
;
Structure prediction by ZEFSAII (Michael W. Deem and Ramdas Pophale) SiO2 
 PCOD8111241
Probable space group: C 2/M
;
_chemical_formula_sum "Si O2"
_cell_formula_units_Z 64
_cell_length_a 18.554889
_cell_length_b 18.425635
_cell_length_c 15.050579
_cell_angle_alpha 90.000000
_cell_angle_beta 39.145244
_cell_angle_gamma 90.000000
_cell_volume 3248.342810
_symmetry_space_group_name_H-M "C 2/M"
_symmetry_group_IT_number 12
_symmetry_cell_setting 'monoclinic'
loop_
_space_group_symop_operation_xyz
x,y,z
-x,y,-z
-x,-y,-z
x,-y,z
1/2+x,1/2+y,z
1/2-x,1/2+y,-z
1/2-x,1/2-y,-z
1/2+x,1/2-y,z
loop_
_atom_site_type_symbol
_atom_site_label
_atom_site_fract_x
_atom_site_fract_y
_atom_site_fract_z
Si Si1 0.372160 0.269165 0.123136
Si Si2 0.211175 0.208438 0.124645
Si Si3 0.568898 0.080470 0.697798
Si Si4 0.189681 0.583446 0.062890
Si Si5 0.291781 0.417617 0.156470
Si Si6 0.032047 0.777916 0.563207
Si Si7 0.095571 0.388254 0.474599
Si Si8 0.766819 0.295834 0.396130
O O1 0.287244 0.229056 0.136408
O O2 0.385088 0.354146 0.081497
O O3 0.319512 0.256824 0.270836
O O4 0.500000 0.236143 0.000000
O O5 0.077005 0.222833 0.267973
O O6 0.250000 0.250000 0.000000
O O7 0.228349 0.123870 0.085334
O O8 0.439666 0.109292 0.831243
O O9 0.594947 0.072158 0.568960
O O10 0.652536 0.134976 0.668175
O O11 0.582631 0.000000 0.726744
O O12 0.206558 0.500000 0.025588
O O13 0.220577 0.600899 0.135627
O O14 0.343321 0.500000 0.103089
O O15 0.214150 0.408510 0.316717
O O16 0.080023 0.697171 0.503700
O O17 0.138930 0.824749 0.496584
O O18 0.000000 0.813314 0.500000
O O19 0.000000 0.420054 0.500000
O O20 0.750000 0.250000 0.500000
#
# Coordination Sequence:
#
# PCOD8111241 Si02
#       8
#     8   8   8   8   8   8   8   8
#     4  12  25  41  62  93 128 168 216 261 316 379
#     4  12  23  41  68  94 123 168 216 263 312 378
#     4  11  22  37  59  91 130 169 212 266 321 375
#     4  10  22  39  62  94 127 163 211 264 318 374
#     4  11  21  36  58  92 132 166 203 253 318 392
#     4  11  22  40  65  93 125 159 213 269 314 373
#     4  11  18  33  60  93 126 162 206 256 317 382
#     4  12  24  40  62  93 128 167 209 263 322 377
#
# _framework density 19.702354
#
# number of rings (size 3 to 8) (size 9 to 14) (size 15 to 20)
#    0.000    0.750    6.250    2.625    1.750    0.750 
#    0.000    1.250    0.000    3.000    0.000    0.000 
#    0.000    0.000    0.000    0.000    0.000    0.000 
#
# Total GULP energy -396681.283516 kJ/mol
# GULP energy per Si atom -12396.290110 kJ/mol
# Density = 1.965751 g / cm^3
# Si number density = 19.702354 Si / 1000 Ang^3
#
#
#
# Elastic Constant Matrix: (Units=GPa)
#
#
# Indices 1 2 3 4 5 6 
#
# 1 116.5391 47.8103 45.9190 0.0000 -7.9518 0.0000
# 2 47.8103 93.6435 28.0227 0.0000 1.9573 0.0000
# 3 45.9190 28.0227 102.9077 0.0000 -1.0443 0.0000
# 4 0.0000 0.0000 0.0000 29.4520 0.0000 -2.2277
# 5 -7.9518 1.9573 -1.0443 0.0000 35.6020 0.0000
# 6 0.0000 0.0000 0.0000 -2.2277 0.0000 28.9029
#
#
#
# Elastic Compliance Matrix: (Units=1/GPa)
#
#
# Indices 1 2 3 4 5 6 
#
# 1 0.012568 -0.005236 -0.004152 0.000000 0.002973 0.000000
# 2 -0.005236 0.013827 -0.001449 0.000000 -0.001972 0.000000
# 3 -0.004152 -0.001449 0.011960 0.000000 -0.000497 0.000000
# 4 0.000000 0.000000 0.000000 0.034153 0.000000 0.002632
# 5 0.002973 -0.001972 -0.000497 0.000000 0.028846 0.000000
# 6 0.000000 0.000000 0.000000 0.002632 0.000000 0.034801
#
#
# Mechanical properties :
#
#
# Convention : Reuss Voigt Hill
#
# Bulk Modulus (GPa) = 59.95008 61.84381 60.89695
# Shear Modulus (GPa) = 30.60189 31.54728 31.07458
#
# Velocity S-wave (km/s) = 3.94535 4.00583 3.97571
# Velocity P-wave (km/s) = 7.15880 7.26999 7.21461
#
# Compressibility (1/GPa) = 0.01668054
#
# Stress axis : x y z
#
# Youngs Moduli (GPa) = 79.56834 72.32247 83.61524
#
# Poissons Ratio (x) = 0.37870 0.34716
# Poissons Ratio (y) = 0.41664 0.12113
# Poissons Ratio (z) = 0.33036 0.10477
#
# Static dielectric constant tensor:
#      x y z
#    x 3.248960 0.000000 0.075350 
#    y 0.000000 3.668870 0.000000 
#    z 0.075350 0.000000 3.675280 
# 
# 
# High freq. dielectric constant tensor:
#      x y z
#    x 1.769030 0.000000 0.000770 
#    y 0.000000 1.754160 0.000000 
#    z 0.000770 0.000000 1.767310 
# 
# From -- ./inp_files/226854.got.cif
#   From: 2010.06.25/outbox.cif.g09.slc.cpg/sg12_114_cif.got.tgz:226854.got - 2010.06.28 00:19:55.
