data_PCOD8111661
_publ_section_title
;
Structure prediction by ZEFSAII (Michael W. Deem and Ramdas Pophale) SiO2 
 PCOD8111661
Probable space group: C 2/M
;
_chemical_formula_sum "Si O2"
_cell_formula_units_Z 32
_cell_length_a 14.136594
_cell_length_b 26.670379
_cell_length_c 5.007007
_cell_angle_alpha 90.000000
_cell_angle_beta 47.299171
_cell_angle_gamma 90.000000
_cell_volume 1387.341076
_symmetry_space_group_name_H-M "C 2/M"
_symmetry_group_IT_number 12
_symmetry_cell_setting 'monoclinic'
loop_
_space_group_symop_operation_xyz
x,y,z
-x,y,-z
-x,-y,-z
x,-y,z
1/2+x,1/2+y,z
1/2-x,1/2+y,-z
1/2-x,1/2-y,-z
1/2+x,1/2-y,z
loop_
_atom_site_type_symbol
_atom_site_label
_atom_site_fract_x
_atom_site_fract_y
_atom_site_fract_z
Si Si1 0.151123 0.057460 0.675731
Si Si2 0.370333 0.186069 0.098112
Si Si3 0.223632 0.117368 0.033983
Si Si4 0.377499 0.701214 0.059737
O O1 0.177128 0.075682 0.327911
O O2 0.193364 0.000000 0.621857
O O3 0.236177 0.089284 0.724283
O O4 0.000000 0.064744 0.000000
O O5 0.353010 0.144597 0.897070
O O6 0.381878 0.241679 0.946590
O O7 0.251275 0.187208 0.529944
O O8 0.500000 0.171146 0.000000
O O9 0.123000 0.164037 0.194576
O O10 0.500000 0.687740 0.000000
#
# Coordination Sequence:
#
# PCOD8111661 Si02
#       4
#     8   8   8   8
#     4  11  25  42  66 100 134 168 221 292 347 392
#     4  10  23  41  63  98 142 181 222 268 322 400
#     4  12  22  41  67  95 134 173 222 266 343 398
#     4  10  22  40  65 101 137 176 226 274 326 389
#
# _framework density 23.065705999999999
#
# number of rings (size 3 to 8) (size 9 to 14) (size 15 to 20)
#    0.000    1.250    2.500    3.000    3.500    3.000 
#    0.000    7.500    0.000    4.500    0.000    0.000 
#    0.000    0.000    0.000    0.000    0.000    0.000 
#
# Total GULP energy -198320.421554 kJ/mol
# GULP energy per Si atom -12395.026347 kJ/mol
# Density = 2.301321 g / cm^3
# Si number density = 23.065706 Si / 1000 Ang^3
#
#
#
# Elastic Constant Matrix: (Units=GPa)
#
#
# Indices 1 2 3 4 5 6 
#
# 1 157.5222 82.2694 43.2101 0.0000 -13.8151 0.0000
# 2 82.2694 170.5540 7.3137 0.0000 1.8626 0.0000
# 3 43.2101 7.3137 50.4414 0.0000 -8.3378 0.0000
# 4 0.0000 0.0000 0.0000 84.9563 0.0000 12.9817
# 5 -13.8151 1.8626 -8.3378 0.0000 41.6872 0.0000
# 6 0.0000 0.0000 0.0000 12.9817 0.0000 50.6192
#
#
#
# Elastic Compliance Matrix: (Units=1/GPa)
#
#
# Indices 1 2 3 4 5 6 
#
# 1 0.011790 -0.005330 -0.008938 0.000000 0.002358 0.000000
# 2 -0.005330 0.008317 0.003109 0.000000 -0.001516 0.000000
# 3 -0.008938 0.003109 0.027425 0.000000 0.002384 0.000000
# 4 0.000000 0.000000 0.000000 0.012251 0.000000 -0.003142
# 5 0.002358 -0.001516 0.002384 0.000000 0.025314 0.000000
# 6 0.000000 0.000000 0.000000 -0.003142 0.000000 0.020561
#
#
# Mechanical properties :
#
#
# Convention : Reuss Voigt Hill
#
# Bulk Modulus (GPa) = 39.65753 71.56715 55.61234
# Shear Modulus (GPa) = 36.66223 51.83417 44.24820
#
# Velocity S-wave (km/s) = 3.99114 4.74565 4.38465
# Velocity P-wave (km/s) = 6.20238 7.81813 7.05665
#
# Compressibility (1/GPa) = 0.02521589
#
# Stress axis : x y z
#
# Youngs Moduli (GPa) = 84.81508 120.23033 36.46363
#
# Poissons Ratio (x) = 0.64080 0.32590
# Poissons Ratio (y) = 0.45204 -0.11337
# Poissons Ratio (z) = 0.75804 -0.37381
#
# Static dielectric constant tensor:
#      x y z
#    x 4.374200 0.000000 0.068340 
#    y 0.000000 4.551080 0.000000 
#    z 0.068340 0.000000 3.834920 
# 
# 
# High freq. dielectric constant tensor:
#      x y z
#    x 1.928390 0.000000 0.012250 
#    y 0.000000 1.923680 0.000000 
#    z 0.012250 0.000000 1.875120 
# 
# From -- ./inp_files/8021.got.cif
#   From: 2010.06.25/outbox.cif.g09.slc.cpg/sg12_5_cif.got.tgz:8021.got - 2010.06.28 00:19:55.
