data_PCOD8111780
_publ_section_title
;
Structure prediction by ZEFSAII (Michael W. Deem and Ramdas Pophale) SiO2 
 PCOD8111780
Probable space group: C 2/M
;
_chemical_formula_sum "Si O2"
_cell_formula_units_Z 48
_cell_length_a 13.537284
_cell_length_b 12.379082
_cell_length_c 30.750451
_cell_angle_alpha 90.000000
_cell_angle_beta 26.626882
_cell_angle_gamma 90.000000
_cell_volume 2309.524341
_symmetry_space_group_name_H-M "C 2/M"
_symmetry_group_IT_number 12
_symmetry_cell_setting 'monoclinic'
loop_
_space_group_symop_operation_xyz
x,y,z
-x,y,-z
-x,-y,-z
x,-y,z
1/2+x,1/2+y,z
1/2-x,1/2+y,-z
1/2-x,1/2-y,-z
1/2+x,1/2-y,z
loop_
_atom_site_type_symbol
_atom_site_label
_atom_site_fract_x
_atom_site_fract_y
_atom_site_fract_z
Si Si1 0.560973 0.246405 0.851533
Si Si2 0.862716 0.871182 0.010079
Si Si3 0.087636 0.619065 0.340509
Si Si4 0.662507 0.806045 0.400566
Si Si5 0.456034 0.378047 0.698280
Si Si6 0.587114 0.624761 0.547379
O O1 0.362063 0.199558 0.900187
O O2 0.743920 0.308752 0.752110
O O3 0.700043 0.142164 0.812643
O O4 0.489582 0.326282 0.918072
O O5 0.818603 0.000000 0.022278
O O6 0.000000 0.848216 0.000000
O O7 0.086221 0.500000 0.320498
O O8 0.174685 0.612595 0.355451
O O9 0.838354 0.667349 0.441417
O O10 0.500000 0.858570 0.500000
O O11 0.577489 0.687677 0.419865
O O12 0.902068 0.795788 0.328111
O O13 0.518611 0.500000 0.685733
O O14 0.502236 0.355385 0.629474
O O15 0.572787 0.500000 0.540301
#
# Coordination Sequence:
#
# PCOD8111780 Si02
#       6
#     8   8   8   8   8   8
#     4  11  23  42  70  93 124 160 206 265 317 375
#     4  10  24  47  71  94 121 157 202 258 329 394
#     4  11  22  38  61  93 129 170 214 260 307 361
#     4  12  22  36  60  89 130 175 216 255 302 355
#     4  11  23  39  63  93 128 172 214 254 306 369
#     4  10  22  41  60  88 134 177 214 257 303 356
#
# _framework density 20.7835
#
# number of rings (size 3 to 8) (size 9 to 14) (size 15 to 20)
#    0.000    1.167    3.333    3.000    2.333    1.000 
#    0.000    1.667    0.000    3.000    0.000    0.000 
#    0.000    0.000    0.000    0.000    0.000    0.000 
#
# Total GULP energy -297438.608065 kJ/mol
# GULP energy per Si atom -12393.275336 kJ/mol
# Density = 2.073620 g / cm^3
# Si number density = 20.783500 Si / 1000 Ang^3
#
#
#
# Elastic Constant Matrix: (Units=GPa)
#
#
# Indices 1 2 3 4 5 6 
#
# 1 124.4360 45.6215 45.0991 -0.0037 -19.4830 -0.0089
# 2 45.6215 88.7809 56.8739 -0.0013 -5.2810 0.0008
# 3 45.0991 56.8739 115.9146 -0.0148 -23.2633 0.0164
# 4 -0.0037 -0.0013 -0.0148 29.1680 0.0041 6.4313
# 5 -19.4830 -5.2810 -23.2633 0.0041 30.9400 -0.0020
# 6 -0.0089 0.0008 0.0164 6.4313 -0.0020 21.1299
#
#
#
# Elastic Compliance Matrix: (Units=1/GPa)
#
#
# Indices 1 2 3 4 5 6 
#
# 1 0.010937 -0.004770 -0.000819 -0.000001 0.005456 0.000006
# 2 -0.004770 0.018903 -0.008685 -0.000004 -0.006307 0.000005
# 3 -0.000819 -0.008685 0.015082 0.000009 0.009342 -0.000014
# 4 -0.000001 -0.000004 0.000009 0.036751 -0.000001 -0.011186
# 5 0.005456 -0.006307 0.009342 -0.000001 0.041704 -0.000001
# 6 0.000006 0.000005 -0.000014 -0.011186 -0.000001 0.050731
#
#
# Mechanical properties :
#
#
# Convention : Reuss Voigt Hill
#
# Bulk Modulus (GPa) = 61.07813 69.36896 65.22354
# Shear Modulus (GPa) = 24.02529 28.35004 26.18767
#
# Velocity S-wave (km/s) = 3.40366 3.69733 3.55353
# Velocity P-wave (km/s) = 6.70061 7.18863 6.94890
#
# Compressibility (1/GPa) = 0.01637247
#
# Stress axis : x y z
#
# Youngs Moduli (GPa) = 91.43685 52.90032 66.30469
#
# Poissons Ratio (x) = 0.25236 0.05433
# Poissons Ratio (y) = 0.43619 0.57585
# Poissons Ratio (z) = 0.07492 0.45943
#
# Static dielectric constant tensor:
#      x y z
#    x 3.750500 0.000000 -0.129380 
#    y 0.000000 4.062530 -0.000020 
#    z -0.129380 -0.000020 3.864320 
# 
# 
# High freq. dielectric constant tensor:
#      x y z
#    x 1.810380 0.000000 -0.006570 
#    y 0.000000 1.830490 0.000000 
#    z -0.006570 0.000000 1.809890 
# 
# From -- ./inp_files/358346.got.cif
#   From: 2010.06.25/outbox.cif.g09.slc.cpg/sg12_180_cif.got.tgz:358346.got - 2010.06.28 00:19:55.
