data_PCOD8111136
_publ_section_title
;
Structure prediction by ZEFSAII (Michael W. Deem and Ramdas Pophale) SiO2 
 PCOD8111136
Probable space group: C 2/M
;
_chemical_formula_sum "Si O2"
_cell_formula_units_Z 48
_cell_length_a 14.579488
_cell_length_b 12.785807
_cell_length_c 17.548483
_cell_angle_alpha 90.000000
_cell_angle_beta 138.621993
_cell_angle_gamma 90.000000
_cell_volume 2162.355771
_symmetry_space_group_name_H-M "C 2/M"
_symmetry_group_IT_number 12
_symmetry_cell_setting 'monoclinic'
loop_
_space_group_symop_operation_xyz
x,y,z
-x,y,-z
-x,-y,-z
x,-y,z
1/2+x,1/2+y,z
1/2-x,1/2+y,-z
1/2-x,1/2-y,-z
1/2+x,1/2-y,z
loop_
_atom_site_type_symbol
_atom_site_label
_atom_site_fract_x
_atom_site_fract_y
_atom_site_fract_z
Si Si1 0.473656 0.375617 0.324843
Si Si2 0.692495 0.741132 0.656618
Si Si3 0.281954 0.118279 0.465306
Si Si4 0.099558 0.384270 0.297707
Si Si5 0.164458 0.265881 0.871902
Si Si6 0.849241 0.878198 0.873611
O O1 0.464438 0.500000 0.334990
O O2 0.437963 0.305468 0.377519
O O3 0.627461 0.341870 0.392644
O O4 0.358710 0.342481 0.189629
O O5 0.647785 0.816624 0.559178
O O6 0.760844 0.639076 0.661488
O O7 0.806933 0.805609 0.776367
O O8 0.381533 0.128074 0.599828
O O9 0.270204 0.000000 0.429282
O O10 0.052497 0.500000 0.247729
O O11 0.985047 0.305417 0.196019
O O12 0.236771 0.357254 0.868741
O O13 0.250000 0.250000 0.000000
O O14 0.845906 0.000000 0.847487
O O15 0.000000 0.846131 0.000000
#
# Coordination Sequence:
#
# PCOD8111136 Si02
#       6
#     8   8   8   8   8   8
#     4  10  23  41  65  97 128 168 218 262 317 387
#     4  11  21  39  64  94 132 166 213 262 323 377
#     4  10  22  42  67  95 130 172 216 261 317 385
#     4  11  23  40  64  95 129 166 211 265 324 378
#     4  11  23  41  65  91 125 166 215 264 323 386
#     4  10  22  39  60  89 124 164 214 265 316 379
#
# _framework density 22.198013
#
# number of rings (size 3 to 8) (size 9 to 14) (size 15 to 20)
#    0.000    1.500    1.667    3.000    0.000    2.000 
#    3.000    2.500    0.000   10.500    0.000    0.000 
#    0.000    0.000    0.000    0.000    0.000    0.000 
#
# Total GULP energy -297541.090508 kJ/mol
# GULP energy per Si atom -12397.545438 kJ/mol
# Density = 2.214749 g / cm^3
# Si number density = 22.198013 Si / 1000 Ang^3
#
#
#
# Elastic Constant Matrix: (Units=GPa)
#
#
# Indices 1 2 3 4 5 6 
#
# 1 91.4984 33.1572 14.9452 0.0000 -12.0878 0.0000
# 2 33.1572 113.6819 19.8689 0.0000 -6.4369 0.0000
# 3 14.9452 19.8689 68.9350 0.0000 -4.8798 0.0000
# 4 0.0000 0.0000 0.0000 28.1301 0.0000 3.8324
# 5 -12.0878 -6.4369 -4.8798 0.0000 34.5249 0.0000
# 6 0.0000 0.0000 0.0000 3.8324 0.0000 28.7738
#
#
#
# Elastic Compliance Matrix: (Units=1/GPa)
#
#
# Indices 1 2 3 4 5 6 
#
# 1 0.012856 -0.003265 -0.001587 0.000000 0.003668 0.000000
# 2 -0.003265 0.010156 -0.002188 0.000000 0.000441 0.000000
# 3 -0.001587 -0.002188 0.015569 0.000000 0.001237 0.000000
# 4 0.000000 0.000000 0.000000 0.036206 0.000000 -0.004822
# 5 0.003668 0.000441 0.001237 0.000000 0.030506 0.000000
# 6 0.000000 0.000000 0.000000 -0.004822 0.000000 0.035396
#
#
# Mechanical properties :
#
#
# Convention : Reuss Voigt Hill
#
# Bulk Modulus (GPa) = 40.81335 45.56200 43.18767
# Shear Modulus (GPa) = 30.68706 32.02870 31.35788
#
# Velocity S-wave (km/s) = 3.72213 3.80262 3.76259
# Velocity P-wave (km/s) = 6.07440 6.31267 6.19468
#
# Compressibility (1/GPa) = 0.02450179
#
# Stress axis : x y z
#
# Youngs Moduli (GPa) = 77.78493 98.46302 64.23158
#
# Poissons Ratio (x) = 0.32145 0.10191
# Poissons Ratio (y) = 0.25394 0.14055
# Poissons Ratio (z) = 0.12341 0.21546
#
# Static dielectric constant tensor:
#      x y z
#    x 4.417340 0.000000 -0.175860 
#    y 0.000000 4.144680 0.000000 
#    z -0.175860 0.000000 4.057900 
# 
# 
# High freq. dielectric constant tensor:
#      x y z
#    x 1.876500 0.000000 0.000370 
#    y 0.000000 1.885070 0.000000 
#    z 0.000370 0.000000 1.871670 
# 
# From -- ./inp_files/270434.got.cif
#   From: 2010.06.25/outbox.cif.g09.slc.cpg/sg12_136_cif.got.tgz:270434.got - 2010.06.28 00:19:55.
