data_PCOD8111433
_publ_section_title
;
Structure prediction by ZEFSAII (Michael W. Deem and Ramdas Pophale) SiO2 
 PCOD8111433
Probable space group: C 2/M
;
_chemical_formula_sum "Si O2"
_cell_formula_units_Z 40
_cell_length_a 27.058325
_cell_length_b 8.691919
_cell_length_c 8.904507
_cell_angle_alpha 90.000000
_cell_angle_beta 108.467550
_cell_angle_gamma 90.000000
_cell_volume 1986.393405
_symmetry_space_group_name_H-M "C 2/M"
_symmetry_group_IT_number 12
_symmetry_cell_setting 'monoclinic'
loop_
_space_group_symop_operation_xyz
x,y,z
-x,y,-z
-x,-y,-z
x,-y,z
1/2+x,1/2+y,z
1/2-x,1/2+y,-z
1/2-x,1/2-y,-z
1/2+x,1/2-y,z
loop_
_atom_site_type_symbol
_atom_site_label
_atom_site_fract_x
_atom_site_fract_y
_atom_site_fract_z
Si Si1 0.700189 0.818281 0.032415
Si Si2 0.098382 0.320230 0.754523
Si Si3 0.799668 0.319032 0.628212
Si Si4 0.102485 0.178839 0.436606
Si Si5 0.504093 0.677271 0.828787
O O1 0.696767 0.754206 0.198826
O O2 0.705219 0.000000 0.037439
O O3 0.750000 0.750000 0.000000
O O4 0.648809 0.764834 0.895103
O O5 0.101202 0.500000 0.716944
O O6 0.094794 0.219989 0.602022
O O7 0.047883 0.288446 0.805667
O O8 0.793258 0.500000 0.623358
O O9 0.750000 0.250000 0.500000
O O10 0.851110 0.276858 0.587427
O O11 0.050270 0.222573 0.298748
O O12 0.116085 0.000000 0.433358
O O13 0.518575 0.500000 0.809346
O O14 0.500000 0.710206 0.000000
#
# Coordination Sequence:
#
# PCOD8111433 Si02
#       5
#     8   8   8   8   8
#     4  10  23  40  59  85 116 151 191 236 285 341
#     4  11  23  39  60  87 118 153 194 239 289 344
#     4  11  23  40  61  87 118 152 193 239 289 343
#     4  11  23  39  60  87 118 153 194 239 288 343
#     4  10  22  40  61  86 117 154 195 239 289 344
#
# _framework density 20.136997999999998
#
# number of rings (size 3 to 8) (size 9 to 14) (size 15 to 20)
#    0.000    1.400    0.000    4.800    0.000   10.800 
#    0.000    0.000    0.000    0.000    0.000    0.000 
#    0.000    0.000    0.000    0.000    0.000    0.000 
#
# Total GULP energy -248139.531615 kJ/mol
# GULP energy per Si atom -12406.976581 kJ/mol
# Density = 2.009117 g / cm^3
# Si number density = 20.136998 Si / 1000 Ang^3
#
#
#
# Elastic Constant Matrix: (Units=GPa)
#
#
# Indices 1 2 3 4 5 6 
#
# 1 141.8569 29.0463 70.0804 0.0000 9.9755 0.0000
# 2 29.0463 39.4489 30.6350 0.0000 10.9940 0.0000
# 3 70.0804 30.6350 171.1649 0.0000 18.5072 0.0000
# 4 0.0000 0.0000 0.0000 28.5680 0.0000 -5.0824
# 5 9.9755 10.9940 18.5072 0.0000 40.3433 0.0000
# 6 0.0000 0.0000 0.0000 -5.0824 0.0000 40.8509
#
#
#
# Elastic Compliance Matrix: (Units=1/GPa)
#
#
# Indices 1 2 3 4 5 6 
#
# 1 0.009515 -0.004702 -0.003092 0.000000 0.000347 0.000000
# 2 -0.004702 0.033162 -0.003324 0.000000 -0.006350 0.000000
# 3 -0.003092 -0.003324 0.007915 0.000000 -0.001961 0.000000
# 4 0.000000 0.000000 0.000000 0.035797 0.000000 0.004454
# 5 0.000347 -0.006350 -0.001961 0.000000 0.027331 0.000000
# 6 0.000000 0.000000 0.000000 0.004454 0.000000 0.025033
#
#
# Mechanical properties :
#
#
# Convention : Reuss Voigt Hill
#
# Bulk Modulus (GPa) = 35.26386 67.99933 51.63160
# Shear Modulus (GPa) = 29.33586 36.79972 33.06779
#
# Velocity S-wave (km/s) = 3.82096 4.27953 4.05673
# Velocity P-wave (km/s) = 6.08411 7.63288 6.90207
#
# Compressibility (1/GPa) = 0.02835764
#
# Stress axis : x y z
#
# Youngs Moduli (GPa) = 105.09648 30.15524 126.34114
#
# Poissons Ratio (x) = 0.14178 0.39062
# Poissons Ratio (y) = 0.49412 0.41992
# Poissons Ratio (z) = 0.32494 0.10023
#
# Static dielectric constant tensor:
#      x y z
#    x 3.740250 0.000000 -0.021450 
#    y 0.000000 3.597680 0.000000 
#    z -0.021450 0.000000 3.978390 
# 
# 
# High freq. dielectric constant tensor:
#      x y z
#    x 1.801510 0.000000 0.002400 
#    y 0.000000 1.785390 0.000000 
#    z 0.002400 0.000000 1.809110 
# 
# From -- ./inp_files/92740.got.cif
#   From: 2010.06.25/outbox.cif.g09.slc.cpg/sg12_47_cif.got.tgz:92740.got - 2010.06.28 00:19:55.
