data_PCOD8111128
_publ_section_title
;
Structure prediction by ZEFSAII (Michael W. Deem and Ramdas Pophale) SiO2 
 PCOD8111128
Probable space group: C 2/M
;
_chemical_formula_sum "Si O2"
_cell_formula_units_Z 48
_cell_length_a 24.330109
_cell_length_b 9.031133
_cell_length_c 11.544005
_cell_angle_alpha 90.000000
_cell_angle_beta 111.014081
_cell_angle_gamma 90.000000
_cell_volume 2367.846532
_symmetry_space_group_name_H-M "C 2/M"
_symmetry_group_IT_number 12
_symmetry_cell_setting 'monoclinic'
loop_
_space_group_symop_operation_xyz
x,y,z
-x,y,-z
-x,-y,-z
x,-y,z
1/2+x,1/2+y,z
1/2-x,1/2+y,-z
1/2-x,1/2-y,-z
1/2+x,1/2-y,z
loop_
_atom_site_type_symbol
_atom_site_label
_atom_site_fract_x
_atom_site_fract_y
_atom_site_fract_z
Si Si1 0.229545 0.170392 0.272414
Si Si2 0.301345 0.170197 0.971260
Si Si3 0.517391 0.175379 0.139969
Si Si4 0.354755 0.325801 0.386408
Si Si5 0.378821 0.331680 0.661239
Si Si6 0.088490 0.330291 0.781348
O O1 0.190602 0.248061 0.144257
O O2 0.292017 0.247790 0.331390
O O3 0.190274 0.185844 0.358245
O O4 0.241470 0.000000 0.248393
O O5 0.284228 0.000000 0.937837
O O6 0.250000 0.250000 0.000000
O O7 0.361119 0.186589 0.085837
O O8 0.581260 0.230618 0.226899
O O9 0.470760 0.227522 0.201961
O O10 0.519121 0.000000 0.133719
O O11 0.500000 0.239336 0.000000
O O12 0.344598 0.500000 0.365447
O O13 0.384766 0.285596 0.531543
O O14 0.398814 0.269816 0.320605
O O15 0.399341 0.500000 0.695816
O O16 0.082687 0.500000 0.735881
#
# Coordination Sequence:
#
# PCOD8111128 Si02
#       6
#     8   8   8   8   8   8
#     4  11  22  38  60  87 122 158 199 249 302 355
#     4  11  21  35  58  88 121 154 195 242 295 352
#     4  10  22  42  66  90 116 153 199 245 295 356
#     4  11  23  39  60  87 120 158 202 246 298 358
#     4  10  24  42  60  87 120 158 201 248 299 353
#     4  10  22  39  60  88 122 156 195 245 298 353
#
# _framework density 20.271584000000001
#
# number of rings (size 3 to 8) (size 9 to 14) (size 15 to 20)
#    0.000    1.500    1.667    3.000    0.000    6.333 
#    0.000    3.333    0.000    0.000    0.000    0.000 
#    0.000    0.000    0.000    0.000    0.000    0.000 
#
# Total GULP energy -297671.827868 kJ/mol
# GULP energy per Si atom -12402.992828 kJ/mol
# Density = 2.022545 g / cm^3
# Si number density = 20.271584 Si / 1000 Ang^3
#
#
#
# Elastic Constant Matrix: (Units=GPa)
#
#
# Indices 1 2 3 4 5 6 
#
# 1 102.5124 38.0587 42.4615 0.0000 -11.4224 0.0000
# 2 38.0587 90.0107 49.9627 0.0000 -12.5647 0.0000
# 3 42.4615 49.9627 121.2768 0.0000 -18.4326 0.0000
# 4 0.0000 0.0000 0.0000 32.2418 0.0000 -1.6451
# 5 -11.4224 -12.5647 -18.4326 0.0000 28.0195 0.0000
# 6 0.0000 0.0000 0.0000 -1.6451 0.0000 29.3021
#
#
#
# Elastic Compliance Matrix: (Units=1/GPa)
#
#
# Indices 1 2 3 4 5 6 
#
# 1 0.012336 -0.003530 -0.002601 0.000000 0.001735 0.000000
# 2 -0.003530 0.015620 -0.004837 0.000000 0.002383 0.000000
# 3 -0.002601 -0.004837 0.011842 0.000000 0.004561 0.000000
# 4 0.000000 0.000000 0.000000 0.031105 0.000000 0.001746
# 5 0.001735 0.002383 0.004561 0.000000 0.040466 0.000000
# 6 0.000000 0.000000 0.000000 0.001746 0.000000 0.034225
#
#
# Mechanical properties :
#
#
# Convention : Reuss Voigt Hill
#
# Bulk Modulus (GPa) = 55.98399 63.86284 59.92342
# Shear Modulus (GPa) = 28.82104 30.13380 29.47742
#
# Velocity S-wave (km/s) = 3.77470 3.85970 3.81744
# Velocity P-wave (km/s) = 6.83189 7.17183 7.00392
#
# Compressibility (1/GPa) = 0.01786225
#
# Stress axis : x y z
#
# Youngs Moduli (GPa) = 81.06215 64.02114 84.44391
#
# Poissons Ratio (x) = 0.22600 0.21966
# Poissons Ratio (y) = 0.28615 0.40843
# Poissons Ratio (z) = 0.21086 0.30965
#
# Static dielectric constant tensor:
#      x y z
#    x 3.535010 0.000000 -0.421170 
#    y 0.000000 3.647510 0.000000 
#    z -0.421170 0.000000 3.512110 
# 
# 
# High freq. dielectric constant tensor:
#      x y z
#    x 1.797420 0.000000 -0.011070 
#    y 0.000000 1.791960 0.000000 
#    z -0.011070 0.000000 1.797990 
# 
# From -- ./inp_files/173077.got.cif
#   From: 2010.06.25/outbox.cif.g09.slc.cpg/sg12_87_cif.got.tgz:173077.got - 2010.06.28 00:19:55.
