data_PCOD8111116
_publ_section_title
;
Structure prediction by ZEFSAII (Michael W. Deem and Ramdas Pophale) SiO2 
 PCOD8111116
Probable space group: C 2/M
;
_chemical_formula_sum "Si O2"
_cell_formula_units_Z 56
_cell_length_a 14.239935
_cell_length_b 25.921515
_cell_length_c 9.752779
_cell_angle_alpha 90.000000
_cell_angle_beta 63.149065
_cell_angle_gamma 90.000000
_cell_volume 3211.822338
_symmetry_space_group_name_H-M "C 2/M"
_symmetry_group_IT_number 12
_symmetry_cell_setting 'monoclinic'
loop_
_space_group_symop_operation_xyz
x,y,z
-x,y,-z
-x,-y,-z
x,-y,z
1/2+x,1/2+y,z
1/2-x,1/2+y,-z
1/2-x,1/2-y,-z
1/2+x,1/2-y,z
loop_
_atom_site_type_symbol
_atom_site_label
_atom_site_fract_x
_atom_site_fract_y
_atom_site_fract_z
Si Si1 0.832811 0.819785 0.364626
Si Si2 0.313762 0.298093 0.804418
Si Si3 0.843482 0.296396 0.332495
Si Si4 0.403401 0.558950 0.965854
Si Si5 0.947548 0.693887 0.684116
Si Si6 0.738894 0.348192 0.878837
Si Si7 0.525964 0.613874 0.337059
O O1 0.858080 0.760824 0.387681
O O2 0.726193 0.832356 0.519672
O O3 0.820328 0.823733 0.210692
O O4 0.925058 0.857589 0.344356
O O5 0.206403 0.294904 0.786222
O O6 0.382389 0.246670 0.746816
O O7 0.381312 0.345162 0.700392
O O8 0.283682 0.308856 0.981578
O O9 0.963825 0.316414 0.257484
O O10 0.368455 0.500000 0.008678
O O11 0.303045 0.594399 0.065161
O O12 0.500000 0.573804 0.000000
O O13 0.439761 0.568118 0.786096
O O14 0.863181 0.647996 0.763209
O O15 0.000000 0.691871 0.500000
O O16 0.500000 0.587980 0.500000
#
# Coordination Sequence:
#
# PCOD8111116 Si02
#       7
#     8   8   8   8   8   8   8
#     4  11  19  33  52  79 113 155 184 219 260 309
#     4  11  22  34  49  81 115 149 188 220 263 313
#     4  11  21  32  52  75 117 157 188 217 252 311
#     4  10  22  39  60  84 107 135 176 235 298 337
#     4  12  21  34  53  77 111 154 191 219 257 319
#     4  11  23  37  54  79 109 145 185 228 276 326
#     4  11  20  34  58  81 114 148 182 219 271 337
#
# _framework density 17.435583999999999
#
# number of rings (size 3 to 8) (size 9 to 14) (size 15 to 20)
#    0.000    1.000    7.143    1.714    0.000    0.857 
#    0.000    0.000    0.000    0.429    0.000    8.000 
#    0.000    0.000    0.000    0.000    0.000    0.000 
#
# Total GULP energy -347118.846605 kJ/mol
# GULP energy per Si atom -12397.101664 kJ/mol
# Density = 1.739590 g / cm^3
# Si number density = 17.435584 Si / 1000 Ang^3
#
#
#
# Elastic Constant Matrix: (Units=GPa)
#
#
# Indices 1 2 3 4 5 6 
#
# 1 136.3451 34.6512 46.4623 0.0000 -1.4666 0.0000
# 2 34.6512 67.5573 33.2027 0.0000 -9.1143 0.0000
# 3 46.4623 33.2027 119.3943 0.0000 3.9977 0.0000
# 4 0.0000 0.0000 0.0000 14.4750 0.0000 2.0935
# 5 -1.4666 -9.1143 3.9977 0.0000 31.5371 0.0000
# 6 0.0000 0.0000 0.0000 2.0935 0.0000 15.3636
#
#
#
# Elastic Compliance Matrix: (Units=1/GPa)
#
#
# Indices 1 2 3 4 5 6 
#
# 1 0.009079 -0.003425 -0.002572 0.000000 -0.000242 0.000000
# 2 -0.003425 0.019476 -0.004285 0.000000 0.006012 0.000000
# 3 -0.002572 -0.004285 0.010659 0.000000 -0.002709 0.000000
# 4 0.000000 0.000000 0.000000 0.070474 0.000000 -0.009603
# 5 -0.000242 0.006012 -0.002709 0.000000 0.033778 0.000000
# 6 0.000000 0.000000 0.000000 -0.009603 0.000000 0.066397
#
#
# Mechanical properties :
#
#
# Convention : Reuss Voigt Hill
#
# Bulk Modulus (GPa) = 53.62061 61.32546 57.47303
# Shear Modulus (GPa) = 21.12882 26.20716 23.66799
#
# Velocity S-wave (km/s) = 3.48490 3.88117 3.68836
# Velocity P-wave (km/s) = 6.85660 7.43865 7.15355
#
# Compressibility (1/GPa) = 0.01864955
#
# Stress axis : x y z
#
# Youngs Moduli (GPa) = 110.14697 51.34566 93.81820
#
# Poissons Ratio (x) = 0.17586 0.24135
# Poissons Ratio (y) = 0.37725 0.40197
# Poissons Ratio (z) = 0.28335 0.22000
#
# Static dielectric constant tensor:
#      x y z
#    x 3.512180 0.000000 -0.064300 
#    y 0.000000 2.849460 0.000000 
#    z -0.064300 0.000000 3.471850 
# 
# 
# High freq. dielectric constant tensor:
#      x y z
#    x 1.685080 0.000000 0.006110 
#    y 0.000000 1.621710 0.000000 
#    z 0.006110 0.000000 1.687770 
# 
# From -- ./inp_files/65445.got.cif
#   From: 2010.06.25/outbox.cif.g09.slc.cpg/sg12_33_cif.got.tgz:65445.got - 2010.06.28 00:19:55.
