data_PCOD8111876
_publ_section_title
;
Structure prediction by ZEFSAII (Michael W. Deem and Ramdas Pophale) SiO2 
 PCOD8111876
Probable space group: C 2/M
;
_chemical_formula_sum "Si O2"
_cell_formula_units_Z 40
_cell_length_a 10.690440
_cell_length_b 14.229524
_cell_length_c 22.610785
_cell_angle_alpha 90.000000
_cell_angle_beta 144.938559
_cell_angle_gamma 90.000000
_cell_volume 1975.864898
_symmetry_space_group_name_H-M "C 2/M"
_symmetry_group_IT_number 12
_symmetry_cell_setting 'monoclinic'
loop_
_space_group_symop_operation_xyz
x,y,z
-x,y,-z
-x,-y,-z
x,-y,z
1/2+x,1/2+y,z
1/2-x,1/2+y,-z
1/2-x,1/2-y,-z
1/2+x,1/2-y,z
loop_
_atom_site_type_symbol
_atom_site_label
_atom_site_fract_x
_atom_site_fract_y
_atom_site_fract_z
Si Si1 0.712830 0.648382 0.557322
Si Si2 0.376641 0.608678 0.777218
Si Si3 0.614413 0.108109 0.790678
Si Si4 0.532346 0.149478 0.451263
Si Si5 0.763772 0.259987 0.935144
O O1 0.500000 0.593715 0.500000
O O2 0.643317 0.753078 0.512976
O O3 0.811041 0.597842 0.536315
O O4 0.894281 0.650643 0.678200
O O5 0.379886 0.500000 0.759043
O O6 0.313433 0.618992 0.821698
O O7 0.611434 0.653548 0.856418
O O8 0.201292 0.664633 0.669728
O O9 0.674858 0.162892 0.873524
O O10 0.576507 0.000000 0.793114
O O11 0.500000 0.090584 0.500000
O O12 0.750000 0.250000 0.000000
O O13 0.000000 0.283540 0.000000
#
# Coordination Sequence:
#
# PCOD8111876 Si02
#       5
#     8   8   8   8   8
#     4   9  17  32  56  85 119 157 199 242 287 352
#     4  10  22  41  63  90 127 168 208 251 309 379
#     4  10  22  41  64  90 125 169 209 249 309 382
#     4   9  17  32  56  84 120 160 194 238 298 356
#     4  12  24  42  68  93 119 158 207 267 322 368
#
# _framework density 20.244297
#
# number of rings (size 3 to 8) (size 9 to 14) (size 15 to 20)
#    0.000    2.000    2.000    2.400    0.000    2.400 
#    3.600    0.000    0.000    0.000    0.000    0.000 
#    0.000    0.000    0.000    0.000    0.000    0.000 
#
# Total GULP energy -247817.305039 kJ/mol
# GULP energy per Si atom -12390.865252 kJ/mol
# Density = 2.019822 g / cm^3
# Si number density = 20.244297 Si / 1000 Ang^3
#
#
#
# Elastic Constant Matrix: (Units=GPa)
#
#
# Indices 1 2 3 4 5 6 
#
# 1 182.9876 21.4684 85.9400 0.0000 3.5161 0.0000
# 2 21.4684 108.1484 58.9367 0.0000 1.9871 0.0000
# 3 85.9400 58.9367 136.1303 0.0001 7.3341 0.0000
# 4 0.0000 0.0000 0.0001 6.8485 0.0000 -1.3100
# 5 3.5161 1.9871 7.3341 0.0000 48.1368 0.0000
# 6 0.0000 0.0000 0.0000 -1.3100 0.0000 16.7647
#
#
#
# Elastic Compliance Matrix: (Units=1/GPa)
#
#
# Indices 1 2 3 4 5 6 
#
# 1 0.007956 0.001518 -0.005692 0.000000 0.000223 0.000000
# 2 0.001518 0.012396 -0.006344 0.000000 0.000344 0.000000
# 3 -0.005692 -0.006344 0.013762 0.000000 -0.001419 0.000000
# 4 0.000000 0.000000 0.000000 0.148232 0.000000 0.011583
# 5 0.000223 0.000344 -0.001419 0.000000 0.020960 0.000000
# 6 0.000000 0.000000 0.000000 0.011583 0.000000 0.060554
#
#
# Mechanical properties :
#
#
# Convention : Reuss Voigt Hill
#
# Bulk Modulus (GPa) = 76.45722 84.43961 80.44841
# Shear Modulus (GPa) = 17.28581 31.74474 24.51528
#
# Velocity S-wave (km/s) = 2.92526 3.96420 3.48368
# Velocity P-wave (km/s) = 7.01846 7.92174 7.48374
#
# Compressibility (1/GPa) = 0.01307921
#
# Stress axis : x y z
#
# Youngs Moduli (GPa) = 125.69769 80.67118 72.66254
#
# Poissons Ratio (x) = -0.12250 0.41359
# Poissons Ratio (y) = -0.19087 0.46097
# Poissons Ratio (z) = 0.71546 0.51177
#
# Static dielectric constant tensor:
#      x y z
#    x 5.048060 0.000000 0.031370 
#    y 0.000000 3.357970 0.000000 
#    z 0.031370 0.000000 3.702760 
# 
# 
# High freq. dielectric constant tensor:
#      x y z
#    x 1.803840 0.000000 0.001050 
#    y 0.000000 1.769360 0.000000 
#    z 0.001050 0.000000 1.795970 
# 
# From -- ./inp_files/129131.got.cif
#   From: 2010.06.25/outbox.cif.g09.slc.cpg/sg12_65_cif.got.tgz:129131.got - 2010.06.28 00:19:55.
