data_PCOD8111100
_publ_section_title
;
Structure prediction by ZEFSAII (Michael W. Deem and Ramdas Pophale) SiO2 
 PCOD8111100
Probable space group: C 2/M
;
_chemical_formula_sum "Si O2"
_cell_formula_units_Z 48
_cell_length_a 15.330525
_cell_length_b 26.427632
_cell_length_c 9.958649
_cell_angle_alpha 90.000000
_cell_angle_beta 37.202679
_cell_angle_gamma 90.000000
_cell_volume 2439.551342
_symmetry_space_group_name_H-M "C 2/M"
_symmetry_group_IT_number 12
_symmetry_cell_setting 'monoclinic'
loop_
_space_group_symop_operation_xyz
x,y,z
-x,y,-z
-x,-y,-z
x,-y,z
1/2+x,1/2+y,z
1/2-x,1/2+y,-z
1/2-x,1/2-y,-z
1/2+x,1/2-y,z
loop_
_atom_site_type_symbol
_atom_site_label
_atom_site_fract_x
_atom_site_fract_y
_atom_site_fract_z
Si Si1 0.215362 0.556662 0.332379
Si Si2 0.394892 0.057807 0.822876
Si Si3 0.129081 0.718761 0.565630
Si Si4 0.905327 0.649806 0.996066
Si Si5 0.107900 0.819709 0.477267
Si Si6 0.630246 0.647035 0.751103
O O1 0.267162 0.500000 0.291870
O O2 0.198953 0.567883 0.194628
O O3 0.341888 0.588999 0.245122
O O4 0.063266 0.565999 0.590368
O O5 0.348441 0.101347 0.983354
O O6 0.367350 0.000000 0.908766
O O7 0.250000 0.750000 0.500000
O O8 0.061936 0.760471 0.548574
O O9 0.222639 0.674904 0.380929
O O10 0.997593 0.692520 0.805435
O O11 0.769515 0.678484 0.224562
O O12 0.000000 0.626855 0.000000
O O13 0.095615 0.848493 0.635173
O O14 0.000000 0.844340 0.500000
O O15 0.500000 0.669205 0.000000
#
# Coordination Sequence:
#
# PCOD8111100 Si02
#       6
#     8   8   8   8   8   8
#     4   9  18  37  61  91 123 158 207 259 308 373
#     4   9  19  35  61  96 125 152 208 269 309 365
#     4  10  22  39  59  88 120 163 208 250 308 361
#     4  12  21  40  68  87 126 173 207 259 315 375
#     4  11  27  42  60  94 130 162 210 263 314 367
#     4  11  23  39  63  88 124 165 208 256 307 377
#
# _framework density 19.675749
#
# number of rings (size 3 to 8) (size 9 to 14) (size 15 to 20)
#    0.000    1.667    5.000    1.000    7.000    2.667 
#    0.000    0.833    0.000    1.000    0.000    0.000 
#    0.000    0.000    0.000    0.000    0.000    0.000 
#
# Total GULP energy -297425.468346 kJ/mol
# GULP energy per Si atom -12392.727848 kJ/mol
# Density = 1.963097 g / cm^3
# Si number density = 19.675749 Si / 1000 Ang^3
#
#
#
# Elastic Constant Matrix: (Units=GPa)
#
#
# Indices 1 2 3 4 5 6 
#
# 1 99.8631 48.6395 40.3083 0.0000 8.8466 0.0000
# 2 48.6395 115.9355 46.9556 0.0000 17.4189 0.0000
# 3 40.3083 46.9556 133.8361 0.0000 3.2863 0.0000
# 4 0.0000 0.0000 0.0000 8.7695 0.0000 1.2130
# 5 8.8466 17.4189 3.2863 0.0000 23.1445 0.0000
# 6 0.0000 0.0000 0.0000 1.2130 0.0000 30.3848
#
#
#
# Elastic Compliance Matrix: (Units=1/GPa)
#
#
# Indices 1 2 3 4 5 6 
#
# 1 0.013242 -0.004358 -0.002424 0.000000 -0.001438 0.000000
# 2 -0.004358 0.012799 -0.002993 0.000000 -0.007542 0.000000
# 3 -0.002424 -0.002993 0.009206 0.000000 0.001872 0.000000
# 4 0.000000 0.000000 0.000000 0.114665 0.000000 -0.004578
# 5 -0.001438 -0.007542 0.001872 0.000000 0.049167 0.000000
# 6 0.000000 0.000000 0.000000 -0.004578 0.000000 0.033094
#
#
# Mechanical properties :
#
#
# Convention : Reuss Voigt Hill
#
# Bulk Modulus (GPa) = 63.70314 69.04904 66.37609
# Shear Modulus (GPa) = 19.45869 26.70851 23.08360
#
# Velocity S-wave (km/s) = 3.14820 3.68833 3.42892
# Velocity P-wave (km/s) = 6.75734 7.30124 7.03455
#
# Compressibility (1/GPa) = 0.01569781
#
# Stress axis : x y z
#
# Youngs Moduli (GPa) = 75.51745 78.13080 108.62574
#
# Poissons Ratio (x) = 0.34048 0.26331
# Poissons Ratio (y) = 0.32909 0.32510
# Poissons Ratio (z) = 0.18305 0.23383
#
# Static dielectric constant tensor:
#      x y z
#    x 3.552910 0.000000 0.110000 
#    y 0.000000 3.903160 0.000000 
#    z 0.110000 0.000000 3.492150 
# 
# 
# High freq. dielectric constant tensor:
#      x y z
#    x 1.756490 0.000000 -0.000530 
#    y 0.000000 1.772360 0.000000 
#    z -0.000530 0.000000 1.757150 
# 
# From -- ./inp_files/67318.got.cif
#   From: 2010.06.25/outbox.cif.g09.slc.cpg/sg12_34_cif.got.tgz:67318.got - 2010.06.28 00:19:55.
