data_PCOD8111642
_publ_section_title
;
Structure prediction by ZEFSAII (Michael W. Deem and Ramdas Pophale) SiO2 
 PCOD8111642
Probable space group: C 2/M
;
_chemical_formula_sum "Si O2"
_cell_formula_units_Z 48
_cell_length_a 22.683040
_cell_length_b 8.631608
_cell_length_c 12.005081
_cell_angle_alpha 90.000000
_cell_angle_beta 69.879340
_cell_angle_gamma 90.000000
_cell_volume 2207.038479
_symmetry_space_group_name_H-M "C 2/M"
_symmetry_group_IT_number 12
_symmetry_cell_setting 'monoclinic'
loop_
_space_group_symop_operation_xyz
x,y,z
-x,y,-z
-x,-y,-z
x,-y,z
1/2+x,1/2+y,z
1/2-x,1/2+y,-z
1/2-x,1/2-y,-z
1/2+x,1/2-y,z
loop_
_atom_site_type_symbol
_atom_site_label
_atom_site_fract_x
_atom_site_fract_y
_atom_site_fract_z
Si Si1 0.595771 0.326396 0.975913
Si Si2 0.740722 0.676706 0.886458
Si Si3 0.819323 0.317715 0.462735
Si Si4 0.054200 0.320241 0.224084
Si Si5 0.426873 0.680510 0.256662
Si Si6 0.846028 0.181431 0.675583
O O1 0.579660 0.500000 0.029847
O O2 0.668789 0.314595 0.898207
O O3 0.559848 0.292267 0.883670
O O4 0.576964 0.205328 0.082627
O O5 0.765445 0.500000 0.871823
O O6 0.779445 0.773847 0.771808
O O7 0.750000 0.750000 0.000000
O O8 0.814104 0.500000 0.458293
O O9 0.750000 0.250000 0.500000
O O10 0.860933 0.255793 0.333640
O O11 0.853835 0.269121 0.554059
O O12 0.058600 0.500000 0.250354
O O13 0.097664 0.225654 0.279475
O O14 0.983232 0.262039 0.286737
O O15 0.425059 0.500000 0.287134
O O16 0.847432 0.000000 0.651859
#
# Coordination Sequence:
#
# PCOD8111642 Si02
#       6
#     8   8   8   8   8   8
#     4  10  22  40  64  93 131 174 217 265 324 389
#     4  11  21  36  61  95 131 168 212 264 324 386
#     4  12  26  47  72 100 132 168 216 267 325 388
#     4  12  25  41  64  96 133 172 219 272 329 391
#     4  11  24  44  68  95 130 174 221 268 325 388
#     4  12  25  43  67  96 132 174 221 271 328 386
#
# _framework density 21.748602000000002
#
# number of rings (size 3 to 8) (size 9 to 14) (size 15 to 20)
#    0.000    0.667    1.667    7.000    0.000    6.000 
#    0.000    3.333    0.000    0.000    0.000    0.000 
#    0.000    0.000    0.000    0.000    0.000    0.000 
#
# Total GULP energy -297784.223000 kJ/mol
# GULP energy per Si atom -12407.675958 kJ/mol
# Density = 2.169910 g / cm^3
# Si number density = 21.748602 Si / 1000 Ang^3
#
#
#
# Elastic Constant Matrix: (Units=GPa)
#
#
# Indices 1 2 3 4 5 6 
#
# 1 88.2382 15.8964 9.5145 0.0000 -8.8391 0.0000
# 2 15.8964 108.2892 25.8982 0.0000 -11.7688 0.0000
# 3 9.5145 25.8982 79.0918 0.0000 -3.7245 0.0000
# 4 0.0000 0.0000 0.0000 39.8614 0.0000 -1.9328
# 5 -8.8391 -11.7688 -3.7245 0.0000 31.1483 0.0000
# 6 0.0000 0.0000 0.0000 -1.9328 0.0000 34.1976
#
#
#
# Elastic Compliance Matrix: (Units=1/GPa)
#
#
# Indices 1 2 3 4 5 6 
#
# 1 0.011934 -0.001231 -0.000900 0.000000 0.002814 0.000000
# 2 -0.001231 0.010520 -0.003144 0.000000 0.003250 0.000000
# 3 -0.000900 -0.003144 0.013791 0.000000 0.000206 0.000000
# 4 0.000000 0.000000 0.000000 0.025156 0.000000 0.001422
# 5 0.002814 0.003250 0.000206 0.000000 0.034155 0.000000
# 6 0.000000 0.000000 0.000000 0.001422 0.000000 0.029322
#
#
# Mechanical properties :
#
#
# Convention : Reuss Voigt Hill
#
# Bulk Modulus (GPa) = 38.91705 42.02639 40.47172
# Shear Modulus (GPa) = 34.72405 35.99547 35.35976
#
# Velocity S-wave (km/s) = 4.00010 4.07267 4.03655
# Velocity P-wave (km/s) = 6.26636 6.44059 6.35407
#
# Compressibility (1/GPa) = 0.02569568
#
# Stress axis : x y z
#
# Youngs Moduli (GPa) = 83.79699 95.05503 72.51162
#
# Poissons Ratio (x) = 0.11699 0.06527
# Poissons Ratio (y) = 0.10313 0.22796
# Poissons Ratio (z) = 0.07542 0.29883
#
# Static dielectric constant tensor:
#      x y z
#    x 3.962780 0.000000 0.288130 
#    y 0.000000 3.937400 0.000000 
#    z 0.288130 0.000000 3.214680 
# 
# 
# High freq. dielectric constant tensor:
#      x y z
#    x 1.871950 0.000000 -0.000180 
#    y 0.000000 1.862410 0.000000 
#    z -0.000180 0.000000 1.853740 
# 
# From -- ./inp_files/172913.got.cif
#   From: 2010.06.25/outbox.cif.g09.slc.cpg/sg12_87_cif.got.tgz:172913.got - 2010.06.28 00:19:55.
