data_PCOD8111280
_publ_section_title
;
Structure prediction by ZEFSAII (Michael W. Deem and Ramdas Pophale) SiO2 
 PCOD8111280
Probable space group: C 2/M
;
_chemical_formula_sum "Si O2"
_cell_formula_units_Z 56
_cell_length_a 12.078684
_cell_length_b 26.665027
_cell_length_c 8.551610
_cell_angle_alpha 90.000000
_cell_angle_beta 105.333757
_cell_angle_gamma 90.000000
_cell_volume 2656.241387
_symmetry_space_group_name_H-M "C 2/M"
_symmetry_group_IT_number 12
_symmetry_cell_setting 'monoclinic'
loop_
_space_group_symop_operation_xyz
x,y,z
-x,y,-z
-x,-y,-z
x,-y,z
1/2+x,1/2+y,z
1/2-x,1/2+y,-z
1/2-x,1/2-y,-z
1/2+x,1/2-y,z
loop_
_atom_site_type_symbol
_atom_site_label
_atom_site_fract_x
_atom_site_fract_y
_atom_site_fract_z
Si Si1 0.088187 0.054560 0.650822
Si Si2 0.693489 0.627991 0.900186
Si Si3 0.431117 0.890435 0.829025
Si Si4 0.951101 0.693036 0.316349
Si Si5 0.722966 0.357527 0.259955
Si Si6 0.503838 0.704487 0.821125
Si Si7 0.307717 0.055634 0.527091
O O1 0.104058 0.085012 0.815123
O O2 0.209176 0.048409 0.614882
O O3 0.000000 0.082294 0.500000
O O4 0.036540 0.000000 0.676050
O O5 0.807817 0.629214 0.840040
O O6 0.628125 0.679728 0.843963
O O7 0.714639 0.616436 0.088664
O O8 0.506122 0.843083 0.805202
O O9 0.417759 0.926904 0.672883
O O10 0.500000 0.916512 0.000000
O O11 0.813299 0.688359 0.279841
O O12 0.000000 0.675704 0.500000
O O13 0.996003 0.748419 0.294066
O O14 0.601272 0.332953 0.264649
O O15 0.769567 0.401752 0.389587
O O16 0.500000 0.721792 0.000000
O O17 0.333317 0.000000 0.461277
#
# Coordination Sequence:
#
# PCOD8111280 Si02
#       7
#     8   8   8   8   8   8   8
#     4   9  18  35  61  90 123 164 208 258 315 373
#     4  10  22  39  64  90 126 163 212 257 314 373
#     4  11  22  41  65  88 126 167 211 259 309 372
#     4  12  25  41  64  90 125 166 214 255 321 369
#     4  11  23  42  63  93 132 164 210 262 313 372
#     4  10  25  41  63  93 126 167 210 258 316 372
#     4  10  22  40  64  93 128 165 207 260 317 373
#
# _framework density 21.082422000000001
#
# number of rings (size 3 to 8) (size 9 to 14) (size 15 to 20)
#    0.000    1.571    2.857    1.286    2.000    5.429 
#    0.000    1.429    0.000    5.143    0.000    0.000 
#    0.000    0.000    0.000    0.000    0.000    0.000 
#
# Total GULP energy -347015.480692 kJ/mol
# GULP energy per Si atom -12393.410025 kJ/mol
# Density = 2.103444 g / cm^3
# Si number density = 21.082422 Si / 1000 Ang^3
#
#
#
# Elastic Constant Matrix: (Units=GPa)
#
#
# Indices 1 2 3 4 5 6 
#
# 1 74.1152 22.8968 17.8099 0.0000 12.1705 0.0000
# 2 22.8968 104.5275 53.6077 0.0000 2.8438 0.0000
# 3 17.8099 53.6077 141.7773 0.0000 22.6632 0.0000
# 4 0.0000 0.0000 0.0000 23.6169 0.0000 2.3353
# 5 12.1705 2.8438 22.6632 0.0000 30.6559 0.0000
# 6 0.0000 0.0000 0.0000 2.3353 0.0000 17.2105
#
#
#
# Elastic Compliance Matrix: (Units=1/GPa)
#
#
# Indices 1 2 3 4 5 6 
#
# 1 0.015456 -0.003376 0.000301 0.000000 -0.006045 0.000000
# 2 -0.003376 0.012779 -0.005027 0.000000 0.003871 0.000000
# 3 0.000301 -0.005027 0.010048 0.000000 -0.007082 0.000000
# 4 0.000000 0.000000 0.000000 0.042918 0.000000 -0.005824
# 5 -0.006045 0.003871 -0.007082 0.000000 0.039896 0.000000
# 6 0.000000 0.000000 0.000000 -0.005824 0.000000 0.058894
#
#
# Mechanical properties :
#
#
# Convention : Reuss Voigt Hill
#
# Bulk Modulus (GPa) = 45.28821 56.56099 50.92460
# Shear Modulus (GPa) = 24.56350 29.37036 26.96693
#
# Velocity S-wave (km/s) = 3.41709 3.73650 3.58036
# Velocity P-wave (km/s) = 6.09071 6.74552 6.42646
#
# Compressibility (1/GPa) = 0.02208080
#
# Stress axis : x y z
#
# Youngs Moduli (GPa) = 64.70101 78.25411 99.52153
#
# Poissons Ratio (x) = 0.26415 -0.02998
# Poissons Ratio (y) = 0.21840 0.50025
# Poissons Ratio (z) = -0.01949 0.39335
#
# Static dielectric constant tensor:
#      x y z
#    x 3.904960 0.000000 0.203760 
#    y 0.000000 3.926620 0.000000 
#    z 0.203760 0.000000 3.968040 
# 
# 
# High freq. dielectric constant tensor:
#      x y z
#    x 1.828480 0.000000 0.014450 
#    y 0.000000 1.810940 0.000000 
#    z 0.014450 0.000000 1.835880 
# 
# From -- ./inp_files/53165.got.cif
#   From: 2010.06.25/outbox.cif.g09.slc.cpg/sg12_27_cif.got.tgz:53165.got - 2010.06.28 00:19:55.
