data_PCOD8111389
_publ_section_title
;
Structure prediction by ZEFSAII (Michael W. Deem and Ramdas Pophale) SiO2 
 PCOD8111389
Probable space group: C 2/M
;
_chemical_formula_sum "Si O2"
_cell_formula_units_Z 40
_cell_length_a 9.894964
_cell_length_b 9.069190
_cell_length_c 22.102860
_cell_angle_alpha 90.000000
_cell_angle_beta 96.271677
_cell_angle_gamma 90.000000
_cell_volume 1971.624310
_symmetry_space_group_name_H-M "C 2/M"
_symmetry_group_IT_number 12
_symmetry_cell_setting 'monoclinic'
loop_
_space_group_symop_operation_xyz
x,y,z
-x,y,-z
-x,-y,-z
x,-y,z
1/2+x,1/2+y,z
1/2-x,1/2+y,-z
1/2-x,1/2-y,-z
1/2+x,1/2-y,z
loop_
_atom_site_type_symbol
_atom_site_label
_atom_site_fract_x
_atom_site_fract_y
_atom_site_fract_z
Si Si1 0.507879 0.329720 0.366637
Si Si2 0.860217 0.170565 0.836031
Si Si3 0.384116 0.329872 0.233946
Si Si4 0.253053 0.670759 0.436381
Si Si5 0.354659 0.831455 0.962688
O O1 0.551461 0.500000 0.364486
O O2 0.446335 0.275501 0.300237
O O3 0.400569 0.304349 0.414861
O O4 0.640942 0.234513 0.385656
O O5 0.746790 0.230578 0.784832
O O6 0.856015 0.259285 0.897492
O O7 0.007471 0.193292 0.814009
O O8 0.830288 0.000000 0.847874
O O9 0.338845 0.500000 0.236387
O O10 0.222193 0.500000 0.445241
O O11 0.250000 0.750000 0.500000
O O12 0.308408 0.000000 0.952876
O O13 0.500000 0.817919 0.000000
O O14 0.250000 0.750000 0.000000
#
# Coordination Sequence:
#
# PCOD8111389 Si02
#       5
#     8   8   8   8   8
#     4  10  22  40  60  85 117 152 193 240 289 343
#     4  11  23  38  60  89 118 152 193 236 286 344
#     4  10  22  40  61  86 118 154 192 238 289 342
#     4  11  23  38  59  86 116 153 195 240 291 346
#     4  11  24  41  62  88 118 154 195 239 288 342
#
# _framework density 20.287841
#
# number of rings (size 3 to 8) (size 9 to 14) (size 15 to 20)
#    0.000    1.400    0.000    4.800    0.000   11.200 
#    0.000    0.000    0.000    0.000    0.000    0.000 
#    0.000    0.000    0.000    0.000    0.000    0.000 
#
# Total GULP energy -248147.157312 kJ/mol
# GULP energy per Si atom -12407.357866 kJ/mol
# Density = 2.024167 g / cm^3
# Si number density = 20.287841 Si / 1000 Ang^3
#
#
#
# Elastic Constant Matrix: (Units=GPa)
#
#
# Indices 1 2 3 4 5 6 
#
# 1 43.9178 34.7360 -7.8599 0.0000 7.8545 0.0000
# 2 34.7360 112.2717 31.9897 0.0000 5.9398 0.0000
# 3 -7.8599 31.9897 97.3418 0.0000 0.2575 0.0000
# 4 0.0000 0.0000 0.0000 39.9828 0.0000 5.2731
# 5 7.8545 5.9398 0.2575 0.0000 36.9210 0.0000
# 6 0.0000 0.0000 0.0000 5.2731 0.0000 34.0779
#
#
#
# Elastic Compliance Matrix: (Units=1/GPa)
#
#
# Indices 1 2 3 4 5 6 
#
# 1 0.034843 -0.012465 0.006924 0.000000 -0.005455 0.000000
# 2 -0.012465 0.014377 -0.005732 0.000000 0.000379 0.000000
# 3 0.006924 -0.005732 0.012718 0.000000 -0.000640 0.000000
# 4 0.000000 0.000000 0.000000 0.025532 0.000000 -0.003951
# 5 -0.005455 0.000379 -0.000640 0.000000 0.028189 0.000000
# 6 0.000000 0.000000 0.000000 -0.003951 0.000000 0.029956
#
#
# Mechanical properties :
#
#
# Convention : Reuss Voigt Hill
#
# Bulk Modulus (GPa) = 25.38550 41.25143 33.31846
# Shear Modulus (GPa) = 27.58011 35.17403 31.37707
#
# Velocity S-wave (km/s) = 3.69106 4.16835 3.93694
# Velocity P-wave (km/s) = 5.54121 6.59879 6.09299
#
# Compressibility (1/GPa) = 0.03939257
#
# Stress axis : x y z
#
# Youngs Moduli (GPa) = 28.69988 69.55740 78.63112
#
# Poissons Ratio (x) = 0.86700 -0.54445
# Poissons Ratio (y) = 0.35773 0.45072
# Poissons Ratio (z) = -0.19872 0.39871
#
# Static dielectric constant tensor:
#      x y z
#    x 3.834480 0.000000 -0.077830 
#    y 0.000000 3.808750 0.000000 
#    z -0.077830 0.000000 3.915220 
# 
# 
# High freq. dielectric constant tensor:
#      x y z
#    x 1.801920 0.000000 -0.000270 
#    y 0.000000 1.799490 0.000000 
#    z -0.000270 0.000000 1.812450 
# 
# From -- ./inp_files/303446.got.cif
#   From: 2010.06.25/outbox.cif.g09.slc.cpg/sg12_152_cif.got.tgz:303446.got - 2010.06.28 00:19:55.
