data_PCOD8111956
_publ_section_title
;
Structure prediction by ZEFSAII (Michael W. Deem and Ramdas Pophale) SiO2 
 PCOD8111956
Probable space group: C 2/M
;
_chemical_formula_sum "Si O2"
_cell_formula_units_Z 44
_cell_length_a 27.690526
_cell_length_b 11.257789
_cell_length_c 7.149282
_cell_angle_alpha 90.000000
_cell_angle_beta 73.152721
_cell_angle_gamma 90.000000
_cell_volume 2133.021746
_symmetry_space_group_name_H-M "C 2/M"
_symmetry_group_IT_number 12
_symmetry_cell_setting 'monoclinic'
loop_
_space_group_symop_operation_xyz
x,y,z
-x,y,-z
-x,-y,-z
x,-y,z
1/2+x,1/2+y,z
1/2-x,1/2+y,-z
1/2-x,1/2-y,-z
1/2+x,1/2-y,z
loop_
_atom_site_type_symbol
_atom_site_label
_atom_site_fract_x
_atom_site_fract_y
_atom_site_fract_z
Si Si1 0.099703 0.865987 0.226859
Si Si2 0.500000 0.283617 0.500000
Si Si3 0.328047 0.365248 0.531221
Si Si4 0.636853 0.215208 0.847217
Si Si5 0.036342 0.365865 0.798514
Si Si6 0.262952 0.866419 0.110006
O O1 0.041121 0.864548 0.350834
O O2 0.134989 0.812093 0.350652
O O3 0.116641 0.000000 0.167222
O O4 0.107285 0.794081 0.029694
O O5 0.470084 0.204802 0.385049
O O6 0.344159 0.500000 0.470730
O O7 0.333215 0.294976 0.333971
O O8 0.270567 0.355988 0.665806
O O9 0.594809 0.135829 0.793510
O O10 0.678235 0.133631 0.901991
O O11 0.019700 0.500000 0.776727
O O12 0.000000 0.311859 0.000000
O O13 0.252688 0.000000 0.030380
O O14 0.250000 0.750000 0.000000
#
# Coordination Sequence:
#
# PCOD8111956 Si02
#       6
#     8   4   8   8   8   8
#     4  11  23  39  64  95 129 164 211 267 320 383
#     4  12  22  44  62  92 124 168 208 264 324 386
#     4  10  22  41  64  94 130 167 212 265 326 385
#     4  12  22  42  66  95 125 169 216 264 321 385
#     4  11  24  41  62  89 122 163 213 267 320 383
#     4  11  24  43  68  99 135 173 216 271 324 388
#
# _framework density 20.628012999999999
#
# number of rings (size 3 to 8) (size 9 to 14) (size 15 to 20)
#    0.000    0.909    5.455    2.182    0.000    0.727 
#    0.000    4.545    0.000    0.000    0.000    0.000 
#    0.000    0.000    0.000    0.000    0.000    0.000 
#
# Total GULP energy -272775.453898 kJ/mol
# GULP energy per Si atom -12398.884268 kJ/mol
# Density = 2.058106 g / cm^3
# Si number density = 20.628013 Si / 1000 Ang^3
#
#
#
# Elastic Constant Matrix: (Units=GPa)
#
#
# Indices 1 2 3 4 5 6 
#
# 1 124.8249 15.7261 17.2050 0.0000 -3.6277 0.0000
# 2 15.7261 92.6758 36.9858 0.0000 1.0667 0.0000
# 3 17.2050 36.9858 87.0406 0.0000 -10.1699 0.0000
# 4 0.0000 0.0000 0.0000 9.5258 0.0000 -8.1334
# 5 -3.6277 1.0667 -10.1699 0.0000 40.0806 0.0000
# 6 0.0000 0.0000 0.0000 -8.1334 0.0000 22.4024
#
#
#
# Elastic Compliance Matrix: (Units=1/GPa)
#
#
# Indices 1 2 3 4 5 6 
#
# 1 0.008307 -0.000942 -0.001186 0.000000 0.000476 0.000000
# 2 -0.000942 0.013228 -0.005653 0.000000 -0.001872 0.000000
# 3 -0.001186 -0.005653 0.014562 0.000000 0.003738 0.000000
# 4 0.000000 0.000000 0.000000 0.152139 0.000000 0.055236
# 5 0.000476 -0.001872 0.003738 0.000000 0.025991 0.000000
# 6 0.000000 0.000000 0.000000 0.055236 0.000000 0.064692
#
#
# Mechanical properties :
#
#
# Convention : Reuss Voigt Hill
#
# Bulk Modulus (GPa) = 48.69810 49.37502 49.03656
# Shear Modulus (GPa) = 16.59324 30.04340 23.31832
#
# Velocity S-wave (km/s) = 2.83928 3.82047 3.36582
# Velocity P-wave (km/s) = 5.86580 6.59160 6.23926
#
# Compressibility (1/GPa) = 0.02053468
#
# Stress axis : x y z
#
# Youngs Moduli (GPa) = 120.37745 75.59800 68.66984
#
# Poissons Ratio (x) = 0.07119 0.08146
# Poissons Ratio (y) = 0.11336 0.38822
# Poissons Ratio (z) = 0.14280 0.42739
#
# Static dielectric constant tensor:
#      x y z
#    x 3.844880 0.000000 -0.076440 
#    y 0.000000 3.620280 0.000000 
#    z -0.076440 0.000000 3.650670 
# 
# 
# High freq. dielectric constant tensor:
#      x y z
#    x 1.820950 0.000000 -0.009420 
#    y 0.000000 1.798960 0.000000 
#    z -0.009420 0.000000 1.802950 
# 
# From -- ./inp_files/30828.got.cif
#   From: 2010.06.25/outbox.cif.g09.slc.cpg/sg12_16_cif.got.tgz:30828.got - 2010.06.28 00:19:55.
