data_PCOD8111199
_publ_section_title
;
Structure prediction by ZEFSAII (Michael W. Deem and Ramdas Pophale) SiO2 
 PCOD8111199
Probable space group: C 2/M
;
_chemical_formula_sum "Si O2"
_cell_formula_units_Z 36
_cell_length_a 20.008847
_cell_length_b 9.977993
_cell_length_c 9.161450
_cell_angle_alpha 90.000000
_cell_angle_beta 90.156824
_cell_angle_gamma 90.000000
_cell_volume 1829.059558
_symmetry_space_group_name_H-M "C 2/M"
_symmetry_group_IT_number 12
_symmetry_cell_setting 'monoclinic'
loop_
_space_group_symop_operation_xyz
x,y,z
-x,y,-z
-x,-y,-z
x,-y,z
1/2+x,1/2+y,z
1/2-x,1/2+y,-z
1/2-x,1/2-y,-z
1/2+x,1/2-y,z
loop_
_atom_site_type_symbol
_atom_site_label
_atom_site_fract_x
_atom_site_fract_y
_atom_site_fract_z
Si Si1 0.108949 0.726678 0.706250
Si Si2 0.148142 0.500000 0.500127
Si Si3 0.246719 0.247581 0.172837
Si Si4 0.706753 0.500000 0.362301
Si Si5 0.426484 0.500000 0.432922
Si Si6 0.161653 0.500000 0.190632
Si Si7 0.067482 0.500000 0.916503
O O1 0.117610 0.635203 0.564887
O O2 0.179270 0.765290 0.771673
O O3 0.073550 0.866302 0.666814
O O4 0.069306 0.636713 0.824045
O O5 0.229426 0.500000 0.526996
O O6 0.117016 0.500000 0.336467
O O7 0.206305 0.373578 0.222361
O O8 0.210086 0.122873 0.249030
O O9 0.250000 0.250000 0.000000
O O10 0.636485 0.500000 0.452719
O O11 0.500000 0.500000 0.500000
O O12 0.127640 0.500000 0.033348
O O13 0.000000 0.500000 0.000000
#
# Coordination Sequence:
#
# PCOD8111199 Si02
#       7
#     8   4   8   4   4   4   4
#     4  10  22  44  63  91 128 162 207 271 314 372
#     4   9  20  38  70  95 117 155 211 268 325 360
#     4  11  20  36  66  96 127 156 203 267 330 371
#     4  10  22  39  61  97 132 161 208 268 322 375
#     4  12  26  43  63  90 134 177 215 252 310 388
#     4  12  21  35  61  96 120 159 205 249 317 383
#     4  11  25  43  61  86 125 166 215 259 302 376
#
# _framework density 19.682245000000002
#
# number of rings (size 3 to 8) (size 9 to 14) (size 15 to 20)
#    0.000    1.333    2.222    4.667    0.000    7.111 
#    0.000    2.778    0.000    0.000    0.000    0.000 
#    0.000    0.000    0.000    0.000    0.000    0.000 
#
# Total GULP energy -222990.077207 kJ/mol
# GULP energy per Si atom -12388.337623 kJ/mol
# Density = 1.963745 g / cm^3
# Si number density = 19.682245 Si / 1000 Ang^3
#
#
#
# Elastic Constant Matrix: (Units=GPa)
#
#
# Indices 1 2 3 4 5 6 
#
# 1 97.2370 63.5656 32.8814 0.0000 -14.6097 0.0000
# 2 63.5656 188.9801 70.1977 0.0000 5.6722 0.0000
# 3 32.8814 70.1977 137.9478 0.0000 -8.5939 0.0000
# 4 0.0000 0.0000 0.0000 27.7175 0.0000 4.6258
# 5 -14.6097 5.6722 -8.5939 0.0000 23.9328 0.0000
# 6 0.0000 0.0000 0.0000 4.6258 0.0000 17.3366
#
#
#
# Elastic Compliance Matrix: (Units=1/GPa)
#
#
# Indices 1 2 3 4 5 6 
#
# 1 0.015542 -0.005450 -0.000266 0.000000 0.010683 0.000000
# 2 -0.005450 0.008625 -0.003503 0.000000 -0.006629 0.000000
# 3 -0.000266 -0.003503 0.009346 0.000000 0.004024 0.000000
# 4 0.000000 0.000000 0.000000 0.037760 0.000000 -0.010075
# 5 0.010683 -0.006629 0.004024 0.000000 0.051321 0.000000
# 6 0.000000 0.000000 0.000000 -0.010075 0.000000 0.060370
#
#
# Mechanical properties :
#
#
# Convention : Reuss Voigt Hill
#
# Bulk Modulus (GPa) = 66.33256 84.16157 75.24707
# Shear Modulus (GPa) = 24.22196 30.96540 27.59368
#
# Velocity S-wave (km/s) = 3.51187 3.97074 3.74834
# Velocity P-wave (km/s) = 7.08655 7.99221 7.55297
#
# Compressibility (1/GPa) = 0.01507555
#
# Stress axis : x y z
#
# Youngs Moduli (GPa) = 64.34314 115.94648 107.00158
#
# Poissons Ratio (x) = 0.63185 0.02845
# Poissons Ratio (y) = 0.35064 0.37481
# Poissons Ratio (z) = 0.01711 0.40614
#
# Static dielectric constant tensor:
#      x y z
#    x 3.563690 0.000000 0.208720 
#    y 0.000000 4.178250 0.000000 
#    z 0.208720 0.000000 4.846720 
# 
# 
# High freq. dielectric constant tensor:
#      x y z
#    x 1.746610 0.000000 -0.001760 
#    y 0.000000 1.789240 0.000000 
#    z -0.001760 0.000000 1.784260 
# 
# From -- ./inp_files/82110.got.cif
#   From: 2010.06.25/outbox.cif.g09.slc.cpg/sg12_42_cif.got.tgz:82110.got - 2010.06.28 00:19:55.
