data_PCOD8111257
_publ_section_title
;
Structure prediction by ZEFSAII (Michael W. Deem and Ramdas Pophale) SiO2 
 PCOD8111257
Probable space group: C 2/M
;
_chemical_formula_sum "Si O2"
_cell_formula_units_Z 48
_cell_length_a 18.712791
_cell_length_b 7.963556
_cell_length_c 15.545651
_cell_angle_alpha 90.000000
_cell_angle_beta 84.753754
_cell_angle_gamma 90.000000
_cell_volume 2306.913995
_symmetry_space_group_name_H-M "C 2/M"
_symmetry_group_IT_number 12
_symmetry_cell_setting 'monoclinic'
loop_
_space_group_symop_operation_xyz
x,y,z
-x,y,-z
-x,-y,-z
x,-y,z
1/2+x,1/2+y,z
1/2-x,1/2+y,-z
1/2-x,1/2-y,-z
1/2+x,1/2-y,z
loop_
_atom_site_type_symbol
_atom_site_label
_atom_site_fract_x
_atom_site_fract_y
_atom_site_fract_z
Si Si1 0.955853 0.306713 0.423272
Si Si2 0.710176 0.807400 0.918776
Si Si3 0.223979 0.306603 0.256103
Si Si4 0.297197 0.308963 0.415885
Si Si5 0.455283 0.500000 0.874767
Si Si6 0.109857 0.000000 0.940425
Si Si7 0.430414 0.313668 0.716193
O O1 0.936770 0.500000 0.439152
O O2 0.881133 0.210878 0.423727
O O3 0.000000 0.235903 0.500000
O O4 0.002381 0.282000 0.332520
O O5 0.763277 0.802226 0.831132
O O6 0.647407 0.673080 0.906764
O O7 0.682025 0.000000 0.932585
O O8 0.750000 0.750000 0.000000
O O9 0.242999 0.500000 0.234444
O O10 0.272222 0.226470 0.328028
O O11 0.140964 0.292573 0.292938
O O12 0.277491 0.500000 0.405111
O O13 0.250000 0.250000 0.500000
O O14 0.533409 0.500000 0.905420
O O15 0.445190 0.333231 0.817079
O O16 0.395293 0.500000 0.955420
O O17 0.422633 0.500000 0.675180
#
# Coordination Sequence:
#
# PCOD8111257 Si02
#       7
#     8   8   8   8   4   4   8
#     4  11  24  41  62  90 128 172 215 266 329 393
#     4  12  24  40  68 101 133 176 225 276 337 398
#     4  11  23  41  64  96 133 172 218 282 332 391
#     4  11  25  42  65  94 132 170 218 274 330 384
#     4   9  24  42  67  90 134 175 205 277 329 391
#     4  11  22  46  68  94 142 172 217 279 335 391
#     4  10  22  39  63  90 128 163 223 256 326 388
#
# _framework density 20.807016999999998
#
# number of rings (size 3 to 8) (size 9 to 14) (size 15 to 20)
#    0.500    0.667    1.667    4.000    2.333    8.000 
#    0.000    3.333    0.000    0.000    0.000    0.000 
#    0.000    0.000    0.000    0.000    0.000    0.000 
#
# Total GULP energy -297583.155568 kJ/mol
# GULP energy per Si atom -12399.298149 kJ/mol
# Density = 2.075966 g / cm^3
# Si number density = 20.807017 Si / 1000 Ang^3
#
#
#
# Elastic Constant Matrix: (Units=GPa)
#
#
# Indices 1 2 3 4 5 6 
#
# 1 121.4255 19.9578 52.3564 0.0000 -3.9903 0.0000
# 2 19.9578 96.2274 21.0143 0.0000 1.0524 0.0000
# 3 52.3564 21.0143 134.6828 0.0000 2.5141 0.0000
# 4 0.0000 0.0000 0.0000 31.0801 0.0000 -5.5287
# 5 -3.9903 1.0524 2.5141 0.0000 37.5645 0.0000
# 6 0.0000 0.0000 0.0000 -5.5287 0.0000 29.8350
#
#
#
# Elastic Compliance Matrix: (Units=1/GPa)
#
#
# Indices 1 2 3 4 5 6 
#
# 1 0.010112 -0.001292 -0.003755 0.000000 0.001362 0.000000
# 2 -0.001292 0.010925 -0.001196 0.000000 -0.000363 0.000000
# 3 -0.003755 -0.001196 0.009089 0.000000 -0.000974 0.000000
# 4 0.000000 0.000000 0.000000 0.033272 0.000000 0.006166
# 5 0.001362 -0.000363 -0.000974 0.000000 0.026841 0.000000
# 6 0.000000 0.000000 0.000000 0.006166 0.000000 0.034660
#
#
# Mechanical properties :
#
#
# Convention : Reuss Voigt Hill
#
# Bulk Modulus (GPa) = 56.68517 59.88808 58.28662
# Shear Modulus (GPa) = 34.90075 36.96305 35.93190
#
# Velocity S-wave (km/s) = 4.10000 4.21939 4.16012
# Velocity P-wave (km/s) = 7.05094 7.25140 7.15187
#
# Compressibility (1/GPa) = 0.01764130
#
# Stress axis : x y z
#
# Youngs Moduli (GPa) = 98.89712 91.53233 110.02180
#
# Poissons Ratio (x) = 0.11827 0.41308
# Poissons Ratio (y) = 0.12779 0.13154
# Poissons Ratio (z) = 0.37131 0.10943
#
# Static dielectric constant tensor:
#      x y z
#    x 3.521590 0.000000 -0.144890 
#    y 0.000000 3.798520 0.000000 
#    z -0.144890 0.000000 3.848030 
# 
# 
# High freq. dielectric constant tensor:
#      x y z
#    x 1.815630 0.000000 -0.001980 
#    y 0.000000 1.808470 0.000000 
#    z -0.001980 0.000000 1.827960 
# 
# From -- ./inp_files/221770.got.cif
#   From: 2010.06.25/outbox.cif.g09.slc.cpg/sg12_111_cif.got.tgz:221770.got - 2010.06.28 00:19:55.
