data_PCOD8111689
_publ_section_title
;
Structure prediction by ZEFSAII (Michael W. Deem and Ramdas Pophale) SiO2 
 PCOD8111689
Probable space group: C 2/M
;
_chemical_formula_sum "Si O2"
_cell_formula_units_Z 56
_cell_length_a 16.413795
_cell_length_b 27.066755
_cell_length_c 12.071909
_cell_angle_alpha 90.000000
_cell_angle_beta 29.458828
_cell_angle_gamma 90.000000
_cell_volume 2637.593805
_symmetry_space_group_name_H-M "C 2/M"
_symmetry_group_IT_number 12
_symmetry_cell_setting 'monoclinic'
loop_
_space_group_symop_operation_xyz
x,y,z
-x,y,-z
-x,-y,-z
x,-y,z
1/2+x,1/2+y,z
1/2-x,1/2+y,-z
1/2-x,1/2-y,-z
1/2+x,1/2-y,z
loop_
_atom_site_type_symbol
_atom_site_label
_atom_site_fract_x
_atom_site_fract_y
_atom_site_fract_z
Si Si1 0.226392 0.136808 0.512676
Si Si2 0.612424 0.865042 0.068207
Si Si3 0.325121 0.310948 0.647905
Si Si4 0.177649 0.374126 0.245365
Si Si5 0.534603 0.555405 0.138031
Si Si6 0.143515 0.945878 0.258250
Si Si7 0.687550 0.291395 0.754427
O O1 0.419693 0.125866 0.284527
O O2 0.168483 0.147928 0.456383
O O3 0.194804 0.184481 0.625216
O O4 0.129131 0.089526 0.678313
O O5 0.665977 0.856493 0.131846
O O6 0.680601 0.820687 0.910365
O O7 0.690500 0.914989 0.928049
O O8 0.500000 0.310933 0.500000
O O9 0.294334 0.258324 0.627408
O O10 0.236317 0.326873 0.243265
O O11 0.000000 0.393204 0.500000
O O12 0.311180 0.417949 0.106416
O O13 0.504168 0.500000 0.123820
O O14 0.581537 0.549468 0.208283
O O15 0.000000 0.919492 0.500000
O O16 0.181376 0.000000 0.263484
O O17 0.500000 0.277314 0.000000
#
# Coordination Sequence:
#
# PCOD8111689 Si02
#       7
#     8   8   8   8   8   8   8
#     4  12  24  44  66  97 137 170 219 276 324 388
#     4  11  23  40  68  95 134 170 218 275 323 388
#     4  12  27  44  67  99 130 173 222 270 333 396
#     4  11  22  43  67  95 132 176 218 270 328 384
#     4  10  22  40  65  95 132 176 218 266 329 388
#     4   9  18  36  63  95 130 171 214 263 329 391
#     4  12  25  45  68  94 131 176 218 273 329 388
#
# _framework density 21.231472
#
# number of rings (size 3 to 8) (size 9 to 14) (size 15 to 20)
#    0.000    1.000    2.857    5.143    0.000    1.429 
#    0.000    1.429    0.000    4.286    0.000    0.000 
#    0.000    0.000    0.000    0.000    0.000    0.000 
#
# Total GULP energy -347230.606007 kJ/mol
# GULP energy per Si atom -12401.093072 kJ/mol
# Density = 2.118315 g / cm^3
# Si number density = 21.231472 Si / 1000 Ang^3
#
#
#
# Elastic Constant Matrix: (Units=GPa)
#
#
# Indices 1 2 3 4 5 6 
#
# 1 66.8774 27.4405 38.3952 -0.0024 -3.0702 -0.0056
# 2 27.4405 103.3862 39.7813 -0.0030 -2.4339 -0.0003
# 3 38.3952 39.7813 138.8066 -0.0274 -12.6794 -0.0035
# 4 -0.0024 -0.0030 -0.0274 31.8268 0.0122 -17.4144
# 5 -3.0702 -2.4339 -12.6794 0.0122 41.8623 -0.0048
# 6 -0.0056 -0.0003 -0.0035 -17.4144 -0.0048 49.7580
#
#
#
# Elastic Compliance Matrix: (Units=1/GPa)
#
#
# Indices 1 2 3 4 5 6 
#
# 1 0.018755 -0.003350 -0.004237 -0.000002 -0.000103 0.000001
# 2 -0.003350 0.011474 -0.002389 -0.000002 -0.000302 -0.000001
# 3 -0.004237 -0.002389 0.009277 0.000008 0.002360 0.000003
# 4 -0.000002 -0.000002 0.000008 0.038862 -0.000008 0.013601
# 5 -0.000103 -0.000302 0.002360 -0.000008 0.024578 0.000000
# 6 0.000001 -0.000001 0.000003 0.013601 0.000000 0.024857
#
#
# Mechanical properties :
#
#
# Convention : Reuss Voigt Hill
#
# Bulk Modulus (GPa) = 51.14362 57.81159 54.47760
# Shear Modulus (GPa) = 32.41006 38.25297 35.33151
#
# Velocity S-wave (km/s) = 3.91130 4.24926 4.08378
# Velocity P-wave (km/s) = 6.67372 7.16682 6.92466
#
# Compressibility (1/GPa) = 0.01955278
#
# Stress axis : x y z
#
# Youngs Moduli (GPa) = 53.31872 87.15455 107.79739
#
# Poissons Ratio (x) = 0.29196 0.45675
# Poissons Ratio (y) = 0.17862 0.25756
# Poissons Ratio (z) = 0.22592 0.20824
#
# Static dielectric constant tensor:
#      x y z
#    x 3.874830 0.000000 0.142880 
#    y 0.000000 4.172110 0.000000 
#    z 0.142880 0.000000 4.126460 
# 
# 
# High freq. dielectric constant tensor:
#      x y z
#    x 1.836910 0.000000 0.005040 
#    y 0.000000 1.832470 0.000000 
#    z 0.005040 0.000000 1.845550 
# 
# From -- ./inp_files/150427.got.cif
#   From: 2010.06.25/outbox.cif.g09.slc.cpg/sg12_76_cif.got.tgz:150427.got - 2010.06.28 00:19:55.
