data_PCOD8111155
_publ_section_title
;
Structure prediction by ZEFSAII (Michael W. Deem and Ramdas Pophale) SiO2 
 PCOD8111155
Probable space group: C 2/M
;
_chemical_formula_sum "Si O2"
_cell_formula_units_Z 64
_cell_length_a 19.714716
_cell_length_b 24.411774
_cell_length_c 16.963467
_cell_angle_alpha 90.000000
_cell_angle_beta 157.086619
_cell_angle_gamma 90.000000
_cell_volume 3178.575104
_symmetry_space_group_name_H-M "C 2/M"
_symmetry_group_IT_number 12
_symmetry_cell_setting 'monoclinic'
loop_
_space_group_symop_operation_xyz
x,y,z
-x,y,-z
-x,-y,-z
x,-y,z
1/2+x,1/2+y,z
1/2-x,1/2+y,-z
1/2-x,1/2-y,-z
1/2+x,1/2-y,z
loop_
_atom_site_type_symbol
_atom_site_label
_atom_site_fract_x
_atom_site_fract_y
_atom_site_fract_z
Si Si1 0.300212 0.109172 0.794207
Si Si2 0.343520 0.439975 0.509968
Si Si3 0.220913 0.163656 0.471932
Si Si4 0.754415 0.936445 0.090714
Si Si5 0.615902 0.168000 0.866764
Si Si6 0.145090 0.214327 0.556540
Si Si7 0.552386 0.299095 0.135766
Si Si8 0.783137 0.255928 0.153658
O O1 0.249566 0.064783 0.674248
O O2 0.264501 0.082787 0.840046
O O3 0.188558 0.163792 0.660292
O O4 0.500000 0.125984 0.000000
O O5 0.305763 0.500000 0.502593
O O6 0.261018 0.399668 0.485613
O O7 0.547107 0.428735 0.720406
O O8 0.414541 0.186009 0.662478
O O9 0.136524 0.196617 0.454551
O O10 0.099828 0.166321 0.264361
O O11 0.693731 0.000000 0.016516
O O12 0.642773 0.896625 0.913766
O O13 0.674353 0.185279 0.841676
O O14 0.740680 0.204490 0.053460
O O15 0.288099 0.260886 0.717217
O O16 0.959110 0.237714 0.386564
O O17 0.500000 0.334032 0.000000
O O18 0.381310 0.262225 0.966102
#
# Coordination Sequence:
#
# PCOD8111155 Si02
#       8
#     8   8   8   8   8   8   8   8
#     4  11  23  37  54  84 127 165 206 255 300 357
#     4  10  22  39  61  86 115 163 211 250 302 363
#     4  11  21  41  61  84 121 151 202 255 301 367
#     4  11  23  39  59  88 126 164 210 258 301 365
#     4  11  21  38  62  88 115 162 206 252 306 361
#     4  11  22  41  58  86 118 165 206 248 295 369
#     4  12  25  40  58  87 120 156 199 251 310 367
#     4  11  23  39  62  85 120 160 207 257 308 358
#
# _framework density 20.134808
#
# number of rings (size 3 to 8) (size 9 to 14) (size 15 to 20)
#    0.000    1.000    2.500    6.750    1.750    4.000 
#    2.250    0.000    0.000    0.375    0.000    0.000 
#    0.000    4.000    0.000    0.000    0.000    0.000 
#
# Total GULP energy -396650.072082 kJ/mol
# GULP energy per Si atom -12395.314753 kJ/mol
# Density = 2.008898 g / cm^3
# Si number density = 20.134808 Si / 1000 Ang^3
#
#
#
# Elastic Constant Matrix: (Units=GPa)
#
#
# Indices 1 2 3 4 5 6 
#
# 1 -64.2097 3.0298 32.0751 0.0001 -21.1274 0.0001
# 2 3.0298 92.8393 33.8482 0.0000 -14.9968 0.0000
# 3 32.0751 33.8482 109.5341 0.0001 11.8094 0.0000
# 4 0.0001 0.0000 0.0001 28.1072 0.0001 3.0551
# 5 -21.1274 -14.9968 11.8094 0.0001 43.1754 0.0000
# 6 0.0001 0.0000 0.0000 3.0551 0.0000 21.4813
#
#
#
# Elastic Compliance Matrix: (Units=1/GPa)
#
#
# Indices 1 2 3 4 5 6 
#
# 1 -0.010832 -0.002606 0.004788 0.000000 -0.007515 0.000000
# 2 -0.002606 0.012872 -0.003667 0.000000 0.004199 0.000000
# 3 0.004788 -0.003667 0.009011 0.000000 -0.001396 0.000000
# 4 0.000000 0.000000 0.000000 0.036137 0.000000 -0.005139
# 5 -0.007515 0.004199 -0.001396 0.000000 0.021324 0.000000
# 6 0.000000 0.000000 0.000000 -0.005139 0.000000 0.047283
#
#
# Mechanical properties :
#
#
# Convention : Reuss Voigt Hill
#
# Bulk Modulus (GPa) = 123.77049 30.67444 77.22247
# Shear Modulus (GPa) = 41.16646 23.16683 32.16664
#
# Velocity S-wave (km/s) = 4.52657 3.39571 4.00129
# Velocity P-wave (km/s) = 9.42996 5.53553 7.73195
#
# Compressibility (1/GPa) = 0.00807947
#
# Stress axis : x y z
#
# Youngs Moduli (GPa) = -92.31524 77.69057 110.97192
#
# Poissons Ratio (x) = 0.20246 -0.53130
# Poissons Ratio (y) = -0.24058 0.40695
# Poissons Ratio (z) = 0.44198 0.28490
#
# Static dielectric constant tensor:
#      x y z
#    x 3.724560 0.000000 0.000160 
#    y 0.000000 3.642250 0.000000 
#    z 0.000160 0.000000 3.884750 
# 
# 
# High freq. dielectric constant tensor:
#      x y z
#    x 1.780470 0.000000 0.015810 
#    y 0.000000 1.758540 0.000000 
#    z 0.015810 0.000000 1.805620 
# 
# From -- ./inp_files/286481.got.cif
#   From: 2010.06.25/outbox.cif.g09.slc.cpg/sg12_144_cif.got.tgz:286481.got - 2010.06.28 00:19:55.
