data_PCOD8111220
_publ_section_title
;
Structure prediction by ZEFSAII (Michael W. Deem and Ramdas Pophale) SiO2 
 PCOD8111220
Probable space group: C 2/M
;
_chemical_formula_sum "Si O2"
_cell_formula_units_Z 64
_cell_length_a 31.906308
_cell_length_b 8.919850
_cell_length_c 19.679334
_cell_angle_alpha 90.000000
_cell_angle_beta 147.389634
_cell_angle_gamma 90.000000
_cell_volume 3018.362354
_symmetry_space_group_name_H-M "C 2/M"
_symmetry_group_IT_number 12
_symmetry_cell_setting 'monoclinic'
loop_
_space_group_symop_operation_xyz
x,y,z
-x,y,-z
-x,-y,-z
x,-y,z
1/2+x,1/2+y,z
1/2-x,1/2+y,-z
1/2-x,1/2-y,-z
1/2+x,1/2-y,z
loop_
_atom_site_type_symbol
_atom_site_label
_atom_site_fract_x
_atom_site_fract_y
_atom_site_fract_z
Si Si1 0.827886 0.171847 0.778048
Si Si2 0.088098 0.177548 0.638642
Si Si3 0.333775 0.176665 0.124007
Si Si4 0.026078 0.831893 0.938158
Si Si5 0.565887 0.668749 0.845453
Si Si6 0.630990 0.825034 0.295862
Si Si7 0.807822 0.823072 0.345366
Si Si8 0.614372 0.673905 0.410165
O O1 0.918982 0.190031 0.921604
O O2 0.813821 0.253358 0.686694
O O3 0.776857 0.247220 0.768118
O O4 0.803772 0.000000 0.738420
O O5 0.117918 0.257693 0.746968
O O6 0.143823 0.231361 0.653695
O O7 0.000000 0.226088 0.500000
O O8 0.092114 0.000000 0.655813
O O9 0.381276 0.210963 0.120537
O O10 0.323754 0.000000 0.119741
O O11 0.250000 0.250000 0.000000
O O12 0.988521 0.000000 0.886934
O O13 0.080621 0.815860 0.946071
O O14 0.958441 0.710115 0.844657
O O15 0.585811 0.500000 0.847303
O O16 0.476597 0.706995 0.708847
O O17 0.653069 0.760443 0.399744
O O18 0.645698 0.000000 0.315649
O O19 0.850707 0.766916 0.471908
O O20 0.798385 0.000000 0.330651
O O21 0.631537 0.500000 0.421787
#
# Coordination Sequence:
#
# PCOD8111220 Si02
#       8
#     8   8   8   8   8   8   8   8
#     4  11  23  38  57  83 119 161 199 242 299 359
#     4  10  22  44  71  96 126 166 209 257 319 387
#     4  12  26  41  61  92 129 167 210 260 316 374
#     4   9  20  38  60  84 115 157 199 240 296 364
#     4   9  18  37  63  88 115 152 198 246 302 365
#     4  11  22  36  58  88 118 153 199 250 297 348
#     4  10  22  39  62  91 119 152 197 248 300 357
#     4   9  19  39  64  87 116 155 196 241 297 362
#
# _framework density 21.20355
#
# number of rings (size 3 to 8) (size 9 to 14) (size 15 to 20)
#    0.000    1.875    0.000    4.500    1.750    8.250 
#    0.000    1.250    0.000    0.000    0.000    0.000 
#    0.000    0.000    0.000    0.000    0.000    0.000 
#
# Total GULP energy -396863.721453 kJ/mol
# GULP energy per Si atom -12401.991295 kJ/mol
# Density = 2.115529 g / cm^3
# Si number density = 21.203550 Si / 1000 Ang^3
#
#
#
# Elastic Constant Matrix: (Units=GPa)
#
#
# Indices 1 2 3 4 5 6 
#
# 1 89.7504 26.3320 -7.1201 0.0000 -3.7790 0.0000
# 2 26.3320 71.4042 17.6215 0.0000 -2.7354 0.0000
# 3 -7.1201 17.6215 56.3621 0.0000 -7.6970 0.0000
# 4 0.0000 0.0000 0.0000 26.1221 0.0000 -1.2056
# 5 -3.7790 -2.7354 -7.6970 0.0000 30.2716 0.0000
# 6 0.0000 0.0000 0.0000 -1.2056 0.0000 32.6664
#
#
#
# Elastic Compliance Matrix: (Units=1/GPa)
#
#
# Indices 1 2 3 4 5 6 
#
# 1 0.013202 -0.005711 0.003738 0.000000 0.002082 0.000000
# 2 -0.005711 0.017647 -0.006338 0.000000 -0.000730 0.000000
# 3 0.003738 -0.006338 0.020908 0.000000 0.005210 0.000000
# 4 0.000000 0.000000 0.000000 0.038347 0.000000 0.001415
# 5 0.002082 -0.000730 0.005210 0.000000 0.034553 0.000000
# 6 0.000000 0.000000 0.000000 0.001415 0.000000 0.030665
#
#
# Mechanical properties :
#
#
# Convention : Reuss Voigt Hill
#
# Bulk Modulus (GPa) = 28.46333 32.35372 30.40853
# Shear Modulus (GPa) = 27.22477 29.85759 28.54118
#
# Velocity S-wave (km/s) = 3.58714 3.75659 3.67284
# Velocity P-wave (km/s) = 5.53261 5.84018 5.68848
#
# Compressibility (1/GPa) = 0.03513292
#
# Stress axis : x y z
#
# Youngs Moduli (GPa) = 75.74729 56.66636 47.82906
#
# Poissons Ratio (x) = 0.32363 -0.17877
# Poissons Ratio (y) = 0.43260 0.30316
# Poissons Ratio (z) = -0.28312 0.35918
#
# Static dielectric constant tensor:
#      x y z
#    x 4.002130 0.000000 -0.123510 
#    y 0.000000 3.619380 0.000000 
#    z -0.123510 0.000000 3.832760 
# 
# 
# High freq. dielectric constant tensor:
#      x y z
#    x 1.845510 0.000000 -0.006480 
#    y 0.000000 1.815140 0.000000 
#    z -0.006480 0.000000 1.833320 
# 
# From -- ./inp_files/295866.got.cif
#   From: 2010.06.25/outbox.cif.g09.slc.cpg/sg12_148_cif.got.tgz:295866.got - 2010.06.28 00:19:55.
