data_PCOD8111470
_publ_section_title
;
Structure prediction by ZEFSAII (Michael W. Deem and Ramdas Pophale) SiO2 
 PCOD8111470
Probable space group: C 2/M
;
_chemical_formula_sum "Si O2"
_cell_formula_units_Z 48
_cell_length_a 15.868241
_cell_length_b 8.673931
_cell_length_c 29.226035
_cell_angle_alpha 90.000000
_cell_angle_beta 144.566770
_cell_angle_gamma 90.000000
_cell_volume 2332.159638
_symmetry_space_group_name_H-M "C 2/M"
_symmetry_group_IT_number 12
_symmetry_cell_setting 'monoclinic'
loop_
_space_group_symop_operation_xyz
x,y,z
-x,y,-z
-x,-y,-z
x,-y,z
1/2+x,1/2+y,z
1/2-x,1/2+y,-z
1/2-x,1/2-y,-z
1/2+x,1/2-y,z
loop_
_atom_site_type_symbol
_atom_site_label
_atom_site_fract_x
_atom_site_fract_y
_atom_site_fract_z
Si Si1 0.091683 0.818627 0.832428
Si Si2 0.921128 0.681557 0.836011
Si Si3 0.094015 0.316854 0.000113
Si Si4 0.365416 0.817628 0.411581
Si Si5 0.629745 0.179903 0.690414
Si Si6 0.927970 0.678053 0.681183
O O1 0.241441 0.757573 0.921141
O O2 0.960844 0.774908 0.808052
O O3 0.062725 0.734212 0.771845
O O4 0.096404 0.000000 0.825568
O O5 0.940193 0.500000 0.836984
O O6 0.754109 0.723712 0.772051
O O7 0.024923 0.743616 0.922428
O O8 0.087824 0.500000 0.998183
O O9 0.000000 0.248281 0.000000
O O10 0.500000 0.749064 0.500000
O O11 0.382027 0.757027 0.366800
O O12 0.217181 0.769729 0.370858
O O13 0.370893 0.000000 0.413698
O O14 0.478226 0.207057 0.650783
O O15 0.671317 0.000000 0.709700
O O16 0.896765 0.500000 0.676864
#
# Coordination Sequence:
#
# PCOD8111470 Si02
#       6
#     8   8   8   8   8   8
#     4  11  21  36  58  82 116 160 200 246 302 352
#     4  11  21  35  58  86 116 155 204 249 293 351
#     4   9  19  34  52  79 114 153 201 250 292 344
#     4  10  22  42  66  90 120 160 199 239 296 364
#     4  10  22  40  61  88 124 160 196 245 300 352
#     4  11  23  39  61  91 123 157 200 250 298 349
#
# _framework density 20.581780999999999
#
# number of rings (size 3 to 8) (size 9 to 14) (size 15 to 20)
#    0.000    1.667    1.667    3.000    0.000    3.667 
#    0.000    2.500    0.000    6.000    0.000    0.000 
#    0.000    0.000    0.000    0.000    0.000    0.000 
#
# Total GULP energy -297627.758229 kJ/mol
# GULP energy per Si atom -12401.156593 kJ/mol
# Density = 2.053494 g / cm^3
# Si number density = 20.581781 Si / 1000 Ang^3
#
#
#
# Elastic Constant Matrix: (Units=GPa)
#
#
# Indices 1 2 3 4 5 6 
#
# 1 125.5016 7.2093 44.3278 0.0000 -2.5191 0.0000
# 2 7.2093 8.1479 8.4284 0.0001 -4.7624 -0.0001
# 3 44.3278 8.4284 132.6408 0.0000 1.0667 0.0000
# 4 0.0000 0.0001 0.0000 22.9489 0.0000 3.9751
# 5 -2.5191 -4.7624 1.0667 0.0000 23.5010 0.0000
# 6 0.0000 -0.0001 0.0000 3.9751 0.0000 25.7841
#
#
#
# Elastic Compliance Matrix: (Units=1/GPa)
#
#
# Indices 1 2 3 4 5 6 
#
# 1 0.009246 -0.005310 -0.002753 0.000000 0.000040 0.000000
# 2 -0.005310 0.154126 -0.008269 0.000000 0.031039 0.000000
# 3 -0.002753 -0.008269 0.009004 0.000000 -0.002379 0.000000
# 4 0.000000 0.000000 0.000000 0.044771 0.000000 -0.006902
# 5 0.000040 0.031039 -0.002379 0.000000 0.048954 0.000000
# 6 0.000000 0.000000 0.000000 -0.006902 0.000000 0.039848
#
#
# Mechanical properties :
#
#
# Convention : Reuss Voigt Hill
#
# Bulk Modulus (GPa) = 7.15757 42.91349 25.03553
# Shear Modulus (GPa) = 12.98088 28.20177 20.59133
#
# Velocity S-wave (km/s) = 2.51409 3.70568 3.16644
# Velocity P-wave (km/s) = 3.45148 6.26138 5.05557
#
# Compressibility (1/GPa) = 0.13971227
#
# Stress axis : x y z
#
# Youngs Moduli (GPa) = 108.15241 6.48821 111.06516
#
# Poissons Ratio (x) = 0.03445 0.30576
# Poissons Ratio (y) = 0.57429 0.91836
# Poissons Ratio (z) = 0.29774 0.05365
#
# Static dielectric constant tensor:
#      x y z
#    x 3.817920 0.000000 -0.102520 
#    y 0.000000 3.423720 0.000000 
#    z -0.102520 0.000000 3.941010 
# 
# 
# High freq. dielectric constant tensor:
#      x y z
#    x 1.816700 0.000000 -0.001340 
#    y 0.000000 1.782850 0.000000 
#    z -0.001340 0.000000 1.806060 
# 
# From -- ./inp_files/360244.got.cif
#   From: 2010.06.25/outbox.cif.g09.slc.cpg/sg12_181_cif.got.tgz:360244.got - 2010.06.28 00:19:55.
