data_PCOD8111417
_publ_section_title
;
Structure prediction by ZEFSAII (Michael W. Deem and Ramdas Pophale) SiO2 
 PCOD8111417
Probable space group: C 2/M
;
_chemical_formula_sum "Si O2"
_cell_formula_units_Z 56
_cell_length_a 24.783600
_cell_length_b 17.347972
_cell_length_c 6.646935
_cell_angle_alpha 90.000000
_cell_angle_beta 109.221701
_cell_angle_gamma 90.000000
_cell_volume 2698.499430
_symmetry_space_group_name_H-M "C 2/M"
_symmetry_group_IT_number 12
_symmetry_cell_setting 'monoclinic'
loop_
_space_group_symop_operation_xyz
x,y,z
-x,y,-z
-x,-y,-z
x,-y,z
1/2+x,1/2+y,z
1/2-x,1/2+y,-z
1/2-x,1/2-y,-z
1/2+x,1/2-y,z
loop_
_atom_site_type_symbol
_atom_site_label
_atom_site_fract_x
_atom_site_fract_y
_atom_site_fract_z
Si Si1 0.254609 0.413562 0.913812
Si Si2 0.803262 0.202989 0.654157
Si Si3 0.659242 0.586067 0.632194
Si Si4 0.413279 0.783775 0.949977
Si Si5 0.123852 0.412005 0.798457
Si Si6 0.561536 0.321587 0.667087
Si Si7 0.557575 0.821772 0.441172
O O1 0.258943 0.500000 0.824294
O O2 0.281983 0.349757 0.808404
O O3 0.189741 0.390487 0.873789
O O4 0.284184 0.411398 0.165568
O O5 0.750000 0.250000 0.500000
O O6 0.833783 0.146298 0.536642
O O7 0.850182 0.262790 0.792811
O O8 0.649971 0.500000 0.533922
O O9 0.604115 0.606141 0.703725
O O10 0.453087 0.810254 0.810000
O O11 0.409227 0.858909 0.083803
O O12 0.441503 0.711526 0.106561
O O13 0.113089 0.500000 0.845667
O O14 0.097311 0.395256 0.542938
O O15 0.500000 0.345381 0.500000
O O16 0.589602 0.254811 0.562430
O O17 0.500000 0.827787 0.500000
#
# Coordination Sequence:
#
# PCOD8111417 Si02
#       7
#     8   8   8   8   8   8   8
#     4  10  22  40  60  89 131 167 204 258 314 369
#     4  12  23  36  65  94 125 167 216 255 308 377
#     4  11  23  41  62  91 130 168 208 263 321 373
#     4  11  22  40  65  93 123 165 214 261 317 374
#     4  10  23  40  61  93 130 168 210 258 317 377
#     4  10  22  40  64  91 122 162 215 264 313 373
#     4  10  22  41  63  91 125 164 211 265 314 371
#
# _framework density 20.752275000000001
#
# number of rings (size 3 to 8) (size 9 to 14) (size 15 to 20)
#    0.000    1.429    2.857    2.143    2.000    7.429 
#    0.000    4.286    0.000    0.857    0.000    0.000 
#    0.000    0.000    0.000    0.000    0.000    0.000 
#
# Total GULP energy -347093.376139 kJ/mol
# GULP energy per Si atom -12396.192005 kJ/mol
# Density = 2.070504 g / cm^3
# Si number density = 20.752275 Si / 1000 Ang^3
#
#
#
# Elastic Constant Matrix: (Units=GPa)
#
#
# Indices 1 2 3 4 5 6 
#
# 1 81.2233 36.3888 37.3202 0.0000 0.6426 0.0000
# 2 36.3888 82.9424 27.1575 0.0000 -7.1940 0.0000
# 3 37.3202 27.1575 108.1407 0.0000 -0.4990 0.0000
# 4 0.0000 0.0000 0.0000 29.6902 0.0000 2.5743
# 5 0.6426 -7.1940 -0.4990 0.0000 38.2600 0.0000
# 6 0.0000 0.0000 0.0000 2.5743 0.0000 8.6936
#
#
#
# Elastic Compliance Matrix: (Units=1/GPa)
#
#
# Indices 1 2 3 4 5 6 
#
# 1 0.017105 -0.006211 -0.004350 0.000000 -0.001512 0.000000
# 2 -0.006211 0.015621 -0.001766 0.000000 0.003019 0.000000
# 3 -0.004350 -0.001766 0.011191 0.000000 -0.000113 0.000000
# 4 0.000000 0.000000 0.000000 0.034569 0.000000 -0.010236
# 5 -0.001512 0.003019 -0.000113 0.000000 0.026728 0.000000
# 6 0.000000 0.000000 0.000000 -0.010236 0.000000 0.118059
#
#
# Mechanical properties :
#
#
# Convention : Reuss Voigt Hill
#
# Bulk Modulus (GPa) = 51.91043 52.67105 52.29074
# Shear Modulus (GPa) = 19.65800 26.75807 23.20803
#
# Velocity S-wave (km/s) = 3.08111 3.59472 3.34778
# Velocity P-wave (km/s) = 6.14217 6.53187 6.34002
#
# Compressibility (1/GPa) = 0.01926395
#
# Stress axis : x y z
#
# Youngs Moduli (GPa) = 58.46163 64.01444 89.35423
#
# Poissons Ratio (x) = 0.39761 0.38872
# Poissons Ratio (y) = 0.36312 0.15776
# Poissons Ratio (z) = 0.25433 0.11302
#
# Static dielectric constant tensor:
#      x y z
#    x 3.826260 0.000000 0.137330 
#    y 0.000000 3.924540 0.000000 
#    z 0.137330 0.000000 3.931460 
# 
# 
# High freq. dielectric constant tensor:
#      x y z
#    x 1.815220 0.000000 0.011550 
#    y 0.000000 1.805270 0.000000 
#    z 0.011550 0.000000 1.817730 
# 
# From -- ./inp_files/28835.got.cif
#   From: 2010.06.25/outbox.cif.g09.slc.cpg/sg12_15_cif.got.tgz:28835.got - 2010.06.28 00:19:55.
