data_PCOD8111183
_publ_section_title
;
Structure prediction by ZEFSAII (Michael W. Deem and Ramdas Pophale) SiO2 
 PCOD8111183
Probable space group: C 2/M
;
_chemical_formula_sum "Si O2"
_cell_formula_units_Z 64
_cell_length_a 28.947131
_cell_length_b 8.740074
_cell_length_c 19.371008
_cell_angle_alpha 90.000000
_cell_angle_beta 140.040773
_cell_angle_gamma 90.000000
_cell_volume 3147.543718
_symmetry_space_group_name_H-M "C 2/M"
_symmetry_group_IT_number 12
_symmetry_cell_setting 'monoclinic'
loop_
_space_group_symop_operation_xyz
x,y,z
-x,y,-z
-x,-y,-z
x,-y,z
1/2+x,1/2+y,z
1/2-x,1/2+y,-z
1/2-x,1/2-y,-z
1/2+x,1/2-y,z
loop_
_atom_site_type_symbol
_atom_site_label
_atom_site_fract_x
_atom_site_fract_y
_atom_site_fract_z
Si Si1 0.089596 0.319618 0.384002
Si Si2 0.705450 0.678706 0.606981
Si Si3 0.933930 0.824610 0.199099
Si Si4 0.897683 0.678464 0.022407
Si Si5 0.345738 0.822437 0.688199
Si Si6 0.793561 0.176907 0.112933
Si Si7 0.262764 0.681154 0.812064
Si Si8 0.973239 0.170064 0.892670
O O1 0.094968 0.500000 0.399822
O O2 0.128671 0.237456 0.492516
O O3 0.130612 0.267698 0.360964
O O4 0.006399 0.272172 0.290888
O O5 0.701613 0.500000 0.618888
O O6 0.763153 0.714652 0.612069
O O7 0.723089 0.764252 0.697879
O O8 0.884776 0.757621 0.081102
O O9 0.880211 0.810254 0.202494
O O10 0.955094 0.000000 0.208726
O O11 0.883186 0.500000 0.010765
O O12 0.980255 0.710514 0.097977
O O13 0.843966 0.752601 0.905023
O O14 0.391515 0.726854 0.796301
O O15 0.362711 0.000000 0.717749
O O16 0.778108 0.260579 0.167008
O O17 0.770023 0.000000 0.091652
O O18 0.750000 0.250000 0.000000
O O19 0.266091 0.500000 0.816293
O O20 0.980164 0.000000 0.868814
O O21 0.000000 0.170968 0.000000
#
# Coordination Sequence:
#
# PCOD8111183 Si02
#       8
#     8   8   8   8   8   8   8   8
#     4  11  23  41  65  94 127 167 214 262 313 370
#     4  11  24  43  65  91 126 169 215 263 316 372
#     4  11  23  40  64  95 126 161 205 254 310 371
#     4  12  23  37  60  88 124 165 205 254 313 375
#     4  10  22  39  61  90 123 165 213 260 311 372
#     4  11  23  40  66  97 130 165 206 256 313 381
#     4  12  25  42  64  93 129 166 210 262 318 380
#     4  11  23  36  54  84 123 166 209 256 312 373
#
# _framework density 20.333316
#
# number of rings (size 3 to 8) (size 9 to 14) (size 15 to 20)
#    0.000    0.875    2.500    5.250    0.000    6.000 
#    0.000    0.625    0.000    3.750    0.000    0.000 
#    0.000    0.000    0.000    0.000    0.000    0.000 
#
# Total GULP energy -396870.134358 kJ/mol
# GULP energy per Si atom -12402.191699 kJ/mol
# Density = 2.028704 g / cm^3
# Si number density = 20.333316 Si / 1000 Ang^3
#
#
#
# Elastic Constant Matrix: (Units=GPa)
#
#
# Indices 1 2 3 4 5 6 
#
# 1 81.1274 32.4773 23.9476 0.0000 3.5779 0.0000
# 2 32.4773 77.3534 9.5152 0.0000 -0.9559 0.0000
# 3 23.9476 9.5152 90.5529 0.0000 0.2293 0.0000
# 4 0.0000 0.0000 0.0000 35.0366 0.0000 3.0644
# 5 3.5779 -0.9559 0.2293 0.0000 23.2167 0.0000
# 6 0.0000 0.0000 0.0000 3.0644 0.0000 28.9502
#
#
#
# Elastic Compliance Matrix: (Units=1/GPa)
#
#
# Indices 1 2 3 4 5 6 
#
# 1 0.016030 -0.006325 -0.003568 0.000000 -0.002696 0.000000
# 2 -0.006325 0.015600 0.000029 0.000000 0.001617 0.000000
# 3 -0.003568 0.000029 0.011983 0.000000 0.000433 0.000000
# 4 0.000000 0.000000 0.000000 0.028808 0.000000 -0.003049
# 5 -0.002696 0.001617 0.000433 0.000000 0.043550 0.000000
# 6 0.000000 0.000000 0.000000 -0.003049 0.000000 0.034865
#
#
# Mechanical properties :
#
#
# Convention : Reuss Voigt Hill
#
# Bulk Modulus (GPa) = 41.86596 42.32377 42.09487
# Shear Modulus (GPa) = 28.00733 29.64694 28.82714
#
# Velocity S-wave (km/s) = 3.71538 3.82258 3.76936
# Velocity P-wave (km/s) = 6.24819 6.35161 6.30011
#
# Compressibility (1/GPa) = 0.02388575
#
# Stress axis : x y z
#
# Youngs Moduli (GPa) = 62.38162 64.10436 83.45386
#
# Poissons Ratio (x) = 0.40545 0.29776
# Poissons Ratio (y) = 0.39455 -0.00245
# Poissons Ratio (z) = 0.22257 -0.00188
#
# Static dielectric constant tensor:
#      x y z
#    x 3.789870 0.000000 0.036730 
#    y 0.000000 3.794710 0.000000 
#    z 0.036730 0.000000 3.606320 
# 
# 
# High freq. dielectric constant tensor:
#      x y z
#    x 1.794980 0.000000 0.006650 
#    y 0.000000 1.808330 0.000000 
#    z 0.006650 0.000000 1.790150 
# 
# From -- ./inp_files/295838.got.cif
#   From: 2010.06.25/outbox.cif.g09.slc.cpg/sg12_148_cif.got.tgz:295838.got - 2010.06.28 00:19:55.
