data_PCOD8111806
_publ_section_title
;
Structure prediction by ZEFSAII (Michael W. Deem and Ramdas Pophale) SiO2 
 PCOD8111806
Probable space group: C 2/M
;
_chemical_formula_sum "Si O2"
_cell_formula_units_Z 56
_cell_length_a 15.237961
_cell_length_b 8.832431
_cell_length_c 24.353360
_cell_angle_alpha 90.000000
_cell_angle_beta 119.498463
_cell_angle_gamma 90.000000
_cell_volume 2852.787132
_symmetry_space_group_name_H-M "C 2/M"
_symmetry_group_IT_number 12
_symmetry_cell_setting 'monoclinic'
loop_
_space_group_symop_operation_xyz
x,y,z
-x,y,-z
-x,-y,-z
x,-y,z
1/2+x,1/2+y,z
1/2-x,1/2+y,-z
1/2-x,1/2-y,-z
1/2+x,1/2-y,z
loop_
_atom_site_type_symbol
_atom_site_label
_atom_site_fract_x
_atom_site_fract_y
_atom_site_fract_z
Si Si1 0.510171 0.821545 0.847265
Si Si2 0.347239 0.321536 0.503118
Si Si3 0.472858 0.676364 0.362919
Si Si4 0.187888 0.323314 0.620389
Si Si5 0.722408 0.320534 0.933359
Si Si6 0.417132 0.324226 0.714546
Si Si7 0.580986 0.179114 0.067589
O O1 0.617087 0.738761 0.878196
O O2 0.447068 0.780360 0.774319
O O3 0.445959 0.762907 0.879801
O O4 0.529178 0.000000 0.856056
O O5 0.334785 0.500000 0.500844
O O6 0.250000 0.250000 0.500000
O O7 0.443062 0.270094 0.567929
O O8 0.361203 0.266121 0.445418
O O9 0.448867 0.500000 0.362261
O O10 0.371396 0.771346 0.343224
O O11 0.508459 0.713387 0.312517
O O12 0.174538 0.500000 0.605790
O O13 0.304610 0.280297 0.662102
O O14 0.718982 0.500000 0.938944
O O15 0.806974 0.269518 0.915208
O O16 0.750000 0.250000 0.000000
O O17 0.423836 0.500000 0.733537
O O18 0.573083 0.000000 0.063387
O O19 0.500000 0.248897 0.000000
#
# Coordination Sequence:
#
# PCOD8111806 Si02
#       7
#     8   8   8   8   8   8   8
#     4  11  23  40  62  89 118 154 203 246 290 357
#     4  11  21  37  62  91 122 159 203 254 309 363
#     4  10  22  41  62  86 121 163 202 245 306 368
#     4  11  23  40  62  91 123 158 203 255 305 359
#     4  11  21  37  62  90 120 155 192 239 298 352
#     4  10  23  44  61  81 122 164 198 244 303 358
#     4   9  18  36  60  85 118 154 187 230 290 356
#
# _framework density 19.629926000000001
#
# number of rings (size 3 to 8) (size 9 to 14) (size 15 to 20)
#    0.000    1.571    2.857    2.143    0.000    5.714 
#    0.000    7.857    0.000    0.000    0.000    0.000 
#    0.000    0.000    0.000    0.000    0.000    0.000 
#
# Total GULP energy -347308.801633 kJ/mol
# GULP energy per Si atom -12403.885773 kJ/mol
# Density = 1.958525 g / cm^3
# Si number density = 19.629926 Si / 1000 Ang^3
#
#
#
# Elastic Constant Matrix: (Units=GPa)
#
#
# Indices 1 2 3 4 5 6 
#
# 1 134.4079 33.0531 29.0985 0.0000 -17.3173 0.0000
# 2 33.0531 54.0978 24.9896 0.0000 -0.1505 0.0000
# 3 29.0985 24.9896 90.6187 0.0000 -19.4174 0.0000
# 4 0.0000 0.0000 0.0000 35.3541 0.0000 -0.1461
# 5 -17.3173 -0.1505 -19.4174 0.0000 22.8546 0.0000
# 6 0.0000 0.0000 0.0000 -0.1461 0.0000 33.6908
#
#
#
# Elastic Compliance Matrix: (Units=1/GPa)
#
#
# Indices 1 2 3 4 5 6 
#
# 1 0.009879 -0.006070 0.000119 0.000000 0.007547 0.000000
# 2 -0.006070 0.025584 -0.007403 0.000000 -0.010721 0.000000
# 3 0.000119 -0.007403 0.015951 0.000000 0.013594 0.000000
# 4 0.000000 0.000000 0.000000 0.028286 0.000000 0.000123
# 5 0.007547 -0.010721 0.013594 0.000000 0.060952 0.000000
# 6 0.000000 0.000000 0.000000 0.000123 0.000000 0.029682
#
#
# Mechanical properties :
#
#
# Convention : Reuss Voigt Hill
#
# Bulk Modulus (GPa) = 40.47695 50.37853 45.42774
# Shear Modulus (GPa) = 24.35718 31.17879 27.76799
#
# Velocity S-wave (km/s) = 3.52635 3.98971 3.76516
# Velocity P-wave (km/s) = 6.10286 6.85154 6.48801
#
# Compressibility (1/GPa) = 0.02470542
#
# Stress axis : x y z
#
# Youngs Moduli (GPa) = 101.22105 39.08744 62.69009
#
# Poissons Ratio (x) = 0.23726 -0.00743
# Poissons Ratio (y) = 0.61441 0.46411
# Poissons Ratio (z) = -0.01200 0.28937
#
# Static dielectric constant tensor:
#      x y z
#    x 3.876220 0.000000 -0.029770 
#    y 0.000000 3.443240 0.000000 
#    z -0.029770 0.000000 3.583180 
# 
# 
# High freq. dielectric constant tensor:
#      x y z
#    x 1.784490 0.000000 -0.003970 
#    y 0.000000 1.754580 0.000000 
#    z -0.003970 0.000000 1.760810 
# 
# From -- ./inp_files/339000.got.cif
#   From: 2010.06.25/outbox.cif.g09.slc.cpg/sg12_170_cif.got.tgz:339000.got - 2010.06.28 00:19:55.
