data_PCOD8111500
_publ_section_title
;
Structure prediction by ZEFSAII (Michael W. Deem and Ramdas Pophale) SiO2 
 PCOD8111500
Probable space group: C 2/M
;
_chemical_formula_sum "Si O2"
_cell_formula_units_Z 48
_cell_length_a 10.384879
_cell_length_b 28.500739
_cell_length_c 18.415336
_cell_angle_alpha 90.000000
_cell_angle_beta 152.676193
_cell_angle_gamma 90.000000
_cell_volume 2501.886651
_symmetry_space_group_name_H-M "C 2/M"
_symmetry_group_IT_number 12
_symmetry_cell_setting 'monoclinic'
loop_
_space_group_symop_operation_xyz
x,y,z
-x,y,-z
-x,-y,-z
x,-y,z
1/2+x,1/2+y,z
1/2-x,1/2+y,-z
1/2-x,1/2-y,-z
1/2+x,1/2-y,z
loop_
_atom_site_type_symbol
_atom_site_label
_atom_site_fract_x
_atom_site_fract_y
_atom_site_fract_z
Si Si1 0.672935 0.055006 0.157004
Si Si2 0.980758 0.723771 0.160027
Si Si3 0.686751 0.877466 0.755792
Si Si4 0.182069 0.619362 0.923215
Si Si5 0.024886 0.271389 0.671114
Si Si6 0.676218 0.945730 0.516482
O O1 0.529326 0.080235 0.153012
O O2 0.999040 0.069328 0.311158
O O3 0.642500 0.000000 0.155268
O O4 0.500000 0.071206 0.000000
O O5 0.953265 0.669299 0.128464
O O6 0.953234 0.735995 0.231487
O O7 0.267471 0.739891 0.270400
O O8 0.750000 0.750000 0.000000
O O9 0.702151 0.886885 0.848068
O O10 0.571108 0.826158 0.676653
O O11 0.467523 0.915432 0.617591
O O12 0.004723 0.884084 0.884619
O O13 0.750000 0.250000 0.500000
O O14 0.500000 0.935287 0.500000
O O15 0.655646 0.000000 0.483698
#
# Coordination Sequence:
#
# PCOD8111500 Si02
#       6
#     8   8   8   8   8   8
#     4  10  22  40  62  90 120 154 201 250 299 363
#     4  11  22  42  63  86 123 166 207 251 306 363
#     4  10  22  41  60  86 123 160 200 247 305 364
#     4  10  22  40  62  86 119 162 203 247 299 363
#     4  11  24  40  61  92 125 162 207 258 306 363
#     4  10  22  40  62  89 122 156 194 250 309 360
#
# _framework density 19.185521999999999
#
# number of rings (size 3 to 8) (size 9 to 14) (size 15 to 20)
#    0.000    1.667    1.667    2.000    2.333    6.000 
#    0.000    3.333    0.000    0.000    0.000    0.000 
#    0.000    0.000    0.000    0.000    0.000    0.000 
#
# Total GULP energy -297522.232887 kJ/mol
# GULP energy per Si atom -12396.759704 kJ/mol
# Density = 1.914186 g / cm^3
# Si number density = 19.185522 Si / 1000 Ang^3
#
#
#
# Elastic Constant Matrix: (Units=GPa)
#
#
# Indices 1 2 3 4 5 6 
#
# 1 81.3249 49.5547 58.0154 -0.0003 26.0211 0.0000
# 2 49.5547 82.6754 69.4050 -0.0006 6.1159 0.0001
# 3 58.0154 69.4050 196.8600 0.0041 23.6150 -0.0004
# 4 -0.0003 -0.0006 0.0041 34.6118 0.0005 -0.0722
# 5 26.0211 6.1159 23.6150 0.0005 38.9692 -0.0002
# 6 0.0000 0.0001 -0.0004 -0.0722 -0.0002 38.4409
#
#
#
# Elastic Compliance Matrix: (Units=1/GPa)
#
#
# Indices 1 2 3 4 5 6 
#
# 1 0.026043 -0.013574 -0.001142 0.000000 -0.014568 0.000000
# 2 -0.013574 0.024295 -0.005602 0.000001 0.008646 0.000000
# 3 -0.001142 -0.005602 0.007759 -0.000001 -0.003060 0.000000
# 4 0.000000 0.000001 -0.000001 0.028892 0.000000 0.000054
# 5 -0.014568 0.008646 -0.003060 0.000000 0.035886 0.000000
# 6 0.000000 0.000000 0.000000 0.000054 0.000000 0.026014
#
#
# Mechanical properties :
#
#
# Convention : Reuss Voigt Hill
#
# Bulk Modulus (GPa) = 57.27167 79.42339 68.34753
# Shear Modulus (GPa) = 25.59576 34.66338 30.12957
#
# Velocity S-wave (km/s) = 3.65652 4.25520 3.96717
# Velocity P-wave (km/s) = 6.90964 8.10122 7.52904
#
# Compressibility (1/GPa) = 0.01746064
#
# Stress axis : x y z
#
# Youngs Moduli (GPa) = 38.39778 41.16082 128.89079
#
# Poissons Ratio (x) = 0.55870 0.14719
# Poissons Ratio (y) = 0.52120 0.72209
# Poissons Ratio (z) = 0.04385 0.23060
#
# Static dielectric constant tensor:
#      x y z
#    x 3.466730 0.000000 0.031060 
#    y 0.000000 3.384210 0.000000 
#    z 0.031060 0.000000 3.625490 
# 
# 
# High freq. dielectric constant tensor:
#      x y z
#    x 1.749510 0.000000 0.009390 
#    y 0.000000 1.751170 0.000000 
#    z 0.009390 0.000000 1.764960 
# 
# From -- ./inp_files/52406.got.cif
#   From: 2010.06.25/outbox.cif.g09.slc.cpg/sg12_27_cif.got.tgz:52406.got - 2010.06.28 00:19:55.
