data_PCOD8111601
_publ_section_title
;
Structure prediction by ZEFSAII (Michael W. Deem and Ramdas Pophale) SiO2 
 PCOD8111601
Probable space group: C 2/M
;
_chemical_formula_sum "Si O2"
_cell_formula_units_Z 56
_cell_length_a 24.393630
_cell_length_b 18.875298
_cell_length_c 8.484866
_cell_angle_alpha 90.000000
_cell_angle_beta 139.033175
_cell_angle_gamma 90.000000
_cell_volume 2561.348721
_symmetry_space_group_name_H-M "C 2/M"
_symmetry_group_IT_number 12
_symmetry_cell_setting 'monoclinic'
loop_
_space_group_symop_operation_xyz
x,y,z
-x,y,-z
-x,-y,-z
x,-y,z
1/2+x,1/2+y,z
1/2-x,1/2+y,-z
1/2-x,1/2-y,-z
1/2+x,1/2-y,z
loop_
_atom_site_type_symbol
_atom_site_label
_atom_site_fract_x
_atom_site_fract_y
_atom_site_fract_z
Si Si1 0.184670 0.316342 0.679292
Si Si2 0.640005 0.332944 0.061548
Si Si3 0.411527 0.196176 0.224416
Si Si4 0.415717 0.079704 0.738055
Si Si5 0.669551 0.920202 0.128362
Si Si6 0.831918 0.166040 0.507214
Si Si7 0.987417 0.921096 0.786804
O O1 0.277408 0.349880 0.862848
O O2 0.164643 0.297677 0.816115
O O3 0.113527 0.371531 0.469191
O O4 0.180508 0.247090 0.563584
O O5 0.662064 0.335112 0.292499
O O6 0.601312 0.256897 0.933504
O O7 0.570079 0.392825 0.876595
O O8 0.500000 0.205145 0.500000
O O9 0.406065 0.120444 0.124541
O O10 0.343562 0.079135 0.712766
O O11 0.432581 0.000000 0.710918
O O12 0.500000 0.110463 0.000000
O O13 0.755020 0.879981 0.278026
O O14 0.673826 0.000000 0.071174
O O15 0.911955 0.133376 0.591284
O O16 0.967278 0.000000 0.678791
O O17 0.000000 0.924653 0.000000
#
# Coordination Sequence:
#
# PCOD8111601 Si02
#       7
#     8   8   8   8   8   8   8
#     4  12  23  39  66  92 129 173 218 269 326 386
#     4  11  22  40  64  96 129 166 220 274 325 387
#     4  12  26  42  62  93 133 178 220 262 324 394
#     4  10  22  40  63  95 128 163 214 272 329 385
#     4  11  23  41  66  92 127 168 214 274 329 390
#     4  11  21  40  68  96 128 164 223 274 329 387
#     4   9  20  37  62  95 129 164 205 265 329 387
#
# _framework density 21.863481
#
# number of rings (size 3 to 8) (size 9 to 14) (size 15 to 20)
#    0.000    1.143    2.857    3.857    0.000    3.714 
#    0.000    0.000    0.000    1.286    0.000    0.000 
#    0.000    0.000    0.000    0.000    0.000    0.000 
#
# Total GULP energy -347295.388293 kJ/mol
# GULP energy per Si atom -12403.406725 kJ/mol
# Density = 2.181372 g / cm^3
# Si number density = 21.863481 Si / 1000 Ang^3
#
#
#
# Elastic Constant Matrix: (Units=GPa)
#
#
# Indices 1 2 3 4 5 6 
#
# 1 88.7505 20.9478 8.7880 0.0000 21.7498 0.0000
# 2 20.9478 116.4842 37.4488 0.0000 14.3468 0.0000
# 3 8.7880 37.4488 75.7998 0.0000 22.1477 0.0000
# 4 0.0000 0.0000 0.0000 24.8691 0.0000 10.0781
# 5 21.7498 14.3468 22.1477 0.0000 34.9687 0.0000
# 6 0.0000 0.0000 0.0000 10.0781 0.0000 19.8041
#
#
#
# Elastic Compliance Matrix: (Units=1/GPa)
#
#
# Indices 1 2 3 4 5 6 
#
# 1 0.013751 -0.002017 0.002037 0.000000 -0.009015 0.000000
# 2 -0.002017 0.010544 -0.005004 0.000000 0.000098 0.000000
# 3 0.002037 -0.005004 0.018651 0.000000 -0.011026 0.000000
# 4 0.000000 0.000000 0.000000 0.050658 0.000000 -0.025779
# 5 -0.009015 0.000098 -0.011026 0.000000 0.041147 0.000000
# 6 0.000000 0.000000 0.000000 -0.025779 0.000000 0.063614
#
#
# Mechanical properties :
#
#
# Convention : Reuss Voigt Hill
#
# Bulk Modulus (GPa) = 30.32489 46.15598 38.24043
# Shear Modulus (GPa) = 22.79701 30.18503 26.49102
#
# Velocity S-wave (km/s) = 3.23259 3.71969 3.48466
# Velocity P-wave (km/s) = 5.27570 6.29325 5.80681
#
# Compressibility (1/GPa) = 0.03297621
#
# Stress axis : x y z
#
# Youngs Moduli (GPa) = 72.71993 94.83727 53.61781
#
# Poissons Ratio (x) = 0.19132 -0.10919
# Poissons Ratio (y) = 0.14670 0.26832
# Poissons Ratio (z) = -0.14810 0.47459
#
# Static dielectric constant tensor:
#      x y z
#    x 3.991060 0.000000 0.231700 
#    y 0.000000 4.049760 0.000000 
#    z 0.231700 0.000000 3.850750 
# 
# 
# High freq. dielectric constant tensor:
#      x y z
#    x 1.856840 0.000000 0.018630 
#    y 0.000000 1.861730 0.000000 
#    z 0.018630 0.000000 1.853600 
# 
# From -- ./inp_files/106015.got.cif
#   From: 2010.06.25/outbox.cif.g09.slc.cpg/sg12_54_cif.got.tgz:106015.got - 2010.06.28 00:19:55.
