data_PCOD8111662
_publ_section_title
;
Structure prediction by ZEFSAII (Michael W. Deem and Ramdas Pophale) SiO2 
 PCOD8111662
Probable space group: C 2/M
;
_chemical_formula_sum "Si O2"
_cell_formula_units_Z 40
_cell_length_a 17.994937
_cell_length_b 18.723118
_cell_length_c 14.527461
_cell_angle_alpha 90.000000
_cell_angle_beta 22.100564
_cell_angle_gamma 90.000000
_cell_volume 1841.516233
_symmetry_space_group_name_H-M "C 2/M"
_symmetry_group_IT_number 12
_symmetry_cell_setting 'monoclinic'
loop_
_space_group_symop_operation_xyz
x,y,z
-x,y,-z
-x,-y,-z
x,-y,z
1/2+x,1/2+y,z
1/2-x,1/2+y,-z
1/2-x,1/2-y,-z
1/2+x,1/2-y,z
loop_
_atom_site_type_symbol
_atom_site_label
_atom_site_fract_x
_atom_site_fract_y
_atom_site_fract_z
Si Si1 0.997020 0.417020 0.718954
Si Si2 0.142147 0.422340 0.922148
Si Si3 0.374748 0.699994 0.566951
Si Si4 0.370506 0.326107 0.230743
Si Si5 0.859905 0.178192 0.901868
O O1 0.008473 0.500000 0.679244
O O2 0.193233 0.379153 0.457054
O O3 0.986521 0.403316 0.840096
O O4 0.800432 0.384115 0.897564
O O5 0.245423 0.500000 0.818909
O O6 0.296425 0.360916 0.725372
O O7 0.000000 0.427348 0.000000
O O8 0.500000 0.745776 0.500000
O O9 0.210098 0.749309 0.709757
O O10 0.496167 0.659661 0.347800
O O11 0.511037 0.310907 0.155509
O O12 0.500000 0.360288 0.000000
O O13 0.750000 0.250000 0.000000
#
# Coordination Sequence:
#
# PCOD8111662 Si02
#       5
#     8   8   8   8   8
#     4  11  26  48  72 103 142 187 238 293 354 424
#     4  10  22  40  65 101 143 180 220 281 357 426
#     4  12  23  40  72 106 141 178 229 285 357 428
#     4  12  28  44  71 102 140 190 244 291 347 406
#     4  12  25  45  71 103 144 188 234 290 350 419
#
# _framework density 21.721232000000001
#
# number of rings (size 3 to 8) (size 9 to 14) (size 15 to 20)
#    0.000    0.600    4.000    3.600    2.800    2.400 
#    0.000    1.000    0.000    0.000    0.000    0.000 
#    0.000    0.000    0.000    0.000    0.000    0.000 
#
# Total GULP energy -247966.589356 kJ/mol
# GULP energy per Si atom -12398.329468 kJ/mol
# Density = 2.167179 g / cm^3
# Si number density = 21.721232 Si / 1000 Ang^3
#
#
#
# Elastic Constant Matrix: (Units=GPa)
#
#
# Indices 1 2 3 4 5 6 
#
# 1 173.8085 51.6458 72.2689 0.0139 -9.8137 -0.0067
# 2 51.6458 139.2918 81.0881 -0.0267 3.0487 -0.0086
# 3 72.2689 81.0881 164.6036 0.0243 12.8408 -0.0518
# 4 0.0139 -0.0267 0.0243 25.0888 -0.0137 6.1260
# 5 -9.8137 3.0487 12.8408 -0.0137 44.1886 0.0142
# 6 -0.0067 -0.0086 -0.0518 6.1260 0.0142 28.2252
#
#
#
# Elastic Compliance Matrix: (Units=1/GPa)
#
#
# Indices 1 2 3 4 5 6 
#
# 1 0.007445 -0.001117 -0.002919 0.000000 0.002579 -0.000005
# 2 -0.001117 0.010259 -0.004593 0.000019 0.000379 -0.000010
# 3 -0.002919 -0.004593 0.009869 -0.000020 -0.003199 0.000022
# 4 0.000000 0.000019 -0.000020 0.042089 0.000021 -0.009135
# 5 0.002579 0.000379 -0.003199 0.000021 0.024107 -0.000022
# 6 -0.000005 -0.000010 0.000022 -0.009135 -0.000022 0.037412
#
#
# Mechanical properties :
#
#
# Convention : Reuss Voigt Hill
#
# Bulk Modulus (GPa) = 96.95725 98.63438 97.79582
# Shear Modulus (GPa) = 32.92125 37.68058 35.30092
#
# Velocity S-wave (km/s) = 3.89733 4.16953 4.03573
# Velocity P-wave (km/s) = 8.06140 8.28781 8.17539
#
# Compressibility (1/GPa) = 0.01031382
#
# Stress axis : x y z
#
# Youngs Moduli (GPa) = 134.31886 97.47723 101.32626
#
# Poissons Ratio (x) = 0.10891 0.29582
# Poissons Ratio (y) = 0.15007 0.46537
# Poissons Ratio (z) = 0.39214 0.44769
#
# Static dielectric constant tensor:
#      x y z
#    x 4.137280 0.000020 0.059980 
#    y 0.000020 4.123370 0.000040 
#    z 0.059980 0.000040 4.312360 
# 
# 
# High freq. dielectric constant tensor:
#      x y z
#    x 1.872010 0.000000 0.002490 
#    y 0.000000 1.840930 0.000010 
#    z 0.002490 0.000010 1.866650 
# 
# From -- ./inp_files/227513.got.cif
#   From: 2010.06.25/outbox.cif.g09.slc.cpg/sg12_114_cif.got.tgz:227513.got - 2010.06.28 00:19:55.
