data_PCOD8111351
_publ_section_title
;
Structure prediction by ZEFSAII (Michael W. Deem and Ramdas Pophale) SiO2 
 PCOD8111351
Probable space group: C 2/M
;
_chemical_formula_sum "Si O2"
_cell_formula_units_Z 64
_cell_length_a 20.066509
_cell_length_b 8.959302
_cell_length_c 18.995939
_cell_angle_alpha 90.000000
_cell_angle_beta 93.111945
_cell_angle_gamma 90.000000
_cell_volume 3410.090243
_symmetry_space_group_name_H-M "C 2/M"
_symmetry_group_IT_number 12
_symmetry_cell_setting 'monoclinic'
loop_
_space_group_symop_operation_xyz
x,y,z
-x,y,-z
-x,-y,-z
x,-y,z
1/2+x,1/2+y,z
1/2-x,1/2+y,-z
1/2-x,1/2-y,-z
1/2+x,1/2-y,z
loop_
_atom_site_type_symbol
_atom_site_label
_atom_site_fract_x
_atom_site_fract_y
_atom_site_fract_z
Si Si1 0.430821 0.823350 0.908061
Si Si2 0.981539 0.324130 0.298068
Si Si3 0.394949 0.674208 0.765812
Si Si4 0.293582 0.673700 0.442730
Si Si5 0.359518 0.176938 0.197510
Si Si6 0.249839 0.674601 0.702956
Si Si7 0.946047 0.829116 0.437351
Si Si8 0.918324 0.676796 0.061457
O O1 0.391423 0.742757 0.843573
O O2 0.507929 0.772355 0.910427
O O3 0.423615 0.000000 0.897363
O O4 0.400295 0.767832 0.981567
O O5 0.991442 0.500000 0.292015
O O6 0.923110 0.264272 0.244344
O O7 0.962296 0.283229 0.375882
O O8 0.049522 0.246157 0.279913
O O9 0.408243 0.500000 0.773800
O O10 0.326303 0.709033 0.722370
O O11 0.276912 0.500000 0.442997
O O12 0.250000 0.750000 0.500000
O O13 0.274138 0.736658 0.365976
O O14 0.371823 0.703456 0.462464
O O15 0.292226 0.232243 0.231545
O O16 0.365498 0.236857 0.116956
O O17 0.361098 0.000000 0.195979
O O18 0.236536 0.500000 0.688611
O O19 0.000000 0.795951 0.500000
O O20 0.951277 0.000000 0.411077
O O21 0.919160 0.500000 0.058546
#
# Coordination Sequence:
#
# PCOD8111351 Si02
#       8
#     8   8   8   8   8   8   8   8
#     4   9  16  30  53  81 110 142 187 235 279 332
#     4  11  21  36  62  87 109 142 192 243 275 323
#     4  11  23  36  53  80 118 154 184 231 291 340
#     4  11  24  41  62  86 116 152 188 228 273 332
#     4   9  16  32  58  83 104 139 189 234 274 323
#     4  10  22  40  59  79 111 154 193 229 277 337
#     4  10  23  42  61  85 119 152 179 221 286 343
#     4   8  14  27  53  83 108 138 183 237 282 325
#
# _framework density 18.767831999999999
#
# number of rings (size 3 to 8) (size 9 to 14) (size 15 to 20)
#    0.000    2.125    2.500    1.875    1.750    1.750 
#    0.000    1.875    0.000    0.000    0.000    0.000 
#    0.000    0.000    0.000    0.000    0.000    0.000 
#
# Total GULP energy -396719.521034 kJ/mol
# GULP energy per Si atom -12397.485032 kJ/mol
# Density = 1.872512 g / cm^3
# Si number density = 18.767832 Si / 1000 Ang^3
#
#
#
# Elastic Constant Matrix: (Units=GPa)
#
#
# Indices 1 2 3 4 5 6 
#
# 1 110.4855 45.2481 48.9309 0.0000 -14.6876 0.0000
# 2 45.2481 57.1783 34.0562 0.0000 0.8167 0.0000
# 3 48.9309 34.0562 109.7185 0.0000 -17.7090 0.0000
# 4 0.0000 0.0000 0.0000 27.0004 0.0000 1.7315
# 5 -14.6876 0.8167 -17.7090 0.0000 33.2219 0.0000
# 6 0.0000 0.0000 0.0000 1.7315 0.0000 21.3416
#
#
#
# Elastic Compliance Matrix: (Units=1/GPa)
#
#
# Indices 1 2 3 4 5 6 
#
# 1 0.015319 -0.010644 -0.002618 0.000000 0.005639 0.000000
# 2 -0.010644 0.029474 -0.005775 0.000000 -0.008509 0.000000
# 3 -0.002618 -0.005775 0.013031 0.000000 0.005931 0.000000
# 4 0.000000 0.000000 0.000000 0.037230 0.000000 -0.003021
# 5 0.005639 -0.008509 0.005931 0.000000 0.035964 0.000000
# 6 0.000000 0.000000 0.000000 -0.003021 0.000000 0.047102
#
#
# Mechanical properties :
#
#
# Convention : Reuss Voigt Hill
#
# Bulk Modulus (GPa) = 50.63156 59.31698 54.97427
# Shear Modulus (GPa) = 22.44391 26.25593 24.34992
#
# Velocity S-wave (km/s) = 3.46189 3.74436 3.60589
# Velocity P-wave (km/s) = 6.55866 7.09704 6.83315
#
# Compressibility (1/GPa) = 0.01975053
#
# Stress axis : x y z
#
# Youngs Moduli (GPa) = 65.27797 33.92874 76.73729
#
# Poissons Ratio (x) = 0.36114 0.20088
# Poissons Ratio (y) = 0.69483 0.44315
# Poissons Ratio (z) = 0.17088 0.19593
#
# Static dielectric constant tensor:
#      x y z
#    x 3.593720 0.000000 -0.239100 
#    y 0.000000 3.227360 0.000000 
#    z -0.239100 0.000000 3.773410 
# 
# 
# High freq. dielectric constant tensor:
#      x y z
#    x 1.723370 0.000000 -0.011140 
#    y 0.000000 1.705290 0.000000 
#    z -0.011140 0.000000 1.743570 
# 
# From -- ./inp_files/314148.got.cif
#   From: 2010.06.25/outbox.cif.g09.slc.cpg/sg12_158_cif.got.tgz:314148.got - 2010.06.28 00:19:55.
