data_PCOD8111641
_publ_section_title
;
Structure prediction by ZEFSAII (Michael W. Deem and Ramdas Pophale) SiO2 
 PCOD8111641
Probable space group: C 2/M
;
_chemical_formula_sum "Si O2"
_cell_formula_units_Z 64
_cell_length_a 26.204026
_cell_length_b 12.837748
_cell_length_c 13.861017
_cell_angle_alpha 90.000000
_cell_angle_beta 42.225765
_cell_angle_gamma 90.000000
_cell_volume 3133.689107
_symmetry_space_group_name_H-M "C 2/M"
_symmetry_group_IT_number 12
_symmetry_cell_setting 'monoclinic'
loop_
_space_group_symop_operation_xyz
x,y,z
-x,y,-z
-x,-y,-z
x,-y,z
1/2+x,1/2+y,z
1/2-x,1/2+y,-z
1/2-x,1/2-y,-z
1/2+x,1/2-y,z
loop_
_atom_site_type_symbol
_atom_site_label
_atom_site_fract_x
_atom_site_fract_y
_atom_site_fract_z
Si Si1 0.615143 0.378504 0.722549
Si Si2 0.809120 0.119030 0.583917
Si Si3 0.426178 0.720182 0.546235
Si Si4 0.681263 0.717181 0.817509
Si Si5 0.985319 0.284381 0.916406
Si Si6 0.357128 0.194224 0.826831
Si Si7 0.298388 0.381423 0.015390
Si Si8 0.993233 0.615056 0.308445
O O1 0.596496 0.500000 0.748763
O O2 0.661757 0.346150 0.562094
O O3 0.666996 0.349185 0.741345
O O4 0.533766 0.322151 0.841138
O O5 0.878617 0.128113 0.563007
O O6 0.738424 0.189253 0.714161
O O7 0.781296 0.000000 0.622207
O O8 0.500000 0.675996 0.500000
O O9 0.372986 0.781912 0.693527
O O10 0.447199 0.801136 0.433353
O O11 0.716415 0.643168 0.851023
O O12 0.603569 0.762002 0.970769
O O13 0.014466 0.363176 0.794395
O O14 0.000000 0.337146 0.000000
O O15 0.277221 0.134795 0.942877
O O16 0.418856 0.116946 0.784462
O O17 0.359866 0.302186 0.884088
O O18 0.327083 0.500000 0.963471
O O19 0.960511 0.500000 0.374793
#
# Coordination Sequence:
#
# PCOD8111641 Si02
#       8
#     8   8   8   8   8   8   8   8
#     4  10  22  42  69  94 125 170 215 268 328 380
#     4  11  23  42  67  95 133 173 209 265 332 381
#     4  10  22  41  64  89 125 161 221 269 306 377
#     4  11  22  41  63  97 132 162 214 267 314 394
#     4  10  22  40  64  93 130 163 209 268 313 389
#     4  10  22  41  55  89 125 155 209 262 308 380
#     4  11  22  37  62  90 122 163 203 258 318 373
#     4  11  22  40  64  87 120 168 211 260 318 372
#
# _framework density 20.423213000000001
#
# number of rings (size 3 to 8) (size 9 to 14) (size 15 to 20)
#    0.000    1.500    3.750    1.125    0.000    7.000 
#    0.000    3.750    0.000    0.000    0.000    0.000 
#    0.000    0.000    0.000    0.000    0.000    0.000 
#
# Total GULP energy -396807.296850 kJ/mol
# GULP energy per Si atom -12400.228027 kJ/mol
# Density = 2.037673 g / cm^3
# Si number density = 20.423213 Si / 1000 Ang^3
#
#
#
# Elastic Constant Matrix: (Units=GPa)
#
#
# Indices 1 2 3 4 5 6 
#
# 1 94.0699 33.9724 36.6084 0.0000 15.8540 0.0000
# 2 33.9724 84.7980 38.5159 0.0000 2.6209 0.0000
# 3 36.6084 38.5159 95.3932 0.0000 8.5217 0.0000
# 4 0.0000 0.0000 0.0000 24.4542 0.0000 0.8301
# 5 15.8540 2.6209 8.5217 0.0000 38.0363 0.0000
# 6 0.0000 0.0000 0.0000 0.8301 0.0000 21.9324
#
#
#
# Elastic Compliance Matrix: (Units=1/GPa)
#
#
# Indices 1 2 3 4 5 6 
#
# 1 0.014225 -0.004000 -0.003407 0.000000 -0.004890 0.000000
# 2 -0.004000 0.015570 -0.004902 0.000000 0.001693 0.000000
# 3 -0.003407 -0.004902 0.013891 0.000000 -0.001354 0.000000
# 4 0.000000 0.000000 0.000000 0.040945 0.000000 -0.001550
# 5 -0.004890 0.001693 -0.001354 0.000000 0.028516 0.000000
# 6 0.000000 0.000000 0.000000 -0.001550 0.000000 0.045653
#
#
# Mechanical properties :
#
#
# Convention : Reuss Voigt Hill
#
# Bulk Modulus (GPa) = 52.44936 54.71716 53.58326
# Shear Modulus (GPa) = 26.34695 27.89555 27.12125
#
# Velocity S-wave (km/s) = 3.59562 3.69978 3.64807
# Velocity P-wave (km/s) = 6.55553 6.71573 6.63611
#
# Compressibility (1/GPa) = 0.01906601
#
# Stress axis : x y z
#
# Youngs Moduli (GPa) = 70.29804 64.22691 71.98991
#
# Poissons Ratio (x) = 0.25693 0.24527
# Poissons Ratio (y) = 0.28121 0.35293
# Poissons Ratio (z) = 0.23951 0.31487
#
# Static dielectric constant tensor:
#      x y z
#    x 3.882090 0.000000 0.175920 
#    y 0.000000 3.392700 0.000000 
#    z 0.175920 0.000000 3.763990 
# 
# 
# High freq. dielectric constant tensor:
#      x y z
#    x 1.812250 0.000000 0.013050 
#    y 0.000000 1.777470 0.000000 
#    z 0.013050 0.000000 1.804290 
# 
# From -- ./inp_files/245952.got.cif
#   From: 2010.06.25/outbox.cif.g09.slc.cpg/sg12_123_cif.got.tgz:245952.got - 2010.06.28 00:19:55.
