data_PCOD8111342
_publ_section_title
;
Structure prediction by ZEFSAII (Michael W. Deem and Ramdas Pophale) SiO2 
 PCOD8111342
Probable space group: C 2/M
;
_chemical_formula_sum "Si O2"
_cell_formula_units_Z 64
_cell_length_a 7.921641
_cell_length_b 25.631924
_cell_length_c 15.784601
_cell_angle_alpha 90.000000
_cell_angle_beta 89.992933
_cell_angle_gamma 90.000000
_cell_volume 3205.014277
_symmetry_space_group_name_H-M "C 2/M"
_symmetry_group_IT_number 12
_symmetry_cell_setting 'monoclinic'
loop_
_space_group_symop_operation_xyz
x,y,z
-x,y,-z
-x,-y,-z
x,-y,z
1/2+x,1/2+y,z
1/2-x,1/2+y,-z
1/2-x,1/2-y,-z
1/2+x,1/2-y,z
loop_
_atom_site_type_symbol
_atom_site_label
_atom_site_fract_x
_atom_site_fract_y
_atom_site_fract_z
Si Si1 0.794509 0.774524 0.791054
Si Si2 0.696157 0.849109 0.666215
Si Si3 0.194185 0.439225 0.789440
Si Si4 0.680221 0.174232 0.310032
Si Si5 0.696666 0.309738 0.507140
Si Si6 0.004179 0.295323 0.098307
Si Si7 0.498284 0.560819 0.093777
Si Si8 0.658634 0.896702 0.165927
O O1 0.841163 0.816593 0.717618
O O2 0.733103 0.722738 0.739042
O O3 0.672014 0.806028 0.855748
O O4 0.943439 0.757783 0.853210
O O5 0.696324 0.908556 0.699421
O O6 0.523166 0.818228 0.689313
O O7 0.722732 0.846017 0.565765
O O8 0.217304 0.500000 0.768200
O O9 0.347408 0.417530 0.848570
O O10 0.013877 0.430435 0.835796
O O11 0.746766 0.166422 0.404248
O O12 0.714387 0.120220 0.260552
O O13 0.500000 0.314100 0.500000
O O14 0.750000 0.250000 0.500000
O O15 0.129757 0.344000 0.111097
O O16 0.000000 0.281759 0.000000
O O17 0.531274 0.500000 0.085700
O O18 0.312519 0.569983 0.130828
O O19 0.500000 0.586510 0.000000
#
# Coordination Sequence:
#
# PCOD8111342 Si02
#       8
#     8   8   8   8   8   8   8   8
#     4  11  20  38  56  80 122 161 204 246 295 371
#     4  11  22  40  63  89 125 161 205 256 313 381
#     4  10  22  42  68  95 125 167 211 263 322 372
#     4  10  22  40  57  88 121 162 200 249 307 373
#     4  12  25  35  61  91 123 159 200 255 311 367
#     4  11  24  38  55  86 125 171 212 249 309 372
#     4  10  23  40  63  96 123 159 216 272 324 371
#     4  10  22  41  65  88 128 166 211 258 317 377
#
# _framework density 19.968709
#
# number of rings (size 3 to 8) (size 9 to 14) (size 15 to 20)
#    0.000    1.375    5.000    1.875    5.250    1.000 
#    0.000    5.000    0.000    7.125    0.000    0.000 
#    0.000    0.000    0.000    0.000    0.000    0.000 
#
# Total GULP energy -396544.404100 kJ/mol
# GULP energy per Si atom -12392.012628 kJ/mol
# Density = 1.992326 g / cm^3
# Si number density = 19.968709 Si / 1000 Ang^3
#
#
#
# Elastic Constant Matrix: (Units=GPa)
#
#
# Indices 1 2 3 4 5 6 
#
# 1 74.1592 26.6030 33.2188 0.0000 -1.3221 0.0000
# 2 26.6030 60.4957 38.8266 0.0000 11.3023 0.0000
# 3 33.2188 38.8266 161.7504 0.0000 6.1525 0.0000
# 4 0.0000 0.0000 0.0000 22.3188 0.0000 -3.3981
# 5 -1.3221 11.3023 6.1525 0.0000 29.7195 0.0000
# 6 0.0000 0.0000 0.0000 -3.3981 0.0000 32.2432
#
#
#
# Elastic Compliance Matrix: (Units=1/GPa)
#
#
# Indices 1 2 3 4 5 6 
#
# 1 0.016898 -0.006876 -0.001963 0.000000 0.003773 0.000000
# 2 -0.006876 0.023674 -0.003948 0.000000 -0.008492 0.000000
# 3 -0.001963 -0.003948 0.007539 0.000000 -0.000147 0.000000
# 4 0.000000 0.000000 0.000000 0.045536 0.000000 0.004799
# 5 0.003773 -0.008492 -0.000147 0.000000 0.037076 0.000000
# 6 0.000000 0.000000 0.000000 0.004799 0.000000 0.031520
#
#
# Mechanical properties :
#
#
# Convention : Reuss Voigt Hill
#
# Bulk Modulus (GPa) = 44.37130 54.85579 49.61354
# Shear Modulus (GPa) = 25.59808 30.04010 27.81909
#
# Velocity S-wave (km/s) = 3.58426 3.88281 3.73652
# Velocity P-wave (km/s) = 6.27677 6.90161 6.59659
#
# Compressibility (1/GPa) = 0.02253709
#
# Stress axis : x y z
#
# Youngs Moduli (GPa) = 59.17964 42.24094 132.64787
#
# Poissons Ratio (x) = 0.29043 0.26044
# Poissons Ratio (y) = 0.40689 0.52364
# Poissons Ratio (z) = 0.11619 0.16675
#
# Static dielectric constant tensor:
#      x y z
#    x 3.675430 0.000000 0.066500 
#    y 0.000000 3.334640 0.000000 
#    z 0.066500 0.000000 3.605070 
# 
# 
# High freq. dielectric constant tensor:
#      x y z
#    x 1.781340 0.000000 0.004240 
#    y 0.000000 1.753650 0.000000 
#    z 0.004240 0.000000 1.786160 
# 
# From -- ./inp_files/198896.got.cif
#   From: 2010.06.25/outbox.cif.g09.slc.cpg/sg12_100_cif.got.tgz:198896.got - 2010.06.28 00:19:55.
