data_PCOD8111033
_publ_section_title
;
Structure prediction by ZEFSAII (Michael W. Deem and Ramdas Pophale) SiO2 
 PCOD8111033
Probable space group: C 2/M
;
_chemical_formula_sum "Si O2"
_cell_formula_units_Z 64
_cell_length_a 17.611071
_cell_length_b 9.117848
_cell_length_c 34.676727
_cell_angle_alpha 90.000000
_cell_angle_beta 144.060971
_cell_angle_gamma 90.000000
_cell_volume 3268.120719
_symmetry_space_group_name_H-M "C 2/M"
_symmetry_group_IT_number 12
_symmetry_cell_setting 'monoclinic'
loop_
_space_group_symop_operation_xyz
x,y,z
-x,y,-z
-x,-y,-z
x,-y,z
1/2+x,1/2+y,z
1/2-x,1/2+y,-z
1/2-x,1/2-y,-z
1/2+x,1/2-y,z
loop_
_atom_site_type_symbol
_atom_site_label
_atom_site_fract_x
_atom_site_fract_y
_atom_site_fract_z
Si Si1 0.430647 0.834571 0.386224
Si Si2 0.837965 0.331325 0.005519
Si Si3 0.462858 0.829311 0.764542
Si Si4 0.135261 0.666815 0.131495
Si Si5 0.108637 0.834323 0.511957
Si Si6 0.213616 0.834388 0.362265
Si Si7 0.741798 0.327465 0.103244
Si Si8 0.753133 0.330041 0.740875
O O1 0.556691 0.746564 0.452328
O O2 0.323618 0.830164 0.375302
O O3 0.372536 0.761079 0.323869
O O4 0.472423 0.000000 0.393790
O O5 0.794135 0.500000 0.984808
O O6 0.826931 0.257685 0.959404
O O7 0.750000 0.250000 0.000000
O O8 0.984883 0.318264 0.080236
O O9 0.415288 0.741351 0.707331
O O10 0.608349 0.782466 0.833830
O O11 0.377842 0.787037 0.766712
O O12 0.451925 0.000000 0.749999
O O13 0.165386 0.500000 0.130595
O O14 0.172604 0.780981 0.114038
O O15 0.217317 0.708809 0.202909
O O16 0.236863 0.751863 0.579691
O O17 0.000000 0.831982 0.500000
O O18 0.146148 0.000000 0.516464
O O19 0.180059 0.000000 0.360591
O O20 0.723622 0.500000 0.089380
O O21 0.720415 0.500000 0.721611
#
# Coordination Sequence:
#
# PCOD8111033 Si02
#       8
#     8   8   8   8   8   8   8   8
#     4   9  16  25  39  64  97 128 164 213 263 308
#     4  11  23  40  62  86 112 142 177 218 265 316
#     4   9  18  33  51  72 101 137 176 217 262 314
#     4  10  22  39  57  79 109 144 179 218 265 316
#     4   9  15  23  37  59  91 132 171 206 254 313
#     4   9  16  25  40  65  96 129 167 214 264 309
#     4  11  23  38  57  82 111 143 180 221 264 313
#     4   9  17  32  52  71  97 135 176 215 260 315
#
# _framework density 19.583120000000001
#
# number of rings (size 3 to 8) (size 9 to 14) (size 15 to 20)
#    0.000    2.375    0.000    3.000    0.000   10.500 
#    0.000    2.500    0.000    0.000    0.000    0.875 
#    0.000    0.000    0.000    0.000    0.000    0.000 
#
# Total GULP energy -396880.696270 kJ/mol
# GULP energy per Si atom -12402.521758 kJ/mol
# Density = 1.953855 g / cm^3
# Si number density = 19.583120 Si / 1000 Ang^3
#
#
#
# Elastic Constant Matrix: (Units=GPa)
#
#
# Indices 1 2 3 4 5 6 
#
# 1 41.9074 22.7426 14.7025 0.0000 -15.5069 0.0000
# 2 22.7426 123.2298 66.3845 0.0000 -11.8534 0.0000
# 3 14.7025 66.3845 131.3380 0.0000 -21.2191 0.0000
# 4 0.0000 0.0000 0.0000 35.2678 0.0000 -1.3466
# 5 -15.5069 -11.8534 -21.2191 0.0000 15.0027 0.0000
# 6 0.0000 0.0000 0.0000 -1.3466 0.0000 22.7494
#
#
#
# Elastic Compliance Matrix: (Units=1/GPa)
#
#
# Indices 1 2 3 4 5 6 
#
# 1 0.043168 -0.006763 0.006392 0.000000 0.048315 0.000000
# 2 -0.006763 0.012224 -0.006469 0.000000 -0.006481 0.000000
# 3 0.006392 -0.006469 0.013493 0.000000 0.020579 0.000000
# 4 0.000000 0.000000 0.000000 0.028419 0.000000 0.001682
# 5 0.048315 -0.006481 0.020579 0.000000 0.140579 0.000000
# 6 0.000000 0.000000 0.000000 0.001682 0.000000 0.044057
#
#
# Mechanical properties :
#
#
# Convention : Reuss Voigt Hill
#
# Bulk Modulus (GPa) = 18.11414 56.01492 37.06453
# Shear Modulus (GPa) = 15.92250 27.44702 21.68476
#
# Velocity S-wave (km/s) = 2.85454 3.74781 3.33125
# Velocity P-wave (km/s) = 4.48714 6.88432 5.81069
#
# Compressibility (1/GPa) = 0.05520550
#
# Stress axis : x y z
#
# Youngs Moduli (GPa) = 23.16550 81.80387 74.11330
#
# Poissons Ratio (x) = 0.55320 -0.47371
# Poissons Ratio (y) = 0.15666 0.47942
# Poissons Ratio (z) = -0.14807 0.52917
#
# Static dielectric constant tensor:
#      x y z
#    x 3.069430 0.000000 -0.012370 
#    y 0.000000 3.699550 0.000000 
#    z -0.012370 0.000000 3.828970 
# 
# 
# High freq. dielectric constant tensor:
#      x y z
#    x 1.715320 0.000000 -0.000590 
#    y 0.000000 1.770560 0.000000 
#    z -0.000590 0.000000 1.780200 
# 
# From -- ./inp_files/378282.got.cif
#   From: 2010.06.25/outbox.cif.g09.slc.cpg/sg12_190_cif.got.tgz:378282.got - 2010.06.28 00:19:55.
