data_PCOD8111264
_publ_section_title
;
Structure prediction by ZEFSAII (Michael W. Deem and Ramdas Pophale) SiO2 
 PCOD8111264
Probable space group: C 2/M
;
_chemical_formula_sum "Si O2"
_cell_formula_units_Z 64
_cell_length_a 11.951726
_cell_length_b 29.066889
_cell_length_c 13.937498
_cell_angle_alpha 90.000000
_cell_angle_beta 39.503382
_cell_angle_gamma 90.000000
_cell_volume 3080.034773
_symmetry_space_group_name_H-M "C 2/M"
_symmetry_group_IT_number 12
_symmetry_cell_setting 'monoclinic'
loop_
_space_group_symop_operation_xyz
x,y,z
-x,y,-z
-x,-y,-z
x,-y,z
1/2+x,1/2+y,z
1/2-x,1/2+y,-z
1/2-x,1/2-y,-z
1/2+x,1/2-y,z
loop_
_atom_site_type_symbol
_atom_site_label
_atom_site_fract_x
_atom_site_fract_y
_atom_site_fract_z
Si Si1 0.598072 0.188680 0.841059
Si Si2 0.310013 0.776716 0.671242
Si Si3 0.034782 0.945885 0.216551
Si Si4 0.684921 0.051242 0.355421
Si Si5 0.569614 0.830865 0.235819
Si Si6 0.708550 0.304366 0.549982
Si Si7 0.316541 0.416356 0.078371
Si Si8 0.079102 0.130271 0.345334
O O1 0.736063 0.225999 0.715379
O O2 0.442203 0.184447 0.866596
O O3 0.714919 0.143044 0.779364
O O4 0.500000 0.205265 0.000000
O O5 0.500000 0.774075 0.500000
O O6 0.316314 0.795491 0.775380
O O7 0.193970 0.808790 0.676035
O O8 0.086354 0.914235 0.272020
O O9 0.842023 0.927037 0.313983
O O10 0.039294 0.000000 0.242039
O O11 0.162737 0.939332 0.039811
O O12 0.500000 0.077953 0.500000
O O13 0.738361 0.048129 0.208031
O O14 0.662370 0.000000 0.409630
O O15 0.370019 0.835620 0.406168
O O16 0.668114 0.878368 0.171886
O O17 0.750000 0.250000 0.500000
O O18 0.529549 0.325522 0.624583
O O19 0.500000 0.396793 0.000000
O O20 0.000000 0.115292 0.500000
#
# Coordination Sequence:
#
# PCOD8111264 Si02
#       8
#     8   8   8   8   8   8   8   8
#     4  12  25  42  61  91 133 176 217 267 320 389
#     4  10  23  40  64  90 126 170 217 269 321 384
#     4  10  23  43  65  94 130 174 217 271 342 403
#     4   9  19  35  61  95 130 165 210 267 328 393
#     4  11  23  39  63  94 123 168 221 266 316 388
#     4  11  21  42  68  94 129 171 216 269 327 388
#     4  10  22  39  63  92 133 169 212 265 337 401
#     4  12  24  42  70  92 125 178 226 271 327 397
#
# _framework density 20.778986
#
# number of rings (size 3 to 8) (size 9 to 14) (size 15 to 20)
#    0.000    1.375    2.500    3.000    5.250    3.250 
#    0.000    0.000    0.000    4.125    0.000    0.000 
#    0.000    0.000    0.000    0.000    0.000    0.000 
#
# Total GULP energy -396545.327069 kJ/mol
# GULP energy per Si atom -12392.041471 kJ/mol
# Density = 2.073169 g / cm^3
# Si number density = 20.778986 Si / 1000 Ang^3
#
#
#
# Elastic Constant Matrix: (Units=GPa)
#
#
# Indices 1 2 3 4 5 6 
#
# 1 129.3478 42.0736 38.9565 0.0000 22.2524 0.0000
# 2 42.0736 87.7369 22.3235 0.0000 2.1881 0.0000
# 3 38.9565 22.3235 86.6715 0.0000 11.1618 0.0000
# 4 0.0000 0.0000 0.0000 23.9174 0.0000 9.1135
# 5 22.2524 2.1881 11.1618 0.0000 34.9803 0.0000
# 6 0.0000 0.0000 0.0000 9.1135 0.0000 24.9992
#
#
#
# Elastic Compliance Matrix: (Units=1/GPa)
#
#
# Indices 1 2 3 4 5 6 
#
# 1 0.011089 -0.004382 -0.003110 0.000000 -0.005787 0.000000
# 2 -0.004382 0.013931 -0.001945 0.000000 0.002537 0.000000
# 3 -0.003110 -0.001945 0.013731 0.000000 -0.002281 0.000000
# 4 0.000000 0.000000 0.000000 0.048555 0.000000 -0.017701
# 5 -0.005787 0.002537 -0.002281 0.000000 0.032838 0.000000
# 6 0.000000 0.000000 0.000000 -0.017701 0.000000 0.046454
#
#
# Mechanical properties :
#
#
# Convention : Reuss Voigt Hill
#
# Bulk Modulus (GPa) = 50.31316 56.71813 53.51564
# Shear Modulus (GPa) = 26.02843 30.13953 28.08398
#
# Velocity S-wave (km/s) = 3.54309 3.81265 3.68034
# Velocity P-wave (km/s) = 6.40344 6.83644 6.62348
#
# Compressibility (1/GPa) = 0.01987552
#
# Stress axis : x y z
#
# Youngs Moduli (GPa) = 90.18146 71.78405 72.83036
#
# Poissons Ratio (x) = 0.31455 0.22651
# Poissons Ratio (y) = 0.39516 0.14167
# Poissons Ratio (z) = 0.28048 0.13964
#
# Static dielectric constant tensor:
#      x y z
#    x 4.489130 0.000000 0.247250 
#    y 0.000000 3.544630 0.000000 
#    z 0.247250 0.000000 4.037370 
# 
# 
# High freq. dielectric constant tensor:
#      x y z
#    x 1.825950 0.000000 0.005640 
#    y 0.000000 1.789780 0.000000 
#    z 0.005640 0.000000 1.812250 
# 
# From -- ./inp_files/209360.got.cif
#   From: 2010.06.25/outbox.cif.g09.slc.cpg/sg12_105_cif.got.tgz:209360.got - 2010.06.28 00:19:55.
