data_PCOD8111492
_publ_section_title
;
Structure prediction by ZEFSAII (Michael W. Deem and Ramdas Pophale) SiO2 
 PCOD8111492
Probable space group: C 2/M
;
_chemical_formula_sum "Si O2"
_cell_formula_units_Z 56
_cell_length_a 10.876363
_cell_length_b 27.077662
_cell_length_c 9.367842
_cell_angle_alpha 90.000000
_cell_angle_beta 70.029821
_cell_angle_gamma 90.000000
_cell_volume 2592.999513
_symmetry_space_group_name_H-M "C 2/M"
_symmetry_group_IT_number 12
_symmetry_cell_setting 'monoclinic'
loop_
_space_group_symop_operation_xyz
x,y,z
-x,y,-z
-x,-y,-z
x,-y,z
1/2+x,1/2+y,z
1/2-x,1/2+y,-z
1/2-x,1/2-y,-z
1/2+x,1/2-y,z
loop_
_atom_site_type_symbol
_atom_site_label
_atom_site_fract_x
_atom_site_fract_y
_atom_site_fract_z
Si Si1 0.546227 0.281417 0.318520
Si Si2 0.989431 0.878613 0.844510
Si Si3 0.566208 0.054261 0.147357
Si Si4 0.232915 0.943615 0.160675
Si Si5 0.263578 0.444141 0.315862
Si Si6 0.162537 0.393710 0.624887
Si Si7 0.191247 0.278853 0.653982
O O1 0.500000 0.282812 0.500000
O O2 0.522782 0.334284 0.260202
O O3 0.704662 0.270114 0.255616
O O4 0.457610 0.241793 0.262865
O O5 0.106206 0.912429 0.743659
O O6 0.862030 0.912551 0.900882
O O7 0.000000 0.857145 0.000000
O O8 0.698388 0.054139 0.187311
O O9 0.477047 0.097418 0.245065
O O10 0.497287 0.000000 0.189748
O O11 0.618149 0.062112 0.962910
O O12 0.228777 0.921163 0.321366
O O13 0.186760 0.000000 0.180685
O O14 0.294761 0.500000 0.355167
O O15 0.166208 0.417264 0.466498
O O16 0.186673 0.335736 0.611831
O O17 0.250000 0.250000 0.500000
#
# Coordination Sequence:
#
# PCOD8111492 Si02
#       7
#     8   8   8   8   8   8   8
#     4  10  22  44  68  97 126 171 221 281 333 396
#     4  12  24  42  65  93 132 175 216 266 327 395
#     4  10  22  40  61  92 136 177 212 256 320 394
#     4  11  23  41  65  94 134 178 213 256 320 393
#     4  11  23  37  60  96 132 170 215 266 317 384
#     4  12  23  40  66  97 127 164 222 272 323 385
#     4  10  22  41  68  94 129 167 217 276 344 394
#
# _framework density 21.596609000000001
#
# number of rings (size 3 to 8) (size 9 to 14) (size 15 to 20)
#    0.000    1.143    2.857    4.286    0.000    7.429 
#    0.000    3.571    0.000    0.000    0.000    0.000 
#    0.000    0.000    0.000    0.000    0.000    0.000 
#
# Total GULP energy -347104.671948 kJ/mol
# GULP energy per Si atom -12396.595427 kJ/mol
# Density = 2.154745 g / cm^3
# Si number density = 21.596609 Si / 1000 Ang^3
#
#
#
# Elastic Constant Matrix: (Units=GPa)
#
#
# Indices 1 2 3 4 5 6 
#
# 1 94.5405 45.4618 1.9588 0.0000 0.8558 0.0000
# 2 45.4618 128.4008 28.0120 0.0000 -5.0450 0.0000
# 3 1.9588 28.0120 60.1920 0.0000 -3.0684 0.0000
# 4 0.0000 0.0000 0.0000 -119.4124 0.0000 338.4617
# 5 0.8558 -5.0450 -3.0684 0.0000 22.7175 0.0000
# 6 0.0000 0.0000 0.0000 338.4617 0.0000 -745.1358
#
#
#
# Elastic Compliance Matrix: (Units=1/GPa)
#
#
# Indices 1 2 3 4 5 6 
#
# 1 0.012983 -0.005056 0.001861 0.000000 -0.001361 0.000000
# 2 -0.005056 0.010681 -0.004708 0.000000 0.001927 0.000000
# 3 0.001861 -0.004708 0.018817 0.000000 0.001426 0.000000
# 4 0.000000 0.000000 0.000000 0.029132 0.000000 0.013233
# 5 -0.001361 0.001927 0.001426 0.000000 0.044691 0.000000
# 6 0.000000 0.000000 0.000000 0.013233 0.000000 0.004669
#
#
# Mechanical properties :
#
#
# Convention : Reuss Voigt Hill
#
# Bulk Modulus (GPa) = 37.48914 48.22204 42.85559
# Shear Modulus (GPa) = 34.32444 -154.51942 -60.09749
#
# Velocity S-wave (km/s) = 3.99098 -8.46778 -5.28088
# Velocity P-wave (km/s) = 6.21561 8.55730 4.15895
#
# Compressibility (1/GPa) = 0.02667439
#
# Stress axis : x y z
#
# Youngs Moduli (GPa) = 77.02639 93.62347 53.14454
#
# Poissons Ratio (x) = 0.47337 -0.09891
# Poissons Ratio (y) = 0.38945 0.25020
# Poissons Ratio (z) = -0.14336 0.44078
#
# Static dielectric constant tensor:
#      x y z
#    x 4.545360 0.000000 0.189420 
#    y 0.000000 3.882270 0.000000 
#    z 0.189420 0.000000 3.721900 
# 
# 
# High freq. dielectric constant tensor:
#      x y z
#    x 1.870560 0.000000 0.014250 
#    y 0.000000 1.845860 0.000000 
#    z 0.014250 0.000000 1.831460 
# 
# From -- ./inp_files/53182.got.cif
#   From: 2010.06.25/outbox.cif.g09.slc.cpg/sg12_27_cif.got.tgz:53182.got - 2010.06.28 00:19:55.
