data_PCOD8111855
_publ_section_title
;
Structure prediction by ZEFSAII (Michael W. Deem and Ramdas Pophale) SiO2 
 PCOD8111855
Probable space group: C 2/M
;
_chemical_formula_sum "Si O2"
_cell_formula_units_Z 64
_cell_length_a 28.934409
_cell_length_b 8.870555
_cell_length_c 19.226389
_cell_angle_alpha 90.000000
_cell_angle_beta 40.111485
_cell_angle_gamma 90.000000
_cell_volume 3179.330860
_symmetry_space_group_name_H-M "C 2/M"
_symmetry_group_IT_number 12
_symmetry_cell_setting 'monoclinic'
loop_
_space_group_symop_operation_xyz
x,y,z
-x,y,-z
-x,-y,-z
x,-y,z
1/2+x,1/2+y,z
1/2-x,1/2+y,-z
1/2-x,1/2-y,-z
1/2+x,1/2-y,z
loop_
_atom_site_type_symbol
_atom_site_label
_atom_site_fract_x
_atom_site_fract_y
_atom_site_fract_z
Si Si1 0.766214 0.178390 0.682247
Si Si2 0.919538 0.673513 0.868995
Si Si3 0.708402 0.326824 0.611276
Si Si4 0.468206 0.330118 0.612245
Si Si5 0.842157 0.322773 0.816080
Si Si6 0.070183 0.827853 0.693039
Si Si7 0.902211 0.676394 0.474416
Si Si8 0.783869 0.326260 0.109082
O O1 0.723282 0.248245 0.667490
O O2 0.847940 0.238028 0.588377
O O3 0.729592 0.230059 0.796698
O O4 0.766637 0.000000 0.673958
O O5 0.943016 0.500000 0.833057
O O6 0.874585 0.727035 0.853104
O O7 0.990489 0.770143 0.801557
O O8 0.867743 0.696284 0.995041
O O9 0.734114 0.500000 0.586079
O O10 0.750000 0.250000 0.500000
O O11 0.622098 0.317189 0.700164
O O12 0.500000 0.324920 0.500000
O O13 0.465870 0.500000 0.643923
O O14 0.389444 0.257763 0.701820
O O15 0.516116 0.226373 0.606985
O O16 0.844058 0.500000 0.804154
O O17 0.761548 0.265431 0.896293
O O18 0.112170 0.726070 0.588007
O O19 0.065077 0.000000 0.672202
O O20 0.892936 0.500000 0.495606
O O21 0.761350 0.500000 0.126974
#
# Coordination Sequence:
#
# PCOD8111855 Si02
#       8
#     8   8   8   8   8   8   8   8
#     4  11  23  40  62  89 122 161 204 249 302 364
#     4  10  22  41  63  89 121 160 207 254 300 354
#     4  11  23  39  63  93 124 157 198 247 303 368
#     4  11  23  37  54  80 119 163 202 244 299 362
#     4  11  22  36  59  90 120 156 206 256 301 355
#     4  11  23  39  62  91 120 154 196 243 302 364
#     4  12  23  36  58  86 120 158 196 247 303 356
#     4  10  23  42  62  86 121 164 207 251 301 360
#
# _framework density 20.130020999999999
#
# number of rings (size 3 to 8) (size 9 to 14) (size 15 to 20)
#    0.000    1.125    2.500    4.125    0.000    7.500 
#    0.000    0.625    0.000    3.750    0.000    0.000 
#    0.000    0.000    0.000    0.000    0.000    0.000 
#
# Total GULP energy -396864.629374 kJ/mol
# GULP energy per Si atom -12402.019668 kJ/mol
# Density = 2.008420 g / cm^3
# Si number density = 20.130021 Si / 1000 Ang^3
#
#
#
# Elastic Constant Matrix: (Units=GPa)
#
#
# Indices 1 2 3 4 5 6 
#
# 1 85.6217 38.4797 27.6272 0.0104 -6.1170 -0.0052
# 2 38.4797 102.6707 36.7536 0.0135 -4.5682 -0.0173
# 3 27.6272 36.7536 105.1194 0.0052 -2.8010 -0.0078
# 4 0.0104 0.0135 0.0052 27.8083 -0.0075 -6.0385
# 5 -6.1170 -4.5682 -2.8010 -0.0075 25.1061 0.0050
# 6 -0.0052 -0.0173 -0.0078 -6.0385 0.0050 32.6259
#
#
#
# Elastic Compliance Matrix: (Units=1/GPa)
#
#
# Indices 1 2 3 4 5 6 
#
# 1 0.014621 -0.004592 -0.002171 -0.000002 0.002485 -0.000001
# 2 -0.004592 0.012640 -0.003190 -0.000003 0.000825 0.000005
# 3 -0.002171 -0.003190 0.011203 0.000000 0.000140 0.000001
# 4 -0.000002 -0.000003 0.000000 0.037466 0.000009 0.006934
# 5 0.002485 0.000825 0.000140 0.000009 0.040602 -0.000004
# 6 -0.000001 0.000005 0.000001 0.006934 -0.000004 0.031934
#
#
# Mechanical properties :
#
#
# Convention : Reuss Voigt Hill
#
# Bulk Modulus (GPa) = 53.88898 55.45920 54.67409
# Shear Modulus (GPa) = 28.64373 29.81148 29.22760
#
# Velocity S-wave (km/s) = 3.77627 3.85248 3.81457
# Velocity P-wave (km/s) = 6.77069 6.88470 6.82793
#
# Compressibility (1/GPa) = 0.01855667
#
# Stress axis : x y z
#
# Youngs Moduli (GPa) = 68.39473 79.11544 89.26355
#
# Poissons Ratio (x) = 0.36331 0.19378
# Poissons Ratio (y) = 0.31408 0.28479
# Poissons Ratio (z) = 0.14848 0.25241
#
# Static dielectric constant tensor:
#      x y z
#    x 3.854340 -0.000050 -0.072850 
#    y -0.000050 3.703430 0.000040 
#    z -0.072850 0.000040 3.683110 
# 
# 
# High freq. dielectric constant tensor:
#      x y z
#    x 1.783670 0.000000 -0.008890 
#    y 0.000000 1.793750 0.000000 
#    z -0.008890 0.000000 1.782340 
# 
# From -- ./inp_files/295464.got.cif
#   From: 2010.06.25/outbox.cif.g09.slc.cpg/sg12_148_cif.got.tgz:295464.got - 2010.06.28 00:19:55.
