data_PCOD8111384
_publ_section_title
;
Structure prediction by ZEFSAII (Michael W. Deem and Ramdas Pophale) SiO2 
 PCOD8111384
Probable space group: C 2/M
;
_chemical_formula_sum "Si O2"
_cell_formula_units_Z 64
_cell_length_a 29.921844
_cell_length_b 8.379150
_cell_length_c 12.042146
_cell_angle_alpha 90.000000
_cell_angle_beta 86.580806
_cell_angle_gamma 90.000000
_cell_volume 3013.827790
_symmetry_space_group_name_H-M "C 2/M"
_symmetry_group_IT_number 12
_symmetry_cell_setting 'monoclinic'
loop_
_space_group_symop_operation_xyz
x,y,z
-x,y,-z
-x,-y,-z
x,-y,z
1/2+x,1/2+y,z
1/2-x,1/2+y,-z
1/2-x,1/2-y,-z
1/2+x,1/2-y,z
loop_
_atom_site_type_symbol
_atom_site_label
_atom_site_fract_x
_atom_site_fract_y
_atom_site_fract_z
Si Si1 0.917854 0.185410 0.286152
Si Si2 0.891173 0.187423 0.527345
Si Si3 0.997782 0.812195 0.126310
Si Si4 0.711123 0.687534 0.426638
Si Si5 0.255178 0.815426 0.798430
Si Si6 0.082338 0.687312 0.242738
Si Si7 0.837638 0.689064 0.917429
Si Si8 0.160197 0.684321 0.836565
O O1 0.916763 0.251510 0.412922
O O2 0.869141 0.212406 0.241933
O O3 0.955927 0.264355 0.201628
O O4 0.927604 0.000000 0.293017
O O5 0.838381 0.225109 0.518994
O O6 0.913786 0.276320 0.627560
O O7 0.898326 0.000000 0.543999
O O8 0.041296 0.775962 0.191491
O O9 0.990947 0.000000 0.116577
O O10 0.000000 0.739525 0.000000
O O11 0.717521 0.500000 0.404031
O O12 0.750000 0.750000 0.500000
O O13 0.714905 0.788848 0.314360
O O14 0.287087 0.758158 0.894716
O O15 0.212027 0.704214 0.798907
O O16 0.240841 0.000000 0.810658
O O17 0.076163 0.500000 0.225223
O O18 0.126376 0.757094 0.175028
O O19 0.839575 0.500000 0.913198
O O20 0.848893 0.751646 0.038459
O O21 0.146868 0.500000 0.827577
#
# Coordination Sequence:
#
# PCOD8111384 Si02
#       8
#     8   8   8   8   8   8   8   8
#     4  10  22  41  62  86 119 158 198 244 303 359
#     4  10  22  40  60  84 117 157 201 247 298 358
#     4  10  22  41  65  93 123 157 200 245 297 366
#     4  11  22  36  57  85 117 158 207 256 304 359
#     4  11  21  37  57  81 118 159 201 245 299 362
#     4  11  22  39  64  91 121 158 200 249 306 357
#     4   9  20  37  57  84 119 157 196 246 301 359
#     4  11  22  37  58  87 120 154 200 250 303 361
#
# _framework density 21.235451999999999
#
# number of rings (size 3 to 8) (size 9 to 14) (size 15 to 20)
#    0.000    1.625    1.250    3.375    0.000    3.250 
#    0.000    6.250    0.000    0.000    0.000    0.000 
#    0.000    0.000    0.000    0.000    0.000    0.000 
#
# Total GULP energy -396782.212044 kJ/mol
# GULP energy per Si atom -12399.444126 kJ/mol
# Density = 2.118712 g / cm^3
# Si number density = 21.235452 Si / 1000 Ang^3
#
#
#
# Elastic Constant Matrix: (Units=GPa)
#
#
# Indices 1 2 3 4 5 6 
#
# 1 118.4875 6.3018 55.7625 0.0000 -2.4616 0.0000
# 2 6.3018 16.1461 10.9616 0.0000 -2.8115 0.0000
# 3 55.7625 10.9616 152.1756 0.0000 -8.3574 0.0000
# 4 0.0000 0.0000 0.0000 26.8082 0.0000 3.6912
# 5 -2.4616 -2.8115 -8.3574 0.0000 42.6458 0.0000
# 6 0.0000 0.0000 0.0000 3.6912 0.0000 25.8109
#
#
#
# Elastic Compliance Matrix: (Units=1/GPa)
#
#
# Indices 1 2 3 4 5 6 
#
# 1 0.010236 -0.001556 -0.003651 0.000000 -0.000227 0.000000
# 2 -0.001556 0.065850 -0.003983 0.000000 0.003471 0.000000
# 3 -0.003651 -0.003983 0.008259 0.000000 0.001145 0.000000
# 4 0.000000 0.000000 0.000000 0.038051 0.000000 -0.005442
# 5 -0.000227 0.003471 0.001145 0.000000 0.023889 0.000000
# 6 0.000000 0.000000 0.000000 -0.005442 0.000000 0.039522
#
#
# Mechanical properties :
#
#
# Convention : Reuss Voigt Hill
#
# Bulk Modulus (GPa) = 15.15937 48.09565 31.62751
# Shear Modulus (GPa) = 22.10675 33.30520 27.70598
#
# Velocity S-wave (km/s) = 3.23000 3.96457 3.61599
# Velocity P-wave (km/s) = 4.58963 6.60719 5.68857
#
# Compressibility (1/GPa) = 0.06596582
#
# Stress axis : x y z
#
# Youngs Moduli (GPa) = 97.69350 15.18601 121.07880
#
# Poissons Ratio (x) = 0.02363 0.44209
# Poissons Ratio (y) = 0.15200 0.48221
# Poissons Ratio (z) = 0.35671 0.06048
#
# Static dielectric constant tensor:
#      x y z
#    x 3.822700 0.000000 -0.311780 
#    y 0.000000 3.547170 0.000000 
#    z -0.311780 0.000000 3.959930 
# 
# 
# High freq. dielectric constant tensor:
#      x y z
#    x 1.835360 0.000000 -0.000920 
#    y 0.000000 1.808580 0.000000 
#    z -0.000920 0.000000 1.849710 
# 
# From -- ./inp_files/187545.got.cif
#   From: 2010.06.25/outbox.cif.g09.slc.cpg/sg12_94_cif.got.tgz:187545.got - 2010.06.28 00:19:55.
