data_PCOD8111695
_publ_section_title
;
Structure prediction by ZEFSAII (Michael W. Deem and Ramdas Pophale) SiO2 
 PCOD8111695
Probable space group: C 2/M
;
_chemical_formula_sum "Si O2"
_cell_formula_units_Z 64
_cell_length_a 12.055432
_cell_length_b 25.754206
_cell_length_c 15.845712
_cell_angle_alpha 90.000000
_cell_angle_beta 38.496244
_cell_angle_gamma 90.000000
_cell_volume 3062.361626
_symmetry_space_group_name_H-M "C 2/M"
_symmetry_group_IT_number 12
_symmetry_cell_setting 'monoclinic'
loop_
_space_group_symop_operation_xyz
x,y,z
-x,y,-z
-x,-y,-z
x,-y,z
1/2+x,1/2+y,z
1/2-x,1/2+y,-z
1/2-x,1/2-y,-z
1/2+x,1/2-y,z
loop_
_atom_site_type_symbol
_atom_site_label
_atom_site_fract_x
_atom_site_fract_y
_atom_site_fract_z
Si Si1 0.696808 0.560357 0.909679
Si Si2 0.393447 0.329188 0.722370
Si Si3 0.228689 0.860418 0.033212
Si Si4 0.382829 0.688323 0.200495
Si Si5 0.735234 0.154384 0.461335
Si Si6 0.080818 0.309053 0.796935
Si Si7 0.009676 0.558106 0.594616
Si Si8 0.565518 0.209806 0.287965
O O1 0.691515 0.500000 0.936625
O O2 0.824542 0.570568 0.753063
O O3 0.500000 0.579977 0.000000
O O4 0.763721 0.587941 0.957029
O O5 0.349059 0.368736 0.826039
O O6 0.598661 0.337756 0.572570
O O7 0.257059 0.338721 0.726343
O O8 0.388698 0.269475 0.759494
O O9 0.086792 0.827508 0.060972
O O10 0.406469 0.827882 0.950874
O O11 0.309737 0.654765 0.322075
O O12 0.376991 0.748970 0.222081
O O13 0.248116 0.679076 0.202320
O O14 0.655446 0.099352 0.537229
O O15 0.587310 0.200954 0.550107
O O16 0.027721 0.321775 0.732684
O O17 0.073224 0.500000 0.580623
O O18 0.000000 0.564013 0.500000
#
# Coordination Sequence:
#
# PCOD8111695 Si02
#       8
#     8   8   8   8   8   8   8   8
#     4  10  24  43  66  98 127 158 207 263 323 387
#     4  10  24  38  54  85 125 168 223 259 302 376
#     4  11  22  39  61  86 125 167 207 259 321 374
#     4  10  23  35  55  90 128 166 221 258 312 383
#     4  11  21  38  58  87 126 169 214 259 319 380
#     4  11  22  38  56  82 126 174 212 266 298 372
#     4  10  22  40  65  96 130 162 201 263 328 383
#     4  11  21  36  55  82 120 171 209 266 309 367
#
# _framework density 20.898903000000001
#
# number of rings (size 3 to 8) (size 9 to 14) (size 15 to 20)
#    0.000    1.500    2.500    3.000    7.000    0.500 
#    0.000    0.000    0.000    2.250    0.000    2.625 
#    0.000    0.000    0.000    0.000    0.000    0.000 
#
# Total GULP energy -396450.862888 kJ/mol
# GULP energy per Si atom -12389.089465 kJ/mol
# Density = 2.085134 g / cm^3
# Si number density = 20.898903 Si / 1000 Ang^3
#
#
#
# Elastic Constant Matrix: (Units=GPa)
#
#
# Indices 1 2 3 4 5 6 
#
# 1 169.2515 33.4124 37.3232 0.0006 -28.5311 0.0008
# 2 33.4124 74.7054 36.7584 -0.0001 -5.1285 0.0005
# 3 37.3232 36.7584 61.7848 0.0013 -18.1536 0.0010
# 4 0.0006 -0.0001 0.0013 30.6427 -0.0010 -3.2962
# 5 -28.5311 -5.1285 -18.1536 -0.0010 39.4337 -0.0008
# 6 0.0008 0.0005 0.0010 -3.2962 -0.0008 20.8007
#
#
#
# Elastic Compliance Matrix: (Units=1/GPa)
#
#
# Indices 1 2 3 4 5 6 
#
# 1 0.007473 -0.002035 -0.002073 0.000000 0.004188 0.000000
# 2 -0.002035 0.019824 -0.011842 0.000001 -0.004346 0.000000
# 3 -0.002073 -0.011842 0.027280 -0.000001 0.009518 -0.000001
# 4 0.000000 0.000001 -0.000001 0.033200 0.000001 0.005261
# 5 0.004188 -0.004346 0.009518 0.000001 0.032206 0.000001
# 6 0.000000 0.000000 -0.000001 0.005261 0.000001 0.048909
#
#
# Mechanical properties :
#
#
# Convention : Reuss Voigt Hill
#
# Bulk Modulus (GPa) = 44.09762 57.85885 50.97823
# Shear Modulus (GPa) = 23.99788 31.39193 27.69490
#
# Velocity S-wave (km/s) = 3.39231 3.87988 3.64426
# Velocity P-wave (km/s) = 6.04069 6.91495 6.49255
#
# Compressibility (1/GPa) = 0.02267696
#
# Stress axis : x y z
#
# Youngs Moduli (GPa) = 133.81068 50.44265 36.65725
#
# Poissons Ratio (x) = 0.10264 0.07601
# Poissons Ratio (y) = 0.27227 0.43410
# Poissons Ratio (z) = 0.27745 0.59735
#
# Static dielectric constant tensor:
#      x y z
#    x 4.165520 0.000000 -0.331430 
#    y 0.000000 3.583950 0.000000 
#    z -0.331430 0.000000 4.009360 
# 
# 
# High freq. dielectric constant tensor:
#      x y z
#    x 1.815330 0.000000 -0.014700 
#    y 0.000000 1.784210 0.000000 
#    z -0.014700 0.000000 1.830060 
# 
# From -- ./inp_files/209383.got.cif
#   From: 2010.06.25/outbox.cif.g09.slc.cpg/sg12_105_cif.got.tgz:209383.got - 2010.06.28 00:19:55.
