data_PCOD8111465
_publ_section_title
;
Structure prediction by ZEFSAII (Michael W. Deem and Ramdas Pophale) SiO2 
 PCOD8111465
Probable space group: C 2/M
;
_chemical_formula_sum "Si O2"
_cell_formula_units_Z 40
_cell_length_a 25.915603
_cell_length_b 10.151472
_cell_length_c 9.367062
_cell_angle_alpha 90.000000
_cell_angle_beta 133.517094
_cell_angle_gamma 90.000000
_cell_volume 1787.034541
_symmetry_space_group_name_H-M "C 2/M"
_symmetry_group_IT_number 12
_symmetry_cell_setting 'monoclinic'
loop_
_space_group_symop_operation_xyz
x,y,z
-x,y,-z
-x,-y,-z
x,-y,z
1/2+x,1/2+y,z
1/2-x,1/2+y,-z
1/2-x,1/2-y,-z
1/2+x,1/2-y,z
loop_
_atom_site_type_symbol
_atom_site_label
_atom_site_fract_x
_atom_site_fract_y
_atom_site_fract_z
Si Si1 0.123633 0.791871 0.488975
Si Si2 0.032774 0.142982 0.760589
Si Si3 0.223428 0.643901 0.173331
Si Si4 0.108848 0.354421 0.727722
Si Si5 0.644264 0.655835 0.209605
O O1 0.191629 0.867012 0.685169
O O2 0.117319 0.659113 0.572347
O O3 0.134881 0.770736 0.342419
O O4 0.050873 0.871659 0.370294
O O5 0.050934 0.251370 0.676704
O O6 0.059444 0.000000 0.755399
O O7 0.071505 0.175962 0.983620
O O8 0.197681 0.500000 0.183016
O O9 0.206883 0.764076 0.249690
O O10 0.184995 0.670614 0.948754
O O11 0.079749 0.500000 0.705235
O O12 0.663865 0.500000 0.265028
#
# Coordination Sequence:
#
# PCOD8111465 Si02
#       5
#     8   8   8   8   8
#     4  12  22  35  62  92 118 152 197 243 290 345
#     4  10  22  40  62  88 119 154 194 242 294 347
#     4  10  22  41  62  86 119 157 196 240 291 348
#     4  10  24  43  60  84 121 159 196 241 292 347
#     4  10  22  40  61  88 121 154 192 241 294 349
#
# _framework density 22.383451000000001
#
# number of rings (size 3 to 8) (size 9 to 14) (size 15 to 20)
#    0.000    1.600    0.000    4.200    0.000    8.000 
#    0.000    4.000    0.000    6.000    0.000    0.000 
#    0.000    0.000    0.000    0.000    0.000    0.000 
#
# Total GULP energy -247819.291914 kJ/mol
# GULP energy per Si atom -12390.964596 kJ/mol
# Density = 2.233251 g / cm^3
# Si number density = 22.383451 Si / 1000 Ang^3
#
#
#
# Elastic Constant Matrix: (Units=GPa)
#
#
# Indices 1 2 3 4 5 6 
#
# 1 91.2848 61.2259 58.8328 0.0000 8.3648 0.0000
# 2 61.2259 137.6967 47.2795 0.0000 -10.6081 0.0000
# 3 58.8328 47.2795 128.0240 0.0000 -0.1781 0.0000
# 4 0.0000 0.0000 0.0000 12.3647 0.0000 -13.3136
# 5 8.3648 -10.6081 -0.1781 0.0000 49.2383 0.0000
# 6 0.0000 0.0000 0.0000 -13.3136 0.0000 18.4963
#
#
#
# Elastic Compliance Matrix: (Units=1/GPa)
#
#
# Indices 1 2 3 4 5 6 
#
# 1 0.020688 -0.007243 -0.006839 0.000000 -0.005100 0.000000
# 2 -0.007243 0.011012 -0.000733 0.000000 0.003600 0.000000
# 3 -0.006839 -0.000733 0.011226 0.000000 0.001045 0.000000
# 4 0.000000 0.000000 0.000000 0.359520 0.000000 0.258783
# 5 -0.005100 0.003600 0.001045 0.000000 0.021955 0.000000
# 6 0.000000 0.000000 0.000000 0.258783 0.000000 0.240337
#
#
# Mechanical properties :
#
#
# Convention : Reuss Voigt Hill
#
# Bulk Modulus (GPa) = 75.21654 76.85354 76.03504
# Shear Modulus (GPa) = 7.15510 28.66434 17.90972
#
# Velocity S-wave (km/s) = 1.78984 3.58244 2.83173
# Velocity P-wave (km/s) = 6.16019 7.17783 6.68840
#
# Compressibility (1/GPa) = 0.01329495
#
# Stress axis : x y z
#
# Youngs Moduli (GPa) = 48.33678 90.80860 89.07760
#
# Poissons Ratio (x) = 0.65777 0.60922
# Poissons Ratio (y) = 0.35012 0.06531
# Poissons Ratio (z) = 0.33059 0.06657
#
# Static dielectric constant tensor:
#      x y z
#    x 3.807640 0.000000 0.086100 
#    y 0.000000 3.957530 0.000000 
#    z 0.086100 0.000000 4.412410 
# 
# 
# High freq. dielectric constant tensor:
#      x y z
#    x 1.856960 0.000000 0.010400 
#    y 0.000000 1.872250 0.000000 
#    z 0.010400 0.000000 1.913420 
# 
# From -- ./inp_files/102872.got.cif
#   From: 2010.06.25/outbox.cif.g09.slc.cpg/sg12_52_cif.got.tgz:102872.got - 2010.06.28 00:19:55.
