data_PCOD8111796
_publ_section_title
;
Structure prediction by ZEFSAII (Michael W. Deem and Ramdas Pophale) SiO2 
 PCOD8111796
Probable space group: C 2/M
;
_chemical_formula_sum "Si O2"
_cell_formula_units_Z 44
_cell_length_a 12.621534
_cell_length_b 25.583205
_cell_length_c 12.089841
_cell_angle_alpha 90.000000
_cell_angle_beta 35.383244
_cell_angle_gamma 90.000000
_cell_volume 2260.467783
_symmetry_space_group_name_H-M "C 2/M"
_symmetry_group_IT_number 12
_symmetry_cell_setting 'monoclinic'
loop_
_space_group_symop_operation_xyz
x,y,z
-x,y,-z
-x,-y,-z
x,-y,z
1/2+x,1/2+y,z
1/2-x,1/2+y,-z
1/2-x,1/2-y,-z
1/2+x,1/2-y,z
loop_
_atom_site_type_symbol
_atom_site_label
_atom_site_fract_x
_atom_site_fract_y
_atom_site_fract_z
Si Si1 0.621606 0.388570 0.619340
Si Si2 0.801414 0.500000 0.775018
Si Si3 0.000000 0.165188 0.500000
Si Si4 0.174638 0.826872 0.005434
Si Si5 0.956761 0.000000 0.217933
Si Si6 0.020229 0.392272 0.361255
Si Si7 0.684811 0.218980 0.890935
O O1 0.562502 0.372399 0.546336
O O2 0.521491 0.351602 0.795346
O O3 0.569413 0.448866 0.683815
O O4 0.838599 0.379863 0.445631
O O5 0.688228 0.500000 0.757769
O O6 0.945337 0.453427 0.657902
O O7 0.662704 0.500000 0.996192
O O8 0.157235 0.205357 0.330160
O O9 0.279437 0.806810 0.022841
O O10 0.298086 0.871622 0.850022
O O11 0.156090 0.781036 0.931267
O O12 0.000000 0.367039 0.500000
O O13 0.500000 0.194396 0.000000
#
# Coordination Sequence:
#
# PCOD8111796 Si02
#       7
#     8   4   4   8   4   8   8
#     4  11  23  41  63  88 123 161 200 246 298 355
#     4  11  22  39  59  93 127 159 187 241 314 357
#     4  10  24  43  64  86 114 165 212 246 290 350
#     4  10  24  39  57  93 119 155 199 248 301 355
#     4  11  21  39  64  86 131 160 190 247 301 362
#     4  12  23  36  62  92 121 154 197 241 302 367
#     4  10  22  41  62  82 122 158 199 250 300 348
#
# _framework density 19.464997
#
# number of rings (size 3 to 8) (size 9 to 14) (size 15 to 20)
#    0.000    1.273    3.636    1.909    3.818    0.364 
#    0.000    5.455    0.000    1.091    0.000    0.000 
#    0.000    0.000    0.000    0.000    0.000    0.000 
#
# Total GULP energy -272811.185419 kJ/mol
# GULP energy per Si atom -12400.508428 kJ/mol
# Density = 1.942069 g / cm^3
# Si number density = 19.464997 Si / 1000 Ang^3
#
#
#
# Elastic Constant Matrix: (Units=GPa)
#
#
# Indices 1 2 3 4 5 6 
#
# 1 94.4745 35.9930 59.2376 0.0000 -14.1565 0.0015
# 2 35.9930 92.2735 18.0231 0.0000 15.0972 0.0008
# 3 59.2376 18.0231 92.7045 0.0000 10.4412 0.0016
# 4 0.0000 0.0000 0.0000 32.3516 0.0000 -11.8918
# 5 -14.1565 15.0972 10.4412 0.0000 29.5624 -0.0007
# 6 0.0015 0.0008 0.0016 -11.8918 -0.0007 215.1758
#
#
#
# Elastic Compliance Matrix: (Units=1/GPa)
#
#
# Indices 1 2 3 4 5 6 
#
# 1 0.036607 -0.015069 -0.024268 0.000000 0.033796 0.000000
# 2 -0.015069 0.018287 0.008267 0.000000 -0.019474 0.000000
# 3 -0.024268 0.008267 0.027568 0.000000 -0.025580 0.000000
# 4 0.000000 0.000000 0.000000 0.031551 0.000000 0.001744
# 5 0.033796 -0.019474 -0.025580 0.000000 0.068991 0.000000
# 6 0.000000 0.000000 0.000000 0.001744 0.000000 0.004744
#
#
# Mechanical properties :
#
#
# Convention : Reuss Voigt Hill
#
# Bulk Modulus (GPa) = 49.20901 56.21778 52.71339
# Shear Modulus (GPa) = 19.48093 66.49787 42.98940
#
# Velocity S-wave (km/s) = 3.16700 5.85124 4.70462
# Velocity P-wave (km/s) = 6.22165 8.63675 7.52670
#
# Compressibility (1/GPa) = 0.02032148
#
# Stress axis : x y z
#
# Youngs Moduli (GPa) = 27.31742 54.68458 36.27381
#
# Poissons Ratio (x) = 0.82402 0.88030
# Poissons Ratio (y) = 0.41163 -0.29987
# Poissons Ratio (z) = 0.66295 -0.45207
#
# Static dielectric constant tensor:
#      x y z
#    x 3.470530 0.000000 -0.013310 
#    y 0.000000 3.633490 0.000000 
#    z -0.013310 0.000000 3.724520 
# 
# 
# High freq. dielectric constant tensor:
#      x y z
#    x 1.755020 0.000000 -0.006450 
#    y 0.000000 1.760880 0.000000 
#    z -0.006450 0.000000 1.776560 
# 
# From -- ./inp_files/135774.got.cif
#   From: 2010.06.25/outbox.cif.g09.slc.cpg/sg12_68_cif.got.tgz:135774.got - 2010.06.28 00:19:55.
