data_PCOD8111679
_publ_section_title
;
Structure prediction by ZEFSAII (Michael W. Deem and Ramdas Pophale) SiO2 
 PCOD8111679
Probable space group: C 2/M
;
_chemical_formula_sum "Si O2"
_cell_formula_units_Z 56
_cell_length_a 11.185421
_cell_length_b 28.159976
_cell_length_c 10.034068
_cell_angle_alpha 90.000000
_cell_angle_beta 129.129343
_cell_angle_gamma 90.000000
_cell_volume 2451.706624
_symmetry_space_group_name_H-M "C 2/M"
_symmetry_group_IT_number 12
_symmetry_cell_setting 'monoclinic'
loop_
_space_group_symop_operation_xyz
x,y,z
-x,y,-z
-x,-y,-z
x,-y,z
1/2+x,1/2+y,z
1/2-x,1/2+y,-z
1/2-x,1/2-y,-z
1/2+x,1/2-y,z
loop_
_atom_site_type_symbol
_atom_site_label
_atom_site_fract_x
_atom_site_fract_y
_atom_site_fract_z
Si Si1 0.070739 0.259275 0.407644
Si Si2 0.946320 0.808095 0.103064
Si Si3 0.224089 0.381277 0.925095
Si Si4 0.452649 0.500000 0.686903
Si Si5 0.246519 0.000000 0.710833
Si Si6 0.837523 0.599234 0.838866
Si Si7 0.390086 0.132955 0.611836
Si Si8 0.138526 0.902940 0.245409
O O1 0.250000 0.250000 0.500000
O O2 0.054318 0.315384 0.390012
O O3 0.000000 0.242397 0.500000
O O4 0.965531 0.232372 0.226119
O O5 0.038249 0.856270 0.209486
O O6 0.767188 0.824585 0.959125
O O7 0.000000 0.786461 0.000000
O O8 0.336821 0.406686 0.897306
O O9 0.049207 0.393766 0.762543
O O10 0.271280 0.399112 0.107560
O O11 0.617307 0.500000 0.733286
O O12 0.321386 0.500000 0.483992
O O13 0.436080 0.452299 0.762096
O O14 0.354628 0.954532 0.801020
O O15 0.783328 0.630845 0.672199
O O16 0.000000 0.620634 0.000000
O O17 0.304978 0.106177 0.431999
#
# Coordination Sequence:
#
# PCOD8111679 Si02
#       8
#     8   8   8   4   4   8   8   8
#     4  12  27  46  72 108 139 187 235 288 350 421
#     4  10  24  43  68  97 140 177 226 282 349 407
#     4  10  23  40  65  98 130 182 214 287 342 408
#     4  11  24  37  69  96 128 174 227 287 341 415
#     4  11  21  41  60  99 128 170 227 283 344 412
#     4  10  22  40  65  93 131 174 221 278 346 409
#     4  11  23  43  68  91 138 175 231 278 340 413
#     4  11  21  44  65  95 134 174 226 279 344 410
#
# _framework density 22.841234
#
# number of rings (size 3 to 8) (size 9 to 14) (size 15 to 20)
#    0.000    1.286    2.857    2.357    4.000    2.857 
#    2.571    6.071    0.000    0.000    0.000    0.000 
#    0.000    0.000    0.000    0.000    0.000    0.000 
#
# Total GULP energy -346917.213043 kJ/mol
# GULP energy per Si atom -12389.900466 kJ/mol
# Density = 2.278925 g / cm^3
# Si number density = 22.841234 Si / 1000 Ang^3
#
#
#
# Elastic Constant Matrix: (Units=GPa)
#
#
# Indices 1 2 3 4 5 6 
#
# 1 77.4278 7.7955 39.5849 0.0000 -29.3372 0.0000
# 2 7.7955 78.2013 25.1954 0.0000 -24.7523 0.0000
# 3 39.5849 25.1954 90.5451 0.0000 -34.1819 0.0000
# 4 0.0000 0.0000 0.0000 41.4452 0.0000 -1.4192
# 5 -29.3372 -24.7523 -34.1819 0.0000 49.8770 0.0000
# 6 0.0000 0.0000 0.0000 -1.4192 0.0000 23.0947
#
#
#
# Elastic Compliance Matrix: (Units=1/GPa)
#
#
# Indices 1 2 3 4 5 6 
#
# 1 0.018787 0.002649 -0.005777 0.000000 0.008406 0.000000
# 2 0.002649 0.015780 -0.002704 0.000000 0.007536 0.000000
# 3 -0.005777 -0.002704 0.016907 0.000000 0.006847 0.000000
# 4 0.000000 0.000000 0.000000 0.024179 0.000000 0.001486
# 5 0.008406 0.007536 0.006847 0.000000 0.033426 0.000000
# 6 0.000000 0.000000 0.000000 0.001486 0.000000 0.043391
#
#
# Mechanical properties :
#
#
# Convention : Reuss Voigt Hill
#
# Bulk Modulus (GPa) = 25.11960 43.48066 34.30013
# Shear Modulus (GPa) = 28.18411 34.45660 31.32035
#
# Velocity S-wave (km/s) = 3.51652 3.88819 3.70702
# Velocity P-wave (km/s) = 5.24493 6.26376 5.77685
#
# Compressibility (1/GPa) = 0.03980956
#
# Stress axis : x y z
#
# Youngs Moduli (GPa) = 53.22802 63.37126 59.14651
#
# Poissons Ratio (x) = -0.16788 0.34171
# Poissons Ratio (y) = -0.14101 0.15995
# Poissons Ratio (z) = 0.30752 0.17137
#
# Static dielectric constant tensor:
#      x y z
#    x 4.306880 0.000000 -0.203820 
#    y 0.000000 3.898640 0.000000 
#    z -0.203820 0.000000 4.456930 
# 
# 
# High freq. dielectric constant tensor:
#      x y z
#    x 1.905930 0.000000 -0.011650 
#    y 0.000000 1.878620 0.000000 
#    z -0.011650 0.000000 1.920660 
# 
# From -- ./inp_files/54845.got.cif
#   From: 2010.06.25/outbox.cif.g09.slc.cpg/sg12_28_cif.got.tgz:54845.got - 2010.06.28 00:19:55.
