data_PCOD8111740
_publ_section_title
;
Structure prediction by ZEFSAII (Michael W. Deem and Ramdas Pophale) SiO2 
 PCOD8111740
Probable space group: C 2/M
;
_chemical_formula_sum "Si O2"
_cell_formula_units_Z 48
_cell_length_a 20.684604
_cell_length_b 21.363932
_cell_length_c 14.354896
_cell_angle_alpha 90.000000
_cell_angle_beta 159.534031
_cell_angle_gamma 90.000000
_cell_volume 2218.008461
_symmetry_space_group_name_H-M "C 2/M"
_symmetry_group_IT_number 12
_symmetry_cell_setting 'monoclinic'
loop_
_space_group_symop_operation_xyz
x,y,z
-x,y,-z
-x,-y,-z
x,-y,z
1/2+x,1/2+y,z
1/2-x,1/2+y,-z
1/2-x,1/2-y,-z
1/2+x,1/2-y,z
loop_
_atom_site_type_symbol
_atom_site_label
_atom_site_fract_x
_atom_site_fract_y
_atom_site_fract_z
Si Si1 0.827367 0.069527 0.534651
Si Si2 0.196841 0.115867 0.089975
Si Si3 0.371128 0.361685 0.414352
Si Si4 0.930544 0.768323 0.187591
Si Si5 0.511972 0.856316 0.200254
Si Si6 0.987816 0.572584 0.618243
O O1 0.879816 0.079737 0.496886
O O2 0.687837 0.125015 0.375451
O O3 0.741729 0.000000 0.431118
O O4 0.012986 0.073410 0.847483
O O5 0.312217 0.111729 0.341408
O O6 0.323984 0.091179 0.177982
O O7 0.132021 0.186543 0.981244
O O8 0.500000 0.375953 0.500000
O O9 0.434278 0.300272 0.555596
O O10 0.163400 0.350191 0.102259
O O11 0.038970 0.709130 0.290931
O O12 0.750000 0.750000 0.000000
O O13 0.485722 0.912474 0.238128
O O14 0.945046 0.500000 0.545017
#
# Coordination Sequence:
#
# PCOD8111740 Si02
#       6
#     8   8   8   8   8   8
#     4  11  25  46  66  95 141 182 226 286 350 416
#     4  10  22  40  67  97 129 181 229 291 339 400
#     4  11  24  42  69 101 129 177 230 282 338 411
#     4  11  22  42  70  97 135 172 232 285 342 408
#     4  12  25  40  67 100 135 181 220 277 355 409
#     4  11  22  39  67 101 133 176 236 284 338 410
#
# _framework density 21.641036
#
# number of rings (size 3 to 8) (size 9 to 14) (size 15 to 20)
#    0.000    1.000    3.333    4.000    2.333    5.667 
#    0.000    1.667    0.000    0.000    0.000    0.000 
#    0.000    0.000    0.000    0.000    0.000    0.000 
#
# Total GULP energy -297632.843655 kJ/mol
# GULP energy per Si atom -12401.368486 kJ/mol
# Density = 2.159178 g / cm^3
# Si number density = 21.641036 Si / 1000 Ang^3
#
#
#
# Elastic Constant Matrix: (Units=GPa)
#
#
# Indices 1 2 3 4 5 6 
#
# 1 77.9350 54.8981 47.7574 0.0000 5.0717 0.0000
# 2 54.8981 126.0520 39.0242 0.0000 9.9437 0.0000
# 3 47.7574 39.0242 160.4940 0.0000 0.4889 0.0000
# 4 0.0000 0.0000 0.0000 25.7298 0.0000 6.5255
# 5 5.0717 9.9437 0.4889 0.0000 30.5369 0.0000
# 6 0.0000 0.0000 0.0000 6.5255 0.0000 27.5797
#
#
#
# Elastic Compliance Matrix: (Units=1/GPa)
#
#
# Indices 1 2 3 4 5 6 
#
# 1 0.021011 -0.007726 -0.004371 0.000000 -0.000904 0.000000
# 2 -0.007726 0.011659 -0.000528 0.000000 -0.002505 0.000000
# 3 -0.004371 -0.000528 0.007657 0.000000 0.000775 0.000000
# 4 0.000000 0.000000 0.000000 0.041346 0.000000 -0.009783
# 5 -0.000904 -0.002505 0.000775 0.000000 0.033701 0.000000
# 6 0.000000 0.000000 0.000000 -0.009783 0.000000 0.038573
#
#
# Mechanical properties :
#
#
# Convention : Reuss Voigt Hill
#
# Bulk Modulus (GPa) = 66.32566 71.98228 69.15397
# Shear Modulus (GPa) = 27.14092 31.62271 29.38182
#
# Velocity S-wave (km/s) = 3.54523 3.82676 3.68868
# Velocity P-wave (km/s) = 6.89005 7.27046 7.08281
#
# Compressibility (1/GPa) = 0.01507712
#
# Stress axis : x y z
#
# Youngs Moduli (GPa) = 47.59484 85.76855 130.59239
#
# Poissons Ratio (x) = 0.66266 0.57078
# Poissons Ratio (y) = 0.36773 0.06899
# Poissons Ratio (z) = 0.20802 0.04531
#
# Static dielectric constant tensor:
#      x y z
#    x 3.985040 0.000000 -0.121690 
#    y 0.000000 3.990770 0.000000 
#    z -0.121690 0.000000 4.039890 
# 
# 
# High freq. dielectric constant tensor:
#      x y z
#    x 1.843990 0.000000 -0.004930 
#    y 0.000000 1.849690 0.000000 
#    z -0.004930 0.000000 1.860470 
# 
# From -- ./inp_files/235555.got.cif
#   From: 2010.06.25/outbox.cif.g09.slc.cpg/sg12_118_cif.got.tgz:235555.got - 2010.06.28 00:19:55.
