data_PCOD8111275
_publ_section_title
;
Structure prediction by ZEFSAII (Michael W. Deem and Ramdas Pophale) SiO2 
 PCOD8111275
Probable space group: C 2/M
;
_chemical_formula_sum "Si O2"
_cell_formula_units_Z 32
_cell_length_a 21.688406
_cell_length_b 13.371219
_cell_length_c 19.722805
_cell_angle_alpha 90.000000
_cell_angle_beta 12.948071
_cell_angle_gamma 90.000000
_cell_volume 1281.583426
_symmetry_space_group_name_H-M "C 2/M"
_symmetry_group_IT_number 12
_symmetry_cell_setting 'monoclinic'
loop_
_space_group_symop_operation_xyz
x,y,z
-x,y,-z
-x,-y,-z
x,-y,z
1/2+x,1/2+y,z
1/2-x,1/2+y,-z
1/2-x,1/2-y,-z
1/2+x,1/2-y,z
loop_
_atom_site_type_symbol
_atom_site_label
_atom_site_fract_x
_atom_site_fract_y
_atom_site_fract_z
Si Si1 0.732148 0.885724 0.828139
Si Si2 0.685480 0.262258 0.692781
Si Si3 0.075356 0.888361 0.226408
Si Si4 0.810211 0.614107 0.833191
O O1 0.777350 0.868019 0.859793
O O2 0.000000 0.851458 0.500000
O O3 0.655186 0.000000 0.893442
O O4 0.472180 0.815006 0.087353
O O5 0.831304 0.192546 0.479169
O O6 0.922559 0.324616 0.478753
O O7 0.473968 0.342257 0.889946
O O8 0.945780 0.000000 0.363882
O O9 0.299760 0.877351 0.926332
O O10 0.836171 0.500000 0.780717
#
# Coordination Sequence:
#
# PCOD8111275 Si02
#       4
#     8   8   8   8
#     4  10  23  42  65  96 131 167 209 257 312 379
#     4  12  22  42  65  93 129 168 211 252 322 372
#     4  10  22  39  63  99 132 164 203 256 321 383
#     4  11  25  40  64  96 131 164 209 263 313 372
#
# _framework density 24.969111999999999
#
# number of rings (size 3 to 8) (size 9 to 14) (size 15 to 20)
#    0.000    1.250    2.500    3.000    3.500    1.000 
#    0.000    3.750    0.000    4.500    0.000    0.000 
#    0.000    0.000    0.000    0.000    0.000    0.000 
#
# Total GULP energy -198351.006836 kJ/mol
# GULP energy per Si atom -12396.937927 kJ/mol
# Density = 2.491228 g / cm^3
# Si number density = 24.969112 Si / 1000 Ang^3
#
#
#
# Elastic Constant Matrix: (Units=GPa)
#
#
# Indices 1 2 3 4 5 6 
#
# 1 37.4523 -2.9344 12.9299 0.2421 -6.2212 -0.0423
# 2 -2.9344 202.1625 95.6342 0.2041 -15.3796 0.3411
# 3 12.9299 95.6342 151.2665 -0.5986 -22.5379 0.3881
# 4 0.2421 0.2041 -0.5986 56.7507 0.1486 2.7541
# 5 -6.2212 -15.3796 -22.5379 0.1486 34.5306 -0.1056
# 6 -0.0423 0.3411 0.3881 2.7541 -0.1056 -2.8113
#
#
#
# Elastic Compliance Matrix: (Units=1/GPa)
#
#
# Indices 1 2 3 4 5 6 
#
# 1 0.028686 0.002282 -0.003292 -0.000133 0.004034 -0.000891
# 2 0.002282 0.007241 -0.004688 -0.000091 0.000577 0.000087
# 3 -0.003292 -0.004688 0.010473 0.000089 0.004157 0.000857
# 4 -0.000133 -0.000091 0.000089 0.016823 -0.000028 0.016485
# 5 0.004034 0.000577 0.004157 -0.000028 0.032655 -0.000671
# 6 -0.000891 0.000087 0.000857 0.016485 -0.000671 -0.339389
#
#
# Mechanical properties :
#
#
# Convention : Reuss Voigt Hill
#
# Bulk Modulus (GPa) = 28.56699 66.90453 47.73576
# Shear Modulus (GPa) = -22.68120 36.71077 7.01478
#
# Velocity S-wave (km/s) = -3.01719 3.83854 1.67794
# Velocity P-wave (km/s) = 0.81983 6.81901 4.78680
#
# Compressibility (1/GPa) = 0.03500543
#
# Stress axis : x y z
#
# Youngs Moduli (GPa) = 34.86030 138.10270 95.48004
#
# Poissons Ratio (x) = -0.31518 0.31433
# Poissons Ratio (y) = -0.07956 0.44757
# Poissons Ratio (z) = 0.11476 0.64736
#
# Static dielectric constant tensor:
#      x y z
#    x 4.065490 -0.000280 0.088720 
#    y -0.000280 4.948250 0.002740 
#    z 0.088720 0.002740 4.512900 
# 
# 
# High freq. dielectric constant tensor:
#      x y z
#    x 1.958430 -0.000040 -0.004040 
#    y -0.000040 2.019500 0.000160 
#    z -0.004040 0.000160 1.998840 
# 
# From -- ./inp_files/23852.got.cif
#   From: 2010.06.25/outbox.cif.g09.slc.cpg/sg12_12_cif.got.tgz:23852.got - 2010.06.28 00:19:55.
