data_PCOD8111617
_publ_section_title
;
Structure prediction by ZEFSAII (Michael W. Deem and Ramdas Pophale) SiO2 
 PCOD8111617
Probable space group: C 2/M
;
_chemical_formula_sum "Si O2"
_cell_formula_units_Z 64
_cell_length_a 14.139535
_cell_length_b 18.807944
_cell_length_c 24.502026
_cell_angle_alpha 90.000000
_cell_angle_beta 149.817927
_cell_angle_gamma 90.000000
_cell_volume 3275.895933
_symmetry_space_group_name_H-M "C 2/M"
_symmetry_group_IT_number 12
_symmetry_cell_setting 'monoclinic'
loop_
_space_group_symop_operation_xyz
x,y,z
-x,y,-z
-x,-y,-z
x,-y,z
1/2+x,1/2+y,z
1/2-x,1/2+y,-z
1/2-x,1/2-y,-z
1/2+x,1/2-y,z
loop_
_atom_site_type_symbol
_atom_site_label
_atom_site_fract_x
_atom_site_fract_y
_atom_site_fract_z
Si Si1 0.472253 0.189989 0.244393
Si Si2 0.315506 0.185412 0.870656
Si Si3 0.186235 0.418972 0.558173
Si Si4 0.805288 0.742476 0.748738
Si Si5 0.911414 0.694641 0.577763
Si Si6 0.415298 0.417171 0.194078
Si Si7 0.809875 0.917071 0.936980
Si Si8 0.145120 0.174490 0.936165
O O1 0.329566 0.255897 0.177775
O O2 0.626776 0.205516 0.273919
O O3 0.562864 0.171794 0.347275
O O4 0.365893 0.116518 0.181118
O O5 0.355184 0.193455 0.826052
O O6 0.214540 0.107479 0.820121
O O7 0.500000 0.191950 0.000000
O O8 0.211786 0.500000 0.551614
O O9 0.164781 0.372345 0.493672
O O10 0.366879 0.396760 0.684965
O O11 0.000000 0.408159 0.500000
O O12 0.589639 0.767070 0.637992
O O13 0.922520 0.813517 0.819518
O O14 0.750000 0.750000 0.500000
O O15 0.395168 0.500000 0.169999
O O16 0.307806 0.368185 0.095403
O O17 0.775650 0.000000 0.926829
O O18 0.816808 0.881375 0.998653
O O19 0.000000 0.899750 0.000000
O O20 0.250000 0.250000 0.000000
#
# Coordination Sequence:
#
# PCOD8111617 Si02
#       8
#     8   8   8   8   8   8   8   8
#     4  11  22  41  60  91 123 166 212 253 315 368
#     4  11  22  37  60  92 123 162 210 247 309 363
#     4  10  22  40  64  90 122 161 202 259 328 374
#     4  11  22  37  64  90 123 162 208 259 307 371
#     4  11  25  38  63  94 125 158 211 273 310 372
#     4  11  23  40  60  87 125 160 202 254 304 371
#     4  11  23  38  59  92 131 167 206 252 306 375
#     4  12  21  37  64  90 122 164 205 252 306 368
#
# _framework density 19.536640999999999
#
# number of rings (size 3 to 8) (size 9 to 14) (size 15 to 20)
#    0.000    1.000    2.500    6.000    1.750    0.750 
#    0.000    3.750    0.000    0.750    0.000    3.500 
#    0.000    0.000    0.000    0.000    0.000    0.000 
#
# Total GULP energy -396512.038324 kJ/mol
# GULP energy per Si atom -12391.001198 kJ/mol
# Density = 1.949217 g / cm^3
# Si number density = 19.536641 Si / 1000 Ang^3
#
#
#
# Elastic Constant Matrix: (Units=GPa)
#
#
# Indices 1 2 3 4 5 6 
#
# 1 120.4615 58.9985 44.1674 0.0015 -11.4596 -0.0011
# 2 58.9985 99.4812 68.1107 -0.0033 -12.8190 0.0001
# 3 44.1674 68.1107 91.2746 -0.0165 -18.0874 0.0014
# 4 0.0015 -0.0033 -0.0165 38.4914 -0.0005 2.5564
# 5 -11.4596 -12.8190 -18.0874 -0.0005 34.3664 0.0000
# 6 -0.0011 0.0001 0.0014 2.5564 0.0000 29.3654
#
#
#
# Elastic Compliance Matrix: (Units=1/GPa)
#
#
# Indices 1 2 3 4 5 6 
#
# 1 0.011786 -0.006324 -0.000751 -0.000001 0.001176 0.000001
# 2 -0.006324 0.023952 -0.015028 -0.000004 -0.001084 0.000001
# 3 -0.000751 -0.015028 0.023862 0.000009 0.006703 -0.000002
# 4 -0.000001 -0.000004 0.000009 0.026131 0.000003 -0.002275
# 5 0.001176 -0.001084 0.006703 0.000003 0.032614 -0.000001
# 6 0.000001 0.000001 -0.000002 -0.002275 -0.000001 0.034252
#
#
# Mechanical properties :
#
#
# Convention : Reuss Voigt Hill
#
# Bulk Modulus (GPa) = 64.96235 72.64118 68.80176
# Shear Modulus (GPa) = 24.76056 29.77402 27.26729
#
# Velocity S-wave (km/s) = 3.56391 3.90809 3.73996
# Velocity P-wave (km/s) = 7.08936 7.59124 7.34459
#
# Compressibility (1/GPa) = 0.01539353
#
# Stress axis : x y z
#
# Youngs Moduli (GPa) = 84.84645 41.74979 41.90792
#
# Poissons Ratio (x) = 0.26403 0.03147
# Poissons Ratio (y) = 0.53658 0.62980
# Poissons Ratio (z) = 0.06372 0.62742
#
# Static dielectric constant tensor:
#      x y z
#    x 3.601040 -0.000010 0.022740 
#    y -0.000010 3.531340 0.000000 
#    z 0.022740 0.000000 3.709950 
# 
# 
# High freq. dielectric constant tensor:
#      x y z
#    x 1.770100 0.000000 -0.002060 
#    y 0.000000 1.753180 0.000000 
#    z -0.002060 0.000000 1.771540 
# 
# From -- ./inp_files/340836.got.cif
#   From: 2010.06.25/outbox.cif.g09.slc.cpg/sg12_171_cif.got.tgz:340836.got - 2010.06.28 00:19:55.
