data_PCOD8111840
_publ_section_title
;
Structure prediction by ZEFSAII (Michael W. Deem and Ramdas Pophale) SiO2 
 PCOD8111840
Probable space group: C 2/M
;
_chemical_formula_sum "Si O2"
_cell_formula_units_Z 56
_cell_length_a 9.002100
_cell_length_b 17.987164
_cell_length_c 19.675418
_cell_angle_alpha 90.000000
_cell_angle_beta 117.057929
_cell_angle_gamma 90.000000
_cell_volume 2837.183136
_symmetry_space_group_name_H-M "C 2/M"
_symmetry_group_IT_number 12
_symmetry_cell_setting 'monoclinic'
loop_
_space_group_symop_operation_xyz
x,y,z
-x,y,-z
-x,-y,-z
x,-y,z
1/2+x,1/2+y,z
1/2-x,1/2+y,-z
1/2-x,1/2-y,-z
1/2+x,1/2-y,z
loop_
_atom_site_type_symbol
_atom_site_label
_atom_site_fract_x
_atom_site_fract_y
_atom_site_fract_z
Si Si1 0.624038 0.330097 0.787916
Si Si2 0.296934 0.913373 0.629390
Si Si3 0.960560 0.323201 0.780002
Si Si4 0.245320 0.584756 0.907520
Si Si5 0.819467 0.670328 0.494753
Si Si6 0.597803 0.584680 0.917201
Si Si7 0.537441 0.414216 0.363556
O O1 0.514690 0.256272 0.763498
O O2 0.652933 0.360226 0.869437
O O3 0.529514 0.392689 0.724600
O O4 0.802086 0.310888 0.794202
O O5 0.422572 0.874557 0.707608
O O6 0.329287 0.882808 0.561527
O O7 0.104976 0.898654 0.609842
O O8 0.339339 0.000000 0.639296
O O9 0.102419 0.359858 0.855079
O O10 0.180103 0.500000 0.891397
O O11 0.402028 0.594323 0.890416
O O12 0.296551 0.606361 0.994531
O O13 0.750000 0.750000 0.500000
O O14 0.698967 0.634175 0.413861
O O15 0.000000 0.680146 0.500000
O O16 0.636864 0.500000 0.904197
O O17 0.589446 0.500000 0.373342
#
# Coordination Sequence:
#
# PCOD8111840 Si02
#       7
#     8   8   8   8   8   8   8
#     4  11  23  38  58  85 116 152 193 236 285 339
#     4  10  22  41  63  87 117 151 188 234 287 340
#     4  11  23  38  58  85 116 152 193 236 285 339
#     4   9  19  37  60  85 114 149 189 235 288 343
#     4  12  25  40  61  89 119 153 193 234 281 336
#     4   9  19  37  60  85 114 149 189 235 288 343
#     4  10  22  41  63  87 117 151 188 234 287 340
#
# _framework density 19.737888000000002
#
# number of rings (size 3 to 8) (size 9 to 14) (size 15 to 20)
#    0.000    1.714    0.000    5.143    0.000    9.714 
#    0.000    1.429    0.000    0.000    0.000    0.000 
#    0.000    0.000    0.000    0.000    0.000    0.000 
#
# Total GULP energy -347363.603782 kJ/mol
# GULP energy per Si atom -12405.842992 kJ/mol
# Density = 1.969296 g / cm^3
# Si number density = 19.737888 Si / 1000 Ang^3
#
#
#
# Elastic Constant Matrix: (Units=GPa)
#
#
# Indices 1 2 3 4 5 6 
#
# 1 87.9219 30.1205 30.5500 0.0000 6.7387 0.0000
# 2 30.1205 88.2809 19.2440 0.0000 6.7835 0.0000
# 3 30.5500 19.2440 73.3061 0.0000 1.3724 0.0000
# 4 0.0000 0.0000 0.0000 28.1831 0.0000 8.5333
# 5 6.7387 6.7835 1.3724 0.0000 34.6248 0.0000
# 6 0.0000 0.0000 0.0000 8.5333 0.0000 26.2597
#
#
#
# Elastic Compliance Matrix: (Units=1/GPa)
#
#
# Indices 1 2 3 4 5 6 
#
# 1 0.014548 -0.003716 -0.005052 0.000000 -0.001903 0.000000
# 2 -0.003716 0.013139 -0.001867 0.000000 -0.001777 0.000000
# 3 -0.005052 -0.001867 0.016224 0.000000 0.000706 0.000000
# 4 0.000000 0.000000 0.000000 0.039354 0.000000 -0.012789
# 5 -0.001903 -0.001777 0.000706 0.000000 0.029572 0.000000
# 6 0.000000 0.000000 0.000000 -0.012789 0.000000 0.042237
#
#
# Mechanical properties :
#
#
# Convention : Reuss Voigt Hill
#
# Bulk Modulus (GPa) = 44.16859 45.48197 44.82528
# Shear Modulus (GPa) = 27.19010 29.11980 28.15495
#
# Velocity S-wave (km/s) = 3.71557 3.84516 3.78092
# Velocity P-wave (km/s) = 6.39011 6.54268 6.46685
#
# Compressibility (1/GPa) = 0.02264052
#
# Stress axis : x y z
#
# Youngs Moduli (GPa) = 68.73810 76.10952 61.63847
#
# Poissons Ratio (x) = 0.28284 0.31137
# Poissons Ratio (y) = 0.25544 0.11509
# Poissons Ratio (z) = 0.34724 0.14211
#
# Static dielectric constant tensor:
#      x y z
#    x 3.678530 0.000000 -0.002520 
#    y 0.000000 3.664350 0.000000 
#    z -0.002520 0.000000 3.614340 
# 
# 
# High freq. dielectric constant tensor:
#      x y z
#    x 1.768210 0.000000 0.000870 
#    y 0.000000 1.780090 0.000000 
#    z 0.000870 0.000000 1.779710 
# 
# From -- ./inp_files/257193.got.cif
#   From: 2010.06.25/outbox.cif.g09.slc.cpg/sg12_129_cif.got.tgz:257193.got - 2010.06.28 00:19:55.
