data_PCOD8111904
_publ_section_title
;
Structure prediction by ZEFSAII (Michael W. Deem and Ramdas Pophale) SiO2 
 PCOD8111904
Probable space group: C 2/M
;
_chemical_formula_sum "Si O2"
_cell_formula_units_Z 40
_cell_length_a 17.856731
_cell_length_b 8.387481
_cell_length_c 25.654260
_cell_angle_alpha 90.000000
_cell_angle_beta 30.074500
_cell_angle_gamma 90.000000
_cell_volume 1925.482718
_symmetry_space_group_name_H-M "C 2/M"
_symmetry_group_IT_number 12
_symmetry_cell_setting 'monoclinic'
loop_
_space_group_symop_operation_xyz
x,y,z
-x,y,-z
-x,-y,-z
x,-y,z
1/2+x,1/2+y,z
1/2-x,1/2+y,-z
1/2-x,1/2-y,-z
1/2+x,1/2-y,z
loop_
_atom_site_type_symbol
_atom_site_label
_atom_site_fract_x
_atom_site_fract_y
_atom_site_fract_z
Si Si1 0.329938 0.817419 0.705387
Si Si2 0.841613 0.186584 0.493315
Si Si3 0.173631 0.684814 0.700474
Si Si4 0.342267 0.689980 0.895602
Si Si5 0.834470 0.314349 0.098044
O O1 0.502877 0.776748 0.596944
O O2 0.252644 0.788918 0.696766
O O3 0.251265 0.712030 0.796594
O O4 0.311037 0.000000 0.733025
O O5 0.750000 0.250000 0.500000
O O6 0.748465 0.227760 0.600713
O O7 0.872211 0.000000 0.468881
O O8 0.194801 0.500000 0.701854
O O9 0.001181 0.726518 0.801171
O O10 0.360752 0.500000 0.885117
O O11 0.259393 0.755057 0.893800
O O12 0.250000 0.750000 0.000000
O O13 0.853466 0.500000 0.076539
O O14 0.000000 0.235070 0.000000
#
# Coordination Sequence:
#
# PCOD8111904 Si02
#       5
#     8   8   8   8   8
#     4  12  25  40  63  93 124 160 203 253 306 362
#     4  11  24  42  65  92 124 162 203 250 303 360
#     4  11  24  42  63  88 122 163 206 253 305 360
#     4  11  23  39  63  93 125 162 203 250 303 362
#     4  10  22  41  64  90 123 163 204 249 304 363
#
# _framework density 20.774013
#
# number of rings (size 3 to 8) (size 9 to 14) (size 15 to 20)
#    0.000    1.000    0.000    6.600    0.000   12.400 
#    0.000    0.000    0.000    0.000    0.000    0.000 
#    0.000    0.000    0.000    0.000    0.000    0.000 
#
# Total GULP energy -248131.173568 kJ/mol
# GULP energy per Si atom -12406.558678 kJ/mol
# Density = 2.072673 g / cm^3
# Si number density = 20.774013 Si / 1000 Ang^3
#
#
#
# Elastic Constant Matrix: (Units=GPa)
#
#
# Indices 1 2 3 4 5 6 
#
# 1 169.0601 13.3644 63.7539 0.0001 -7.9654 -0.0009
# 2 13.3644 29.7062 10.0753 0.0002 2.7591 -0.0018
# 3 63.7539 10.0753 150.6005 0.0005 -10.4246 -0.0002
# 4 0.0001 0.0002 0.0005 33.9727 0.0001 -3.9060
# 5 -7.9654 2.7591 -10.4246 0.0001 46.7266 -0.0001
# 6 -0.0009 -0.0018 -0.0002 -3.9060 -0.0001 30.4842
#
#
#
# Elastic Compliance Matrix: (Units=1/GPa)
#
#
# Indices 1 2 3 4 5 6 
#
# 1 0.007207 -0.002346 -0.002843 0.000000 0.000733 0.000000
# 2 -0.002346 0.035519 -0.001580 0.000000 -0.002850 0.000002
# 3 -0.002843 -0.001580 0.008047 0.000000 0.001404 0.000000
# 4 0.000000 0.000000 0.000000 0.029876 0.000000 0.003828
# 5 0.000733 -0.002850 0.001404 0.000000 0.022007 0.000000
# 6 0.000000 0.000002 0.000000 0.003828 0.000000 0.033294
#
#
# Mechanical properties :
#
#
# Convention : Reuss Voigt Hill
#
# Bulk Modulus (GPa) = 26.85761 58.19488 42.52625
# Shear Modulus (GPa) = 30.88299 39.71492 35.29896
#
# Velocity S-wave (km/s) = 3.85985 4.37711 4.12659
# Velocity P-wave (km/s) = 5.72897 7.32254 6.57422
#
# Compressibility (1/GPa) = 0.03723339
#
# Stress axis : x y z
#
# Youngs Moduli (GPa) = 138.74791 28.15383 124.27484
#
# Poissons Ratio (x) = 0.06605 0.35336
# Poissons Ratio (y) = 0.32552 0.19640
# Poissons Ratio (z) = 0.39452 0.04449
#
# Static dielectric constant tensor:
#      x y z
#    x 4.056990 0.000000 -0.105150 
#    y 0.000000 3.748350 0.000000 
#    z -0.105150 0.000000 3.871620 
# 
# 
# High freq. dielectric constant tensor:
#      x y z
#    x 1.835560 0.000000 -0.002940 
#    y 0.000000 1.813880 0.000000 
#    z -0.002940 0.000000 1.832590 
# 
# From -- ./inp_files/151614.got.cif
#   From: 2010.06.25/outbox.cif.g09.slc.cpg/sg12_76_cif.got.tgz:151614.got - 2010.06.28 00:19:55.
