data_PCOD8111522
_publ_section_title
;
Structure prediction by ZEFSAII (Michael W. Deem and Ramdas Pophale) SiO2 
 PCOD8111522
Probable space group: C 2/M
;
_chemical_formula_sum "Si O2"
_cell_formula_units_Z 56
_cell_length_a 23.239839
_cell_length_b 10.105783
_cell_length_c 28.036372
_cell_angle_alpha 90.000000
_cell_angle_beta 23.937282
_cell_angle_gamma 90.000000
_cell_volume 2671.584216
_symmetry_space_group_name_H-M "C 2/M"
_symmetry_group_IT_number 12
_symmetry_cell_setting 'monoclinic'
loop_
_space_group_symop_operation_xyz
x,y,z
-x,y,-z
-x,-y,-z
x,-y,z
1/2+x,1/2+y,z
1/2-x,1/2+y,-z
1/2-x,1/2-y,-z
1/2+x,1/2-y,z
loop_
_atom_site_type_symbol
_atom_site_label
_atom_site_fract_x
_atom_site_fract_y
_atom_site_fract_z
Si Si1 0.248468 0.350569 0.224355
Si Si2 0.272051 0.352431 0.025096
Si Si3 0.195614 0.652220 0.647411
Si Si4 0.436353 0.151958 0.441801
Si Si5 0.990158 0.345203 0.717943
Si Si6 0.364997 0.858328 0.069230
Si Si7 0.041128 0.748006 0.855384
O O1 0.293793 0.500000 0.176415
O O2 0.270465 0.262118 0.160393
O O3 0.336120 0.304697 0.203874
O O4 0.081520 0.344098 0.362509
O O5 0.222528 0.500000 0.046898
O O6 0.438845 0.363020 0.912247
O O7 0.250000 0.250000 0.000000
O O8 0.170024 0.303036 0.145959
O O9 0.245421 0.500000 0.603311
O O10 0.327319 0.751994 0.550999
O O11 0.109524 0.662000 0.761771
O O12 0.098661 0.700235 0.676883
O O13 0.463500 0.213541 0.368285
O O14 0.378816 0.000000 0.484138
O O15 0.994763 0.500000 0.706984
O O16 0.282474 0.000000 0.134246
O O17 0.500000 0.864716 0.000000
O O18 0.425257 0.841360 0.970437
#
# Coordination Sequence:
#
# PCOD8111522 Si02
#       7
#     8   8   8   8   8   8   8
#     4  10  22  40  62  90 124 162 203 251 304 361
#     4  11  22  38  61  90 123 157 195 243 303 368
#     4  11  23  40  62  87 121 161 204 254 307 358
#     4  10  22  41  63  86 117 158 208 256 300 354
#     4   9  19  39  63  87 119 157 196 248 306 356
#     4   9  19  35  58  87 119 157 198 241 292 355
#     4  11  22  37  61  91 126 161 199 245 304 370
#
# _framework density 20.961345000000001
#
# number of rings (size 3 to 8) (size 9 to 14) (size 15 to 20)
#    0.000    1.857    1.429    2.143    0.000    7.714 
#    0.000    2.857    0.000    0.000    0.000    0.000 
#    0.000    0.000    0.000    0.000    0.000    0.000 
#
# Total GULP energy -347011.713931 kJ/mol
# GULP energy per Si atom -12393.275498 kJ/mol
# Density = 2.091364 g / cm^3
# Si number density = 20.961345 Si / 1000 Ang^3
#
#
#
# Elastic Constant Matrix: (Units=GPa)
#
#
# Indices 1 2 3 4 5 6 
#
# 1 85.0731 23.2149 31.2431 -0.0004 -4.1540 0.0000
# 2 23.2149 108.2365 40.0975 0.0031 0.5640 -0.0008
# 3 31.2431 40.0975 97.8759 0.0078 -4.8664 -0.0013
# 4 -0.0004 0.0031 0.0078 37.0684 0.0025 0.2454
# 5 -4.1540 0.5640 -4.8664 0.0025 30.6169 -0.0002
# 6 0.0000 -0.0008 -0.0013 0.2454 -0.0002 24.4604
#
#
#
# Elastic Compliance Matrix: (Units=1/GPa)
#
#
# Indices 1 2 3 4 5 6 
#
# 1 0.013579 -0.001577 -0.003624 0.000001 0.001295 0.000000
# 2 -0.001577 0.011101 -0.004098 0.000000 -0.001070 0.000000
# 3 -0.003624 -0.004098 0.013136 -0.000003 0.001672 0.000001
# 4 0.000001 0.000000 -0.000003 0.026979 -0.000003 -0.000271
# 5 0.001295 -0.001070 0.001672 -0.000003 0.033123 0.000000
# 6 0.000000 0.000000 0.000001 -0.000271 0.000000 0.040885
#
#
# Mechanical properties :
#
#
# Convention : Reuss Voigt Hill
#
# Bulk Modulus (GPa) = 52.03300 53.36626 52.69963
# Shear Modulus (GPa) = 30.52394 31.53780 31.03087
#
# Velocity S-wave (km/s) = 3.82016 3.88309 3.85175
# Velocity P-wave (km/s) = 6.65848 6.75419 6.70651
#
# Compressibility (1/GPa) = 0.01921857
#
# Stress axis : x y z
#
# Youngs Moduli (GPa) = 73.64263 90.08380 76.12798
#
# Poissons Ratio (x) = 0.14202 0.27591
# Poissons Ratio (y) = 0.11610 0.31195
# Poissons Ratio (z) = 0.26690 0.36913
#
# Static dielectric constant tensor:
#      x y z
#    x 4.053890 0.000000 -0.061100 
#    y 0.000000 3.996850 0.000010 
#    z -0.061100 0.000010 3.826330 
# 
# 
# High freq. dielectric constant tensor:
#      x y z
#    x 1.826240 0.000000 -0.003440 
#    y 0.000000 1.809150 0.000000 
#    z -0.003440 0.000000 1.813940 
# 
# From -- ./inp_files/382838.got.cif
#   From: 2010.06.25/outbox.cif.g09.slc.cpg/sg12_192_cif.got.tgz:382838.got - 2010.06.28 00:19:55.
