data_PCOD8111888
_publ_section_title
;
Structure prediction by ZEFSAII (Michael W. Deem and Ramdas Pophale) SiO2 
 PCOD8111888
Probable space group: C 2/M
;
_chemical_formula_sum "Si O2"
_cell_formula_units_Z 36
_cell_length_a 8.755287
_cell_length_b 16.746546
_cell_length_c 11.657157
_cell_angle_alpha 90.000000
_cell_angle_beta 100.158629
_cell_angle_gamma 90.000000
_cell_volume 1682.387404
_symmetry_space_group_name_H-M "C 2/M"
_symmetry_group_IT_number 12
_symmetry_cell_setting 'monoclinic'
loop_
_space_group_symop_operation_xyz
x,y,z
-x,y,-z
-x,-y,-z
x,-y,z
1/2+x,1/2+y,z
1/2-x,1/2+y,-z
1/2-x,1/2-y,-z
1/2+x,1/2-y,z
loop_
_atom_site_type_symbol
_atom_site_label
_atom_site_fract_x
_atom_site_fract_y
_atom_site_fract_z
Si Si1 0.491598 0.000000 0.860686
Si Si2 0.826659 0.500000 0.515348
Si Si3 0.642596 0.237777 0.770299
Si Si4 0.427791 0.647534 0.874280
Si Si5 0.364886 0.135293 0.694520
Si Si6 0.306176 0.500000 0.749296
O O1 0.397488 0.079295 0.810053
O O2 0.657739 0.000000 0.815749
O O3 0.500000 0.000000 0.000000
O O4 0.798190 0.580593 0.583883
O O5 0.723820 0.500000 0.389269
O O6 0.000000 0.500000 0.500000
O O7 0.541005 0.284312 0.847351
O O8 0.756728 0.185001 0.864077
O O9 0.527887 0.179276 0.682119
O O10 0.734796 0.297620 0.699335
O O11 0.415948 0.575700 0.783359
O O12 0.500000 0.612786 0.000000
#
# Coordination Sequence:
#
# PCOD8111888 Si02
#       6
#     4   4   8   8   8   4
#     4  11  23  38  66  92 130 168 218 246 319 383
#     4  11  20  44  69  87 128 173 217 255 319 378
#     4  10  22  41  63  98 127 162 216 259 325 373
#     4  11  23  40  63  91 131 167 209 261 322 377
#     4  10  22  42  68  95 126 172 210 265 317 376
#     4  12  24  43  63  95 125 174 210 265 309 373
#
# _framework density 21.398161999999999
#
# number of rings (size 3 to 8) (size 9 to 14) (size 15 to 20)
#    0.000    1.333    4.444    1.000    3.111    5.333 
#    0.000   14.444    0.000    0.000    0.000    0.000 
#    0.000    0.000    0.000    0.000    0.000    0.000 
#
# Total GULP energy -223124.907654 kJ/mol
# GULP energy per Si atom -12395.828203 kJ/mol
# Density = 2.134946 g / cm^3
# Si number density = 21.398162 Si / 1000 Ang^3
#
#
#
# Elastic Constant Matrix: (Units=GPa)
#
#
# Indices 1 2 3 4 5 6 
#
# 1 80.9177 40.9297 36.7514 0.0000 15.7956 0.0000
# 2 40.9297 147.6742 75.4580 0.0000 21.0076 0.0000
# 3 36.7514 75.4580 181.2649 0.0000 16.4750 0.0000
# 4 0.0000 0.0000 0.0000 29.2348 0.0000 -0.9439
# 5 15.7956 21.0076 16.4750 0.0000 25.6704 0.0000
# 6 0.0000 0.0000 0.0000 -0.9439 0.0000 23.6847
#
#
#
# Elastic Compliance Matrix: (Units=1/GPa)
#
#
# Indices 1 2 3 4 5 6 
#
# 1 0.015641 -0.002657 -0.001474 0.000000 -0.006504 0.000000
# 2 -0.002657 0.009712 -0.003112 0.000000 -0.004316 0.000000
# 3 -0.001474 -0.003112 0.007218 0.000000 -0.001179 0.000000
# 4 0.000000 0.000000 0.000000 0.034250 0.000000 0.001365
# 5 -0.006504 -0.004316 -0.001179 0.000000 0.047246 0.000000
# 6 0.000000 0.000000 0.000000 0.001365 0.000000 0.042276
#
#
# Mechanical properties :
#
#
# Convention : Reuss Voigt Hill
#
# Bulk Modulus (GPa) = 55.29177 79.57054 67.43116
# Shear Modulus (GPa) = 28.27128 32.83250 30.55189
#
# Velocity S-wave (km/s) = 3.63878 3.92134 3.78270
# Velocity P-wave (km/s) = 6.59923 7.60059 7.11754
#
# Compressibility (1/GPa) = 0.01808587
#
# Stress axis : x y z
#
# Youngs Moduli (GPa) = 63.93376 102.96342 138.53584
#
# Poissons Ratio (x) = 0.27353 0.20423
# Poissons Ratio (y) = 0.16985 0.43114
# Poissons Ratio (z) = 0.09425 0.32044
#
# Static dielectric constant tensor:
#      x y z
#    x 3.950350 0.000000 0.287530 
#    y 0.000000 4.354600 0.000000 
#    z 0.287530 0.000000 3.451600 
# 
# 
# High freq. dielectric constant tensor:
#      x y z
#    x 1.833290 0.000000 0.018490 
#    y 0.000000 1.868000 0.000000 
#    z 0.018490 0.000000 1.818030 
# 
# From -- ./inp_files/118560.got.cif
#   From: 2010.06.25/outbox.cif.g09.slc.cpg/sg12_60_cif.got.tgz:118560.got - 2010.06.28 00:19:55.
