data_PCOD8111782
_publ_section_title
;
Structure prediction by ZEFSAII (Michael W. Deem and Ramdas Pophale) SiO2 
 PCOD8111782
Probable space group: C 2/M
;
_chemical_formula_sum "Si O2"
_cell_formula_units_Z 40
_cell_length_a 24.391440
_cell_length_b 9.650180
_cell_length_c 12.354830
_cell_angle_alpha 90.000000
_cell_angle_beta 142.590328
_cell_angle_gamma 90.000000
_cell_volume 1766.700830
_symmetry_space_group_name_H-M "C 2/M"
_symmetry_group_IT_number 12
_symmetry_cell_setting 'monoclinic'
loop_
_space_group_symop_operation_xyz
x,y,z
-x,y,-z
-x,-y,-z
x,-y,z
1/2+x,1/2+y,z
1/2-x,1/2+y,-z
1/2-x,1/2-y,-z
1/2+x,1/2-y,z
loop_
_atom_site_type_symbol
_atom_site_label
_atom_site_fract_x
_atom_site_fract_y
_atom_site_fract_z
Si Si1 0.813074 0.792029 0.300215
Si Si2 0.744251 0.000000 0.733725
Si Si3 0.593771 0.705935 0.334208
Si Si4 0.059320 0.000000 0.897231
Si Si5 0.261041 0.500000 0.516152
Si Si6 0.096394 0.000000 0.704738
Si Si7 0.028777 0.500000 0.167976
Si Si8 0.170711 0.500000 0.151281
O O1 0.794775 0.629044 0.259771
O O2 0.887593 0.818317 0.509708
O O3 0.719174 0.862101 0.185530
O O4 0.850649 0.860619 0.249446
O O5 0.713578 0.000000 0.559849
O O6 0.852003 0.000000 0.891355
O O7 0.498205 0.634614 0.160270
O O8 0.676302 0.636755 0.397548
O O9 0.586936 0.866223 0.292960
O O10 0.092039 0.000000 0.825573
O O11 0.178970 0.500000 0.297615
O O12 0.000000 0.000000 0.500000
O O13 0.927694 0.500000 0.059928
O O14 0.000000 0.500000 0.000000
#
# Coordination Sequence:
#
# PCOD8111782 Si02
#       8
#     8   4   8   4   4   4   4   4
#     4  10  22  41  67  87 124 160 216 250 311 378
#     4  12  25  37  57  98 128 157 197 275 303 355
#     4  10  22  41  60  96 120 170 214 246 299 378
#     4  11  23  41  71  87 123 162 212 264 311 365
#     4   9  23  40  63  79 130 178 212 232 305 379
#     4  11  20  46  73  89 110 169 210 258 322 379
#     4  12  26  34  59  94 138 163 203 256 300 343
#     4   9  21  41  57  88 123 177 204 247 300 376
#
# _framework density 22.641072000000001
#
# number of rings (size 3 to 8) (size 9 to 14) (size 15 to 20)
#    0.000    1.600    2.000    3.000    8.400    3.200 
#    0.000    1.500    0.000    0.000    0.000    0.000 
#    0.000    0.000    0.000    0.000    0.000    0.000 
#
# Total GULP energy -247997.963654 kJ/mol
# GULP energy per Si atom -12399.898183 kJ/mol
# Density = 2.258954 g / cm^3
# Si number density = 22.641072 Si / 1000 Ang^3
#
#
#
# Elastic Constant Matrix: (Units=GPa)
#
#
# Indices 1 2 3 4 5 6 
#
# 1 70.2959 40.1120 -3.0877 0.0000 -6.8883 0.0000
# 2 40.1120 187.7800 25.6934 0.0000 13.6493 0.0000
# 3 -3.0877 25.6934 82.8622 0.0000 21.2148 0.0000
# 4 0.0000 0.0000 0.0000 24.9221 0.0000 14.5537
# 5 -6.8883 13.6493 21.2148 0.0000 29.5361 0.0000
# 6 0.0000 0.0000 0.0000 14.5537 0.0000 16.8632
#
#
#
# Elastic Compliance Matrix: (Units=1/GPa)
#
#
# Indices 1 2 3 4 5 6 
#
# 1 0.017152 -0.004136 0.000500 0.000000 0.005552 0.000000
# 2 -0.004136 0.006623 -0.001443 0.000000 -0.002989 0.000000
# 3 0.000500 -0.001443 0.015113 0.000000 -0.010072 0.000000
# 4 0.000000 0.000000 0.000000 0.080896 0.000000 -0.069817
# 5 0.005552 -0.002989 -0.010072 0.000000 0.043767 0.000000
# 6 0.000000 0.000000 0.000000 -0.069817 0.000000 0.119557
#
#
# Mechanical properties :
#
#
# Convention : Reuss Voigt Hill
#
# Bulk Modulus (GPa) = 34.80533 51.81929 43.31231
# Shear Modulus (GPa) = 16.51031 32.81231 24.66131
#
# Velocity S-wave (km/s) = 2.70334 3.81102 3.30393
# Velocity P-wave (km/s) = 5.01498 6.50401 5.80742
#
# Compressibility (1/GPa) = 0.02873123
#
# Stress axis : x y z
#
# Youngs Moduli (GPa) = 58.30387 150.97788 66.16925
#
# Poissons Ratio (x) = 0.62441 -0.03309
# Poissons Ratio (y) = 0.24113 0.09545
# Poissons Ratio (z) = -0.02915 0.21780
#
# Static dielectric constant tensor:
#      x y z
#    x 3.999160 0.000000 0.351070 
#    y 0.000000 4.352740 0.000000 
#    z 0.351070 0.000000 5.081440 
# 
# 
# High freq. dielectric constant tensor:
#      x y z
#    x 1.875520 0.000000 0.021210 
#    y 0.000000 1.903190 0.000000 
#    z 0.021210 0.000000 1.901210 
# 
# From -- ./inp_files/250290.got.cif
#   From: 2010.06.25/outbox.cif.g09.slc.cpg/sg12_126_cif.got.tgz:250290.got - 2010.06.28 00:19:55.
