data_PCOD8111816
_publ_section_title
;
Structure prediction by ZEFSAII (Michael W. Deem and Ramdas Pophale) SiO2 
 PCOD8111816
Probable space group: C 2/M
;
_chemical_formula_sum "Si O2"
_cell_formula_units_Z 64
_cell_length_a 14.207345
_cell_length_b 27.001591
_cell_length_c 8.825271
_cell_angle_alpha 90.000000
_cell_angle_beta 71.431665
_cell_angle_gamma 90.000000
_cell_volume 3209.321765
_symmetry_space_group_name_H-M "C 2/M"
_symmetry_group_IT_number 12
_symmetry_cell_setting 'monoclinic'
loop_
_space_group_symop_operation_xyz
x,y,z
-x,y,-z
-x,-y,-z
x,-y,z
1/2+x,1/2+y,z
1/2-x,1/2+y,-z
1/2-x,1/2-y,-z
1/2+x,1/2-y,z
loop_
_atom_site_type_symbol
_atom_site_label
_atom_site_fract_x
_atom_site_fract_y
_atom_site_fract_z
Si Si1 0.524937 0.321386 0.156507
Si Si2 0.015441 0.708660 0.164943
Si Si3 0.817374 0.367308 0.864713
Si Si4 0.215107 0.943742 0.480934
Si Si5 0.894970 0.444333 0.594905
Si Si6 0.790246 0.132873 0.782600
Si Si7 0.701972 0.200777 0.592624
Si Si8 0.322665 0.358293 0.311923
O O1 0.558683 0.264403 0.143213
O O2 0.603654 0.357192 0.195057
O O3 0.419578 0.325799 0.299171
O O4 0.500000 0.340344 0.000000
O O5 0.915075 0.705578 0.315616
O O6 0.098635 0.674436 0.197971
O O7 0.000000 0.691240 0.000000
O O8 0.847864 0.416495 0.761328
O O9 0.711940 0.350210 0.844206
O O10 0.794522 0.379384 0.050669
O O11 0.329448 0.943966 0.475732
O O12 0.201946 0.914806 0.329441
O O13 0.154766 0.914978 0.646295
O O14 0.174669 0.000000 0.483999
O O15 0.910773 0.500000 0.645777
O O16 0.000000 0.419554 0.500000
O O17 0.757755 0.183862 0.717233
O O18 0.750000 0.250000 0.500000
O O19 0.725086 0.157825 0.459183
#
# Coordination Sequence:
#
# PCOD8111816 Si02
#       8
#     8   8   8   8   8   8   8   8
#     4  11  23  41  62  87 125 166 214 255 316 365
#     4  11  24  38  61  90 126 169 203 252 305 372
#     4  11  23  37  63  90 124 163 209 254 308 367
#     4   9  21  42  65  90 124 158 201 260 323 373
#     4   9  20  39  64  92 124 164 204 249 313 383
#     4  11  24  40  64  91 124 165 208 265 309 371
#     4  11  23  41  58  89 128 160 209 252 307 367
#     4  10  22  41  62  88 122 164 204 264 308 367
#
# _framework density 19.941908999999999
#
# number of rings (size 3 to 8) (size 9 to 14) (size 15 to 20)
#    0.000    1.625    3.750    0.000    7.000    3.000 
#    0.000    1.250    0.000    3.375    0.000    0.000 
#    0.000    0.000    0.000    0.000    0.000    0.000 
#
# Total GULP energy -396636.497420 kJ/mol
# GULP energy per Si atom -12394.890544 kJ/mol
# Density = 1.989652 g / cm^3
# Si number density = 19.941909 Si / 1000 Ang^3
#
#
#
# Elastic Constant Matrix: (Units=GPa)
#
#
# Indices 1 2 3 4 5 6 
#
# 1 97.3416 47.7355 38.2269 0.0000 3.1824 0.0000
# 2 47.7355 114.2907 42.0858 0.0000 12.4182 0.0000
# 3 38.2269 42.0858 102.0984 0.0000 8.8504 0.0000
# 4 0.0000 0.0000 0.0000 28.7562 0.0000 6.7654
# 5 3.1824 12.4182 8.8504 0.0000 30.3004 0.0000
# 6 0.0000 0.0000 0.0000 6.7654 0.0000 27.4051
#
#
#
# Elastic Compliance Matrix: (Units=1/GPa)
#
#
# Indices 1 2 3 4 5 6 
#
# 1 0.013858 -0.004703 -0.003376 0.000000 0.001458 0.000000
# 2 -0.004703 0.012196 -0.002951 0.000000 -0.003643 0.000000
# 3 -0.003376 -0.002951 0.012455 0.000000 -0.002074 0.000000
# 4 0.000000 0.000000 0.000000 0.036919 0.000000 -0.009114
# 5 0.001458 -0.003643 -0.002074 0.000000 0.034948 0.000000
# 6 0.000000 0.000000 0.000000 -0.009114 0.000000 0.038739
#
#
# Mechanical properties :
#
#
# Convention : Reuss Voigt Hill
#
# Bulk Modulus (GPa) = 60.79587 63.31413 62.05500
# Shear Modulus (GPa) = 28.30312 29.67117 28.98715
#
# Velocity S-wave (km/s) = 3.77142 3.86149 3.81672
# Velocity P-wave (km/s) = 7.03686 7.19025 7.11397
#
# Compressibility (1/GPa) = 0.01644849
#
# Stress axis : x y z
#
# Youngs Moduli (GPa) = 72.16229 81.99202 80.29109
#
# Poissons Ratio (x) = 0.38562 0.27108
# Poissons Ratio (y) = 0.33939 0.23692
# Poissons Ratio (z) = 0.24364 0.24194
#
# Static dielectric constant tensor:
#      x y z
#    x 3.635550 0.000000 0.009200 
#    y 0.000000 3.706670 0.000000 
#    z 0.009200 0.000000 3.670820 
# 
# 
# High freq. dielectric constant tensor:
#      x y z
#    x 1.777110 0.000000 0.000940 
#    y 0.000000 1.771610 0.000000 
#    z 0.000940 0.000000 1.778630 
# 
# From -- ./inp_files/66904.got.cif
#   From: 2010.06.25/outbox.cif.g09.slc.cpg/sg12_34_cif.got.tgz:66904.got - 2010.06.28 00:19:55.
