data_PCOD8111344
_publ_section_title
;
Structure prediction by ZEFSAII (Michael W. Deem and Ramdas Pophale) SiO2 
 PCOD8111344
Probable space group: C 2/M
;
_chemical_formula_sum "Si O2"
_cell_formula_units_Z 48
_cell_length_a 24.370756
_cell_length_b 24.701072
_cell_length_c 10.975525
_cell_angle_alpha 90.000000
_cell_angle_beta 22.774577
_cell_angle_gamma 90.000000
_cell_volume 2557.646825
_symmetry_space_group_name_H-M "C 2/M"
_symmetry_group_IT_number 12
_symmetry_cell_setting 'monoclinic'
loop_
_space_group_symop_operation_xyz
x,y,z
-x,y,-z
-x,-y,-z
x,-y,z
1/2+x,1/2+y,z
1/2-x,1/2+y,-z
1/2-x,1/2-y,-z
1/2+x,1/2-y,z
loop_
_atom_site_type_symbol
_atom_site_label
_atom_site_fract_x
_atom_site_fract_y
_atom_site_fract_z
Si Si1 0.369381 0.264907 0.347763
Si Si2 0.792013 0.062888 0.313671
Si Si3 0.720930 0.148776 0.827198
Si Si4 0.158823 0.697221 0.201573
Si Si5 0.389598 0.561059 0.381881
Si Si6 0.402776 0.153591 0.414200
O O1 0.250000 0.250000 0.500000
O O2 0.310309 0.305949 0.570288
O O3 0.414413 0.209292 0.317838
O O4 0.500000 0.289560 0.000000
O O5 0.826581 0.080459 0.380867
O O6 0.680225 0.105166 0.484708
O O7 0.737652 0.000000 0.415476
O O8 0.943157 0.068428 0.938675
O O9 0.810840 0.094460 0.645276
O O10 0.712445 0.158014 0.987357
O O11 0.565632 0.136161 0.092392
O O12 0.173254 0.666350 0.301099
O O13 0.000000 0.716010 0.500000
O O14 0.250000 0.750000 0.000000
O O15 0.345166 0.500000 0.490582
#
# Coordination Sequence:
#
# PCOD8111344 Si02
#       6
#     8   8   8   8   8   8
#     4  12  24  35  54  87 118 147 186 237 288 346
#     4   9  20  38  61  87 117 151 189 238 291 345
#     4  11  23  38  59  85 116 154 194 237 287 340
#     4  10  22  40  58  81 115 157 199 237 278 336
#     4   9  20  38  60  87 116 150 191 237 291 345
#     4  11  23  39  58  84 118 154 195 235 286 345
#
# _framework density 18.767251000000002
#
# number of rings (size 3 to 8) (size 9 to 14) (size 15 to 20)
#    0.000    1.667    3.333    2.000    4.667    2.000 
#    0.000    2.500    0.000    5.000    0.000    0.000 
#    0.000    0.000    0.000    0.000    0.000    0.000 
#
# Total GULP energy -297407.157856 kJ/mol
# GULP energy per Si atom -12391.964911 kJ/mol
# Density = 1.872454 g / cm^3
# Si number density = 18.767251 Si / 1000 Ang^3
#
#
#
# Elastic Constant Matrix: (Units=GPa)
#
#
# Indices 1 2 3 4 5 6 
#
# 1 51.3924 20.6908 22.3373 -0.0002 4.0835 0.0022
# 2 20.6908 79.9924 43.5890 0.0007 -2.1259 -0.0026
# 3 22.3373 43.5890 101.3577 0.0022 13.6971 0.0140
# 4 -0.0002 0.0007 0.0022 37.6778 -0.0002 -3.6861
# 5 4.0835 -2.1259 13.6971 -0.0002 26.5395 -0.0074
# 6 0.0022 -0.0026 0.0140 -3.6861 -0.0074 4.9411
#
#
#
# Elastic Compliance Matrix: (Units=1/GPa)
#
#
# Indices 1 2 3 4 5 6 
#
# 1 0.022627 -0.004410 -0.002764 0.000000 -0.002408 -0.000008
# 2 -0.004410 0.017912 -0.007543 0.000005 0.006006 0.000045
# 3 -0.002764 -0.007543 0.014774 -0.000007 -0.007804 -0.000061
# 4 0.000000 0.000005 -0.000007 0.028630 0.000010 0.021359
# 5 -0.002408 0.006006 -0.007804 0.000010 0.042559 0.000098
# 6 -0.000008 0.000045 -0.000061 0.021359 0.000098 0.218318
#
#
# Mechanical properties :
#
#
# Convention : Reuss Voigt Hill
#
# Bulk Modulus (GPa) = 38.64408 45.10852 41.87630
# Shear Modulus (GPa) = 13.05893 23.57337 18.31615
#
# Velocity S-wave (km/s) = 2.64073 3.54798 3.12743
# Velocity P-wave (km/s) = 5.47119 6.39313 5.95004
#
# Compressibility (1/GPa) = 0.02587718
#
# Stress axis : x y z
#
# Youngs Moduli (GPa) = 44.19587 55.82961 67.68851
#
# Poissons Ratio (x) = 0.24622 0.18712
# Poissons Ratio (y) = 0.19491 0.51055
# Poissons Ratio (z) = 0.12218 0.42110
#
# Static dielectric constant tensor:
#      x y z
#    x 3.436240 -0.000020 0.110820 
#    y -0.000020 3.366820 0.000000 
#    z 0.110820 0.000000 3.551290 
# 
# 
# High freq. dielectric constant tensor:
#      x y z
#    x 1.720410 0.000000 -0.001040 
#    y 0.000000 1.728210 0.000000 
#    z -0.001040 0.000000 1.743470 
# 
# From -- ./inp_files/121955.got.cif
#   From: 2010.06.25/outbox.cif.g09.slc.cpg/sg12_61_cif.got.tgz:121955.got - 2010.06.28 00:19:55.
