data_PCOD8111683
_publ_section_title
;
Structure prediction by ZEFSAII (Michael W. Deem and Ramdas Pophale) SiO2 
 PCOD8111683
Probable space group: C 2/M
;
_chemical_formula_sum "Si O2"
_cell_formula_units_Z 36
_cell_length_a 10.508702
_cell_length_b 18.363678
_cell_length_c 9.362275
_cell_angle_alpha 90.000000
_cell_angle_beta 65.441851
_cell_angle_gamma 90.000000
_cell_volume 1643.281292
_symmetry_space_group_name_H-M "C 2/M"
_symmetry_group_IT_number 12
_symmetry_cell_setting 'monoclinic'
loop_
_space_group_symop_operation_xyz
x,y,z
-x,y,-z
-x,-y,-z
x,-y,z
1/2+x,1/2+y,z
1/2-x,1/2+y,-z
1/2-x,1/2-y,-z
1/2+x,1/2-y,z
loop_
_atom_site_type_symbol
_atom_site_label
_atom_site_fract_x
_atom_site_fract_y
_atom_site_fract_z
Si Si1 0.241963 0.662206 0.641287
Si Si2 0.500000 0.619407 0.000000
Si Si3 0.441476 0.912476 0.771192
Si Si4 0.774943 0.078725 0.895221
Si Si5 0.722968 0.669156 0.685758
O O1 0.319590 0.629051 0.742515
O O2 0.313048 0.639502 0.457247
O O3 0.265894 0.747476 0.651415
O O4 0.083823 0.632610 0.712892
O O5 0.400545 0.569867 0.949772
O O6 0.590177 0.669195 0.851743
O O7 0.350074 0.880791 0.683246
O O8 0.461897 0.000000 0.741434
O O9 0.362270 0.893920 0.956481
O O10 0.742254 0.000000 0.844640
#
# Coordination Sequence:
#
# PCOD8111683 Si02
#       5
#     8   4   8   8   8
#     4  11  23  39  63  96 126 158 215 264 309 367
#     4  10  23  42  62  84 129 170 206 248 319 382
#     4  10  22  42  67  94 126 166 211 261 319 376
#     4  10  22  40  65  94 126 162 209 261 312 375
#     4  10  25  40  61  93 128 167 206 259 313 378
#
# _framework density 21.907387
#
# number of rings (size 3 to 8) (size 9 to 14) (size 15 to 20)
#    0.000    1.778    0.000    2.333    6.222    8.000 
#    0.000    1.111    0.000    0.000    0.000    0.000 
#    0.000    0.000    0.000    0.000    0.000    0.000 
#
# Total GULP energy -223064.429184 kJ/mol
# GULP energy per Si atom -12392.468288 kJ/mol
# Density = 2.185753 g / cm^3
# Si number density = 21.907387 Si / 1000 Ang^3
#
#
#
# Elastic Constant Matrix: (Units=GPa)
#
#
# Indices 1 2 3 4 5 6 
#
# 1 79.5794 20.2982 40.0456 0.0000 3.7369 0.0000
# 2 20.2982 86.7730 39.0667 0.0000 20.1614 0.0000
# 3 40.0456 39.0667 156.5665 0.0000 28.8028 0.0000
# 4 0.0000 0.0000 0.0000 18.5551 0.0000 12.5348
# 5 3.7369 20.1614 28.8028 0.0000 28.9273 0.0000
# 6 0.0000 0.0000 0.0000 12.5348 0.0000 22.6609
#
#
#
# Elastic Compliance Matrix: (Units=1/GPa)
#
#
# Indices 1 2 3 4 5 6 
#
# 1 0.015012 -0.002641 -0.003872 0.000000 0.003757 0.000000
# 2 -0.002641 0.014771 -0.001443 0.000000 -0.008516 0.000000
# 3 -0.003872 -0.001443 0.009133 0.000000 -0.007588 0.000000
# 4 0.000000 0.000000 0.000000 0.086047 0.000000 -0.047597
# 5 0.003757 -0.008516 -0.007588 0.000000 0.047575 0.000000
# 6 0.000000 0.000000 0.000000 -0.047597 0.000000 0.070457
#
#
# Mechanical properties :
#
#
# Convention : Reuss Voigt Hill
#
# Bulk Modulus (GPa) = 43.47207 57.97109 50.72158
# Shear Modulus (GPa) = 18.75641 28.92921 23.84281
#
# Velocity S-wave (km/s) = 2.92921 3.63784 3.30259
# Velocity P-wave (km/s) = 5.59705 6.64564 6.14376
#
# Compressibility (1/GPa) = 0.02300327
#
# Stress axis : x y z
#
# Youngs Moduli (GPa) = 66.61496 67.70129 109.48853
#
# Poissons Ratio (x) = 0.17882 0.42390
# Poissons Ratio (y) = 0.17595 0.15803
# Poissons Ratio (z) = 0.25791 0.09771
#
# Static dielectric constant tensor:
#      x y z
#    x 3.870610 0.000000 0.143290 
#    y 0.000000 3.789150 0.000000 
#    z 0.143290 0.000000 4.440980 
# 
# 
# High freq. dielectric constant tensor:
#      x y z
#    x 1.854760 0.000000 0.011540 
#    y 0.000000 1.854960 0.000000 
#    z 0.011540 0.000000 1.881200 
# 
# From -- ./inp_files/46820.got.cif
#   From: 2010.06.25/outbox.cif.g09.slc.cpg/sg12_24_cif.got.tgz:46820.got - 2010.06.28 00:19:55.
