data_PCOD8111925
_publ_section_title
;
Structure prediction by ZEFSAII (Michael W. Deem and Ramdas Pophale) SiO2 
 PCOD8111925
Probable space group: C 2/M
;
_chemical_formula_sum "Si O2"
_cell_formula_units_Z 48
_cell_length_a 19.974484
_cell_length_b 8.803293
_cell_length_c 24.135461
_cell_angle_alpha 90.000000
_cell_angle_beta 145.929981
_cell_angle_gamma 90.000000
_cell_volume 2377.517851
_symmetry_space_group_name_H-M "C 2/M"
_symmetry_group_IT_number 12
_symmetry_cell_setting 'monoclinic'
loop_
_space_group_symop_operation_xyz
x,y,z
-x,y,-z
-x,-y,-z
x,-y,z
1/2+x,1/2+y,z
1/2-x,1/2+y,-z
1/2-x,1/2-y,-z
1/2+x,1/2-y,z
loop_
_atom_site_type_symbol
_atom_site_label
_atom_site_fract_x
_atom_site_fract_y
_atom_site_fract_z
Si Si1 0.981241 0.822467 0.355960
Si Si2 0.223120 0.679067 0.718322
Si Si3 0.126520 0.822560 0.932599
Si Si4 0.474465 0.178381 0.919344
Si Si5 0.067036 0.824028 0.293757
Si Si6 0.194553 0.177889 0.583304
O O1 0.014226 0.774605 0.316491
O O2 0.089257 0.774818 0.469789
O O3 0.862257 0.732096 0.290651
O O4 0.952332 0.000000 0.340329
O O5 0.232693 0.500000 0.724030
O O6 0.354441 0.744088 0.816268
O O7 0.170529 0.735597 0.624010
O O8 0.085214 0.742481 0.960597
O O9 0.031559 0.789813 0.819612
O O10 0.143392 0.000000 0.955072
O O11 0.250000 0.750000 0.000000
O O12 0.462513 0.000000 0.901744
O O13 0.500000 0.220569 0.000000
O O14 0.181553 0.722473 0.360077
O O15 0.105855 0.000000 0.320398
O O16 0.194261 0.000000 0.595604
#
# Coordination Sequence:
#
# PCOD8111925 Si02
#       6
#     8   8   8   8   8   8
#     4  10  23  41  62  92 128 167 212 258 307 369
#     4  12  25  41  63  93 128 165 208 260 312 369
#     4  11  24  42  66  96 129 165 206 254 310 371
#     4  11  25  45  69  94 124 163 206 257 315 373
#     4  10  22  41  64  91 127 166 205 257 315 367
#     4  11  22  39  65  92 124 168 213 257 310 370
#
# _framework density 20.189122999999999
#
# number of rings (size 3 to 8) (size 9 to 14) (size 15 to 20)
#    0.000    1.167    1.667    4.000    2.333    6.000 
#    0.000    0.000    0.000    0.000    0.000    0.000 
#    0.000    0.000    0.000    0.000    0.000    0.000 
#
# Total GULP energy -297791.004017 kJ/mol
# GULP energy per Si atom -12407.958501 kJ/mol
# Density = 2.014317 g / cm^3
# Si number density = 20.189123 Si / 1000 Ang^3
#
#
#
# Elastic Constant Matrix: (Units=GPa)
#
#
# Indices 1 2 3 4 5 6 
#
# 1 134.2096 44.5827 27.4565 0.0000 -1.4092 0.0000
# 2 44.5827 82.9432 35.7471 -0.0001 -4.7109 -0.0003
# 3 27.4565 35.7471 48.7009 0.0000 5.0019 0.0000
# 4 0.0000 -0.0001 0.0000 21.7147 0.0000 8.9811
# 5 -1.4092 -4.7109 5.0019 0.0000 39.5695 0.0000
# 6 0.0000 -0.0003 0.0000 8.9811 0.0000 39.0292
#
#
#
# Elastic Compliance Matrix: (Units=1/GPa)
#
#
# Indices 1 2 3 4 5 6 
#
# 1 0.009243 -0.003960 -0.002320 0.000000 0.000151 0.000000
# 2 -0.003960 0.019909 -0.012776 0.000000 0.003844 0.000000
# 3 -0.002320 -0.012776 0.031797 0.000000 -0.005623 0.000000
# 4 0.000000 0.000000 0.000000 0.050896 0.000000 -0.011712
# 5 0.000151 0.003844 -0.005623 0.000000 0.026446 0.000000
# 6 0.000000 0.000000 0.000000 -0.011712 0.000000 0.028317
#
#
# Mechanical properties :
#
#
# Convention : Reuss Voigt Hill
#
# Bulk Modulus (GPa) = 43.78784 53.49181 48.63983
# Shear Modulus (GPa) = 23.54808 30.60050 27.07429
#
# Velocity S-wave (km/s) = 3.41893 3.89741 3.66599
# Velocity P-wave (km/s) = 6.10912 6.84149 6.48565
#
# Compressibility (1/GPa) = 0.02283739
#
# Stress axis : x y z
#
# Youngs Moduli (GPa) = 108.19558 50.22731 31.44950
#
# Poissons Ratio (x) = 0.19888 0.07296
# Poissons Ratio (y) = 0.42840 0.40181
# Poissons Ratio (z) = 0.25100 0.64172
#
# Static dielectric constant tensor:
#      x y z
#    x 3.922730 0.000000 -0.046730 
#    y 0.000000 3.875980 0.000000 
#    z -0.046730 0.000000 3.784230 
# 
# 
# High freq. dielectric constant tensor:
#      x y z
#    x 1.808760 0.000000 0.000480 
#    y 0.000000 1.793240 0.000000 
#    z 0.000480 0.000000 1.796350 
# 
# From -- ./inp_files/365550.got.cif
#   From: 2010.06.25/outbox.cif.g09.slc.cpg/sg12_183_cif.got.tgz:365550.got - 2010.06.28 00:19:55.
