data_PCOD8111897
_publ_section_title
;
Structure prediction by ZEFSAII (Michael W. Deem and Ramdas Pophale) SiO2 
 PCOD8111897
Probable space group: C 2/M
;
_chemical_formula_sum "Si O2"
_cell_formula_units_Z 64
_cell_length_a 32.903559
_cell_length_b 8.472123
_cell_length_c 16.528882
_cell_angle_alpha 90.000000
_cell_angle_beta 42.452335
_cell_angle_gamma 90.000000
_cell_volume 3110.049778
_symmetry_space_group_name_H-M "C 2/M"
_symmetry_group_IT_number 12
_symmetry_cell_setting 'monoclinic'
loop_
_space_group_symop_operation_xyz
x,y,z
-x,y,-z
-x,-y,-z
x,-y,z
1/2+x,1/2+y,z
1/2-x,1/2+y,-z
1/2-x,1/2-y,-z
1/2+x,1/2-y,z
loop_
_atom_site_type_symbol
_atom_site_label
_atom_site_fract_x
_atom_site_fract_y
_atom_site_fract_z
Si Si1 0.664810 0.317201 0.755432
Si Si2 0.511188 0.812314 0.230226
Si Si3 0.395976 0.184120 0.301493
Si Si4 0.635897 0.184989 0.971586
Si Si5 0.166509 0.684422 0.341307
Si Si6 0.029390 0.312438 0.538066
Si Si7 0.750926 0.185173 0.909216
Si Si8 0.708801 0.681756 0.440029
O O1 0.680269 0.500000 0.728470
O O2 0.610513 0.273911 0.774427
O O3 0.646674 0.274747 0.872590
O O4 0.722929 0.223583 0.636580
O O5 0.455706 0.749160 0.257649
O O6 0.504728 0.748421 0.331797
O O7 0.509246 0.000000 0.235222
O O8 0.573716 0.751421 0.101245
O O9 0.338600 0.211483 0.442943
O O10 0.402536 0.000000 0.273955
O O11 0.688031 0.225551 0.958429
O O12 0.632813 0.000000 0.957074
O O13 0.171545 0.500000 0.354775
O O14 0.098114 0.743066 0.441542
O O15 0.195045 0.721389 0.212844
O O16 0.203275 0.785367 0.352711
O O17 0.025713 0.500000 0.539731
O O18 0.000000 0.239492 0.500000
O O19 0.764180 0.000000 0.888643
O O20 0.750000 0.250000 0.000000
O O21 0.696358 0.500000 0.478880
#
# Coordination Sequence:
#
# PCOD8111897 Si02
#       8
#     8   8   8   8   8   8   8   8
#     4  12  25  41  62  89 122 160 203 251 307 367
#     4   9  19  37  61  89 120 159 206 250 297 359
#     4  11  22  40  64  91 122 157 202 252 304 364
#     4  10  22  41  64  89 120 161 208 255 300 357
#     4  11  21  37  64  94 124 159 203 253 308 361
#     4   9  18  33  60  94 123 155 200 249 295 354
#     4  11  24  40  62  91 125 163 207 252 304 359
#     4  12  23  39  62  91 126 161 200 249 307 366
#
# _framework density 20.578448000000002
#
# number of rings (size 3 to 8) (size 9 to 14) (size 15 to 20)
#    0.000    1.375    2.500    3.750    1.750    1.000 
#    0.000    3.750    0.000    1.500    0.000    0.000 
#    0.000    0.000    0.000    0.000    0.000    0.000 
#
# Total GULP energy -396948.227368 kJ/mol
# GULP energy per Si atom -12404.632105 kJ/mol
# Density = 2.053161 g / cm^3
# Si number density = 20.578448 Si / 1000 Ang^3
#
#
#
# Elastic Constant Matrix: (Units=GPa)
#
#
# Indices 1 2 3 4 5 6 
#
# 1 118.4426 28.6937 49.4461 0.0000 12.5899 0.0000
# 2 28.6937 55.8799 22.1216 0.0013 1.7067 0.0007
# 3 49.4461 22.1216 117.4657 0.0002 -5.7969 0.0001
# 4 0.0000 0.0013 0.0002 28.9029 0.0002 5.3078
# 5 12.5899 1.7067 -5.7969 0.0002 37.5728 -0.0001
# 6 0.0000 0.0007 0.0001 5.3078 -0.0001 25.4094
#
#
#
# Elastic Compliance Matrix: (Units=1/GPa)
#
#
# Indices 1 2 3 4 5 6 
#
# 1 0.011751 -0.004165 -0.004380 0.000000 -0.004424 0.000000
# 2 -0.004165 0.020892 -0.002176 -0.000001 0.000111 0.000000
# 3 -0.004380 -0.002176 0.010927 0.000000 0.003253 0.000000
# 4 0.000000 -0.000001 0.000000 0.035979 0.000000 -0.007516
# 5 -0.004424 0.000111 0.003253 0.000000 0.028594 0.000000
# 6 0.000000 0.000000 0.000000 -0.007516 0.000000 0.040925
#
#
# Mechanical properties :
#
#
# Convention : Reuss Voigt Hill
#
# Bulk Modulus (GPa) = 45.19133 54.70122 49.94628
# Shear Modulus (GPa) = 28.10779 31.14548 29.62664
#
# Velocity S-wave (km/s) = 3.69980 3.89459 3.79844
# Velocity P-wave (km/s) = 6.34504 6.84568 6.60011
#
# Compressibility (1/GPa) = 0.02212814
#
# Stress axis : x y z
#
# Youngs Moduli (GPa) = 85.10074 47.86506 91.51389
#
# Poissons Ratio (x) = 0.19934 0.40087
# Poissons Ratio (y) = 0.35442 0.19913
# Poissons Ratio (z) = 0.37277 0.10415
#
# Static dielectric constant tensor:
#      x y z
#    x 3.981000 0.000000 0.029690 
#    y 0.000000 3.418780 0.000000 
#    z 0.029690 0.000000 3.803730 
# 
# 
# High freq. dielectric constant tensor:
#      x y z
#    x 1.817280 0.000000 0.006380 
#    y 0.000000 1.780780 0.000000 
#    z 0.006380 0.000000 1.811900 
# 
# From -- ./inp_files/249838.got.cif
#   From: 2010.06.25/outbox.cif.g09.slc.cpg/sg12_125_cif.got.tgz:249838.got - 2010.06.28 00:19:55.
