data_PCOD8111077
_publ_section_title
;
Structure prediction by ZEFSAII (Michael W. Deem and Ramdas Pophale) SiO2 
 PCOD8111077
Probable space group: C 2/M
;
_chemical_formula_sum "Si O2"
_cell_formula_units_Z 56
_cell_length_a 25.548759
_cell_length_b 14.669797
_cell_length_c 16.484953
_cell_angle_alpha 90.000000
_cell_angle_beta 28.319117
_cell_angle_gamma 90.000000
_cell_volume 2930.959317
_symmetry_space_group_name_H-M "C 2/M"
_symmetry_group_IT_number 12
_symmetry_cell_setting 'monoclinic'
loop_
_space_group_symop_operation_xyz
x,y,z
-x,y,-z
-x,-y,-z
x,-y,z
1/2+x,1/2+y,z
1/2-x,1/2+y,-z
1/2-x,1/2-y,-z
1/2+x,1/2-y,z
loop_
_atom_site_type_symbol
_atom_site_label
_atom_site_fract_x
_atom_site_fract_y
_atom_site_fract_z
Si Si1 0.839881 0.604178 0.507187
Si Si2 0.379472 0.893709 0.639685
Si Si3 0.464909 0.399169 0.415601
Si Si4 0.170089 0.099942 0.237222
Si Si5 0.913005 0.104482 0.188875
Si Si6 0.787294 0.766420 0.040090
Si Si7 0.956127 0.776387 0.286067
O O1 0.874370 0.500000 0.437988
O O2 0.868910 0.627913 0.559613
O O3 0.709432 0.616714 0.677906
O O4 0.907586 0.673485 0.356221
O O5 0.500000 0.856502 0.500000
O O6 0.285561 0.845239 0.820013
O O7 0.367345 0.000000 0.675590
O O8 0.471272 0.500000 0.368125
O O9 0.390327 0.401476 0.595645
O O10 0.587727 0.369162 0.276648
O O11 0.408074 0.332550 0.427966
O O12 0.269186 0.170525 0.110312
O O13 0.218185 0.000000 0.151884
O O14 0.923730 0.176394 0.246573
O O15 0.933381 0.000000 0.190237
O O16 0.000000 0.130087 0.000000
O O17 0.750000 0.750000 0.000000
O O18 0.913996 0.787436 0.879860
#
# Coordination Sequence:
#
# PCOD8111077 Si02
#       7
#     8   8   8   8   8   8   8
#     4  10  22  41  61  83 115 154 191 238 296 347
#     4  10  22  39  59  82 115 158 198 238 290 352
#     4   9  18  33  54  77 104 144 189 235 280 330
#     4   9  19  35  51  72 110 153 187 228 284 332
#     4  10  22  41  63  87 115 147 191 247 297 341
#     4  12  23  32  51  83 116 151 188 234 285 340
#     4  12  22  35  59  88 115 148 194 237 290 349
#
# _framework density 19.106373000000001
#
# number of rings (size 3 to 8) (size 9 to 14) (size 15 to 20)
#    0.000    1.714    1.429    4.286    2.000    3.429 
#    0.000    0.000    0.000    0.429    0.000    0.000 
#    0.000    0.000    0.000    0.000    0.000    0.000 
#
# Total GULP energy -347108.538356 kJ/mol
# GULP energy per Si atom -12396.733513 kJ/mol
# Density = 1.906289 g / cm^3
# Si number density = 19.106373 Si / 1000 Ang^3
#
#
#
# Elastic Constant Matrix: (Units=GPa)
#
#
# Indices 1 2 3 4 5 6 
#
# 1 113.6543 51.7631 39.9146 0.0000 1.0251 0.0000
# 2 51.7631 115.9242 52.8415 0.0000 11.3495 0.0000
# 3 39.9146 52.8415 84.9547 0.0000 -8.9829 0.0000
# 4 0.0000 0.0000 0.0000 16.4509 0.0000 -1.0324
# 5 1.0251 11.3495 -8.9829 0.0000 24.6986 0.0000
# 6 0.0000 0.0000 0.0000 -1.0324 0.0000 28.2506
#
#
#
# Elastic Compliance Matrix: (Units=1/GPa)
#
#
# Indices 1 2 3 4 5 6 
#
# 1 0.011606 -0.003793 -0.003079 0.000000 0.000141 0.000000
# 2 -0.003793 0.015328 -0.008819 0.000000 -0.010094 0.000000
# 3 -0.003079 -0.008819 0.019911 0.000000 0.011422 0.000000
# 4 0.000000 0.000000 0.000000 0.060926 0.000000 0.002227
# 5 0.000141 -0.010094 0.011422 0.000000 0.049275 0.000000
# 6 0.000000 0.000000 0.000000 0.002227 0.000000 0.035479
#
#
# Mechanical properties :
#
#
# Convention : Reuss Voigt Hill
#
# Bulk Modulus (GPa) = 64.67031 67.06351 65.86691
# Shear Modulus (GPa) = 21.82817 25.21430 23.52123
#
# Velocity S-wave (km/s) = 3.38369 3.63668 3.51246
# Velocity P-wave (km/s) = 7.01333 7.26706 7.14132
#
# Compressibility (1/GPa) = 0.01546305
#
# Stress axis : x y z
#
# Youngs Moduli (GPa) = 86.16229 65.23879 50.22367
#
# Poissons Ratio (x) = 0.24744 0.15463
# Poissons Ratio (y) = 0.32680 0.44295
# Poissons Ratio (z) = 0.26528 0.57537
#
# Static dielectric constant tensor:
#      x y z
#    x 3.535970 0.000000 -0.114580 
#    y 0.000000 8.383850 0.000000 
#    z -0.114580 0.000000 3.446340 
# 
# 
# High freq. dielectric constant tensor:
#      x y z
#    x 1.733280 0.000000 0.004790 
#    y 0.000000 1.757710 0.000000 
#    z 0.004790 0.000000 1.737460 
# 
# From -- ./inp_files/240865.got.cif
#   From: 2010.06.25/outbox.cif.g09.slc.cpg/sg12_121_cif.got.tgz:240865.got - 2010.06.28 00:19:55.
