data_PCOD8111614
_publ_section_title
;
Structure prediction by ZEFSAII (Michael W. Deem and Ramdas Pophale) SiO2 
 PCOD8111614
Probable space group: C 2/M
;
_chemical_formula_sum "Si O2"
_cell_formula_units_Z 48
_cell_length_a 19.666304
_cell_length_b 8.797939
_cell_length_c 26.102168
_cell_angle_alpha 90.000000
_cell_angle_beta 31.939009
_cell_angle_gamma 90.000000
_cell_volume 2389.182170
_symmetry_space_group_name_H-M "C 2/M"
_symmetry_group_IT_number 12
_symmetry_cell_setting 'monoclinic'
loop_
_space_group_symop_operation_xyz
x,y,z
-x,y,-z
-x,-y,-z
x,-y,z
1/2+x,1/2+y,z
1/2-x,1/2+y,-z
1/2-x,1/2-y,-z
1/2+x,1/2-y,z
loop_
_atom_site_type_symbol
_atom_site_label
_atom_site_fract_x
_atom_site_fract_y
_atom_site_fract_z
Si Si1 0.342065 0.323463 0.872984
Si Si2 0.156837 0.322596 0.518728
Si Si3 0.115391 0.674809 0.260689
Si Si4 0.561447 0.177169 0.090096
Si Si5 0.857413 0.820921 0.578779
Si Si6 0.804675 0.176669 0.229143
O O1 0.369067 0.500000 0.865714
O O2 0.381659 0.281616 0.790432
O O3 0.428953 0.228200 0.856863
O O4 0.192731 0.283690 0.976702
O O5 0.182662 0.500000 0.500706
O O6 0.250000 0.250000 0.500000
O O7 0.192704 0.254864 0.440940
O O8 0.009811 0.283761 0.626236
O O9 0.112562 0.500000 0.244471
O O10 0.239266 0.709245 0.216298
O O11 0.452223 0.272040 0.130626
O O12 0.527691 0.000000 0.109772
O O13 0.762098 0.776197 0.684773
O O14 0.000000 0.760036 0.500000
O O15 0.856353 0.000000 0.571995
O O16 0.793105 0.000000 0.251090
#
# Coordination Sequence:
#
# PCOD8111614 Si02
#       6
#     8   8   8   8   8   8
#     4  10  22  40  64  90 120 159 200 246 300 358
#     4  11  24  42  62  88 123 162 205 250 299 353
#     4  10  23  41  61  87 122 160 199 249 300 353
#     4  10  22  41  63  90 122 156 199 249 300 357
#     4  11  23  40  63  90 122 160 200 247 300 354
#     4  11  23  40  63  90 120 160 204 244 298 360
#
# _framework density 20.090557
#
# number of rings (size 3 to 8) (size 9 to 14) (size 15 to 20)
#    0.000    1.500    1.667    2.500    2.333    6.000 
#    0.000    3.333    0.000    0.000    0.000    0.000 
#    0.000    0.000    0.000    0.000    0.000    0.000 
#
# Total GULP energy -297779.321652 kJ/mol
# GULP energy per Si atom -12407.471736 kJ/mol
# Density = 2.004483 g / cm^3
# Si number density = 20.090557 Si / 1000 Ang^3
#
#
#
# Elastic Constant Matrix: (Units=GPa)
#
#
# Indices 1 2 3 4 5 6 
#
# 1 88.4157 32.1716 1.6436 0.0033 -6.9562 -0.0097
# 2 32.1716 71.2002 16.9450 0.0034 -3.0973 -0.0058
# 3 1.6436 16.9450 32.4026 0.0004 0.2687 -0.0031
# 4 0.0033 0.0034 0.0004 35.2620 -0.0009 -0.1255
# 5 -6.9562 -3.0973 0.2687 -0.0009 40.1272 0.0060
# 6 -0.0097 -0.0058 -0.0031 -0.1255 0.0060 36.5598
#
#
#
# Elastic Compliance Matrix: (Units=1/GPa)
#
#
# Indices 1 2 3 4 5 6 
#
# 1 0.013910 -0.006890 0.002882 -0.000001 0.001860 0.000003
# 2 -0.006890 0.019522 -0.009863 -0.000001 0.000378 0.000000
# 3 0.002882 -0.009863 0.035877 0.000000 -0.000502 0.000002
# 4 -0.000001 -0.000001 0.000000 0.028359 0.000000 0.000097
# 5 0.001860 0.000378 -0.000502 0.000000 0.025276 -0.000004
# 6 0.000003 0.000000 0.000002 0.000097 -0.000004 0.027353
#
#
# Mechanical properties :
#
#
# Convention : Reuss Voigt Hill
#
# Bulk Modulus (GPa) = 24.05694 32.61546 28.33620
# Shear Modulus (GPa) = 26.05592 31.80702 28.93147
#
# Velocity S-wave (km/s) = 3.60519 3.98324 3.79892
# Velocity P-wave (km/s) = 5.41573 6.11755 5.77730
#
# Compressibility (1/GPa) = 0.04156805
#
# Stress axis : x y z
#
# Youngs Moduli (GPa) = 71.88999 51.22435 27.87273
#
# Poissons Ratio (x) = 0.35295 -0.08034
# Poissons Ratio (y) = 0.49534 0.27490
# Poissons Ratio (z) = -0.20721 0.50521
#
# Static dielectric constant tensor:
#      x y z
#    x 3.703970 0.000000 -0.147860 
#    y 0.000000 3.676980 -0.000010 
#    z -0.147860 -0.000010 3.660190 
# 
# 
# High freq. dielectric constant tensor:
#      x y z
#    x 1.793550 0.000000 -0.005160 
#    y 0.000000 1.793540 0.000000 
#    z -0.005160 0.000000 1.783160 
# 
# From -- ./inp_files/365368.got.cif
#   From: 2010.06.25/outbox.cif.g09.slc.cpg/sg12_183_cif.got.tgz:365368.got - 2010.06.28 00:19:55.
