data_PCOD8111009
_publ_section_title
;
Structure prediction by ZEFSAII (Michael W. Deem and Ramdas Pophale) SiO2 
 PCOD8111009
Probable space group: C 2/M
;
_chemical_formula_sum "Si O2"
_cell_formula_units_Z 28
_cell_length_a 10.238801
_cell_length_b 19.697540
_cell_length_c 13.456543
_cell_angle_alpha 90.000000
_cell_angle_beta 29.857078
_cell_angle_gamma 90.000000
_cell_volume 1351.085392
_symmetry_space_group_name_H-M "C 2/M"
_symmetry_group_IT_number 12
_symmetry_cell_setting 'monoclinic'
loop_
_space_group_symop_operation_xyz
x,y,z
-x,y,-z
-x,-y,-z
x,-y,z
1/2+x,1/2+y,z
1/2-x,1/2+y,-z
1/2-x,1/2-y,-z
1/2+x,1/2-y,z
loop_
_atom_site_type_symbol
_atom_site_label
_atom_site_fract_x
_atom_site_fract_y
_atom_site_fract_z
Si Si1 0.000000 0.262704 0.000000
Si Si2 0.842745 0.392186 0.191774
Si Si3 0.527047 0.795488 0.597852
Si Si4 0.255754 0.423772 0.530346
O O1 0.951594 0.314034 0.125982
O O2 0.743056 0.215770 0.162672
O O3 0.539803 0.391430 0.359955
O O4 0.888115 0.427555 0.267365
O O5 0.000000 0.431605 0.000000
O O6 0.500000 0.776939 0.500000
O O7 0.750000 0.750000 0.500000
O O8 0.598233 0.875239 0.559748
O O9 0.268185 0.500000 0.478083
#
# Coordination Sequence:
#
# PCOD8111009 Si02
#       4
#     4   8   8   8
#     4  10  22  38  70  94 122 166 224 264 316 368
#     4   9  19  38  64  95 122 165 218 267 308 368
#     4  12  25  44  67  96 132 170 217 270 320 381
#     4  11  23  39  61  94 133 169 209 262 323 387
#
# _framework density 20.724077999999999
#
# number of rings (size 3 to 8) (size 9 to 14) (size 15 to 20)
#    0.857    0.571    2.857    3.429    0.000    9.714 
#    0.000    0.714    0.000    0.000    0.000    0.000 
#    0.000    0.000    0.000    0.000    0.000    0.000 
#
# Total GULP energy -173450.391427 kJ/mol
# GULP energy per Si atom -12389.313673 kJ/mol
# Density = 2.067691 g / cm^3
# Si number density = 20.724078 Si / 1000 Ang^3
#
#
#
# Elastic Constant Matrix: (Units=GPa)
#
#
# Indices 1 2 3 4 5 6 
#
# 1 100.5041 45.7268 47.1207 -0.0766 -4.3890 0.0415
# 2 45.7268 127.1618 37.9271 -0.1911 -17.0162 0.0776
# 3 47.1207 37.9271 130.0565 -0.5539 -7.8966 0.2752
# 4 -0.0766 -0.1911 -0.5539 -14.2367 -0.0760 13.4194
# 5 -4.3890 -17.0162 -7.8966 -0.0760 28.3430 0.0490
# 6 0.0415 0.0776 0.2752 13.4194 0.0490 7.6882
#
#
#
# Elastic Compliance Matrix: (Units=1/GPa)
#
#
# Indices 1 2 3 4 5 6 
#
# 1 0.013445 -0.003870 -0.003822 0.000091 -0.001306 -0.000047
# 2 -0.003870 0.010344 -0.001296 -0.000061 0.005250 0.000036
# 3 -0.003822 -0.001296 0.009528 -0.000241 0.001284 0.000105
# 4 0.000091 -0.000061 -0.000241 -0.026546 -0.000241 0.046345
# 5 -0.001306 0.005250 0.001284 -0.000241 0.038589 0.000083
# 6 -0.000047 0.000036 0.000105 0.046345 0.000083 0.049172
#
#
# Mechanical properties :
#
#
# Convention : Reuss Voigt Hill
#
# Bulk Modulus (GPa) = 65.17605 68.80798 66.99201
# Shear Modulus (GPa) = 42.50885 19.48875 30.99880
#
# Velocity S-wave (km/s) = 4.53391 3.06991 3.87174
# Velocity P-wave (km/s) = 7.67634 6.77051 7.23761
#
# Compressibility (1/GPa) = 0.01534306
#
# Stress axis : x y z
#
# Youngs Moduli (GPa) = 74.37585 96.66985 104.95028
#
# Poissons Ratio (x) = 0.37407 0.40109
# Poissons Ratio (y) = 0.28780 0.13604
# Poissons Ratio (z) = 0.28424 0.12531
#
# Static dielectric constant tensor:
#      x y z
#    x 3.376710 -0.000050 0.070420 
#    y -0.000050 3.717170 0.000150 
#    z 0.070420 0.000150 4.044910 
# 
# 
# High freq. dielectric constant tensor:
#      x y z
#    x 1.767180 0.000000 0.003120 
#    y 0.000000 1.809810 0.000010 
#    z 0.003120 0.000010 1.825780 
# 
# From -- ./inp_files/206893.got.cif
#   From: 2010.06.25/outbox.cif.g09.slc.cpg/sg12_104_cif.got.tgz:206893.got - 2010.06.28 00:19:55.
