data_PCOD8111347
_publ_section_title
;
Structure prediction by ZEFSAII (Michael W. Deem and Ramdas Pophale) SiO2 
 PCOD8111347
Probable space group: C 2/M
;
_chemical_formula_sum "Si O2"
_cell_formula_units_Z 52
_cell_length_a 25.459058
_cell_length_b 11.366224
_cell_length_c 11.715043
_cell_angle_alpha 90.000000
_cell_angle_beta 49.519652
_cell_angle_gamma 90.000000
_cell_volume 2578.547422
_symmetry_space_group_name_H-M "C 2/M"
_symmetry_group_IT_number 12
_symmetry_cell_setting 'monoclinic'
loop_
_space_group_symop_operation_xyz
x,y,z
-x,y,-z
-x,-y,-z
x,-y,z
1/2+x,1/2+y,z
1/2-x,1/2+y,-z
1/2-x,1/2-y,-z
1/2+x,1/2-y,z
loop_
_atom_site_type_symbol
_atom_site_label
_atom_site_fract_x
_atom_site_fract_y
_atom_site_fract_z
Si Si1 0.673457 0.132528 0.558864
Si Si2 0.424027 0.500000 0.051738
Si Si3 0.808690 0.756588 0.011068
Si Si4 0.423331 0.756423 0.488245
Si Si5 0.873392 0.000000 0.891822
Si Si6 0.570807 0.137912 0.281315
Si Si7 0.686117 0.702021 0.745920
Si Si8 0.576662 0.500000 0.430446
O O1 0.622104 0.202485 0.550944
O O2 0.666830 0.189744 0.692135
O O3 0.750601 0.131877 0.399667
O O4 0.647037 0.000000 0.606908
O O5 0.380218 0.616063 0.148666
O O6 0.500000 0.500000 0.000000
O O7 0.436714 0.500000 0.894860
O O8 0.788220 0.734998 0.172033
O O9 0.750000 0.750000 0.000000
O O10 0.871002 0.668065 0.892950
O O11 0.827770 0.890879 0.986991
O O12 0.400829 0.825702 0.634281
O O13 0.503838 0.782538 0.348953
O O14 0.408019 0.617106 0.519470
O O15 0.883635 0.000000 0.743744
O O16 0.552203 0.000000 0.304105
O O17 0.500000 0.500000 0.500000
#
# Coordination Sequence:
#
# PCOD8111347 Si02
#       8
#     8   4   8   8   4   8   8   4
#     4  11  23  44  66  90 136 174 214 275 327 393
#     4  10  22  44  70  94 131 173 220 277 338 396
#     4  11  23  40  63  90 127 170 213 271 333 386
#     4  11  22  39  64  94 127 175 211 264 340 378
#     4  10  22  40  58  94 129 162 213 273 326 387
#     4  11  22  38  60  93 128 165 222 265 316 404
#     4  10  24  42  64  97 126 169 227 266 325 399
#     4  12  20  38  62  98 136 157 214 282 312 383
#
# _framework density 20.166392999999999
#
# number of rings (size 3 to 8) (size 9 to 14) (size 15 to 20)
#    0.000    1.231    3.846    2.769    1.077    4.923 
#    1.385    0.000    0.000    2.308    0.000    0.000 
#    0.000    0.000    0.000    0.000    0.000    0.000 
#
# Total GULP energy -322267.502971 kJ/mol
# GULP energy per Si atom -12394.903960 kJ/mol
# Density = 2.012049 g / cm^3
# Si number density = 20.166393 Si / 1000 Ang^3
#
#
#
# Elastic Constant Matrix: (Units=GPa)
#
#
# Indices 1 2 3 4 5 6 
#
# 1 158.3910 63.1061 49.4066 0.0000 23.7741 0.0000
# 2 63.1061 147.8308 49.7680 0.0000 22.9422 0.0000
# 3 49.4066 49.7680 89.9926 0.0000 11.2716 0.0000
# 4 0.0000 0.0000 0.0000 10.4406 0.0000 3.6213
# 5 23.7741 22.9422 11.2716 0.0000 25.1158 0.0000
# 6 0.0000 0.0000 0.0000 3.6213 0.0000 32.5983
#
#
#
# Elastic Compliance Matrix: (Units=1/GPa)
#
#
# Indices 1 2 3 4 5 6 
#
# 1 0.008835 -0.001904 -0.003145 0.000000 -0.005213 0.000000
# 2 -0.001904 0.009624 -0.003604 0.000000 -0.005372 0.000000
# 3 -0.003145 -0.003604 0.014883 0.000000 -0.000410 0.000000
# 4 0.000000 0.000000 0.000000 0.099618 0.000000 -0.011066
# 5 -0.005213 -0.005372 -0.000410 0.000000 0.049841 0.000000
# 6 0.000000 0.000000 0.000000 -0.011066 0.000000 0.031906
#
#
# Mechanical properties :
#
#
# Convention : Reuss Voigt Hill
#
# Bulk Modulus (GPa) = 62.35749 80.08621 71.22185
# Shear Modulus (GPa) = 21.06508 29.22652 25.14580
#
# Velocity S-wave (km/s) = 3.23548 3.81106 3.53500
# Velocity P-wave (km/s) = 6.70421 7.69184 7.21494
#
# Compressibility (1/GPa) = 0.01603657
#
# Stress axis : x y z
#
# Youngs Moduli (GPa) = 113.17980 103.90359 67.18950
#
# Poissons Ratio (x) = 0.19783 0.21131
# Poissons Ratio (y) = 0.21549 0.24218
# Poissons Ratio (z) = 0.35594 0.37451
#
# Static dielectric constant tensor:
#      x y z
#    x 3.199750 0.000000 -0.565900 
#    y 0.000000 3.455420 0.000000 
#    z -0.565900 0.000000 2.812360 
# 
# 
# High freq. dielectric constant tensor:
#      x y z
#    x 1.786590 0.000000 0.008150 
#    y 0.000000 1.797050 0.000000 
#    z 0.008150 0.000000 1.786610 
# 
# From -- ./inp_files/175216.got.cif
#   From: 2010.06.25/outbox.cif.g09.slc.cpg/sg12_88_cif.got.tgz:175216.got - 2010.06.28 00:19:55.
