data_PCOD8111900
_publ_section_title
;
Structure prediction by ZEFSAII (Michael W. Deem and Ramdas Pophale) SiO2 
 PCOD8111900
Probable space group: C 2/M
;
_chemical_formula_sum "Si O2"
_cell_formula_units_Z 48
_cell_length_a 8.771401
_cell_length_b 17.579825
_cell_length_c 14.992077
_cell_angle_alpha 90.000000
_cell_angle_beta 92.333328
_cell_angle_gamma 90.000000
_cell_volume 2309.856962
_symmetry_space_group_name_H-M "C 2/M"
_symmetry_group_IT_number 12
_symmetry_cell_setting 'monoclinic'
loop_
_space_group_symop_operation_xyz
x,y,z
-x,y,-z
-x,-y,-z
x,-y,z
1/2+x,1/2+y,z
1/2-x,1/2+y,-z
1/2-x,1/2-y,-z
1/2+x,1/2-y,z
loop_
_atom_site_type_symbol
_atom_site_label
_atom_site_fract_x
_atom_site_fract_y
_atom_site_fract_z
Si Si1 0.699882 0.166977 0.173604
Si Si2 0.842622 0.669839 0.149142
Si Si3 0.324057 0.412274 0.010819
Si Si4 0.809901 0.587601 0.328090
Si Si5 0.823069 0.168205 0.513615
Si Si6 0.661068 0.912789 0.353316
O O1 0.781245 0.247179 0.168105
O O2 0.523581 0.173607 0.144086
O O3 0.723581 0.138830 0.274897
O O4 0.780748 0.106314 0.111243
O O5 0.777147 0.640373 0.054784
O O6 0.789938 0.612723 0.225499
O O7 0.288131 0.500000 0.989756
O O8 0.500000 0.392641 0.000000
O O9 0.760985 0.500000 0.334455
O O10 0.699763 0.638413 0.386484
O O11 0.982207 0.601181 0.364941
O O12 0.750000 0.250000 0.500000
O O13 0.747934 0.107653 0.445515
O O14 0.000000 0.175610 0.500000
O O15 0.692759 0.000000 0.329468
#
# Coordination Sequence:
#
# PCOD8111900 Si02
#       6
#     8   8   8   8   8   8
#     4  11  23  40  63  90 121 158 200 245 295 352
#     4  11  23  40  63  90 121 158 200 245 295 352
#     4  11  24  41  62  89 121 157 198 247 300 353
#     4  10  22  41  64  90 121 157 197 244 298 354
#     4  12  25  40  61  89 121 159 201 246 297 352
#     4  10  22  41  64  90 121 157 197 244 298 354
#
# _framework density 20.780508999999999
#
# number of rings (size 3 to 8) (size 9 to 14) (size 15 to 20)
#    0.000    1.167    0.000    6.000    0.000   10.667 
#    0.000    0.000    0.000    0.000    0.000    0.000 
#    0.000    0.000    0.000    0.000    0.000    0.000 
#
# Total GULP energy -297805.332229 kJ/mol
# GULP energy per Si atom -12408.555510 kJ/mol
# Density = 2.073321 g / cm^3
# Si number density = 20.780509 Si / 1000 Ang^3
#
#
#
# Elastic Constant Matrix: (Units=GPa)
#
#
# Indices 1 2 3 4 5 6 
#
# 1 95.3815 33.1341 27.2290 0.0000 -20.6614 0.0000
# 2 33.1341 101.8769 19.3610 0.0000 -17.1828 0.0000
# 3 27.2290 19.3610 70.3006 0.0000 -16.8733 0.0000
# 4 0.0000 0.0000 0.0000 44.0603 0.0000 -2.5804
# 5 -20.6614 -17.1828 -16.8733 0.0000 36.5624 0.0000
# 6 0.0000 0.0000 0.0000 -2.5804 0.0000 28.3232
#
#
#
# Elastic Compliance Matrix: (Units=1/GPa)
#
#
# Indices 1 2 3 4 5 6 
#
# 1 0.013467 -0.002965 -0.003270 0.000000 0.004708 0.000000
# 2 -0.002965 0.011556 -0.001274 0.000000 0.003168 0.000000
# 3 -0.003270 -0.001274 0.017155 0.000000 0.005470 0.000000
# 4 0.000000 0.000000 0.000000 0.022818 0.000000 0.002079
# 5 0.004708 0.003168 0.005470 0.000000 0.034024 0.000000
# 6 0.000000 0.000000 0.000000 0.002079 0.000000 0.035496
#
#
# Mechanical properties :
#
#
# Convention : Reuss Voigt Hill
#
# Bulk Modulus (GPa) = 36.81623 47.44521 42.13072
# Shear Modulus (GPa) = 31.52825 34.31150 32.91987
#
# Velocity S-wave (km/s) = 3.89935 4.06783 3.98448
# Velocity P-wave (km/s) = 6.16672 6.70404 6.44099
#
# Compressibility (1/GPa) = 0.02716193
#
# Stress axis : x y z
#
# Youngs Moduli (GPa) = 74.25351 86.53232 58.29227
#
# Poissons Ratio (x) = 0.25653 0.19060
# Poissons Ratio (y) = 0.22013 0.07427
# Poissons Ratio (z) = 0.24279 0.11025
#
# Static dielectric constant tensor:
#      x y z
#    x 3.818800 0.000000 -0.052470 
#    y 0.000000 4.001150 0.000000 
#    z -0.052470 0.000000 3.914020 
# 
# 
# High freq. dielectric constant tensor:
#      x y z
#    x 1.816460 0.000000 -0.007370 
#    y 0.000000 1.829010 0.000000 
#    z -0.007370 0.000000 1.825970 
# 
# From -- ./inp_files/195970.got.cif
#   From: 2010.06.25/outbox.cif.g09.slc.cpg/sg12_98_cif.got.tgz:195970.got - 2010.06.28 00:19:55.
