data_PCOD8111029
_publ_section_title
;
Structure prediction by ZEFSAII (Michael W. Deem and Ramdas Pophale) SiO2 
 PCOD8111029
Probable space group: C 2/M
;
_chemical_formula_sum "Si O2"
_cell_formula_units_Z 56
_cell_length_a 9.675544
_cell_length_b 22.934160
_cell_length_c 19.311708
_cell_angle_alpha 90.000000
_cell_angle_beta 136.746966
_cell_angle_gamma 90.000000
_cell_volume 2936.364298
_symmetry_space_group_name_H-M "C 2/M"
_symmetry_group_IT_number 12
_symmetry_cell_setting 'monoclinic'
loop_
_space_group_symop_operation_xyz
x,y,z
-x,y,-z
-x,-y,-z
x,-y,z
1/2+x,1/2+y,z
1/2-x,1/2+y,-z
1/2-x,1/2-y,-z
1/2+x,1/2-y,z
loop_
_atom_site_type_symbol
_atom_site_label
_atom_site_fract_x
_atom_site_fract_y
_atom_site_fract_z
Si Si1 0.331897 0.133284 0.387174
Si Si2 0.235140 0.067712 0.100104
Si Si3 0.103194 0.861416 0.609400
Si Si4 0.530528 0.147884 0.714602
Si Si5 0.963273 0.932685 0.295058
Si Si6 0.538176 0.068757 0.089927
Si Si7 0.109392 0.768660 0.384286
O O1 0.500000 0.108031 0.500000
O O2 0.443737 0.132126 0.355434
O O3 0.141194 0.090915 0.311989
O O4 0.254237 0.196723 0.383758
O O5 0.287911 0.117456 0.176604
O O6 0.354652 0.084466 0.073904
O O7 0.284757 0.000000 0.141003
O O8 0.000000 0.073865 0.000000
O O9 0.332287 0.878873 0.677531
O O10 0.000000 0.845512 0.500000
O O11 0.000818 0.916605 0.610764
O O12 0.072275 0.807603 0.651211
O O13 0.496988 0.218101 0.700577
O O14 0.748580 0.904573 0.194586
O O15 0.960112 0.000000 0.282820
O O16 0.561534 0.000000 0.092102
O O17 0.500000 0.096022 0.000000
O O18 0.250000 0.750000 0.500000
#
# Coordination Sequence:
#
# PCOD8111029 Si02
#       7
#     8   8   8   8   8   8   8
#     4  11  23  38  57  91 124 166 212 253 302 364
#     4  10  23  42  64  93 124 157 204 260 316 372
#     4  11  21  36  60  89 120 166 207 250 303 365
#     4  12  22  35  64  93 123 157 208 263 308 362
#     4  10  22  39  56  84 126 163 205 250 305 372
#     4   9  18  36  62  85 109 150 200 247 299 366
#     4  11  21  38  62  86 123 161 213 258 298 367
#
# _framework density 19.071202
#
# number of rings (size 3 to 8) (size 9 to 14) (size 15 to 20)
#    0.000    1.429    4.286    1.714    2.000    1.143 
#    0.000    1.429    0.000    6.857    0.000    0.000 
#    0.000    0.000    0.000    0.000    0.000    0.000 
#
# Total GULP energy -346932.898730 kJ/mol
# GULP energy per Si atom -12390.460669 kJ/mol
# Density = 1.902780 g / cm^3
# Si number density = 19.071202 Si / 1000 Ang^3
#
#
#
# Elastic Constant Matrix: (Units=GPa)
#
#
# Indices 1 2 3 4 5 6 
#
# 1 122.3513 20.8071 38.5700 0.0000 8.3038 0.0000
# 2 20.8071 61.6944 46.0736 0.0000 3.3180 0.0000
# 3 38.5700 46.0736 86.4430 0.0002 4.2513 -0.0003
# 4 0.0000 0.0000 0.0002 30.4132 0.0000 1.0263
# 5 8.3038 3.3180 4.2513 0.0000 37.4173 -0.0001
# 6 0.0000 0.0000 -0.0003 1.0263 -0.0001 24.2783
#
#
#
# Elastic Compliance Matrix: (Units=1/GPa)
#
#
# Indices 1 2 3 4 5 6 
#
# 1 0.009612 -0.000018 -0.004198 0.000000 -0.001655 0.000000
# 2 -0.000018 0.026949 -0.014318 0.000000 -0.000759 0.000000
# 3 -0.004198 -0.014318 0.021082 0.000000 -0.000194 0.000000
# 4 0.000000 0.000000 0.000000 0.032927 0.000000 -0.001392
# 5 -0.001655 -0.000759 -0.000194 0.000000 0.027182 0.000000
# 6 0.000000 0.000000 0.000000 -0.001392 0.000000 0.041248
#
#
# Mechanical properties :
#
#
# Convention : Reuss Voigt Hill
#
# Bulk Modulus (GPa) = 48.60209 53.48779 51.04494
# Shear Modulus (GPa) = 24.63949 29.42430 27.03189
#
# Velocity S-wave (km/s) = 3.59830 3.93219 3.76895
# Velocity P-wave (km/s) = 6.54244 6.98022 6.76487
#
# Compressibility (1/GPa) = 0.02057525
#
# Stress axis : x y z
#
# Youngs Moduli (GPa) = 104.03845 37.10769 47.43287
#
# Poissons Ratio (x) = 0.00066 0.19912
# Poissons Ratio (y) = 0.00184 0.67915
# Poissons Ratio (z) = 0.43674 0.53132
#
# Static dielectric constant tensor:
#      x y z
#    x 3.786950 0.000000 0.110070 
#    y 0.000000 3.519880 0.000000 
#    z 0.110070 0.000000 3.667060 
# 
# 
# High freq. dielectric constant tensor:
#      x y z
#    x 1.769780 0.000000 0.007010 
#    y 0.000000 1.719570 0.000000 
#    z 0.007010 0.000000 1.721420 
# 
# From -- ./inp_files/198533.got.cif
#   From: 2010.06.25/outbox.cif.g09.slc.cpg/sg12_100_cif.got.tgz:198533.got - 2010.06.28 00:19:55.
