data_PCOD8111758
_publ_section_title
;
Structure prediction by ZEFSAII (Michael W. Deem and Ramdas Pophale) SiO2 
 PCOD8111758
Probable space group: C 2/M
;
_chemical_formula_sum "Si O2"
_cell_formula_units_Z 56
_cell_length_a 18.700809
_cell_length_b 32.987794
_cell_length_c 7.823322
_cell_angle_alpha 90.000000
_cell_angle_beta 30.390987
_cell_angle_gamma 90.000000
_cell_volume 2441.562828
_symmetry_space_group_name_H-M "C 2/M"
_symmetry_group_IT_number 12
_symmetry_cell_setting 'monoclinic'
loop_
_space_group_symop_operation_xyz
x,y,z
-x,y,-z
-x,-y,-z
x,-y,z
1/2+x,1/2+y,z
1/2-x,1/2+y,-z
1/2-x,1/2-y,-z
1/2+x,1/2-y,z
loop_
_atom_site_type_symbol
_atom_site_label
_atom_site_fract_x
_atom_site_fract_y
_atom_site_fract_z
Si Si1 0.465889 0.087059 0.769084
Si Si2 0.206532 0.639868 0.381801
Si Si3 0.695119 0.631607 0.439862
Si Si4 0.451559 0.414403 0.794742
Si Si5 0.428811 0.713423 0.327441
Si Si6 0.396132 0.500000 0.876236
Si Si7 0.938893 0.500000 0.440952
Si Si8 0.776863 0.773302 0.121377
O O1 0.500000 0.088237 0.500000
O O2 0.549581 0.121710 0.700584
O O3 0.501596 0.041709 0.771355
O O4 0.304578 0.101227 0.123263
O O5 0.257441 0.645290 0.470436
O O6 0.215638 0.681290 0.255253
O O7 0.301438 0.607057 0.091497
O O8 0.549794 0.606801 0.732212
O O9 0.656253 0.674013 0.424359
O O10 0.500000 0.414402 0.500000
O O11 0.430753 0.459722 0.911219
O O12 0.313529 0.749139 0.548841
O O13 0.500000 0.703074 0.000000
O O14 0.555055 0.726376 0.194207
O O15 0.500000 0.500000 0.500000
O O16 0.228791 0.500000 0.183818
O O17 0.000000 0.500000 0.500000
O O18 0.750000 0.750000 0.000000
#
# Coordination Sequence:
#
# PCOD8111758 Si02
#       8
#     8   8   8   8   8   4   4   8
#     4  11  26  44  76 106 147 196 253 307 359 439
#     4  12  25  48  69 105 151 188 240 305 371 449
#     4  12  26  46  73 105 147 198 241 295 382 432
#     4  11  23  42  74 105 144 191 251 304 361 430
#     4  12  26  50  73 104 145 191 234 300 375 445
#     4  10  22  40  71 111 146 194 250 315 370 428
#     4  10  22  44  67 107 154 190 250 313 370 424
#     4  12  29  46  75 108 145 185 246 302 363 437
#
# _framework density 22.936129000000001
#
# number of rings (size 3 to 8) (size 9 to 14) (size 15 to 20)
#    0.000    0.571    4.286    2.571   12.000    0.000 
#    0.000    4.286    0.000    0.000    0.000    0.000 
#    0.000    0.000    0.000    0.000    0.000    0.000 
#
# Total GULP energy -346996.008510 kJ/mol
# GULP energy per Si atom -12392.714590 kJ/mol
# Density = 2.288392 g / cm^3
# Si number density = 22.936129 Si / 1000 Ang^3
#
#
#
# Elastic Constant Matrix: (Units=GPa)
#
#
# Indices 1 2 3 4 5 6 
#
# 1 99.9689 30.9386 5.2294 0.0000 -11.1843 0.0000
# 2 30.9386 200.7344 39.6531 0.0000 -9.1960 0.0000
# 3 5.2294 39.6531 77.1797 0.0000 -4.9913 0.0000
# 4 0.0000 0.0000 0.0000 44.2245 0.0000 -17.3367
# 5 -11.1843 -9.1960 -4.9913 0.0000 34.5409 0.0000
# 6 0.0000 0.0000 0.0000 -17.3367 0.0000 27.7932
#
#
#
# Elastic Compliance Matrix: (Units=1/GPa)
#
#
# Indices 1 2 3 4 5 6 
#
# 1 0.010827 -0.001581 0.000281 0.000000 0.003126 0.000000
# 2 -0.001581 0.005815 -0.002840 0.000000 0.000626 0.000000
# 3 0.000281 -0.002840 0.014489 0.000000 0.001429 0.000000
# 4 0.000000 0.000000 0.000000 0.029931 0.000000 0.018670
# 5 0.003126 0.000626 0.001429 0.000000 0.030336 0.000000
# 6 0.000000 0.000000 0.000000 0.018670 0.000000 0.047626
#
#
# Mechanical properties :
#
#
# Convention : Reuss Voigt Hill
#
# Bulk Modulus (GPa) = 43.76142 58.83613 51.29877
# Shear Modulus (GPa) = 32.27416 41.44917 36.86167
#
# Velocity S-wave (km/s) = 3.75525 4.25568 4.01327
# Velocity P-wave (km/s) = 6.15821 7.06085 6.62492
#
# Compressibility (1/GPa) = 0.02285118
#
# Stress axis : x y z
#
# Youngs Moduli (GPa) = 92.35814 171.96638 69.01652
#
# Poissons Ratio (x) = 0.27189 -0.01938
# Poissons Ratio (y) = 0.14603 0.19601
# Poissons Ratio (z) = -0.02594 0.48839
#
# Static dielectric constant tensor:
#      x y z
#    x 3.999670 0.000000 -0.586570 
#    y 0.000000 4.877200 0.000000 
#    z -0.586570 0.000000 4.834470 
# 
# 
# High freq. dielectric constant tensor:
#      x y z
#    x 1.893720 0.000000 -0.019930 
#    y 0.000000 1.928690 0.000000 
#    z -0.019930 0.000000 1.909600 
# 
# From -- ./inp_files/91596.got.cif
#   From: 2010.06.25/outbox.cif.g09.slc.cpg/sg12_46_cif.got.tgz:91596.got - 2010.06.28 00:19:55.
