data_PCOD8111849
_publ_section_title
;
Structure prediction by ZEFSAII (Michael W. Deem and Ramdas Pophale) SiO2 
 PCOD8111849
Probable space group: C 2/M
;
_chemical_formula_sum "Si O2"
_cell_formula_units_Z 56
_cell_length_a 9.631901
_cell_length_b 24.629360
_cell_length_c 17.933512
_cell_angle_alpha 90.000000
_cell_angle_beta 140.073566
_cell_angle_gamma 90.000000
_cell_volume 2730.439560
_symmetry_space_group_name_H-M "C 2/M"
_symmetry_group_IT_number 12
_symmetry_cell_setting 'monoclinic'
loop_
_space_group_symop_operation_xyz
x,y,z
-x,y,-z
-x,-y,-z
x,-y,z
1/2+x,1/2+y,z
1/2-x,1/2+y,-z
1/2-x,1/2-y,-z
1/2+x,1/2-y,z
loop_
_atom_site_type_symbol
_atom_site_label
_atom_site_fract_x
_atom_site_fract_y
_atom_site_fract_z
Si Si1 0.512112 0.899620 0.782204
Si Si2 0.109161 0.305608 0.617057
Si Si3 0.176720 0.604073 0.017161
Si Si4 0.070719 0.500000 0.612286
Si Si5 0.167252 0.903592 0.218541
Si Si6 0.257886 0.000000 0.616949
Si Si7 0.410089 0.215538 0.687482
Si Si8 0.274284 0.227938 0.929086
O O1 0.579581 0.899767 0.895410
O O2 0.729543 0.904884 0.821925
O O3 0.340174 0.947282 0.695876
O O4 0.390571 0.843246 0.717054
O O5 0.295441 0.344029 0.729318
O O6 0.198261 0.248803 0.622045
O O7 0.000000 0.334956 0.500000
O O8 0.932285 0.291924 0.607564
O O9 0.416355 0.577915 0.113685
O O10 0.219986 0.663401 0.067643
O O11 0.000000 0.575626 0.000000
O O12 0.211156 0.446658 0.681229
O O13 0.000000 0.500000 0.500000
O O14 0.859148 0.500000 0.576647
O O15 0.000000 0.000000 0.500000
O O16 0.609765 0.249855 0.800724
O O17 0.500000 0.253857 0.000000
O O18 0.250000 0.250000 0.000000
#
# Coordination Sequence:
#
# PCOD8111849 Si02
#       8
#     8   8   8   4   8   4   8   8
#     4  10  23  40  65  91 122 166 207 251 314 379
#     4  11  23  38  57  85 123 163 206 258 308 368
#     4  11  23  37  59  94 127 159 200 255 315 367
#     4  10  22  43  70  93 113 162 216 254 309 370
#     4  10  22  41  63  88 124 161 206 257 312 374
#     4  10  24  47  68  93 125 162 212 264 307 364
#     4  11  22  37  59  88 121 163 206 251 312 371
#     4  11  21  33  57  88 123 163 200 246 305 376
#
# _framework density 20.509518
#
# number of rings (size 3 to 8) (size 9 to 14) (size 15 to 20)
#    0.000    1.429    2.857    2.143    4.000    2.286 
#    0.000    4.286    0.000    0.000    0.000    0.000 
#    0.000    0.000    0.000    0.000    0.000    0.000 
#
# Total GULP energy -347098.174929 kJ/mol
# GULP energy per Si atom -12396.363390 kJ/mol
# Density = 2.046284 g / cm^3
# Si number density = 20.509518 Si / 1000 Ang^3
#
#
#
# Elastic Constant Matrix: (Units=GPa)
#
#
# Indices 1 2 3 4 5 6 
#
# 1 135.9709 40.9264 71.1011 0.0012 -9.5374 -0.0004
# 2 40.9264 100.7812 43.7959 0.0010 1.2800 -0.0003
# 3 71.1011 43.7959 115.6978 0.0095 -9.9977 -0.0020
# 4 0.0012 0.0010 0.0095 16.0036 0.0013 1.8073
# 5 -9.5374 1.2800 -9.9977 0.0013 48.9572 -0.0004
# 6 -0.0004 -0.0003 -0.0020 1.8073 -0.0004 23.0150
#
#
#
# Elastic Compliance Matrix: (Units=1/GPa)
#
#
# Indices 1 2 3 4 5 6 
#
# 1 0.011165 -0.001917 -0.006050 0.000003 0.000990 -0.000001
# 2 -0.001917 0.012281 -0.003594 0.000002 -0.001429 0.000000
# 3 -0.006050 -0.003594 0.013873 -0.000008 0.001748 0.000002
# 4 0.000003 0.000002 -0.000008 0.063045 -0.000003 -0.004951
# 5 0.000990 -0.001429 0.001748 -0.000003 0.021013 0.000001
# 6 -0.000001 0.000000 0.000002 -0.004951 0.000001 0.043839
#
#
# Mechanical properties :
#
#
# Convention : Reuss Voigt Hill
#
# Bulk Modulus (GPa) = 70.44262 73.78854 72.11558
# Shear Modulus (GPa) = 25.89742 30.70358 28.30050
#
# Velocity S-wave (km/s) = 3.55731 3.87336 3.71869
# Velocity P-wave (km/s) = 7.16194 7.48730 7.32643
#
# Compressibility (1/GPa) = 0.01419595
#
# Stress axis : x y z
#
# Youngs Moduli (GPa) = 89.56906 81.42607 72.08468
#
# Poissons Ratio (x) = 0.15613 0.43610
# Poissons Ratio (y) = 0.17174 0.25907
# Poissons Ratio (z) = 0.54187 0.29264
#
# Static dielectric constant tensor:
#      x y z
#    x 3.945280 0.000000 0.056270 
#    y 0.000000 3.783090 0.000000 
#    z 0.056270 0.000000 3.700000 
# 
# 
# High freq. dielectric constant tensor:
#      x y z
#    x 1.810990 0.000000 -0.006730 
#    y 0.000000 1.797020 0.000000 
#    z -0.006730 0.000000 1.804400 
# 
# From -- ./inp_files/259898.got.cif
#   From: 2010.06.25/outbox.cif.g09.slc.cpg/sg12_130_cif.got.tgz:259898.got - 2010.06.28 00:19:55.
