data_PCOD8111068
_publ_section_title
;
Structure prediction by ZEFSAII (Michael W. Deem and Ramdas Pophale) SiO2 
 PCOD8111068
Probable space group: C 2/M
;
_chemical_formula_sum "Si O2"
_cell_formula_units_Z 40
_cell_length_a 13.816840
_cell_length_b 23.348664
_cell_length_c 9.700133
_cell_angle_alpha 90.000000
_cell_angle_beta 141.923042
_cell_angle_gamma 90.000000
_cell_volume 1929.905437
_symmetry_space_group_name_H-M "C 2/M"
_symmetry_group_IT_number 12
_symmetry_cell_setting 'monoclinic'
loop_
_space_group_symop_operation_xyz
x,y,z
-x,y,-z
-x,-y,-z
x,-y,z
1/2+x,1/2+y,z
1/2-x,1/2+y,-z
1/2-x,1/2-y,-z
1/2+x,1/2-y,z
loop_
_atom_site_type_symbol
_atom_site_label
_atom_site_fract_x
_atom_site_fract_y
_atom_site_fract_z
Si Si1 0.134640 0.170123 0.330122
Si Si2 0.874486 0.153765 0.245859
Si Si3 0.149922 0.434634 0.856509
Si Si4 0.703295 0.934926 0.598290
Si Si5 0.329279 0.220255 0.788298
O O1 0.162693 0.104940 0.316113
O O2 0.265987 0.187777 0.585083
O O3 0.152970 0.211558 0.218497
O O4 0.962592 0.174990 0.206524
O O5 0.782458 0.208703 0.205362
O O6 0.000000 0.130576 0.500000
O O7 0.749578 0.104247 0.072596
O O8 0.169456 0.500000 0.927697
O O9 0.211647 0.427458 0.771138
O O10 0.966654 0.417201 0.652400
O O11 0.742887 0.000000 0.601170
O O12 0.500000 0.193015 0.000000
#
# Coordination Sequence:
#
# PCOD8111068 Si02
#       5
#     8   8   8   8   8
#     4  10  22  39  58  89 118 150 194 242 290 337
#     4  10  22  39  58  85 121 151 195 239 285 347
#     4   9  19  37  61  88 118 153 192 235 288 347
#     4   9  19  38  62  88 116 152 194 237 289 346
#     4  10  22  40  58  81 120 156 197 232 287 348
#
# _framework density 20.726406000000001
#
# number of rings (size 3 to 8) (size 9 to 14) (size 15 to 20)
#    0.000    2.400    0.000    2.400    2.800    2.000 
#   18.000    5.000    0.000   10.800    0.000    0.000 
#    0.000    0.000    0.000    0.000    0.000    0.000 
#
# Total GULP energy -247963.623272 kJ/mol
# GULP energy per Si atom -12398.181164 kJ/mol
# Density = 2.067923 g / cm^3
# Si number density = 20.726406 Si / 1000 Ang^3
#
#
#
# Elastic Constant Matrix: (Units=GPa)
#
#
# Indices 1 2 3 4 5 6 
#
# 1 144.1823 75.5897 34.7969 0.0000 5.9551 0.0000
# 2 75.5897 119.5912 37.9728 0.0000 -4.8253 0.0000
# 3 34.7969 37.9728 92.2200 0.0000 10.5965 0.0000
# 4 0.0000 0.0000 0.0000 20.6167 0.0000 -7.5110
# 5 5.9551 -4.8253 10.5965 0.0000 18.4102 0.0000
# 6 0.0000 0.0000 0.0000 -7.5110 0.0000 30.2104
#
#
#
# Elastic Compliance Matrix: (Units=1/GPa)
#
#
# Indices 1 2 3 4 5 6 
#
# 1 0.010913 -0.006865 -0.000727 0.000000 -0.004911 0.000000
# 2 -0.006865 0.014415 -0.004320 0.000000 0.008486 0.000000
# 3 -0.000727 -0.004320 0.013921 0.000000 -0.008910 0.000000
# 4 0.000000 0.000000 0.000000 0.053335 0.000000 0.013260
# 5 -0.004911 0.008486 -0.008910 0.000000 0.063259 0.000000
# 6 0.000000 0.000000 0.000000 0.013260 0.000000 0.036398
#
#
# Mechanical properties :
#
#
# Convention : Reuss Voigt Hill
#
# Bulk Modulus (GPa) = 64.83152 72.52357 68.67755
# Shear Modulus (GPa) = 22.60331 27.68975 25.14653
#
# Velocity S-wave (km/s) = 3.30594 3.65905 3.48697
# Velocity P-wave (km/s) = 6.77642 7.27450 7.02988
#
# Compressibility (1/GPa) = 0.01542459
#
# Stress axis : x y z
#
# Youngs Moduli (GPa) = 91.63327 69.37088 71.83648
#
# Poissons Ratio (x) = 0.47625 0.05220
# Poissons Ratio (y) = 0.62908 0.31035
# Poissons Ratio (z) = 0.06658 0.29970
#
# Static dielectric constant tensor:
#      x y z
#    x 3.665970 0.000000 0.064530 
#    y 0.000000 3.625310 0.000000 
#    z 0.064530 0.000000 3.851570 
# 
# 
# High freq. dielectric constant tensor:
#      x y z
#    x 1.803260 0.000000 0.007550 
#    y 0.000000 1.798090 0.000000 
#    z 0.007550 0.000000 1.822790 
# 
# From -- ./inp_files/50954.got.cif
#   From: 2010.06.25/outbox.cif.g09.slc.cpg/sg12_26_cif.got.tgz:50954.got - 2010.06.28 00:19:55.
