data_PCOD8111807
_publ_section_title
;
Structure prediction by ZEFSAII (Michael W. Deem and Ramdas Pophale) SiO2 
 PCOD8111807
Probable space group: C 2/M
;
_chemical_formula_sum "Si O2"
_cell_formula_units_Z 64
_cell_length_a 9.123852
_cell_length_b 15.368038
_cell_length_c 31.387678
_cell_angle_alpha 90.000000
_cell_angle_beta 135.048894
_cell_angle_gamma 90.000000
_cell_volume 3109.352228
_symmetry_space_group_name_H-M "C 2/M"
_symmetry_group_IT_number 12
_symmetry_cell_setting 'monoclinic'
loop_
_space_group_symop_operation_xyz
x,y,z
-x,y,-z
-x,-y,-z
x,-y,z
1/2+x,1/2+y,z
1/2-x,1/2+y,-z
1/2-x,1/2-y,-z
1/2+x,1/2-y,z
loop_
_atom_site_type_symbol
_atom_site_label
_atom_site_fract_x
_atom_site_fract_y
_atom_site_fract_z
Si Si1 0.273190 0.103399 0.440276
Si Si2 0.120538 0.233091 0.849674
Si Si3 0.660432 0.241765 0.765564
Si Si4 0.433147 0.902625 0.941572
Si Si5 0.731752 0.317573 0.035510
Si Si6 0.493252 0.901144 0.323122
Si Si7 0.543251 0.601259 0.554775
Si Si8 0.134756 0.102246 0.317636
O O1 0.500000 0.139978 0.500000
O O2 0.210773 0.133056 0.379873
O O3 0.102335 0.141866 0.438125
O O4 0.277009 0.000000 0.442271
O O5 0.217833 0.273671 0.826960
O O6 0.228882 0.140212 0.879658
O O7 0.157266 0.289896 0.898555
O O8 0.879907 0.228730 0.787413
O O9 0.520065 0.163258 0.719708
O O10 0.559582 0.336841 0.735933
O O11 0.632023 0.900132 0.951268
O O12 0.366545 0.000000 0.937990
O O13 0.500000 0.855091 0.000000
O O14 0.500000 0.345510 0.000000
O O15 0.750000 0.250000 0.000000
O O16 0.716869 0.882451 0.388073
O O17 0.324233 0.881753 0.324544
O O18 0.473329 0.000000 0.302293
O O19 0.500000 0.645252 0.500000
O O20 0.487192 0.500000 0.541037
O O21 0.066190 0.000000 0.303148
#
# Coordination Sequence:
#
# PCOD8111807 Si02
#       8
#     8   8   8   8   8   8   8   8
#     4   9  17  31  56  88 120 159 208 260 321 382
#     4  12  23  41  65  92 122 170 209 252 305 377
#     4  12  25  41  63  92 125 169 220 256 311 379
#     4  11  24  42  67  99 130 163 208 262 317 372
#     4  12  20  40  71  96 127 166 206 253 314 377
#     4  10  22  41  62  86 122 166 211 262 319 376
#     4   9  17  31  56  88 121 158 205 262 323 382
#     4  10  22  41  63  87 123 167 210 263 318 378
#
# _framework density 20.583064
#
# number of rings (size 3 to 8) (size 9 to 14) (size 15 to 20)
#    0.000    1.375    5.000    0.750    1.750    4.250 
#    0.000    1.250    0.000    3.000    0.000    0.000 
#    0.000    0.000    0.000    0.000    0.000    0.000 
#
# Total GULP energy -396631.138302 kJ/mol
# GULP energy per Si atom -12394.723072 kJ/mol
# Density = 2.053622 g / cm^3
# Si number density = 20.583064 Si / 1000 Ang^3
#
#
#
# Elastic Constant Matrix: (Units=GPa)
#
#
# Indices 1 2 3 4 5 6 
#
# 1 124.3141 42.7410 55.7371 0.0000 10.1993 0.0000
# 2 42.7410 69.0188 50.2519 0.0000 -0.2619 0.0000
# 3 55.7371 50.2519 125.3906 0.0000 -11.8563 0.0000
# 4 0.0000 0.0000 0.0000 25.0874 0.0000 -0.8760
# 5 10.1993 -0.2619 -11.8563 0.0000 49.4660 0.0000
# 6 0.0000 0.0000 0.0000 -0.8760 0.0000 14.9453
#
#
#
# Elastic Compliance Matrix: (Units=1/GPa)
#
#
# Indices 1 2 3 4 5 6 
#
# 1 0.011472 -0.004490 -0.003608 0.000000 -0.003254 0.000000
# 2 -0.004490 0.022392 -0.007039 0.000000 -0.000643 0.000000
# 3 -0.003608 -0.007039 0.012756 0.000000 0.003764 0.000000
# 4 0.000000 0.000000 0.000000 0.039942 0.000000 0.002341
# 5 -0.003254 -0.000643 0.003764 0.000000 0.021786 0.000000
# 6 0.000000 0.000000 0.000000 0.002341 0.000000 0.067048
#
#
# Mechanical properties :
#
#
# Convention : Reuss Voigt Hill
#
# Bulk Modulus (GPa) = 61.17488 68.46485 64.81986
# Shear Modulus (GPa) = 23.68350 29.23264 26.45807
#
# Velocity S-wave (km/s) = 3.39577 3.77268 3.58918
# Velocity P-wave (km/s) = 6.72016 7.23273 6.98115
#
# Compressibility (1/GPa) = 0.01634658
#
# Stress axis : x y z
#
# Youngs Moduli (GPa) = 87.16535 44.65950 78.39732
#
# Poissons Ratio (x) = 0.20052 0.28285
# Poissons Ratio (y) = 0.39137 0.55181
# Poissons Ratio (z) = 0.31448 0.31434
#
# Static dielectric constant tensor:
#      x y z
#    x 3.994800 0.000000 -0.110860 
#    y 0.000000 3.384830 0.000000 
#    z -0.110860 0.000000 3.729130 
# 
# 
# High freq. dielectric constant tensor:
#      x y z
#    x 1.822830 0.000000 -0.004170 
#    y 0.000000 1.770860 0.000000 
#    z -0.004170 0.000000 1.816360 
# 
# From -- ./inp_files/372598.got.cif
#   From: 2010.06.25/outbox.cif.g09.slc.cpg/sg12_187_cif.got.tgz:372598.got - 2010.06.28 00:19:55.
