data_PCOD8111931
_publ_section_title
;
Structure prediction by ZEFSAII (Michael W. Deem and Ramdas Pophale) SiO2 
 PCOD8111931
Probable space group: C 2/M
;
_chemical_formula_sum "Si O2"
_cell_formula_units_Z 56
_cell_length_a 23.468902
_cell_length_b 8.781722
_cell_length_c 13.247059
_cell_angle_alpha 90.000000
_cell_angle_beta 103.555078
_cell_angle_gamma 90.000000
_cell_volume 2654.134952
_symmetry_space_group_name_H-M "C 2/M"
_symmetry_group_IT_number 12
_symmetry_cell_setting 'monoclinic'
loop_
_space_group_symop_operation_xyz
x,y,z
-x,y,-z
-x,-y,-z
x,-y,z
1/2+x,1/2+y,z
1/2-x,1/2+y,-z
1/2-x,1/2-y,-z
1/2+x,1/2-y,z
loop_
_atom_site_type_symbol
_atom_site_label
_atom_site_fract_x
_atom_site_fract_y
_atom_site_fract_z
Si Si1 0.937930 0.177336 0.021822
Si Si2 0.651793 0.176275 0.162987
Si Si3 0.604724 0.822367 0.363413
Si Si4 0.009572 0.179679 0.619554
Si Si5 0.898125 0.678664 0.207632
Si Si6 0.802908 0.820478 0.461504
Si Si7 0.714044 0.677759 0.773562
O O1 0.931121 0.275339 0.119522
O O2 0.935022 0.000000 0.048515
O O3 0.886829 0.215435 0.922168
O O4 0.000000 0.222444 0.000000
O O5 0.638538 0.212624 0.274001
O O6 0.719374 0.215096 0.168113
O O7 0.637750 0.000000 0.133069
O O8 0.538859 0.759366 0.329539
O O9 0.635738 0.735109 0.468067
O O10 0.604388 0.000000 0.387454
O O11 0.000000 0.229282 0.500000
O O12 0.072528 0.237489 0.684133
O O13 0.005333 0.000000 0.631133
O O14 0.902902 0.500000 0.224887
O O15 0.830101 0.729770 0.172390
O O16 0.750000 0.750000 0.500000
O O17 0.797949 0.766075 0.344756
O O18 0.798241 0.000000 0.467528
O O19 0.700885 0.500000 0.780152
#
# Coordination Sequence:
#
# PCOD8111931 Si02
#       7
#     8   8   8   8   8   8   8
#     4  11  25  45  69  95 123 160 208 259 314 378
#     4  10  22  41  64  92 125 162 206 258 315 371
#     4  11  22  38  61  93 128 164 210 264 316 372
#     4  11  24  42  63  90 126 169 210 255 313 374
#     4  12  26  43  66  95 126 166 209 259 316 372
#     4  11  21  36  59  89 128 172 213 257 312 370
#     4  10  22  42  63  89 129 171 209 257 314 374
#
# _framework density 21.099152
#
# number of rings (size 3 to 8) (size 9 to 14) (size 15 to 20)
#    0.000    1.143    1.429    4.714    0.000   11.429 
#    0.000    0.000    0.000    0.000    0.000    0.000 
#    0.000    0.000    0.000    0.000    0.000    0.000 
#
# Total GULP energy -347409.797838 kJ/mol
# GULP energy per Si atom -12407.492780 kJ/mol
# Density = 2.105113 g / cm^3
# Si number density = 21.099152 Si / 1000 Ang^3
#
#
#
# Elastic Constant Matrix: (Units=GPa)
#
#
# Indices 1 2 3 4 5 6 
#
# 1 127.6673 30.5676 33.5217 0.0000 -1.6602 0.0000
# 2 30.5676 62.0248 35.5752 0.0000 -10.9134 0.0000
# 3 33.5217 35.5752 89.8500 0.0000 8.7564 0.0000
# 4 0.0000 0.0000 0.0000 34.1418 0.0000 1.3924
# 5 -1.6602 -10.9134 8.7564 0.0000 31.9375 0.0000
# 6 0.0000 0.0000 0.0000 1.3924 0.0000 38.1341
#
#
#
# Elastic Compliance Matrix: (Units=1/GPa)
#
#
# Indices 1 2 3 4 5 6 
#
# 1 0.009181 -0.003339 -0.002095 0.000000 -0.000090 0.000000
# 2 -0.003339 0.025435 -0.009920 0.000000 0.011238 0.000000
# 3 -0.002095 -0.009920 0.016624 0.000000 -0.008057 0.000000
# 4 0.000000 0.000000 0.000000 0.029333 0.000000 -0.001071
# 5 -0.000090 0.011238 -0.008057 0.000000 0.037356 0.000000
# 6 0.000000 0.000000 0.000000 -0.001071 0.000000 0.026262
#
#
# Mechanical properties :
#
#
# Convention : Reuss Voigt Hill
#
# Bulk Modulus (GPa) = 48.70267 53.20789 50.95528
# Shear Modulus (GPa) = 27.51117 32.83450 30.17284
#
# Velocity S-wave (km/s) = 3.61487 3.94915 3.78570
# Velocity P-wave (km/s) = 6.36835 6.78728 6.58115
#
# Compressibility (1/GPa) = 0.02053275
#
# Stress axis : x y z
#
# Youngs Moduli (GPa) = 108.91876 39.31514 60.15354
#
# Poissons Ratio (x) = 0.13128 0.12599
# Poissons Ratio (y) = 0.36369 0.59674
# Poissons Ratio (z) = 0.22813 0.39002
#
# Static dielectric constant tensor:
#      x y z
#    x 3.980380 0.000000 0.061890 
#    y 0.000000 3.742180 0.000000 
#    z 0.061890 0.000000 3.882980 
# 
# 
# High freq. dielectric constant tensor:
#      x y z
#    x 1.844790 0.000000 0.003320 
#    y 0.000000 1.827650 0.000000 
#    z 0.003320 0.000000 1.825580 
# 
# From -- ./inp_files/237840.got.cif
#   From: 2010.06.25/outbox.cif.g09.slc.cpg/sg12_119_cif.got.tgz:237840.got - 2010.06.28 00:19:55.
