data_PCOD8111713
_publ_section_title
;
Structure prediction by ZEFSAII (Michael W. Deem and Ramdas Pophale) SiO2 
 PCOD8111713
Probable space group: C 2/M
;
_chemical_formula_sum "Si O2"
_cell_formula_units_Z 28
_cell_length_a 11.734313
_cell_length_b 19.151206
_cell_length_c 5.021600
_cell_angle_alpha 90.000000
_cell_angle_beta 106.611063
_cell_angle_gamma 90.000000
_cell_volume 1081.390682
_symmetry_space_group_name_H-M "C 2/M"
_symmetry_group_IT_number 12
_symmetry_cell_setting 'monoclinic'
loop_
_space_group_symop_operation_xyz
x,y,z
-x,y,-z
-x,-y,-z
x,-y,z
1/2+x,1/2+y,z
1/2-x,1/2+y,-z
1/2-x,1/2-y,-z
1/2+x,1/2-y,z
loop_
_atom_site_type_symbol
_atom_site_label
_atom_site_fract_x
_atom_site_fract_y
_atom_site_fract_z
Si Si1 0.414802 0.000000 0.688849
Si Si2 0.720229 0.858386 0.323328
Si Si3 0.078697 0.227283 0.290572
Si Si4 0.078976 0.077842 0.795183
O O1 0.500000 0.000000 0.500000
O O2 0.333780 0.069040 0.609126
O O3 0.500000 0.000000 0.000000
O O4 0.807959 0.823233 0.599722
O O5 0.618609 0.802105 0.194027
O O6 0.800131 0.876028 0.112702
O O7 0.000000 0.241862 0.500000
O O8 0.000000 0.191715 0.000000
O O9 0.000000 0.111090 0.500000
O O10 0.117993 0.000000 0.738226
O O11 0.000000 0.075123 0.000000
#
# Coordination Sequence:
#
# PCOD8111713 Si02
#       4
#     4   8   8   8
#     4  12  28  48  75 112 147 186 244 306 380 450
#     4  11  25  48  76 106 151 196 242 309 376 430
#     4  11  27  48  73 107 147 199 256 301 358 444
#     4  10  22  40  66 104 143 181 233 292 360 434
#
# _framework density 25.892585
#
# number of rings (size 3 to 8) (size 9 to 14) (size 15 to 20)
#    0.000    1.143    1.429    2.571    0.000   16.000 
#    0.000    0.714    0.000    1.714    0.000    0.000 
#    0.000    0.000    0.000    0.000    0.000    0.000 
#
# Total GULP energy -173510.532943 kJ/mol
# GULP energy per Si atom -12393.609496 kJ/mol
# Density = 2.583365 g / cm^3
# Si number density = 25.892585 Si / 1000 Ang^3
#
#
#
# Elastic Constant Matrix: (Units=GPa)
#
#
# Indices 1 2 3 4 5 6 
#
# 1 155.3033 80.6465 51.1422 0.0000 -19.4597 0.0000
# 2 80.6465 193.4864 -12.6822 0.0000 5.3016 0.0000
# 3 51.1422 -12.6822 138.1143 0.0000 -4.7980 0.0000
# 4 0.0000 0.0000 0.0000 26.0633 0.0000 5.4697
# 5 -19.4597 5.3016 -4.7980 0.0000 46.3486 0.0000
# 6 0.0000 0.0000 0.0000 5.4697 0.0000 51.7567
#
#
#
# Elastic Compliance Matrix: (Units=1/GPa)
#
#
# Indices 1 2 3 4 5 6 
#
# 1 0.011117 -0.005054 -0.004414 0.000000 0.004789 0.000000
# 2 -0.005054 0.007511 0.002467 0.000000 -0.002726 0.000000
# 3 -0.004414 0.002467 0.009060 0.000000 -0.001198 0.000000
# 4 0.000000 0.000000 0.000000 0.039238 0.000000 -0.004147
# 5 0.004789 -0.002726 -0.001198 0.000000 0.023774 0.000000
# 6 0.000000 0.000000 0.000000 -0.004147 0.000000 0.019759
#
#
# Mechanical properties :
#
#
# Convention : Reuss Voigt Hill
#
# Bulk Modulus (GPa) = 73.07635 80.56859 76.82247
# Shear Modulus (GPa) = 38.75179 49.35356 44.05267
#
# Velocity S-wave (km/s) = 3.87284 4.37061 4.12923
# Velocity P-wave (km/s) = 6.94857 7.52687 7.24349
#
# Compressibility (1/GPa) = 0.01368432
#
# Stress axis : x y z
#
# Youngs Moduli (GPa) = 89.94895 133.13106 110.37680
#
# Poissons Ratio (x) = 0.67290 0.48725
# Poissons Ratio (y) = 0.45464 -0.27226
# Poissons Ratio (z) = 0.39707 -0.32838
#
# Static dielectric constant tensor:
#      x y z
#    x 5.041060 0.000000 -0.027050 
#    y 0.000000 5.932330 0.000000 
#    z -0.027050 0.000000 4.284680 
# 
# 
# High freq. dielectric constant tensor:
#      x y z
#    x 2.056430 0.000000 -0.015810 
#    y 0.000000 2.085750 0.000000 
#    z -0.015810 0.000000 2.006290 
# 
# From -- ./inp_files/5737.got.cif
#   From: 2010.06.25/outbox.cif.g09.slc.cpg/sg12_3_cif.got.tgz:5737.got - 2010.06.28 00:19:55.
