data_PCOD8111555
_publ_section_title
;
Structure prediction by ZEFSAII (Michael W. Deem and Ramdas Pophale) SiO2 
 PCOD8111555
Probable space group: C 2/M
;
_chemical_formula_sum "Si O2"
_cell_formula_units_Z 48
_cell_length_a 17.054976
_cell_length_b 12.435231
_cell_length_c 12.630510
_cell_angle_alpha 90.000000
_cell_angle_beta 116.741440
_cell_angle_gamma 90.000000
_cell_volume 2392.212598
_symmetry_space_group_name_H-M "C 2/M"
_symmetry_group_IT_number 12
_symmetry_cell_setting 'monoclinic'
loop_
_space_group_symop_operation_xyz
x,y,z
-x,y,-z
-x,-y,-z
x,-y,z
1/2+x,1/2+y,z
1/2-x,1/2+y,-z
1/2-x,1/2-y,-z
1/2+x,1/2-y,z
loop_
_atom_site_type_symbol
_atom_site_label
_atom_site_fract_x
_atom_site_fract_y
_atom_site_fract_z
Si Si1 0.452008 0.379019 0.071938
Si Si2 0.535929 0.237358 0.298488
Si Si3 0.324833 0.716707 0.466132
Si Si4 0.316855 0.876724 0.752462
Si Si5 0.381962 0.876077 0.323940
Si Si6 0.776154 0.794529 0.904598
O O1 0.484026 0.500000 0.114490
O O2 0.473324 0.308623 0.187364
O O3 0.500000 0.328127 0.000000
O O4 0.350811 0.380432 0.977671
O O5 0.591254 0.317491 0.410773
O O6 0.603711 0.163844 0.273527
O O7 0.473747 0.162615 0.331019
O O8 0.250000 0.750000 0.500000
O O9 0.279526 0.626902 0.363835
O O10 0.358080 0.817012 0.417793
O O11 0.312372 0.802100 0.853156
O O12 0.334710 0.000000 0.796409
O O13 0.303720 0.859037 0.193890
O O14 0.391588 0.000000 0.358497
O O15 0.750000 0.750000 0.000000
#
# Coordination Sequence:
#
# PCOD8111555 Si02
#       6
#     8   8   8   8   8   8
#     4  11  23  41  64  88 122 165 206 248 301 364
#     4  11  21  41  63  93 125 157 202 258 303 361
#     4   9  22  40  59  86 125 156 197 249 296 359
#     4  10  22  40  63  88 121 162 202 253 311 359
#     4  11  23  39  66  94 121 161 204 252 308 362
#     4  11  22  42  60  88 128 160 203 257 299 362
#
# _framework density 20.065107000000001
#
# number of rings (size 3 to 8) (size 9 to 14) (size 15 to 20)
#    0.000    1.500    3.333    1.500    0.000    6.000 
#    0.000    0.833    0.000    3.000    0.000    0.000 
#    0.000    0.000    0.000    0.000    0.000    0.000 
#
# Total GULP energy -297430.835663 kJ/mol
# GULP energy per Si atom -12392.951486 kJ/mol
# Density = 2.001944 g / cm^3
# Si number density = 20.065107 Si / 1000 Ang^3
#
#
#
# Elastic Constant Matrix: (Units=GPa)
#
#
# Indices 1 2 3 4 5 6 
#
# 1 128.3447 29.4573 42.8066 0.0000 -8.8681 0.0000
# 2 29.4573 84.5683 20.6531 0.0000 -8.9303 0.0000
# 3 42.8066 20.6531 103.8607 0.0000 5.1048 0.0000
# 4 0.0000 0.0000 0.0000 13.8819 0.0000 2.4543
# 5 -8.8681 -8.9303 5.1048 0.0000 51.2656 0.0000
# 6 0.0000 0.0000 0.0000 2.4543 0.0000 24.7433
#
#
#
# Elastic Compliance Matrix: (Units=1/GPa)
#
#
# Indices 1 2 3 4 5 6 
#
# 1 0.009630 -0.002306 -0.003590 0.000000 0.001622 0.000000
# 2 -0.002306 0.013288 -0.001795 0.000000 0.002094 0.000000
# 3 -0.003590 -0.001795 0.011567 0.000000 -0.002086 0.000000
# 4 0.000000 0.000000 0.000000 0.073322 0.000000 -0.007273
# 5 0.001622 0.002094 -0.002086 0.000000 0.020359 0.000000
# 6 0.000000 0.000000 0.000000 -0.007273 0.000000 0.041136
#
#
# Mechanical properties :
#
#
# Convention : Reuss Voigt Hill
#
# Bulk Modulus (GPa) = 52.34855 55.84527 54.09691
# Shear Modulus (GPa) = 26.17073 32.90195 29.53634
#
# Velocity S-wave (km/s) = 3.61541 4.05379 3.84086
# Velocity P-wave (km/s) = 6.60108 7.05715 6.83292
#
# Compressibility (1/GPa) = 0.01910272
#
# Stress axis : x y z
#
# Youngs Moduli (GPa) = 103.83802 75.25811 86.44992
#
# Poissons Ratio (x) = 0.17358 0.31038
# Poissons Ratio (y) = 0.23950 0.15514
# Poissons Ratio (z) = 0.37280 0.13506
#
# Static dielectric constant tensor:
#      x y z
#    x 3.791440 0.000000 0.067270 
#    y 0.000000 3.316440 0.000000 
#    z 0.067270 0.000000 3.959540 
# 
# 
# High freq. dielectric constant tensor:
#      x y z
#    x 1.802280 0.000000 0.002540 
#    y 0.000000 1.754120 0.000000 
#    z 0.002540 0.000000 1.803220 
# 
# From -- ./inp_files/154305.got.cif
#   From: 2010.06.25/outbox.cif.g09.slc.cpg/sg12_78_cif.got.tgz:154305.got - 2010.06.28 00:19:55.
