data_PCOD8111305
_publ_section_title
;
Structure prediction by ZEFSAII (Michael W. Deem and Ramdas Pophale) SiO2 
 PCOD8111305
Probable space group: C 2/M
;
_chemical_formula_sum "Si O2"
_cell_formula_units_Z 52
_cell_length_a 16.379135
_cell_length_b 15.330831
_cell_length_c 14.899368
_cell_angle_alpha 90.000000
_cell_angle_beta 40.168772
_cell_angle_gamma 90.000000
_cell_volume 2413.303968
_symmetry_space_group_name_H-M "C 2/M"
_symmetry_group_IT_number 12
_symmetry_cell_setting 'monoclinic'
loop_
_space_group_symop_operation_xyz
x,y,z
-x,y,-z
-x,-y,-z
x,-y,z
1/2+x,1/2+y,z
1/2-x,1/2+y,-z
1/2-x,1/2-y,-z
1/2+x,1/2-y,z
loop_
_atom_site_type_symbol
_atom_site_label
_atom_site_fract_x
_atom_site_fract_y
_atom_site_fract_z
Si Si1 0.931896 0.000000 0.462715
Si Si2 0.128177 0.707365 0.434578
Si Si3 0.986018 0.327319 0.281129
Si Si4 0.722756 0.128585 0.672232
Si Si5 0.358461 0.314260 0.939694
Si Si6 0.148122 0.500000 0.878890
Si Si7 0.783348 0.398073 0.802545
Si Si8 0.659286 0.500000 0.136670
O O1 0.843951 0.915095 0.522475
O O2 0.000000 0.000000 0.500000
O O3 0.040708 0.000000 0.300190
O O4 0.105719 0.686224 0.557030
O O5 0.246122 0.771939 0.332444
O O6 0.168157 0.625290 0.338328
O O7 0.000000 0.749098 0.500000
O O8 0.903128 0.384292 0.281794
O O9 0.016294 0.236318 0.200890
O O10 0.107976 0.380229 0.213316
O O11 0.700533 0.085585 0.786800
O O12 0.349213 0.411912 0.911318
O O13 0.250000 0.250000 0.000000
O O14 0.335801 0.335663 0.065952
O O15 0.203317 0.500000 0.932052
O O16 0.000000 0.500000 0.000000
O O17 0.747350 0.500000 0.833533
#
# Coordination Sequence:
#
# PCOD8111305 Si02
#       8
#     4   8   8   8   8   4   8   4
#     4  11  22  40  64 101 132 168 217 264 352 405
#     4  10  22  39  65  92 125 171 222 268 320 400
#     4  10  23  39  67  97 132 168 220 280 341 391
#     4  11  23  40  64  95 135 165 211 279 341 400
#     4  10  23  39  68  96 130 177 228 275 337 401
#     4  11  29  36  60  97 130 170 207 271 353 393
#     4  10  22  41  66  95 129 176 229 274 326 402
#     4  12  23  43  68  93 134 176 224 285 324 427
#
# _framework density 21.547224
#
# number of rings (size 3 to 8) (size 9 to 14) (size 15 to 20)
#    0.000    1.538    2.308    1.846   12.923    2.769 
#    0.000    0.000    1.692    0.923    0.000    0.000 
#    0.000    0.000    0.000    0.000    0.000    0.000 
#
# Total GULP energy -322089.679075 kJ/mol
# GULP energy per Si atom -12388.064580 kJ/mol
# Density = 2.149818 g / cm^3
# Si number density = 21.547224 Si / 1000 Ang^3
#
#
#
# Elastic Constant Matrix: (Units=GPa)
#
#
# Indices 1 2 3 4 5 6 
#
# 1 61.6592 9.5745 8.2756 -0.0001 -3.0333 0.0000
# 2 9.5745 107.0111 37.5052 0.0000 2.6361 0.0000
# 3 8.2756 37.5052 126.3593 0.0000 9.4596 0.0000
# 4 -0.0001 0.0000 0.0000 16.8886 0.0000 10.9337
# 5 -3.0333 2.6361 9.4596 0.0000 25.1192 0.0000
# 6 0.0000 0.0000 0.0000 10.9337 0.0000 4.7496
#
#
#
# Elastic Compliance Matrix: (Units=1/GPa)
#
#
# Indices 1 2 3 4 5 6 
#
# 1 0.016654 -0.001232 -0.000911 0.000000 0.002483 0.000001
# 2 -0.001232 0.010521 -0.003034 0.000000 -0.000110 0.000000
# 3 -0.000911 -0.003034 0.009115 0.000000 -0.003224 0.000000
# 4 0.000000 0.000000 0.000000 -0.120762 0.000001 0.277994
# 5 0.002483 -0.000110 -0.003224 0.000001 0.041336 -0.000001
# 6 0.000001 0.000000 0.000000 0.277994 -0.000001 -0.429401
#
#
# Mechanical properties :
#
#
# Convention : Reuss Voigt Hill
#
# Bulk Modulus (GPa) = 38.55508 45.08224 41.81866
# Shear Modulus (GPa) = -11.02444 25.32978 7.15267
#
# Velocity S-wave (km/s) = -2.26440 3.43234 1.82393
# Velocity P-wave (km/s) = 3.33098 6.05607 4.88730
#
# Compressibility (1/GPa) = 0.02593692
#
# Stress axis : x y z
#
# Youngs Moduli (GPa) = 60.04595 95.04737 109.70345
#
# Poissons Ratio (x) = 0.11709 0.09994
# Poissons Ratio (y) = 0.07397 0.33282
# Poissons Ratio (z) = 0.05470 0.28836
#
# Static dielectric constant tensor:
#      x y z
#    x 3.700060 0.000000 0.031290 
#    y 0.000000 3.890200 0.000000 
#    z 0.031290 0.000000 4.288550 
# 
# 
# High freq. dielectric constant tensor:
#      x y z
#    x 1.816920 0.000000 0.002220 
#    y 0.000000 1.844280 0.000000 
#    z 0.002220 0.000000 1.869410 
# 
# From -- ./inp_files/225651.got.cif
#   From: 2010.06.25/outbox.cif.g09.slc.cpg/sg12_113_cif.got.tgz:225651.got - 2010.06.28 00:19:55.
