data_PCOD8111240
_publ_section_title
;
Structure prediction by ZEFSAII (Michael W. Deem and Ramdas Pophale) SiO2 
 PCOD8111240
Probable space group: C 2/M
;
_chemical_formula_sum "Si O2"
_cell_formula_units_Z 40
_cell_length_a 12.366728
_cell_length_b 15.980809
_cell_length_c 17.925792
_cell_angle_alpha 90.000000
_cell_angle_beta 32.346816
_cell_angle_gamma 90.000000
_cell_volume 1895.485515
_symmetry_space_group_name_H-M "C 2/M"
_symmetry_group_IT_number 12
_symmetry_cell_setting 'monoclinic'
loop_
_space_group_symop_operation_xyz
x,y,z
-x,y,-z
-x,-y,-z
x,-y,z
1/2+x,1/2+y,z
1/2-x,1/2+y,-z
1/2-x,1/2-y,-z
1/2+x,1/2-y,z
loop_
_atom_site_type_symbol
_atom_site_label
_atom_site_fract_x
_atom_site_fract_y
_atom_site_fract_z
Si Si1 0.939796 0.208550 0.849903
Si Si2 0.515855 0.668169 0.578204
Si Si3 0.452271 0.173347 0.344418
Si Si4 0.350920 0.594574 0.155015
Si Si5 0.224553 0.402653 0.861351
O O1 0.044388 0.278607 0.737409
O O2 0.865846 0.132362 0.843010
O O3 0.100336 0.167011 0.813100
O O4 0.750000 0.250000 0.000000
O O5 0.500000 0.663082 0.500000
O O6 0.514613 0.763556 0.606312
O O7 0.324893 0.618174 0.723157
O O8 0.732673 0.628930 0.477748
O O9 0.626698 0.104720 0.251510
O O10 0.370164 0.500000 0.176487
O O11 0.500000 0.608221 0.000000
O O12 0.207806 0.500000 0.883332
O O13 0.000000 0.362409 0.000000
#
# Coordination Sequence:
#
# PCOD8111240 Si02
#       5
#     8   8   8   8   8
#     4  11  22  37  67  91 125 167 210 262 317 381
#     4  10  22  39  65  93 127 167 221 266 314 382
#     4  10  22  39  62  94 126 172 215 263 317 384
#     4  11  23  38  59  95 134 166 211 265 325 385
#     4  10  24  42  62  92 127 163 210 265 320 381
#
# _framework density 21.102772999999999
#
# number of rings (size 3 to 8) (size 9 to 14) (size 15 to 20)
#    0.000    1.600    2.000    1.800    8.400    1.200 
#    0.000    0.000    0.000   12.600    0.000    0.000 
#    0.000    0.000    0.000    0.000    0.000    0.000 
#
# Total GULP energy -247954.200528 kJ/mol
# GULP energy per Si atom -12397.710026 kJ/mol
# Density = 2.105474 g / cm^3
# Si number density = 21.102773 Si / 1000 Ang^3
#
#
#
# Elastic Constant Matrix: (Units=GPa)
#
#
# Indices 1 2 3 4 5 6 
#
# 1 82.8095 26.6158 40.8988 0.0017 6.4269 0.0010
# 2 26.6158 53.0394 22.6543 -0.0047 3.7910 0.0010
# 3 40.8988 22.6543 153.1896 -0.0130 -8.5553 0.0021
# 4 0.0017 -0.0047 -0.0130 2.6492 -0.0001 -5.9514
# 5 6.4269 3.7910 -8.5553 -0.0001 40.1582 0.0003
# 6 0.0010 0.0010 0.0021 -5.9514 0.0003 27.0291
#
#
#
# Elastic Compliance Matrix: (Units=1/GPa)
#
#
# Indices 1 2 3 4 5 6 
#
# 1 0.016062 -0.006372 -0.003497 -0.000077 -0.002714 -0.000017
# 2 -0.006372 0.022918 -0.001773 0.000069 -0.001521 0.000015
# 3 -0.003497 -0.001773 0.007858 0.000073 0.002401 0.000016
# 4 -0.000077 0.000069 0.000073 0.746927 0.000022 0.164463
# 5 -0.002714 -0.001521 0.002401 0.000022 0.025991 0.000005
# 6 -0.000017 0.000015 0.000016 0.164463 0.000005 0.073210
#
#
# Mechanical properties :
#
#
# Convention : Reuss Voigt Hill
#
# Bulk Modulus (GPa) = 42.45866 52.15290 47.30578
# Shear Modulus (GPa) = 5.41066 27.22530 16.31798
#
# Velocity S-wave (km/s) = 1.60297 3.59573 2.78378
# Velocity P-wave (km/s) = 4.85692 6.48124 5.72696
#
# Compressibility (1/GPa) = 0.02355232
#
# Stress axis : x y z
#
# Youngs Moduli (GPa) = 62.25862 43.63469 127.26050
#
# Poissons Ratio (x) = 0.27805 0.44509
# Poissons Ratio (y) = 0.39673 0.22561
# Poissons Ratio (z) = 0.21775 0.07736
#
# Static dielectric constant tensor:
#      x y z
#    x 5.448570 -0.064740 1.352470 
#    y -0.064740 18.432480 -0.056520 
#    z 1.352470 -0.056520 5.628170 
# 
# 
# High freq. dielectric constant tensor:
#      x y z
#    x 1.829310 0.000000 -0.006030 
#    y 0.000000 1.803200 0.000000 
#    z -0.006030 0.000000 1.848770 
# 
# From -- ./inp_files/98285.got.cif
#   From: 2010.06.25/outbox.cif.g09.slc.cpg/sg12_50_cif.got.tgz:98285.got - 2010.06.28 00:19:55.
