data_PCOD8111180
_publ_section_title
;
Structure prediction by ZEFSAII (Michael W. Deem and Ramdas Pophale) SiO2 
 PCOD8111180
Probable space group: C 2/M
;
_chemical_formula_sum "Si O2"
_cell_formula_units_Z 64
_cell_length_a 18.553848
_cell_length_b 13.299485
_cell_length_c 14.794028
_cell_angle_alpha 90.000000
_cell_angle_beta 53.544647
_cell_angle_gamma 90.000000
_cell_volume 2936.190234
_symmetry_space_group_name_H-M "C 2/M"
_symmetry_group_IT_number 12
_symmetry_cell_setting 'monoclinic'
loop_
_space_group_symop_operation_xyz
x,y,z
-x,y,-z
-x,-y,-z
x,-y,z
1/2+x,1/2+y,z
1/2-x,1/2+y,-z
1/2-x,1/2-y,-z
1/2+x,1/2-y,z
loop_
_atom_site_type_symbol
_atom_site_label
_atom_site_fract_x
_atom_site_fract_y
_atom_site_fract_z
Si Si1 0.850232 0.253664 0.968048
Si Si2 0.325861 0.617199 0.682028
Si Si3 0.456722 0.297140 0.725235
Si Si4 0.254281 0.882154 0.613277
Si Si5 0.538848 0.884515 0.568212
Si Si6 0.998167 0.390424 0.107764
Si Si7 0.838665 0.262383 0.182376
Si Si8 0.864597 0.114293 0.456361
O O1 0.913558 0.185903 0.856296
O O2 0.902567 0.361570 0.927961
O O3 0.750000 0.250000 0.000000
O O4 0.855934 0.218019 0.068247
O O5 0.349321 0.500000 0.675289
O O6 0.379814 0.684807 0.710688
O O7 0.221519 0.636601 0.780395
O O8 0.351260 0.663157 0.564767
O O9 0.495909 0.184329 0.679225
O O10 0.533874 0.378623 0.653401
O O11 0.356748 0.860817 0.514953
O O12 0.217169 0.825406 0.728490
O O13 0.201142 0.836707 0.567466
O O14 0.236073 0.000000 0.643468
O O15 0.500000 0.856260 0.500000
O O16 0.518457 0.000000 0.608854
O O17 0.971561 0.500000 0.170264
O O18 0.925780 0.298852 0.175736
O O19 0.000000 0.404043 0.000000
O O20 0.835900 0.000000 0.489422
#
# Coordination Sequence:
#
# PCOD8111180 Si02
#       8
#     8   8   8   8   8   8   8   8
#     4  11  24  41  59  91 129 171 219 261 305 378
#     4  11  23  39  64  94 126 160 203 261 323 386
#     4  12  22  39  62  86 126 169 208 255 316 369
#     4  10  22  41  65  94 127 163 206 260 317 383
#     4  10  22  39  61  90 122 161 210 259 315 382
#     4   9  20  39  64  91 125 168 213 267 322 371
#     4  11  21  41  67  94 132 171 212 261 318 383
#     4  10  22  39  61  93 123 154 203 256 315 382
#
# _framework density 21.796952999999998
#
# number of rings (size 3 to 8) (size 9 to 14) (size 15 to 20)
#    0.000    1.500    1.250    4.125    0.000    5.000 
#    0.000    3.125    0.000    5.625    0.000    0.000 
#    0.000    0.000    0.000    0.000    0.000    0.000 
#
# Total GULP energy -396541.309942 kJ/mol
# GULP energy per Si atom -12391.915936 kJ/mol
# Density = 2.174734 g / cm^3
# Si number density = 21.796953 Si / 1000 Ang^3
#
#
#
# Elastic Constant Matrix: (Units=GPa)
#
#
# Indices 1 2 3 4 5 6 
#
# 1 120.1289 27.1393 38.5261 0.0000 -10.7202 0.0000
# 2 27.1393 75.6902 28.5315 0.0000 -0.6448 0.0000
# 3 38.5261 28.5315 141.9786 0.0000 5.9531 0.0000
# 4 0.0000 0.0000 0.0000 15.8172 0.0000 -10.6749
# 5 -10.7202 -0.6448 5.9531 0.0000 37.6199 0.0000
# 6 0.0000 0.0000 0.0000 -10.6749 0.0000 12.7251
#
#
#
# Elastic Compliance Matrix: (Units=1/GPa)
#
#
# Indices 1 2 3 4 5 6 
#
# 1 0.009945 -0.002675 -0.002293 0.000000 0.003151 0.000000
# 2 -0.002675 0.015032 -0.002289 0.000000 -0.000142 0.000000
# 3 -0.002293 -0.002289 0.008209 0.000000 -0.001992 0.000000
# 4 0.000000 0.000000 0.000000 0.145725 0.000000 0.122247
# 5 0.003151 -0.000142 -0.001992 0.000000 0.027792 0.000000
# 6 0.000000 0.000000 0.000000 0.122247 0.000000 0.181136
#
#
# Mechanical properties :
#
#
# Convention : Reuss Voigt Hill
#
# Bulk Modulus (GPa) = 53.55409 58.46573 56.00991
# Shear Modulus (GPa) = 12.23755 29.47250 20.85502
#
# Velocity S-wave (km/s) = 2.37203 3.68113 3.09655
# Velocity P-wave (km/s) = 5.66788 6.70438 6.20780
#
# Compressibility (1/GPa) = 0.01867271
#
# Stress axis : x y z
#
# Youngs Moduli (GPa) = 100.54968 66.52272 121.81546
#
# Poissons Ratio (x) = 0.17793 0.27936
# Poissons Ratio (y) = 0.26894 0.27885
# Poissons Ratio (z) = 0.23059 0.15228
#
# Static dielectric constant tensor:
#      x y z
#    x 4.182070 0.000000 -0.031170 
#    y 0.000000 3.832690 0.000000 
#    z -0.031170 0.000000 4.099410 
# 
# 
# High freq. dielectric constant tensor:
#      x y z
#    x 1.871130 0.000000 -0.003030 
#    y 0.000000 1.842000 0.000000 
#    z -0.003030 0.000000 1.859500 
# 
# From -- ./inp_files/225709.got.cif
#   From: 2010.06.25/outbox.cif.g09.slc.cpg/sg12_113_cif.got.tgz:225709.got - 2010.06.28 00:19:55.
