data_PCOD8111081
_publ_section_title
;
Structure prediction by ZEFSAII (Michael W. Deem and Ramdas Pophale) SiO2 
 PCOD8111081
Probable space group: C 2/M
;
_chemical_formula_sum "Si O2"
_cell_formula_units_Z 32
_cell_length_a 17.402636
_cell_length_b 14.521154
_cell_length_c 11.006392
_cell_angle_alpha 90.000000
_cell_angle_beta 146.626509
_cell_angle_gamma 90.000000
_cell_volume 1530.024502
_symmetry_space_group_name_H-M "C 2/M"
_symmetry_group_IT_number 12
_symmetry_cell_setting 'monoclinic'
loop_
_space_group_symop_operation_xyz
x,y,z
-x,y,-z
-x,-y,-z
x,-y,z
1/2+x,1/2+y,z
1/2-x,1/2+y,-z
1/2-x,1/2-y,-z
1/2+x,1/2-y,z
loop_
_atom_site_type_symbol
_atom_site_label
_atom_site_fract_x
_atom_site_fract_y
_atom_site_fract_z
Si Si1 0.869389 0.108124 0.071745
Si Si2 0.623591 0.900034 0.570348
Si Si3 0.333945 0.397990 0.288533
Si Si4 0.860708 0.224196 0.544768
O O1 0.791214 0.135525 0.096041
O O2 0.012315 0.163738 0.235386
O O3 0.908343 0.000000 0.129124
O O4 0.765683 0.130521 0.825269
O O5 0.500000 0.910911 0.500000
O O6 0.579444 0.822888 0.416687
O O7 0.646310 0.000000 0.536456
O O8 0.500000 0.400647 0.500000
O O9 0.273371 0.500000 0.237311
O O10 0.286738 0.328242 0.332797
O O11 0.750000 0.250000 0.500000
#
# Coordination Sequence:
#
# PCOD8111081 Si02
#       4
#     8   8   8   8
#     4   9  19  39  64  83 105 145 194 238 278 324
#     4  10  22  39  59  84 112 145 189 238 282 326
#     4   8  15  31  56  81 103 137 191 241 272 313
#     4  11  22  33  52  85 120 151 183 222 275 340
#
# _framework density 20.914698000000001
#
# number of rings (size 3 to 8) (size 9 to 14) (size 15 to 20)
#    0.000    2.500    0.000    4.500    0.000    7.000 
#    0.000    2.500    0.000    1.500    0.000   15.750 
#    0.000    0.000    0.000    0.000    0.000    0.000 
#
# Total GULP energy -198265.932552 kJ/mol
# GULP energy per Si atom -12391.620785 kJ/mol
# Density = 2.086709 g / cm^3
# Si number density = 20.914698 Si / 1000 Ang^3
#
#
#
# Elastic Constant Matrix: (Units=GPa)
#
#
# Indices 1 2 3 4 5 6 
#
# 1 96.8657 50.3838 8.4419 0.0000 11.4810 0.0000
# 2 50.3838 125.5180 35.6464 0.0000 3.2387 0.0000
# 3 8.4419 35.6464 61.7896 0.0000 13.9941 0.0000
# 4 0.0000 0.0000 0.0000 24.6649 0.0000 4.0374
# 5 11.4810 3.2387 13.9941 0.0000 12.5731 0.0000
# 6 0.0000 0.0000 0.0000 4.0374 0.0000 8.7284
#
#
#
# Elastic Compliance Matrix: (Units=1/GPa)
#
#
# Indices 1 2 3 4 5 6 
#
# 1 0.016353 -0.008048 0.007115 0.000000 -0.020778 0.000000
# 2 -0.008048 0.013720 -0.010268 0.000000 0.015244 0.000000
# 3 0.007115 -0.010268 0.029425 0.000000 -0.036603 0.000000
# 4 0.000000 0.000000 0.000000 0.043865 0.000000 -0.020290
# 5 -0.020778 0.015244 -0.036603 0.000000 0.135321 0.000000
# 6 0.000000 0.000000 0.000000 -0.020290 0.000000 0.123954
#
#
# Mechanical properties :
#
#
# Convention : Reuss Voigt Hill
#
# Bulk Modulus (GPa) = 26.95798 52.56861 39.76329
# Shear Modulus (GPa) = 12.58159 21.84002 17.21081
#
# Velocity S-wave (km/s) = 2.45535 3.23498 2.87174
# Velocity P-wave (km/s) = 4.57775 6.25642 5.48172
#
# Compressibility (1/GPa) = 0.03709476
#
# Stress axis : x y z
#
# Youngs Moduli (GPa) = 61.15266 72.88405 33.98432
#
# Poissons Ratio (x) = 0.58660 -0.24179
# Poissons Ratio (y) = 0.49218 0.34895
# Poissons Ratio (z) = -0.43509 0.74838
#
# Static dielectric constant tensor:
#      x y z
#    x 3.554680 0.000000 -0.398780 
#    y 0.000000 5.133350 0.000000 
#    z -0.398780 0.000000 3.855960 
# 
# 
# High freq. dielectric constant tensor:
#      x y z
#    x 1.781680 0.000000 -0.015710 
#    y 0.000000 1.842340 0.000000 
#    z -0.015710 0.000000 1.799120 
# 
# From -- ./inp_files/45225.got.cif
#   From: 2010.06.25/outbox.cif.g09.slc.cpg/sg12_23_cif.got.tgz:45225.got - 2010.06.28 00:19:55.
