data_PCOD8111206
_publ_section_title
;
Structure prediction by ZEFSAII (Michael W. Deem and Ramdas Pophale) SiO2 
 PCOD8111206
Probable space group: C 2/M
;
_chemical_formula_sum "Si O2"
_cell_formula_units_Z 56
_cell_length_a 23.793825
_cell_length_b 8.861061
_cell_length_c 15.492599
_cell_angle_alpha 90.000000
_cell_angle_beta 60.873452
_cell_angle_gamma 90.000000
_cell_volume 2853.385431
_symmetry_space_group_name_H-M "C 2/M"
_symmetry_group_IT_number 12
_symmetry_cell_setting 'monoclinic'
loop_
_space_group_symop_operation_xyz
x,y,z
-x,y,-z
-x,-y,-z
x,-y,z
1/2+x,1/2+y,z
1/2-x,1/2+y,-z
1/2-x,1/2-y,-z
1/2+x,1/2-y,z
loop_
_atom_site_type_symbol
_atom_site_label
_atom_site_fract_x
_atom_site_fract_y
_atom_site_fract_z
Si Si1 0.019582 0.820145 0.078952
Si Si2 0.221422 0.173527 0.141567
Si Si3 0.284247 0.678327 0.393127
Si Si4 0.567357 0.322014 0.697869
Si Si5 0.660160 0.678080 0.011782
Si Si6 0.817143 0.824823 0.642256
Si Si7 0.945039 0.321081 0.473567
O O1 0.972067 0.762730 0.189732
O O2 0.018745 0.000000 0.078421
O O3 0.090271 0.754504 0.044593
O O4 0.000000 0.755933 0.000000
O O5 0.288725 0.262788 0.096672
O O6 0.178449 0.197738 0.258425
O O7 0.239488 0.000000 0.114863
O O8 0.179746 0.234545 0.092569
O O9 0.274359 0.500000 0.399754
O O10 0.250000 0.750000 0.500000
O O11 0.358950 0.722446 0.339489
O O12 0.250492 0.751026 0.335033
O O13 0.559051 0.500000 0.690465
O O14 0.539359 0.241786 0.633296
O O15 0.657878 0.500000 0.007025
O O16 0.876618 0.743020 0.553694
O O17 0.818643 0.000000 0.613874
O O18 0.940656 0.500000 0.473062
O O19 0.000000 0.268218 0.500000
#
# Coordination Sequence:
#
# PCOD8111206 Si02
#       7
#     8   8   8   8   8   8   8
#     4   9  19  35  58  87 115 147 194 241 282 342
#     4   9  20  36  55  84 115 147 190 238 290 346
#     4  11  22  37  59  87 118 150 193 241 289 347
#     4  10  22  39  62  88 115 156 199 240 294 350
#     4   9  18  35  59  82 110 149 192 240 291 339
#     4  11  23  38  60  87 116 155 197 241 294 350
#     4  11  25  42  60  87 121 156 196 243 296 354
#
# _framework density 19.625810999999999
#
# number of rings (size 3 to 8) (size 9 to 14) (size 15 to 20)
#    0.000    2.000    1.429    1.286    4.000    2.857 
#    0.000    0.714    0.000    0.857    0.000    0.000 
#    0.000    0.000    0.000    0.000    0.000    0.000 
#
# Total GULP energy -347233.532436 kJ/mol
# GULP energy per Si atom -12401.197587 kJ/mol
# Density = 1.958114 g / cm^3
# Si number density = 19.625811 Si / 1000 Ang^3
#
#
#
# Elastic Constant Matrix: (Units=GPa)
#
#
# Indices 1 2 3 4 5 6 
#
# 1 150.6668 37.8356 69.6490 0.0000 -1.1552 0.0000
# 2 37.8356 46.0724 30.3752 0.0000 3.3929 -0.0001
# 3 69.6490 30.3752 143.7610 0.0000 2.3860 0.0000
# 4 0.0000 0.0000 0.0000 25.9143 0.0000 1.0862
# 5 -1.1552 3.3929 2.3860 0.0000 31.6777 0.0000
# 6 0.0000 -0.0001 0.0000 1.0862 0.0000 26.5788
#
#
#
# Elastic Compliance Matrix: (Units=1/GPa)
#
#
# Indices 1 2 3 4 5 6 
#
# 1 0.009715 -0.005754 -0.003511 0.000000 0.001235 0.000000
# 2 -0.005754 0.028795 -0.003246 0.000000 -0.003049 0.000000
# 3 -0.003511 -0.003246 0.009351 0.000000 -0.000485 0.000000
# 4 0.000000 0.000000 0.000000 0.038655 0.000000 -0.001580
# 5 0.001235 -0.003049 -0.000485 0.000000 0.031976 0.000000
# 6 0.000000 0.000000 0.000000 -0.001580 0.000000 0.037689
#
#
# Mechanical properties :
#
#
# Convention : Reuss Voigt Hill
#
# Bulk Modulus (GPa) = 43.78589 68.46886 56.12737
# Shear Modulus (GPa) = 26.48096 30.34351 28.41223
#
# Velocity S-wave (km/s) = 3.67726 3.93632 3.80899
# Velocity P-wave (km/s) = 6.35519 7.45804 6.92859
#
# Compressibility (1/GPa) = 0.02283841
#
# Stress axis : x y z
#
# Youngs Moduli (GPa) = 102.93630 34.72864 106.94051
#
# Poissons Ratio (x) = 0.19983 0.37550
# Poissons Ratio (y) = 0.59229 0.34710
# Poissons Ratio (z) = 0.36144 0.11272
#
# Static dielectric constant tensor:
#      x y z
#    x 4.271120 0.000000 0.025530 
#    y 0.000000 3.423920 0.000000 
#    z 0.025530 0.000000 3.675330 
# 
# 
# High freq. dielectric constant tensor:
#      x y z
#    x 1.774170 0.000000 0.003730 
#    y 0.000000 1.746370 0.000000 
#    z 0.003730 0.000000 1.772460 
# 
# From -- ./inp_files/238325.got.cif
#   From: 2010.06.25/outbox.cif.g09.slc.cpg/sg12_120_cif.got.tgz:238325.got - 2010.06.28 00:19:55.
