data_PCOD8111349
_publ_section_title
;
Structure prediction by ZEFSAII (Michael W. Deem and Ramdas Pophale) SiO2 
 PCOD8111349
Probable space group: C 2/M
;
_chemical_formula_sum "Si O2"
_cell_formula_units_Z 52
_cell_length_a 5.128845
_cell_length_b 22.979466
_cell_length_c 29.803862
_cell_angle_alpha 90.000000
_cell_angle_beta 60.307888
_cell_angle_gamma 90.000000
_cell_volume 3051.418187
_symmetry_space_group_name_H-M "C 2/M"
_symmetry_group_IT_number 12
_symmetry_cell_setting 'monoclinic'
loop_
_space_group_symop_operation_xyz
x,y,z
-x,y,-z
-x,-y,-z
x,-y,z
1/2+x,1/2+y,z
1/2-x,1/2+y,-z
1/2-x,1/2-y,-z
1/2+x,1/2-y,z
loop_
_atom_site_type_symbol
_atom_site_label
_atom_site_fract_x
_atom_site_fract_y
_atom_site_fract_z
Si Si1 0.662692 0.930606 0.030339
Si Si2 0.187423 0.402294 0.383619
Si Si3 0.675302 0.786809 0.440722
Si Si4 0.374681 0.066951 0.322972
Si Si5 0.855759 0.430743 0.792938
Si Si6 0.145334 0.500000 0.535547
Si Si7 0.181025 0.430554 0.853163
O O1 0.495290 0.906095 0.088584
O O2 0.659479 0.000000 0.031439
O O3 0.500000 0.906660 0.000000
O O4 0.000000 0.906625 0.000000
O O5 0.218589 0.340009 0.403723
O O6 0.515899 0.430387 0.355525
O O7 0.047460 0.395373 0.345870
O O8 0.953917 0.442303 0.430151
O O9 0.500000 0.807951 0.500000
O O10 0.498068 0.736494 0.429156
O O11 0.484160 0.091779 0.265821
O O12 0.473873 0.000000 0.321346
O O13 0.860490 0.500000 0.793189
O O14 0.518727 0.406791 0.824804
O O15 0.029594 0.405771 0.821104
O O16 0.500000 0.500000 0.500000
O O17 0.000000 0.500000 0.500000
O O18 0.175203 0.500000 0.854117
#
# Coordination Sequence:
#
# PCOD8111349 Si02
#       7
#     8   8   8   8   8   4   8
#     4   9  15  21  30  44  65  93 130 184 239 278
#     4  12  22  37  55  76 102 128 156 196 239 289
#     4  10  22  40  59  77  97 126 162 196 233 279
#     4  11  20  34  49  72 100 126 155 189 243 294
#     4   9  17  26  40  55  78 111 143 181 221 280
#     4  12  24  36  52  76 104 128 152 182 232 294
#     4   9  15  24  34  50  70 101 144 182 229 279
#
# _framework density 17.041257999999999
#
# number of rings (size 3 to 8) (size 9 to 14) (size 15 to 20)
#    0.000    1.846    1.538    4.154    0.000    8.000 
#    0.000    0.000    0.000    0.000    0.000    0.000 
#    0.000    0.000    0.000    0.000    0.000    0.000 
#
# Total GULP energy -322421.842088 kJ/mol
# GULP energy per Si atom -12400.840080 kJ/mol
# Density = 1.700247 g / cm^3
# Si number density = 17.041258 Si / 1000 Ang^3
#
#
#
# Elastic Constant Matrix: (Units=GPa)
#
#
# Indices 1 2 3 4 5 6 
#
# 1 140.7807 8.3318 61.2823 0.0000 10.7148 0.0000
# 2 8.3318 28.7208 25.4479 0.0000 4.0625 0.0000
# 3 61.2823 25.4479 133.9607 0.0000 12.4289 0.0000
# 4 0.0000 0.0000 0.0000 6.1150 0.0000 4.3435
# 5 10.7148 4.0625 12.4289 0.0000 40.2388 0.0000
# 6 0.0000 0.0000 0.0000 4.3435 0.0000 12.8012
#
#
#
# Elastic Compliance Matrix: (Units=1/GPa)
#
#
# Indices 1 2 3 4 5 6 
#
# 1 0.008962 0.001328 -0.004240 0.000000 -0.001211 0.000000
# 2 0.001328 0.042192 -0.008436 0.000000 -0.002007 0.000000
# 3 -0.004240 -0.008436 0.011143 0.000000 -0.001461 0.000000
# 4 0.000000 0.000000 0.000000 0.215458 0.000000 -0.073105
# 5 -0.001211 -0.002007 -0.001461 0.000000 0.025828 0.000000
# 6 0.000000 0.000000 0.000000 -0.073105 0.000000 0.102922
#
#
# Mechanical properties :
#
#
# Convention : Reuss Voigt Hill
#
# Bulk Modulus (GPa) = 25.25220 54.84290 40.04755
# Shear Modulus (GPa) = 11.30195 25.72434 18.51315
#
# Velocity S-wave (km/s) = 2.57808 3.88949 3.29959
# Velocity P-wave (km/s) = 4.86954 7.24038 6.16991
#
# Compressibility (1/GPa) = 0.03960051
#
# Stress axis : x y z
#
# Youngs Moduli (GPa) = 111.57621 23.70142 89.74523
#
# Poissons Ratio (x) = -0.03148 0.38052
# Poissons Ratio (y) = -0.14818 0.75711
# Poissons Ratio (z) = 0.47308 0.19995
#
# Static dielectric constant tensor:
#      x y z
#    x 3.444670 0.000000 0.079070 
#    y 0.000000 2.510230 0.000000 
#    z 0.079070 0.000000 3.419090 
# 
# 
# High freq. dielectric constant tensor:
#      x y z
#    x 1.684420 0.000000 0.004640 
#    y 0.000000 1.571340 0.000000 
#    z 0.004640 0.000000 1.671220 
# 
# From -- ./inp_files/355098.got.cif
#   From: 2010.06.25/outbox.cif.g09.slc.cpg/sg12_178_cif.got.tgz:355098.got - 2010.06.28 00:19:55.
