data_PCOD8111369
_publ_section_title
;
Structure prediction by ZEFSAII (Michael W. Deem and Ramdas Pophale) SiO2 
 PCOD8111369
Probable space group: C 2/M
;
_chemical_formula_sum "Si O2"
_cell_formula_units_Z 56
_cell_length_a 19.047132
_cell_length_b 13.114288
_cell_length_c 11.701707
_cell_angle_alpha 90.000000
_cell_angle_beta 115.664511
_cell_angle_gamma 90.000000
_cell_volume 2634.600695
_symmetry_space_group_name_H-M "C 2/M"
_symmetry_group_IT_number 12
_symmetry_cell_setting 'monoclinic'
loop_
_space_group_symop_operation_xyz
x,y,z
-x,y,-z
-x,-y,-z
x,-y,z
1/2+x,1/2+y,z
1/2-x,1/2+y,-z
1/2-x,1/2-y,-z
1/2+x,1/2-y,z
loop_
_atom_site_type_symbol
_atom_site_label
_atom_site_fract_x
_atom_site_fract_y
_atom_site_fract_z
Si Si1 0.798975 0.118990 0.437833
Si Si2 0.156137 0.258315 0.347882
Si Si3 0.409378 0.388002 0.074549
Si Si4 0.278066 0.614452 0.798565
Si Si5 0.002232 0.696972 0.874387
Si Si6 0.211043 0.121121 0.831440
Si Si7 0.162399 0.380033 0.908068
O O1 0.861748 0.186205 0.554309
O O2 0.712998 0.148640 0.424104
O O3 0.801047 0.152342 0.307281
O O4 0.816359 0.000000 0.467807
O O5 0.203598 0.189164 0.291847
O O6 0.079534 0.314707 0.247284
O O7 0.441035 0.500000 0.129759
O O8 0.483675 0.317965 0.103631
O O9 0.360017 0.334605 0.142553
O O10 0.356041 0.394010 0.926667
O O11 0.256634 0.500000 0.739163
O O12 0.207216 0.663442 0.826018
O O13 0.071008 0.645283 0.849704
O O14 0.000000 0.647446 0.000000
O O15 0.207112 0.000000 0.843497
O O16 0.294067 0.158546 0.944226
O O17 0.173840 0.500000 0.905163
#
# Coordination Sequence:
#
# PCOD8111369 Si02
#       7
#     8   8   8   8   8   8   8
#     4  10  22  40  60  79 109 152 196 238 274 330
#     4  11  23  37  58  89 112 147 196 235 286 340
#     4   9  19  33  53  83 118 152 186 227 284 341
#     4   9  18  36  60  85 114 152 195 237 275 332
#     4  12  23  34  53  91 124 150 178 231 304 345
#     4   8  16  34  58  82 106 148 196 228 270 332
#     4   9  20  36  59  89 118 149 187 233 288 342
#
# _framework density 21.255590999999999
#
# number of rings (size 3 to 8) (size 9 to 14) (size 15 to 20)
#    0.000    2.286    1.429    3.000    2.000    3.429 
#    0.000    0.714    0.000    2.571    0.000    5.000 
#    0.000    0.000    0.000    0.000    0.000    0.000 
#
# Total GULP energy -347058.248513 kJ/mol
# GULP energy per Si atom -12394.937447 kJ/mol
# Density = 2.120721 g / cm^3
# Si number density = 21.255591 Si / 1000 Ang^3
#
#
#
# Elastic Constant Matrix: (Units=GPa)
#
#
# Indices 1 2 3 4 5 6 
#
# 1 69.1786 -0.0684 29.3713 0.0000 -3.8015 0.0000
# 2 -0.0684 11.9140 6.1183 0.0000 -7.1606 0.0000
# 3 29.3713 6.1183 106.5969 0.0000 -6.2921 0.0000
# 4 0.0000 0.0000 0.0000 18.9462 0.0000 -0.5892
# 5 -3.8015 -7.1606 -6.2921 0.0000 27.9703 0.0000
# 6 0.0000 0.0000 0.0000 -0.5892 0.0000 28.9461
#
#
#
# Elastic Compliance Matrix: (Units=1/GPa)
#
#
# Indices 1 2 3 4 5 6 
#
# 1 0.016553 0.003790 -0.004650 0.000000 0.002174 0.000000
# 2 0.003790 0.102004 -0.005399 0.000000 0.025414 0.000000
# 3 -0.004650 -0.005399 0.010999 0.000000 0.000460 0.000000
# 4 0.000000 0.000000 0.000000 0.052814 0.000000 0.001075
# 5 0.002174 0.025414 0.000460 0.000000 0.042657 0.000000
# 6 0.000000 0.000000 0.000000 0.001075 0.000000 0.034569
#
#
# Mechanical properties :
#
#
# Convention : Reuss Voigt Hill
#
# Bulk Modulus (GPa) = 8.54427 28.72576 18.63502
# Shear Modulus (GPa) = 16.07057 25.32373 20.69715
#
# Velocity S-wave (km/s) = 2.75264 3.45540 3.12385
# Velocity P-wave (km/s) = 3.75915 5.42803 4.66876
#
# Compressibility (1/GPa) = 0.11703746
#
# Stress axis : x y z
#
# Youngs Moduli (GPa) = 60.41257 9.80357 90.91371
#
# Poissons Ratio (x) = -0.03715 0.42276
# Poissons Ratio (y) = -0.22894 0.49081
# Poissons Ratio (z) = 0.28092 0.05293
#
# Static dielectric constant tensor:
#      x y z
#    x 3.707990 0.000000 -0.239200 
#    y 0.000000 4.106080 0.000000 
#    z -0.239200 0.000000 3.706130 
# 
# 
# High freq. dielectric constant tensor:
#      x y z
#    x 1.817610 0.000000 -0.016890 
#    y 0.000000 1.851360 0.000000 
#    z -0.016890 0.000000 1.807440 
# 
# From -- ./inp_files/156188.got.cif
#   From: 2010.06.25/outbox.cif.g09.slc.cpg/sg12_79_cif.got.tgz:156188.got - 2010.06.28 00:19:55.
