data_PCOD8111959
_publ_section_title
;
Structure prediction by ZEFSAII (Michael W. Deem and Ramdas Pophale) SiO2 
 PCOD8111959
Probable space group: C 2/M
;
_chemical_formula_sum "Si O2"
_cell_formula_units_Z 64
_cell_length_a 9.693562
_cell_length_b 18.697740
_cell_length_c 18.060411
_cell_angle_alpha 90.000000
_cell_angle_beta 113.557183
_cell_angle_gamma 90.000000
_cell_volume 3000.607581
_symmetry_space_group_name_H-M "C 2/M"
_symmetry_group_IT_number 12
_symmetry_cell_setting 'monoclinic'
loop_
_space_group_symop_operation_xyz
x,y,z
-x,y,-z
-x,-y,-z
x,-y,z
1/2+x,1/2+y,z
1/2-x,1/2+y,-z
1/2-x,1/2-y,-z
1/2+x,1/2-y,z
loop_
_atom_site_type_symbol
_atom_site_label
_atom_site_fract_x
_atom_site_fract_y
_atom_site_fract_z
Si Si1 0.889547 0.302382 0.544745
Si Si2 0.835460 0.285714 0.118821
Si Si3 0.376625 0.581624 0.753421
Si Si4 0.343555 0.083034 0.646028
Si Si5 0.143877 0.080275 0.077900
Si Si6 0.393181 0.175906 0.289929
Si Si7 0.695560 0.416506 0.763846
Si Si8 0.101411 0.673200 0.086112
O O1 0.750000 0.250000 0.500000
O O2 0.813286 0.374849 0.561946
O O3 0.000000 0.318583 0.500000
O O4 0.008669 0.274324 0.632925
O O5 0.778074 0.365568 0.087456
O O6 0.849380 0.275541 0.210866
O O7 0.720002 0.224304 0.068537
O O8 0.996576 0.275662 0.114806
O O9 0.336264 0.500000 0.720319
O O10 0.401064 0.585365 0.846250
O O11 0.250697 0.639061 0.701097
O O12 0.528516 0.609097 0.747458
O O13 0.505224 0.107586 0.714017
O O14 0.222917 0.103495 0.683630
O O15 0.342578 0.000000 0.626726
O O16 0.196725 0.000000 0.068307
O O17 0.000000 0.103216 0.000000
O O18 0.713359 0.500000 0.779962
O O19 0.817668 0.384133 0.845642
O O20 0.000000 0.636475 0.000000
#
# Coordination Sequence:
#
# PCOD8111959 Si02
#       8
#     8   8   8   8   8   8   8   8
#     4  10  23  44  66 102 135 169 203 255 315 389
#     4  11  24  40  59  90 118 173 224 263 326 384
#     4   9  18  34  60  93 124 163 214 265 316 378
#     4   9  19  41  69  97 128 167 209 259 316 380
#     4   9  19  35  59  88 124 164 213 274 331 381
#     4   9  20  39  65  91 121 168 209 258 307 380
#     4  10  22  41  64  95 130 166 217 274 330 381
#     4  12  26  40  58  85 129 176 222 279 326 380
#
# _framework density 21.329013
#
# number of rings (size 3 to 8) (size 9 to 14) (size 15 to 20)
#    0.750    1.375    1.250    1.125    5.250    3.500 
#    2.250    0.000    0.000    0.375    0.000    0.000 
#    0.000    0.000    0.000    0.000    0.000    0.000 
#
# Total GULP energy -396560.518755 kJ/mol
# GULP energy per Si atom -12392.516211 kJ/mol
# Density = 2.128047 g / cm^3
# Si number density = 21.329013 Si / 1000 Ang^3
#
#
#
# Elastic Constant Matrix: (Units=GPa)
#
#
# Indices 1 2 3 4 5 6 
#
# 1 140.7747 31.2352 24.6517 0.0000 6.1690 0.0000
# 2 31.2352 52.4456 26.1590 0.0000 6.0013 0.0000
# 3 24.6517 26.1590 85.2951 0.0000 19.5256 0.0000
# 4 0.0000 0.0000 0.0000 32.4198 0.0000 8.3959
# 5 6.1690 6.0013 19.5256 0.0000 28.5412 0.0000
# 6 0.0000 0.0000 0.0000 8.3959 0.0000 31.7681
#
#
#
# Elastic Compliance Matrix: (Units=1/GPa)
#
#
# Indices 1 2 3 4 5 6 
#
# 1 0.008263 -0.004404 -0.000997 0.000000 -0.000178 0.000000
# 2 -0.004404 0.024858 -0.006370 0.000000 0.000083 0.000000
# 3 -0.000997 -0.006370 0.016137 0.000000 -0.009485 0.000000
# 4 0.000000 0.000000 0.000000 0.033112 0.000000 -0.008751
# 5 -0.000178 0.000083 -0.009485 0.000000 0.041547 0.000000
# 6 0.000000 0.000000 0.000000 -0.008751 0.000000 0.033791
#
#
# Mechanical properties :
#
#
# Convention : Reuss Voigt Hill
#
# Bulk Modulus (GPa) = 38.88465 49.17858 44.03161
# Shear Modulus (GPa) = 26.34073 31.64378 28.99225
#
# Velocity S-wave (km/s) = 3.51803 3.85593 3.69085
# Velocity P-wave (km/s) = 5.89682 6.55221 6.23314
#
# Compressibility (1/GPa) = 0.02571709
#
# Stress axis : x y z
#
# Youngs Moduli (GPa) = 121.02144 40.22886 61.96979
#
# Poissons Ratio (x) = 0.17715 0.06177
# Poissons Ratio (y) = 0.53294 0.39474
# Poissons Ratio (z) = 0.12064 0.25625
#
# Static dielectric constant tensor:
#      x y z
#    x 4.030370 0.000000 0.005600 
#    y 0.000000 3.621720 0.000000 
#    z 0.005600 0.000000 3.699450 
# 
# 
# High freq. dielectric constant tensor:
#      x y z
#    x 1.847190 0.000000 -0.000340 
#    y 0.000000 1.820420 0.000000 
#    z -0.000340 0.000000 1.823340 
# 
# From -- ./inp_files/301775.got.cif
#   From: 2010.06.25/outbox.cif.g09.slc.cpg/sg12_151_cif.got.tgz:301775.got - 2010.06.28 00:19:55.
