data_PCOD8111530
_publ_section_title
;
Structure prediction by ZEFSAII (Michael W. Deem and Ramdas Pophale) SiO2 
 PCOD8111530
Probable space group: C 2/M
;
_chemical_formula_sum "Si O2"
_cell_formula_units_Z 56
_cell_length_a 9.536872
_cell_length_b 26.773624
_cell_length_c 18.427099
_cell_angle_alpha 90.000000
_cell_angle_beta 142.233623
_cell_angle_gamma 90.000000
_cell_volume 2881.614908
_symmetry_space_group_name_H-M "C 2/M"
_symmetry_group_IT_number 12
_symmetry_cell_setting 'monoclinic'
loop_
_space_group_symop_operation_xyz
x,y,z
-x,y,-z
-x,-y,-z
x,-y,z
1/2+x,1/2+y,z
1/2-x,1/2+y,-z
1/2-x,1/2-y,-z
1/2+x,1/2-y,z
loop_
_atom_site_type_symbol
_atom_site_label
_atom_site_fract_x
_atom_site_fract_y
_atom_site_fract_z
Si Si1 0.535905 0.300072 0.633878
Si Si2 0.131852 0.096530 0.735682
Si Si3 0.370782 0.897231 0.264934
Si Si4 0.420091 0.440469 0.132609
Si Si5 0.653596 0.942583 0.498078
Si Si6 0.875824 0.298167 0.641787
Si Si7 0.413482 0.941853 0.132788
O O1 0.576524 0.345007 0.706706
O O2 0.750046 0.291500 0.667595
O O3 0.307914 0.312695 0.495022
O O4 0.502726 0.252424 0.671341
O O5 0.204804 0.078180 0.845590
O O6 0.346759 0.086723 0.772086
O O7 0.920420 0.063473 0.622443
O O8 0.596089 0.917354 0.397710
O O9 0.422228 0.839246 0.269634
O O10 0.307664 0.927878 0.166801
O O11 0.152478 0.907866 0.226470
O O12 0.469799 0.500000 0.154805
O O13 0.261005 0.424689 0.000763
O O14 0.500000 0.918600 0.500000
O O15 0.588656 0.000000 0.464170
O O16 0.460145 0.000000 0.145108
#
# Coordination Sequence:
#
# PCOD8111530 Si02
#       7
#     8   8   8   8   8   8   8
#     4  10  22  40  62  91 123 159 204 252 313 382
#     4  12  22  39  63  91 127 161 203 261 310 363
#     4  12  22  39  63  91 127 161 203 261 310 363
#     4  11  24  41  62  89 124 175 221 246 288 368
#     4  11  22  35  56  91 130 165 198 245 314 381
#     4  10  22  40  62  91 123 159 204 252 313 382
#     4  11  24  41  62  89 124 169 217 256 296 356
#
# _framework density 19.433547999999998
#
# number of rings (size 3 to 8) (size 9 to 14) (size 15 to 20)
#    0.000    1.000    4.286    3.429    2.000    2.857 
#    0.000    1.429    0.000    5.143    0.000    0.000 
#    0.000    0.000    0.000    0.000    0.000    0.000 
#
# Total GULP energy -347301.318457 kJ/mol
# GULP energy per Si atom -12403.618516 kJ/mol
# Density = 1.938932 g / cm^3
# Si number density = 19.433548 Si / 1000 Ang^3
#
#
#
# Elastic Constant Matrix: (Units=GPa)
#
#
# Indices 1 2 3 4 5 6 
#
# 1 64.9671 30.6046 13.1318 0.0001 -3.1901 -0.0004
# 2 30.6046 103.0278 32.7989 0.0003 -0.5379 -0.0006
# 3 13.1318 32.7989 78.0781 0.0028 -13.6969 0.0010
# 4 0.0001 0.0003 0.0028 20.9390 0.0012 -2.4321
# 5 -3.1901 -0.5379 -13.6969 0.0012 37.5184 0.0003
# 6 -0.0004 -0.0006 0.0010 -2.4321 0.0003 35.2898
#
#
#
# Elastic Compliance Matrix: (Units=1/GPa)
#
#
# Indices 1 2 3 4 5 6 
#
# 1 0.018003 -0.005132 -0.000659 0.000000 0.001217 0.000000
# 2 -0.005132 0.012765 -0.004855 0.000001 -0.002026 0.000000
# 3 -0.000659 -0.004855 0.015958 -0.000002 0.005700 -0.000001
# 4 0.000000 0.000001 -0.000002 0.048143 -0.000002 0.003318
# 5 0.001217 -0.002026 0.005700 -0.000002 0.028809 -0.000001
# 6 0.000000 0.000000 -0.000001 0.003318 -0.000001 0.028565
#
#
# Mechanical properties :
#
#
# Convention : Reuss Voigt Hill
#
# Bulk Modulus (GPa) = 39.31482 44.34930 41.83206
# Shear Modulus (GPa) = 27.47068 30.05198 28.76133
#
# Velocity S-wave (km/s) = 3.76383 3.93669 3.85123
# Velocity P-wave (km/s) = 6.25802 6.59802 6.43027
#
# Compressibility (1/GPa) = 0.02543570
#
# Stress axis : x y z
#
# Youngs Moduli (GPa) = 55.54713 78.33657 62.66534
#
# Poissons Ratio (x) = 0.40200 0.04128
# Poissons Ratio (y) = 0.28505 0.30422
# Poissons Ratio (z) = 0.03659 0.38030
#
# Static dielectric constant tensor:
#      x y z
#    x 3.648670 0.000000 -0.061560 
#    y 0.000000 3.390570 0.000000 
#    z -0.061560 0.000000 3.431070 
# 
# 
# High freq. dielectric constant tensor:
#      x y z
#    x 1.768130 0.000000 -0.002680 
#    y 0.000000 1.748690 0.000000 
#    z -0.002680 0.000000 1.747320 
# 
# From -- ./inp_files/124359.got.cif
#   From: 2010.06.25/outbox.cif.g09.slc.cpg/sg12_63_cif.got.tgz:124359.got - 2010.06.28 00:19:55.
