data_PCOD8111419
_publ_section_title
;
Structure prediction by ZEFSAII (Michael W. Deem and Ramdas Pophale) SiO2 
 PCOD8111419
Probable space group: C 2/M
;
_chemical_formula_sum "Si O2"
_cell_formula_units_Z 36
_cell_length_a 9.382882
_cell_length_b 30.052562
_cell_length_c 8.375597
_cell_angle_alpha 90.000000
_cell_angle_beta 50.761694
_cell_angle_gamma 90.000000
_cell_volume 1829.225109
_symmetry_space_group_name_H-M "C 2/M"
_symmetry_group_IT_number 12
_symmetry_cell_setting 'monoclinic'
loop_
_space_group_symop_operation_xyz
x,y,z
-x,y,-z
-x,-y,-z
x,-y,z
1/2+x,1/2+y,z
1/2-x,1/2+y,-z
1/2-x,1/2-y,-z
1/2+x,1/2-y,z
loop_
_atom_site_type_symbol
_atom_site_label
_atom_site_fract_x
_atom_site_fract_y
_atom_site_fract_z
Si Si1 0.731506 0.616189 0.089524
Si Si2 0.429012 0.450944 0.371853
Si Si3 0.500000 0.175413 0.500000
Si Si4 0.696137 0.708371 0.934272
Si Si5 0.612697 0.107516 0.680813
O O1 0.559502 0.583181 0.182455
O O2 0.770650 0.624412 0.249055
O O3 0.688079 0.663483 0.043218
O O4 0.907851 0.593159 0.879906
O O5 0.500000 0.455033 0.500000
O O6 0.432779 0.500000 0.288676
O O7 0.218314 0.433650 0.523177
O O8 0.345296 0.205944 0.688196
O O9 0.604283 0.146678 0.559221
O O10 0.500000 0.718410 0.000000
O O11 0.750000 0.750000 0.000000
#
# Coordination Sequence:
#
# PCOD8111419 Si02
#       5
#     8   8   4   8   8
#     4   9  19  36  57  80 116 151 190 235 295 335
#     4   9  17  31  54  85 112 145 194 238 285 344
#     4  10  22  40  61  82 118 154 193 236 304 344
#     4  11  25  41  61  89 119 152 198 245 291 353
#     4   9  18  34  58  80 110 156 188 234 283 348
#
# _framework density 19.680463
#
# number of rings (size 3 to 8) (size 9 to 14) (size 15 to 20)
#    0.000    2.444    0.000    1.333    6.222    1.778 
#    6.000    5.000    0.000   12.667    0.000    0.000 
#    0.000    0.000    0.000    0.000    0.000    0.000 
#
# Total GULP energy -223181.501275 kJ/mol
# GULP energy per Si atom -12398.972293 kJ/mol
# Density = 1.963567 g / cm^3
# Si number density = 19.680463 Si / 1000 Ang^3
#
#
#
# Elastic Constant Matrix: (Units=GPa)
#
#
# Indices 1 2 3 4 5 6 
#
# 1 97.3733 60.8970 60.1000 0.0000 -20.0248 0.0000
# 2 60.8970 151.6674 91.3601 0.0000 -23.4320 0.0000
# 3 60.1000 91.3601 142.6784 0.0000 -17.5224 0.0000
# 4 0.0000 0.0000 0.0000 -86.6650 0.0000 70.4529
# 5 -20.0248 -23.4320 -17.5224 0.0000 31.4246 0.0000
# 6 0.0000 0.0000 0.0000 70.4529 0.0000 -28.9164
#
#
#
# Elastic Compliance Matrix: (Units=1/GPa)
#
#
# Indices 1 2 3 4 5 6 
#
# 1 0.015808 -0.003076 -0.004008 0.000000 0.005545 0.000000
# 2 -0.003076 0.011953 -0.005909 0.000000 0.003658 0.000000
# 3 -0.004008 -0.005909 0.012480 0.000000 -0.000001 0.000000
# 4 0.000000 0.000000 0.000000 0.011766 0.000000 0.028668
# 5 0.005545 0.003658 -0.000001 0.000000 0.038082 0.000000
# 6 0.000000 0.000000 0.000000 0.028668 0.000000 0.035264
#
#
# Mechanical properties :
#
#
# Convention : Reuss Voigt Hill
#
# Bulk Modulus (GPa) = 70.14954 90.71482 80.43218
# Shear Modulus (GPa) = 32.03254 -4.87390 13.57932
#
# Velocity S-wave (km/s) = 4.03877 -1.57540 2.62962
# Velocity P-wave (km/s) = 7.58093 6.54864 7.08362
#
# Compressibility (1/GPa) = 0.01425526
#
# Stress axis : x y z
#
# Youngs Moduli (GPa) = 63.26098 83.66205 80.12565
#
# Poissons Ratio (x) = 0.25735 0.32114
# Poissons Ratio (y) = 0.19460 0.47344
# Poissons Ratio (z) = 0.25355 0.49433
#
# Static dielectric constant tensor:
#      x y z
#    x 3.554220 0.000000 -0.107150 
#    y 0.000000 3.578550 0.000000 
#    z -0.107150 0.000000 3.855230 
# 
# 
# High freq. dielectric constant tensor:
#      x y z
#    x 1.763330 0.000000 -0.010820 
#    y 0.000000 1.752830 0.000000 
#    z -0.010820 0.000000 1.779070 
# 
# From -- ./inp_files/41323.got.cif
#   From: 2010.06.25/outbox.cif.g09.slc.cpg/sg12_21_cif.got.tgz:41323.got - 2010.06.28 00:19:55.
