data_PCOD8111493
_publ_section_title
;
Structure prediction by ZEFSAII (Michael W. Deem and Ramdas Pophale) SiO2 
 PCOD8111493
Probable space group: C 2/M
;
_chemical_formula_sum "Si O2"
_cell_formula_units_Z 40
_cell_length_a 8.127633
_cell_length_b 22.164733
_cell_length_c 14.194665
_cell_angle_alpha 90.000000
_cell_angle_beta 52.243302
_cell_angle_gamma 90.000000
_cell_volume 2021.708018
_symmetry_space_group_name_H-M "C 2/M"
_symmetry_group_IT_number 12
_symmetry_cell_setting 'monoclinic'
loop_
_space_group_symop_operation_xyz
x,y,z
-x,y,-z
-x,-y,-z
x,-y,z
1/2+x,1/2+y,z
1/2-x,1/2+y,-z
1/2-x,1/2-y,-z
1/2+x,1/2-y,z
loop_
_atom_site_type_symbol
_atom_site_label
_atom_site_fract_x
_atom_site_fract_y
_atom_site_fract_z
Si Si1 0.893689 0.569061 0.943819
Si Si2 0.583713 0.717107 0.622995
Si Si3 0.069340 0.568616 0.684182
Si Si4 0.000000 0.875313 0.500000
Si Si5 0.717577 0.176945 0.257672
Si Si6 0.500000 0.636446 0.000000
O O1 0.842607 0.500000 0.984015
O O2 0.058580 0.576483 0.801047
O O3 0.672666 0.597475 0.993856
O O4 0.000000 0.598655 0.000000
O O5 0.750000 0.750000 0.500000
O O6 0.466984 0.666513 0.603107
O O7 0.427880 0.766961 0.717859
O O8 0.691214 0.683760 0.671098
O O9 0.010748 0.500000 0.676368
O O10 0.298144 0.582636 0.564553
O O11 0.904308 0.613645 0.695112
O O12 0.894149 0.177952 0.116082
#
# Coordination Sequence:
#
# PCOD8111493 Si02
#       6
#     8   8   8   4   8   4
#     4   9  19  38  61  87 124 172 213 248 303 378
#     4  12  22  41  66  86 117 166 213 253 304 367
#     4  10  22  40  61  93 129 157 201 260 312 373
#     4  12  23  38  66  88 123 164 208 256 306 370
#     4  11  23  42  64  93 122 164 207 258 312 373
#     4  10  23  38  62  94 130 158 203 266 322 372
#
# _framework density 19.785250999999999
#
# number of rings (size 3 to 8) (size 9 to 14) (size 15 to 20)
#    0.000    1.400    4.000    0.600    2.800    1.600 
#    0.000    3.000    0.000    0.000    0.000    0.000 
#    0.000    0.000    0.000    0.000    0.000    0.000 
#
# Total GULP energy -248030.474397 kJ/mol
# GULP energy per Si atom -12401.523720 kJ/mol
# Density = 1.974022 g / cm^3
# Si number density = 19.785251 Si / 1000 Ang^3
#
#
#
# Elastic Constant Matrix: (Units=GPa)
#
#
# Indices 1 2 3 4 5 6 
#
# 1 134.8081 59.8604 55.4442 0.0000 17.0583 0.0000
# 2 59.8604 121.7350 58.2412 0.0000 5.2600 0.0000
# 3 55.4442 58.2412 132.7221 0.0000 -8.1173 0.0000
# 4 0.0000 0.0000 0.0000 28.9722 0.0000 3.0822
# 5 17.0583 5.2600 -8.1173 0.0000 38.8342 0.0000
# 6 0.0000 0.0000 0.0000 3.0822 0.0000 24.0190
#
#
#
# Elastic Compliance Matrix: (Units=1/GPa)
#
#
# Indices 1 2 3 4 5 6 
#
# 1 0.011032 -0.003612 -0.003333 0.000000 -0.005053 0.000000
# 2 -0.003612 0.011804 -0.003719 0.000000 -0.000790 0.000000
# 3 -0.003333 -0.003719 0.010817 0.000000 0.004229 0.000000
# 4 0.000000 0.000000 0.000000 0.034994 0.000000 -0.004491
# 5 -0.005053 -0.000790 0.004229 0.000000 0.028961 0.000000
# 6 0.000000 0.000000 0.000000 -0.004491 0.000000 0.042210
#
#
# Mechanical properties :
#
#
# Convention : Reuss Voigt Hill
#
# Bulk Modulus (GPa) = 81.13066 81.81744 81.47405
# Shear Modulus (GPa) = 30.25638 32.74638 31.50138
#
# Velocity S-wave (km/s) = 3.91479 4.07269 3.99452
# Velocity P-wave (km/s) = 7.84403 7.97235 7.90845
#
# Compressibility (1/GPa) = 0.01232580
#
# Stress axis : x y z
#
# Youngs Moduli (GPa) = 90.64668 84.71563 92.44294
#
# Poissons Ratio (x) = 0.30599 0.30807
# Poissons Ratio (y) = 0.32741 0.34383
# Poissons Ratio (z) = 0.30209 0.31509
#
# Static dielectric constant tensor:
#      x y z
#    x 3.641180 0.000000 -0.045260 
#    y 0.000000 3.717590 0.000000 
#    z -0.045260 0.000000 3.607480 
# 
# 
# High freq. dielectric constant tensor:
#      x y z
#    x 1.774020 0.000000 -0.001290 
#    y 0.000000 1.770400 0.000000 
#    z -0.001290 0.000000 1.776340 
# 
# From -- ./inp_files/119182.got.cif
#   From: 2010.06.25/outbox.cif.g09.slc.cpg/sg12_60_cif.got.tgz:119182.got - 2010.06.28 00:19:55.
