data_PCOD8111027
_publ_section_title
;
Structure prediction by ZEFSAII (Michael W. Deem and Ramdas Pophale) SiO2 
 PCOD8111027
Probable space group: C 2/M
;
_chemical_formula_sum "Si O2"
_cell_formula_units_Z 56
_cell_length_a 31.263925
_cell_length_b 8.816982
_cell_length_c 11.989194
_cell_angle_alpha 90.000000
_cell_angle_beta 119.514822
_cell_angle_gamma 90.000000
_cell_volume 2875.985121
_symmetry_space_group_name_H-M "C 2/M"
_symmetry_group_IT_number 12
_symmetry_cell_setting 'monoclinic'
loop_
_space_group_symop_operation_xyz
x,y,z
-x,y,-z
-x,-y,-z
x,-y,z
1/2+x,1/2+y,z
1/2-x,1/2+y,-z
1/2-x,1/2-y,-z
1/2+x,1/2-y,z
loop_
_atom_site_type_symbol
_atom_site_label
_atom_site_fract_x
_atom_site_fract_y
_atom_site_fract_z
Si Si1 0.148654 0.680260 0.638640
Si Si2 0.173996 0.822595 0.125184
Si Si3 0.421108 0.178919 0.921389
Si Si4 0.696653 0.179570 0.928840
Si Si5 0.237245 0.678506 0.602281
Si Si6 0.508783 0.178748 0.182810
Si Si7 0.461355 0.181324 0.540913
O O1 0.147948 0.500000 0.638867
O O2 0.168213 0.739863 0.782929
O O3 0.184500 0.734314 0.583458
O O4 0.093633 0.744610 0.550918
O O5 0.128169 0.776326 0.142296
O O6 0.222789 0.773517 0.253947
O O7 0.174444 0.000000 0.099547
O O8 0.168037 0.731445 0.002324
O O9 0.450568 0.237585 0.851500
O O10 0.409210 0.000000 0.900858
O O11 0.453784 0.219466 0.072330
O O12 0.701148 0.000000 0.931533
O O13 0.750000 0.250000 0.000000
O O14 0.237556 0.500000 0.584530
O O15 0.250000 0.750000 0.500000
O O16 0.519505 0.248683 0.317390
O O17 0.514164 0.000000 0.193985
O O18 0.500000 0.243211 0.500000
O O19 0.460633 0.000000 0.539357
#
# Coordination Sequence:
#
# PCOD8111027 Si02
#       7
#     8   8   8   8   8   8   8
#     4   9  19  35  53  79 114 147 178 228 283 328
#     4  11  23  38  55  82 115 147 187 232 277 335
#     4   9  18  33  55  82 109 141 183 233 279 326
#     4  11  21  37  59  82 112 147 186 231 279 331
#     4  10  22  39  56  80 115 148 186 230 275 331
#     4   8  16  31  50  79 113 139 179 233 279 329
#     4   9  17  28  48  78 111 143 176 221 281 335
#
# _framework density 19.471589000000002
#
# number of rings (size 3 to 8) (size 9 to 14) (size 15 to 20)
#    0.000    2.429    1.429    1.714    4.000    1.143 
#    0.000    1.429    0.000    0.000    0.000    1.000 
#    0.000    0.000    0.000    0.000    0.000    0.000 
#
# Total GULP energy -347130.075809 kJ/mol
# GULP energy per Si atom -12397.502707 kJ/mol
# Density = 1.942727 g / cm^3
# Si number density = 19.471589 Si / 1000 Ang^3
#
#
#
# Elastic Constant Matrix: (Units=GPa)
#
#
# Indices 1 2 3 4 5 6 
#
# 1 151.2749 19.4475 72.9814 0.0000 5.3248 0.0000
# 2 19.4475 27.7363 25.3416 0.0000 -0.5348 0.0000
# 3 72.9814 25.3416 143.6337 0.0000 -10.5325 0.0000
# 4 0.0000 0.0000 0.0000 19.9024 0.0000 0.1359
# 5 5.3248 -0.5348 -10.5325 0.0000 37.1312 0.0000
# 6 0.0000 0.0000 0.0000 0.1359 0.0000 27.5578
#
#
#
# Elastic Compliance Matrix: (Units=1/GPa)
#
#
# Indices 1 2 3 4 5 6 
#
# 1 0.009140 -0.002434 -0.004405 0.000000 -0.002595 0.000000
# 2 -0.002434 0.043720 -0.006541 0.000000 -0.000877 0.000000
# 3 -0.004405 -0.006541 0.010615 0.000000 0.003548 0.000000
# 4 0.000000 0.000000 0.000000 0.050247 0.000000 -0.000248
# 5 -0.002595 -0.000877 0.003548 0.000000 0.028298 0.000000
# 6 0.000000 0.000000 0.000000 -0.000248 0.000000 0.036289
#
#
# Mechanical properties :
#
#
# Convention : Reuss Voigt Hill
#
# Bulk Modulus (GPa) = 27.23731 62.02063 44.62897
# Shear Modulus (GPa) = 23.00908 30.57658 26.79283
#
# Velocity S-wave (km/s) = 3.44128 3.96702 3.71347
# Velocity P-wave (km/s) = 5.45971 7.27352 6.43088
#
# Compressibility (1/GPa) = 0.03671434
#
# Stress axis : x y z
#
# Youngs Moduli (GPa) = 109.41104 22.87287 94.20994
#
# Poissons Ratio (x) = 0.05567 0.41499
# Poissons Ratio (y) = 0.26630 0.61624
# Poissons Ratio (z) = 0.48195 0.14962
#
# Static dielectric constant tensor:
#      x y z
#    x 3.698270 0.000000 -0.073340 
#    y 0.000000 3.055700 0.000000 
#    z -0.073340 0.000000 3.954090 
# 
# 
# High freq. dielectric constant tensor:
#      x y z
#    x 1.772830 0.000000 -0.001820 
#    y 0.000000 1.704880 0.000000 
#    z -0.001820 0.000000 1.768230 
# 
# From -- ./inp_files/181098.got.cif
#   From: 2010.06.25/outbox.cif.g09.slc.cpg/sg12_91_cif.got.tgz:181098.got - 2010.06.28 00:19:55.
