data_PCOD8111892
_publ_section_title
;
Structure prediction by ZEFSAII (Michael W. Deem and Ramdas Pophale) SiO2 
 PCOD8111892
Probable space group: C 2/M
;
_chemical_formula_sum "Si O2"
_cell_formula_units_Z 64
_cell_length_a 9.247511
_cell_length_b 18.126337
_cell_length_c 31.174646
_cell_angle_alpha 90.000000
_cell_angle_beta 144.544198
_cell_angle_gamma 90.000000
_cell_volume 3031.240651
_symmetry_space_group_name_H-M "C 2/M"
_symmetry_group_IT_number 12
_symmetry_cell_setting 'monoclinic'
loop_
_space_group_symop_operation_xyz
x,y,z
-x,y,-z
-x,-y,-z
x,-y,z
1/2+x,1/2+y,z
1/2-x,1/2+y,-z
1/2-x,1/2-y,-z
1/2+x,1/2-y,z
loop_
_atom_site_type_symbol
_atom_site_label
_atom_site_fract_x
_atom_site_fract_y
_atom_site_fract_z
Si Si1 0.414679 0.674603 0.172359
Si Si2 0.991875 0.316642 0.308273
Si Si3 0.405441 0.918937 0.434656
Si Si4 0.498620 0.418308 0.884670
Si Si5 0.052477 0.846244 0.719738
Si Si6 0.782195 0.582926 0.569562
Si Si7 0.497207 0.708044 0.049154
Si Si8 0.908957 0.416658 0.741297
O O1 0.352461 0.612083 0.121648
O O2 0.395491 0.646163 0.216680
O O3 0.239954 0.746355 0.123746
O O4 0.697741 0.693356 0.228694
O O5 0.070352 0.232014 0.323200
O O6 0.043402 0.355594 0.365962
O O7 0.158847 0.365366 0.315732
O O8 0.500000 0.873457 0.500000
O O9 0.161032 0.898112 0.349356
O O10 0.641303 0.918922 0.460958
O O11 0.335006 0.000000 0.434075
O O12 0.606627 0.500000 0.919098
O O13 0.540066 0.369082 0.936249
O O14 0.203665 0.422378 0.808216
O O15 0.310473 0.872172 0.759262
O O16 0.500000 0.610250 0.500000
O O17 0.810995 0.500000 0.597050
O O18 0.500000 0.690437 0.000000
O O19 0.250000 0.750000 0.000000
O O20 0.796615 0.500000 0.711976
#
# Coordination Sequence:
#
# PCOD8111892 Si02
#       8
#     8   8   8   8   8   8   8   8
#     4  11  23  44  66  99 135 179 228 271 336 416
#     4  11  22  40  64  95 129 168 221 285 330 399
#     4  10  23  42  61  87 126 171 219 274 339 409
#     4  10  23  44  68  99 135 173 225 283 331 392
#     4  12  23  38  67  97 133 168 225 285 337 400
#     4  10  22  41  64  88 122 175 227 269 341 424
#     4  12  25  44  73 100 134 188 223 272 339 427
#     4  10  23  39  62  94 132 171 214 273 340 400
#
# _framework density 21.113465999999999
#
# number of rings (size 3 to 8) (size 9 to 14) (size 15 to 20)
#    0.000    1.250    2.500    3.750    3.500    2.250 
#    0.000    2.500    0.000    0.000    0.000    0.000 
#    0.000    0.000    0.000    0.000    0.000    0.000 
#
# Total GULP energy -396428.045014 kJ/mol
# GULP energy per Si atom -12388.376407 kJ/mol
# Density = 2.106541 g / cm^3
# Si number density = 21.113466 Si / 1000 Ang^3
#
#
#
# Elastic Constant Matrix: (Units=GPa)
#
#
# Indices 1 2 3 4 5 6 
#
# 1 122.8259 53.6159 35.6191 -0.0003 -30.2558 0.0000
# 2 53.6159 149.9391 42.0377 0.0008 -19.9060 0.0000
# 3 35.6191 42.0377 90.6444 0.0031 -19.5776 -0.0002
# 4 -0.0003 0.0008 0.0031 27.4567 0.0008 -3.2159
# 5 -30.2558 -19.9060 -19.5776 0.0008 41.7234 -0.0005
# 6 0.0000 0.0000 -0.0002 -3.2159 -0.0005 24.7083
#
#
#
# Elastic Compliance Matrix: (Units=1/GPa)
#
#
# Indices 1 2 3 4 5 6 
#
# 1 0.011376 -0.002733 -0.001895 0.000000 0.006056 0.000000
# 2 -0.002733 0.008511 -0.002698 0.000000 0.000813 0.000000
# 3 -0.001895 -0.002698 0.013857 -0.000002 0.003841 0.000000
# 4 0.000000 0.000000 -0.000002 0.036985 -0.000001 0.004814
# 5 0.006056 0.000813 0.003841 -0.000001 0.030549 0.000001
# 6 0.000000 0.000000 0.000000 0.004814 0.000001 0.041099
#
#
# Mechanical properties :
#
#
# Convention : Reuss Voigt Hill
#
# Bulk Modulus (GPa) = 52.37247 69.55053 60.96150
# Shear Modulus (GPa) = 30.60133 34.25346 32.42740
#
# Velocity S-wave (km/s) = 3.81120 4.03221 3.92326
# Velocity P-wave (km/s) = 6.65027 7.39535 7.03268
#
# Compressibility (1/GPa) = 0.01909400
#
# Stress axis : x y z
#
# Youngs Moduli (GPa) = 87.90615 117.49854 72.16367
#
# Poissons Ratio (x) = 0.32107 0.13674
# Poissons Ratio (y) = 0.24020 0.19467
# Poissons Ratio (z) = 0.16657 0.31697
#
# Static dielectric constant tensor:
#      x y z
#    x 3.854710 0.000000 0.080670 
#    y 0.000000 4.078560 0.000000 
#    z 0.080670 0.000000 3.485480 
# 
# 
# High freq. dielectric constant tensor:
#      x y z
#    x 1.843340 0.000000 -0.004310 
#    y 0.000000 1.826300 0.000000 
#    z -0.004310 0.000000 1.812900 
# 
# From -- ./inp_files/373008.got.cif
#   From: 2010.06.25/outbox.cif.g09.slc.cpg/sg12_187_cif.got.tgz:373008.got - 2010.06.28 00:19:55.
