data_PCOD8111378
_publ_section_title
;
Structure prediction by ZEFSAII (Michael W. Deem and Ramdas Pophale) SiO2 
 PCOD8111378
Probable space group: C 2/M
;
_chemical_formula_sum "Si O2"
_cell_formula_units_Z 48
_cell_length_a 9.908038
_cell_length_b 9.117606
_cell_length_c 26.192318
_cell_angle_alpha 90.000000
_cell_angle_beta 89.801680
_cell_angle_gamma 90.000000
_cell_volume 2366.136624
_symmetry_space_group_name_H-M "C 2/M"
_symmetry_group_IT_number 12
_symmetry_cell_setting 'monoclinic'
loop_
_space_group_symop_operation_xyz
x,y,z
-x,y,-z
-x,-y,-z
x,-y,z
1/2+x,1/2+y,z
1/2-x,1/2+y,-z
1/2-x,1/2-y,-z
1/2+x,1/2-y,z
loop_
_atom_site_type_symbol
_atom_site_label
_atom_site_fract_x
_atom_site_fract_y
_atom_site_fract_z
Si Si1 0.959345 0.169485 0.276702
Si Si2 0.709724 0.830283 0.551366
Si Si3 0.018436 0.169151 0.942459
Si Si4 0.267523 0.329239 0.780669
Si Si5 0.788888 0.669513 0.884714
Si Si6 0.478759 0.331394 0.608477
O O1 0.833331 0.269268 0.262035
O O2 0.005966 0.216129 0.332962
O O3 0.080317 0.199779 0.237339
O O4 0.915609 0.000000 0.274907
O O5 0.750000 0.750000 0.500000
O O6 0.569853 0.767591 0.572119
O O7 0.823451 0.805218 0.594084
O O8 0.689261 0.000000 0.538682
O O9 0.173853 0.191471 0.927346
O O10 0.926948 0.261851 0.904498
O O11 0.973949 0.000000 0.937889
O O12 0.000000 0.227156 0.000000
O O13 0.238850 0.500000 0.788656
O O14 0.240112 0.246513 0.833325
O O15 0.814302 0.500000 0.872623
O O16 0.520871 0.500000 0.599955
#
# Coordination Sequence:
#
# PCOD8111378 Si02
#       6
#     8   8   8   8   8   8
#     4  10  22  40  60  84 115 150 190 236 285 339
#     4  11  23  39  60  87 118 153 194 237 285 341
#     4  10  22  40  60  84 116 152 191 238 290 343
#     4  11  23  39  60  86 117 153 192 235 285 341
#     4  11  23  38  59  87 116 150 193 237 285 342
#     4  10  22  40  60  84 116 151 189 237 288 338
#
# _framework density 20.286234
#
# number of rings (size 3 to 8) (size 9 to 14) (size 15 to 20)
#    0.000    1.500    0.000    4.500    0.000   12.333 
#    0.000    0.000    0.000    0.000    0.000    0.000 
#    0.000    0.000    0.000    0.000    0.000    0.000 
#
# Total GULP energy -297788.662821 kJ/mol
# GULP energy per Si atom -12407.860951 kJ/mol
# Density = 2.024006 g / cm^3
# Si number density = 20.286234 Si / 1000 Ang^3
#
#
#
# Elastic Constant Matrix: (Units=GPa)
#
#
# Indices 1 2 3 4 5 6 
#
# 1 58.1806 31.4122 -3.8077 0.0000 6.2194 0.0000
# 2 31.4122 93.7287 30.3427 0.0000 3.0314 0.0000
# 3 -3.8077 30.3427 88.4495 0.0000 2.3061 0.0000
# 4 0.0000 0.0000 0.0000 35.7698 0.0000 1.9924
# 5 6.2194 3.0314 2.3061 0.0000 40.0174 0.0000
# 6 0.0000 0.0000 0.0000 1.9924 0.0000 35.6487
#
#
#
# Elastic Compliance Matrix: (Units=1/GPa)
#
#
# Indices 1 2 3 4 5 6 
#
# 1 0.022509 -0.008756 0.004053 0.000000 -0.003068 0.000000
# 2 -0.008756 0.015427 -0.005683 0.000000 0.000520 0.000000
# 3 0.004053 -0.005683 0.013455 0.000000 -0.000975 0.000000
# 4 0.000000 0.000000 0.000000 0.028044 0.000000 -0.001567
# 5 -0.003068 0.000520 -0.000975 0.000000 0.025483 0.000000
# 6 0.000000 0.000000 0.000000 -0.001567 0.000000 0.028139
#
#
# Mechanical properties :
#
#
# Convention : Reuss Voigt Hill
#
# Bulk Modulus (GPa) = 32.66022 39.58369 36.12196
# Shear Modulus (GPa) = 30.48142 34.44798 32.46470
#
# Velocity S-wave (km/s) = 3.88050 4.12527 4.00475
# Velocity P-wave (km/s) = 6.01767 6.49964 6.26330
#
# Compressibility (1/GPa) = 0.03061828
#
# Stress axis : x y z
#
# Youngs Moduli (GPa) = 44.42720 64.82348 74.32076
#
# Poissons Ratio (x) = 0.56762 -0.30121
# Poissons Ratio (y) = 0.38902 0.42233
# Poissons Ratio (z) = -0.18006 0.36837
#
# Static dielectric constant tensor:
#      x y z
#    x 3.671180 0.000000 -0.029170 
#    y 0.000000 3.715420 0.000000 
#    z -0.029170 0.000000 3.876520 
# 
# 
# High freq. dielectric constant tensor:
#      x y z
#    x 1.799230 0.000000 0.000970 
#    y 0.000000 1.795660 0.000000 
#    z 0.000970 0.000000 1.806420 
# 
# From -- ./inp_files/334624.got.cif
#   From: 2010.06.25/outbox.cif.g09.slc.cpg/sg12_168_cif.got.tgz:334624.got - 2010.06.28 00:19:55.
