data_PCOD8111748
_publ_section_title
;
Structure prediction by ZEFSAII (Michael W. Deem and Ramdas Pophale) SiO2 
 PCOD8111748
Probable space group: C 2/M
;
_chemical_formula_sum "Si O2"
_cell_formula_units_Z 64
_cell_length_a 23.408243
_cell_length_b 17.976493
_cell_length_c 19.324596
_cell_angle_alpha 90.000000
_cell_angle_beta 22.486890
_cell_angle_gamma 90.000000
_cell_volume 3110.168282
_symmetry_space_group_name_H-M "C 2/M"
_symmetry_group_IT_number 12
_symmetry_cell_setting 'monoclinic'
loop_
_space_group_symop_operation_xyz
x,y,z
-x,y,-z
-x,-y,-z
x,-y,z
1/2+x,1/2+y,z
1/2-x,1/2+y,-z
1/2-x,1/2-y,-z
1/2+x,1/2-y,z
loop_
_atom_site_type_symbol
_atom_site_label
_atom_site_fract_x
_atom_site_fract_y
_atom_site_fract_z
Si Si1 0.316064 0.414515 0.886460
Si Si2 0.608716 0.913675 0.548499
Si Si3 0.455202 0.651716 0.470832
Si Si4 0.562786 0.187695 0.354856
Si Si5 0.010993 0.655533 0.187368
Si Si6 0.617563 0.318336 0.053510
Si Si7 0.375121 0.174825 0.194105
Si Si8 0.092930 0.151554 0.829925
O O1 0.308430 0.500000 0.916906
O O2 0.452190 0.403602 0.681157
O O3 0.339881 0.367391 0.928903
O O4 0.162545 0.391984 0.020931
O O5 0.473391 0.880224 0.655357
O O6 0.608339 0.871979 0.622487
O O7 0.763185 0.900599 0.336010
O O8 0.577354 0.000000 0.594297
O O9 0.500000 0.637488 0.500000
O O10 0.489384 0.736213 0.410240
O O11 0.279894 0.636884 0.655191
O O12 0.500000 0.166866 0.500000
O O13 0.741087 0.198967 0.154503
O O14 0.049716 0.741533 0.157544
O O15 0.928332 0.642818 0.207616
O O16 0.499521 0.360217 0.137071
O O17 0.356012 0.263577 0.217473
O O18 0.500000 0.150822 0.000000
O O19 0.000000 0.123749 0.000000
#
# Coordination Sequence:
#
# PCOD8111748 Si02
#       8
#     8   8   8   8   8   8   8   8
#     4  12  25  42  64  95 135 172 211 266 328 390
#     4  12  25  41  60  91 136 176 213 263 327 385
#     4  11  23  41  71  99 128 165 212 271 322 383
#     4  11  22  40  68  97 125 164 219 271 314 378
#     4  11  23  41  66  95 130 171 217 268 315 385
#     4  11  23  40  68  96 128 169 221 268 319 376
#     4  10  22  40  69 100 126 159 217 273 323 377
#     4  10  23  41  64  94 127 167 217 274 319 381
#
# _framework density 20.577665
#
# number of rings (size 3 to 8) (size 9 to 14) (size 15 to 20)
#    0.000    1.000    3.750    3.000    8.750    2.250 
#    0.000    1.875    0.000    2.625    0.000    0.000 
#    0.000    0.000    0.000    0.000    0.000    0.000 
#
# Total GULP energy -396975.090387 kJ/mol
# GULP energy per Si atom -12405.471575 kJ/mol
# Density = 2.053083 g / cm^3
# Si number density = 20.577665 Si / 1000 Ang^3
#
#
#
# Elastic Constant Matrix: (Units=GPa)
#
#
# Indices 1 2 3 4 5 6 
#
# 1 116.7361 42.4393 35.3535 -0.0164 -0.8424 0.0067
# 2 42.4393 87.1383 21.8361 -0.0130 6.0868 0.0051
# 3 35.3535 21.8361 111.8554 -0.0214 -2.8453 0.0135
# 4 -0.0164 -0.0130 -0.0214 17.7661 0.0057 -3.7557
# 5 -0.8424 6.0868 -2.8453 0.0057 40.8658 -0.0023
# 6 0.0067 0.0051 0.0135 -3.7557 -0.0023 2.7567
#
#
#
# Elastic Compliance Matrix: (Units=1/GPa)
#
#
# Indices 1 2 3 4 5 6 
#
# 1 0.011095 -0.004819 -0.002546 0.000003 0.000769 0.000000
# 2 -0.004819 0.014319 -0.001331 0.000004 -0.002325 -0.000005
# 3 -0.002546 -0.001331 0.010026 0.000000 0.000844 -0.000039
# 4 0.000003 0.000004 0.000000 0.079055 -0.000005 0.107703
# 5 0.000769 -0.002325 0.000844 -0.000005 0.024891 0.000012
# 6 0.000000 -0.000005 -0.000039 0.107703 0.000012 0.509484
#
#
# Mechanical properties :
#
#
# Convention : Reuss Voigt Hill
#
# Bulk Modulus (GPa) = 55.41200 57.22083 56.31641
# Shear Modulus (GPa) = 7.43738 26.68445 17.06092
#
# Velocity S-wave (km/s) = 1.90319 3.60497 2.88253
# Velocity P-wave (km/s) = 5.64059 6.72275 6.20530
#
# Compressibility (1/GPa) = 0.01804663
#
# Stress axis : x y z
#
# Youngs Moduli (GPa) = 90.12974 69.83640 99.73779
#
# Poissons Ratio (x) = 0.33656 0.25397
# Poissons Ratio (y) = 0.43436 0.13278
# Poissons Ratio (z) = 0.22951 0.09297
#
# Static dielectric constant tensor:
#      x y z
#    x 3.797560 -0.000010 0.102690 
#    y -0.000010 3.445740 0.000020 
#    z 0.102690 0.000020 3.991440 
# 
# 
# High freq. dielectric constant tensor:
#      x y z
#    x 1.814550 0.000000 0.003840 
#    y 0.000000 1.775850 0.000000 
#    z 0.003840 0.000000 1.823370 
# 
# From -- ./inp_files/326079.got.cif
#   From: 2010.06.25/outbox.cif.g09.slc.cpg/sg12_164_cif.got.tgz:326079.got - 2010.06.28 00:19:55.
