data_PCOD8111647
_publ_section_title
;
Structure prediction by ZEFSAII (Michael W. Deem and Ramdas Pophale) SiO2 
 PCOD8111647
Probable space group: C 2/M
;
_chemical_formula_sum "Si O2"
_cell_formula_units_Z 44
_cell_length_a 8.425294
_cell_length_b 24.552512
_cell_length_c 11.922881
_cell_angle_alpha 90.000000
_cell_angle_beta 125.825098
_cell_angle_gamma 90.000000
_cell_volume 1999.769616
_symmetry_space_group_name_H-M "C 2/M"
_symmetry_group_IT_number 12
_symmetry_cell_setting 'monoclinic'
loop_
_space_group_symop_operation_xyz
x,y,z
-x,y,-z
-x,-y,-z
x,-y,z
1/2+x,1/2+y,z
1/2-x,1/2+y,-z
1/2-x,1/2-y,-z
1/2+x,1/2-y,z
loop_
_atom_site_type_symbol
_atom_site_label
_atom_site_fract_x
_atom_site_fract_y
_atom_site_fract_z
Si Si1 0.364335 0.114635 0.238178
Si Si2 0.686517 0.500000 0.657802
Si Si3 0.844728 0.398786 0.840606
Si Si4 0.903239 0.794112 0.195691
Si Si5 0.000000 0.178533 0.000000
Si Si6 0.162506 0.286879 0.644338
Si Si7 0.945922 0.500000 0.348818
O O1 0.530371 0.120149 0.213641
O O2 0.433236 0.154388 0.366960
O O3 0.324532 0.053789 0.266536
O O4 0.157042 0.137276 0.114501
O O5 0.500000 0.500000 0.500000
O O6 0.699759 0.447792 0.745268
O O7 0.861594 0.500000 0.644301
O O8 0.706280 0.350472 0.825144
O O9 0.000000 0.417473 0.000000
O O10 0.906704 0.784655 0.061805
O O11 0.798004 0.745821 0.221524
O O12 0.129647 0.794279 0.331899
O O13 0.000000 0.256525 0.500000
O O14 0.000000 0.500000 0.500000
#
# Coordination Sequence:
#
# PCOD8111647 Si02
#       7
#     8   4   8   8   4   8   4
#     4  10  22  40  64  94 128 171 216 272 329 392
#     4  10  25  41  67 101 132 177 228 272 330 402
#     4  11  22  44  67  96 135 176 222 279 335 394
#     4  11  24  41  67  95 128 178 218 273 335 396
#     4  10  22  41  60  98 124 165 226 266 332 390
#     4  11  24  43  64  97 134 174 220 276 338 405
#     4  10  22  42  65  94 132 174 210 266 331 393
#
# _framework density 22.002535999999999
#
# number of rings (size 3 to 8) (size 9 to 14) (size 15 to 20)
#    0.000    1.455    1.818    2.455    0.000    9.818 
#    8.182    0.000    0.000    0.000    0.000    0.000 
#    0.000    0.000    0.000    0.000    0.000    0.000 
#
# Total GULP energy -272680.140146 kJ/mol
# GULP energy per Si atom -12394.551825 kJ/mol
# Density = 2.195246 g / cm^3
# Si number density = 22.002536 Si / 1000 Ang^3
#
#
#
# Elastic Constant Matrix: (Units=GPa)
#
#
# Indices 1 2 3 4 5 6 
#
# 1 82.8091 41.2206 27.2902 0.0000 -8.6207 0.0000
# 2 41.2206 132.0180 38.1722 0.0000 -10.5523 0.0000
# 3 27.2902 38.1722 117.8690 0.0000 6.8138 0.0000
# 4 0.0000 0.0000 0.0000 22.2091 0.0000 0.2240
# 5 -8.6207 -10.5523 6.8138 0.0000 35.7014 0.0000
# 6 0.0000 0.0000 0.0000 0.2240 0.0000 31.1016
#
#
#
# Elastic Compliance Matrix: (Units=1/GPa)
#
#
# Indices 1 2 3 4 5 6 
#
# 1 0.015063 -0.003757 -0.002444 0.000000 0.002993 0.000000
# 2 -0.003757 0.009630 -0.002387 0.000000 0.002394 0.000000
# 3 -0.002444 -0.002387 0.010008 0.000000 -0.003206 0.000000
# 4 0.000000 0.000000 0.000000 0.045030 0.000000 -0.000324
# 5 0.002993 0.002394 -0.003206 0.000000 0.030052 0.000000
# 6 0.000000 0.000000 0.000000 -0.000324 0.000000 0.032155
#
#
# Mechanical properties :
#
#
# Convention : Reuss Voigt Hill
#
# Bulk Modulus (GPa) = 57.06289 60.67357 58.86823
# Shear Modulus (GPa) = 30.31108 32.86997 31.59052
#
# Velocity S-wave (km/s) = 3.71565 3.86932 3.79326
# Velocity P-wave (km/s) = 6.66326 6.89911 6.78221
#
# Compressibility (1/GPa) = 0.01752453
#
# Stress axis : x y z
#
# Youngs Moduli (GPa) = 66.38652 103.84740 99.91850
#
# Poissons Ratio (x) = 0.39020 0.24418
# Poissons Ratio (y) = 0.24944 0.23851
# Poissons Ratio (z) = 0.16223 0.24788
#
# Static dielectric constant tensor:
#      x y z
#    x 4.108340 0.000000 -0.184610 
#    y 0.000000 4.295690 0.000000 
#    z -0.184610 0.000000 4.187090 
# 
# 
# High freq. dielectric constant tensor:
#      x y z
#    x 1.874980 0.000000 -0.003900 
#    y 0.000000 1.862370 0.000000 
#    z -0.003900 0.000000 1.875740 
# 
# From -- ./inp_files/122680.got.cif
#   From: 2010.06.25/outbox.cif.g09.slc.cpg/sg12_62_cif.got.tgz:122680.got - 2010.06.28 00:19:55.
