data_PCOD8111968
_publ_section_title
;
Structure prediction by ZEFSAII (Michael W. Deem and Ramdas Pophale) SiO2 
 PCOD8111968
Probable space group: C 2/M
;
_chemical_formula_sum "Si O2"
_cell_formula_units_Z 48
_cell_length_a 24.989854
_cell_length_b 10.802204
_cell_length_c 15.468544
_cell_angle_alpha 90.000000
_cell_angle_beta 144.888666
_cell_angle_gamma 90.000000
_cell_volume 2401.704403
_symmetry_space_group_name_H-M "C 2/M"
_symmetry_group_IT_number 12
_symmetry_cell_setting 'monoclinic'
loop_
_space_group_symop_operation_xyz
x,y,z
-x,y,-z
-x,-y,-z
x,-y,z
1/2+x,1/2+y,z
1/2-x,1/2+y,-z
1/2-x,1/2-y,-z
1/2+x,1/2-y,z
loop_
_atom_site_type_symbol
_atom_site_label
_atom_site_fract_x
_atom_site_fract_y
_atom_site_fract_z
Si Si1 0.730369 0.857949 0.857344
Si Si2 0.722713 0.254694 0.670354
Si Si3 0.946437 0.000000 0.304911
Si Si4 0.103132 0.254840 0.828991
Si Si5 0.646963 0.500000 0.649119
Si Si6 0.097608 0.355460 0.173467
Si Si7 0.917922 0.358704 0.647711
O O1 0.717503 0.851193 0.736924
O O2 0.636602 0.814700 0.782565
O O3 0.753572 0.000000 0.913488
O O4 0.811441 0.762653 0.992175
O O5 0.701550 0.382044 0.689309
O O6 0.825186 0.265810 0.765655
O O7 0.647926 0.227353 0.497247
O O8 0.943989 0.878331 0.243801
O O9 0.857616 0.000000 0.252446
O O10 0.042304 0.000000 0.480616
O O11 0.026361 0.345361 0.767313
O O12 0.122888 0.500000 0.194040
O O13 0.093651 0.319588 0.268545
O O14 0.000000 0.323519 0.000000
O O15 0.887734 0.500000 0.593343
#
# Coordination Sequence:
#
# PCOD8111968 Si02
#       7
#     8   8   4   8   4   8   8
#     4  11  24  38  60  91 126 164 199 247 305 362
#     4  12  22  40  63  90 123 160 201 254 302 360
#     4  11  20  40  60  90 124 158 209 251 292 357
#     4  11  22  40  62  87 125 163 204 247 299 360
#     4  11  22  36  63  92 118 161 209 249 303 347
#     4  10  22  41  65  90 118 156 204 253 301 358
#     4  11  24  41  62  91 122 159 201 252 306 360
#
# _framework density 19.985807999999999
#
# number of rings (size 3 to 8) (size 9 to 14) (size 15 to 20)
#    0.000    1.000    5.000    2.500    0.000    0.667 
#    1.500    1.667    1.833    3.000    0.000    0.000 
#    0.000    0.000    0.000    0.000    0.000    0.000 
#
# Total GULP energy -297693.098205 kJ/mol
# GULP energy per Si atom -12403.879092 kJ/mol
# Density = 1.994032 g / cm^3
# Si number density = 19.985808 Si / 1000 Ang^3
#
#
#
# Elastic Constant Matrix: (Units=GPa)
#
#
# Indices 1 2 3 4 5 6 
#
# 1 130.8524 23.6579 40.9972 0.0000 4.8340 0.0000
# 2 23.6579 60.5274 11.0178 0.0000 0.7261 0.0000
# 3 40.9972 11.0178 81.2454 0.0000 0.2183 0.0000
# 4 0.0000 0.0000 0.0000 22.8016 0.0000 3.9840
# 5 4.8340 0.7261 0.2183 0.0000 38.4153 0.0000
# 6 0.0000 0.0000 0.0000 3.9840 0.0000 25.3800
#
#
#
# Elastic Compliance Matrix: (Units=1/GPa)
#
#
# Indices 1 2 3 4 5 6 
#
# 1 0.009607 -0.002932 -0.004447 0.000000 -0.001128 0.000000
# 2 -0.002932 0.017838 -0.000940 0.000000 0.000037 0.000000
# 3 -0.004447 -0.000940 0.014679 0.000000 0.000494 0.000000
# 4 0.000000 0.000000 0.000000 0.045093 0.000000 -0.007079
# 5 -0.001128 0.000037 0.000494 0.000000 0.026170 0.000000
# 6 0.000000 0.000000 0.000000 -0.007079 0.000000 0.040512
#
#
# Mechanical properties :
#
#
# Convention : Reuss Voigt Hill
#
# Bulk Modulus (GPa) = 39.23705 47.10788 43.17247
# Shear Modulus (GPa) = 27.92783 30.44953 29.18868
#
# Velocity S-wave (km/s) = 3.74221 3.90751 3.82576
# Velocity P-wave (km/s) = 6.19252 6.63174 6.41589
#
# Compressibility (1/GPa) = 0.02548611
#
# Stress axis : x y z
#
# Youngs Moduli (GPa) = 104.08668 56.05987 68.12625
#
# Poissons Ratio (x) = 0.16437 0.30298
# Poissons Ratio (y) = 0.30519 0.06401
# Poissons Ratio (z) = 0.46291 0.05267
#
# Static dielectric constant tensor:
#      x y z
#    x 3.738840 0.000000 -0.024330 
#    y 0.000000 3.488200 0.000000 
#    z -0.024330 0.000000 3.515270 
# 
# 
# High freq. dielectric constant tensor:
#      x y z
#    x 1.786190 0.000000 -0.001030 
#    y 0.000000 1.774040 0.000000 
#    z -0.001030 0.000000 1.782870 
# 
# From -- ./inp_files/232877.got.cif
#   From: 2010.06.25/outbox.cif.g09.slc.cpg/sg12_117_cif.got.tgz:232877.got - 2010.06.28 00:19:55.
