data_PCOD8111926
_publ_section_title
;
Structure prediction by ZEFSAII (Michael W. Deem and Ramdas Pophale) SiO2 
 PCOD8111926
Probable space group: C 2/M
;
_chemical_formula_sum "Si O2"
_cell_formula_units_Z 56
_cell_length_a 7.905182
_cell_length_b 14.794640
_cell_length_c 23.272579
_cell_angle_alpha 90.000000
_cell_angle_beta 109.361563
_cell_angle_gamma 90.000000
_cell_volume 2567.896425
_symmetry_space_group_name_H-M "C 2/M"
_symmetry_group_IT_number 12
_symmetry_cell_setting 'monoclinic'
loop_
_space_group_symop_operation_xyz
x,y,z
-x,y,-z
-x,-y,-z
x,-y,z
1/2+x,1/2+y,z
1/2-x,1/2+y,-z
1/2-x,1/2-y,-z
1/2+x,1/2-y,z
loop_
_atom_site_type_symbol
_atom_site_label
_atom_site_fract_x
_atom_site_fract_y
_atom_site_fract_z
Si Si1 0.429510 0.606984 0.932205
Si Si2 0.153651 0.894672 0.846834
Si Si3 0.486437 0.101532 0.435039
Si Si4 0.541848 0.105477 0.849071
Si Si5 0.882249 0.101425 0.432937
Si Si6 0.954503 0.743960 0.249535
Si Si7 0.704592 0.245685 0.656748
O O1 0.424572 0.500000 0.936315
O O2 0.567998 0.636452 0.897802
O O3 0.225866 0.641987 0.898771
O O4 0.500000 0.649113 0.000000
O O5 0.369247 0.875732 0.870734
O O6 0.054371 0.836839 0.787113
O O7 0.114538 0.000000 0.830243
O O8 0.500000 0.145208 0.500000
O O9 0.676921 0.103982 0.426924
O O10 0.342844 0.154496 0.381253
O O11 0.411227 0.000000 0.431939
O O12 0.519978 0.155947 0.786420
O O13 0.557048 0.000000 0.836262
O O14 0.905286 0.169344 0.382000
O O15 0.000000 0.135132 0.500000
O O16 0.941288 0.000000 0.421327
O O17 0.778746 0.737568 0.270306
O O18 0.080248 0.741738 0.322330
#
# Coordination Sequence:
#
# PCOD8111926 Si02
#       7
#     8   8   8   8   8   8   8
#     4   9  19  38  66  97 125 161 212 262 311 370
#     4  10  22  41  64  91 127 169 209 256 314 371
#     4  10  23  42  62  87 119 154 198 254 315 370
#     4  10  22  41  65  90 127 172 206 256 318 367
#     4  10  23  42  62  85 118 156 196 249 309 369
#     4  12  24  40  61  89 126 160 209 254 301 368
#     4  12  24  38  62  89 116 161 202 255 302 365
#
# _framework density 21.807732999999999
#
# number of rings (size 3 to 8) (size 9 to 14) (size 15 to 20)
#    0.000    1.571    2.857    1.286    2.000    4.000 
#    0.000    3.571    0.000    0.000    0.000    0.000 
#    0.000    0.000    0.000    0.000    0.000    0.000 
#
# Total GULP energy -347013.053358 kJ/mol
# GULP energy per Si atom -12393.323334 kJ/mol
# Density = 2.175810 g / cm^3
# Si number density = 21.807733 Si / 1000 Ang^3
#
#
#
# Elastic Constant Matrix: (Units=GPa)
#
#
# Indices 1 2 3 4 5 6 
#
# 1 89.3051 39.1408 63.8701 0.0000 1.2978 0.0000
# 2 39.1408 84.5168 62.7667 0.0000 1.4623 0.0000
# 3 63.8701 62.7667 165.8504 0.0000 5.1877 0.0000
# 4 0.0000 0.0000 0.0000 33.2600 0.0000 0.5349
# 5 1.2978 1.4623 5.1877 0.0000 45.0842 0.0000
# 6 0.0000 0.0000 0.0000 0.5349 0.0000 26.4812
#
#
#
# Elastic Compliance Matrix: (Units=1/GPa)
#
#
# Indices 1 2 3 4 5 6 
#
# 1 0.016390 -0.004036 -0.004791 0.000000 0.000210 0.000000
# 2 -0.004036 0.017453 -0.005055 0.000000 0.000132 0.000000
# 3 -0.004791 -0.005055 0.009814 0.000000 -0.000827 0.000000
# 4 0.000000 0.000000 0.000000 0.030076 0.000000 -0.000608
# 5 0.000210 0.000132 -0.000827 0.000000 0.022266 0.000000
# 6 0.000000 0.000000 0.000000 -0.000608 0.000000 0.037775
#
#
# Mechanical properties :
#
#
# Convention : Reuss Voigt Hill
#
# Bulk Modulus (GPa) = 62.92300 74.58084 68.75192
# Shear Modulus (GPa) = 29.96994 32.55808 31.26401
#
# Velocity S-wave (km/s) = 3.71115 3.86808 3.79043
# Velocity P-wave (km/s) = 6.87602 7.36362 7.12399
#
# Compressibility (1/GPa) = 0.01589244
#
# Stress axis : x y z
#
# Youngs Moduli (GPa) = 61.01332 57.29721 101.90019
#
# Poissons Ratio (x) = 0.23125 0.48820
# Poissons Ratio (y) = 0.24625 0.51510
# Poissons Ratio (z) = 0.29232 0.28963
#
# Static dielectric constant tensor:
#      x y z
#    x 4.264930 0.000000 0.056950 
#    y 0.000000 3.853420 0.000000 
#    z 0.056950 0.000000 3.893400 
# 
# 
# High freq. dielectric constant tensor:
#      x y z
#    x 1.884240 0.000000 0.003680 
#    y 0.000000 1.847220 0.000000 
#    z 0.003680 0.000000 1.852830 
# 
# From -- ./inp_files/300146.got.cif
#   From: 2010.06.25/outbox.cif.g09.slc.cpg/sg12_151_cif.got.tgz:300146.got - 2010.06.28 00:19:55.
