data_PCOD8111315
_publ_section_title
;
Structure prediction by ZEFSAII (Michael W. Deem and Ramdas Pophale) SiO2 
 PCOD8111315
Probable space group: C 2/M
;
_chemical_formula_sum "Si O2"
_cell_formula_units_Z 52
_cell_length_a 15.881734
_cell_length_b 23.110645
_cell_length_c 8.708332
_cell_angle_alpha 90.000000
_cell_angle_beta 48.698199
_cell_angle_gamma 90.000000
_cell_volume 2401.185014
_symmetry_space_group_name_H-M "C 2/M"
_symmetry_group_IT_number 12
_symmetry_cell_setting 'monoclinic'
loop_
_space_group_symop_operation_xyz
x,y,z
-x,y,-z
-x,-y,-z
x,-y,z
1/2+x,1/2+y,z
1/2-x,1/2+y,-z
1/2-x,1/2-y,-z
1/2+x,1/2-y,z
loop_
_atom_site_type_symbol
_atom_site_label
_atom_site_fract_x
_atom_site_fract_y
_atom_site_fract_z
Si Si1 0.277299 0.094462 0.739607
Si Si2 0.888002 0.708659 0.225239
Si Si3 0.204692 0.788667 0.919580
Si Si4 0.809146 0.500000 0.916962
Si Si5 0.477824 0.297106 0.349939
Si Si6 0.705330 0.615079 0.509589
Si Si7 0.432162 0.000000 0.411651
Si Si8 0.707204 0.000000 0.710080
O O1 0.242517 0.055704 0.929720
O O2 0.184336 0.101482 0.716291
O O3 0.381091 0.060490 0.537562
O O4 0.294790 0.159836 0.781187
O O5 0.918765 0.741537 0.344997
O O6 0.819900 0.651620 0.351230
O O7 0.811189 0.751422 0.215601
O O8 0.000000 0.689603 0.000000
O O9 0.087168 0.814522 0.120405
O O10 0.250000 0.750000 0.000000
O O11 0.937723 0.500000 0.699724
O O12 0.828287 0.500000 0.072265
O O13 0.500000 0.281003 0.500000
O O14 0.399301 0.352808 0.437770
O O15 0.715125 0.555397 0.408119
O O16 0.403517 0.000000 0.264096
#
# Coordination Sequence:
#
# PCOD8111315 Si02
#       8
#     8   8   8   4   8   8   4   4
#     4  10  22  39  66  88 133 175 207 276 323 396
#     4  10  23  43  64  98 135 173 216 272 331 401
#     4  11  24  42  63  98 134 171 224 268 338 393
#     4  11  23  43  66  99 130 168 234 275 337 388
#     4  11  24  41  68  96 134 172 222 277 329 396
#     4  11  23  45  67  94 137 176 225 267 338 393
#     4   9  21  47  62  98 128 171 227 271 344 394
#     4  10  25  42  69  93 132 179 215 290 322 392
#
# _framework density 21.655972999999999
#
# number of rings (size 3 to 8) (size 9 to 14) (size 15 to 20)
#    0.000    1.538    1.538    3.000    6.462    2.462 
#   11.077    1.923    0.000    5.538    0.000    0.000 
#    0.000    0.000    0.000    0.000    0.000    0.000 
#
# Total GULP energy -322241.760863 kJ/mol
# GULP energy per Si atom -12393.913879 kJ/mol
# Density = 2.160668 g / cm^3
# Si number density = 21.655973 Si / 1000 Ang^3
#
#
#
# Elastic Constant Matrix: (Units=GPa)
#
#
# Indices 1 2 3 4 5 6 
#
# 1 127.0761 63.4263 46.2649 0.0000 29.6965 0.0000
# 2 63.4263 165.7256 58.4653 0.0000 2.9473 0.0000
# 3 46.2649 58.4653 78.4055 0.0000 20.4355 0.0000
# 4 0.0000 0.0000 0.0000 28.8619 0.0000 6.2429
# 5 29.6965 2.9473 20.4355 0.0000 48.9507 0.0000
# 6 0.0000 0.0000 0.0000 6.2429 0.0000 25.6457
#
#
#
# Elastic Compliance Matrix: (Units=1/GPa)
#
#
# Indices 1 2 3 4 5 6 
#
# 1 0.012054 -0.003443 -0.003022 0.000000 -0.005844 0.000000
# 2 -0.003443 0.009411 -0.006039 0.000000 0.004043 0.000000
# 3 -0.003022 -0.006039 0.020723 0.000000 -0.006454 0.000000
# 4 0.000000 0.000000 0.000000 0.036574 0.000000 -0.008903
# 5 -0.005844 0.004043 -0.006454 0.000000 0.026425 0.000000
# 6 0.000000 0.000000 0.000000 -0.008903 0.000000 0.041160
#
#
# Mechanical properties :
#
#
# Convention : Reuss Voigt Hill
#
# Bulk Modulus (GPa) = 58.21333 78.61336 68.41335
# Shear Modulus (GPa) = 28.23568 34.22836 31.23202
#
# Velocity S-wave (km/s) = 3.61477 3.97993 3.80174
# Velocity P-wave (km/s) = 6.66044 7.58285 7.13656
#
# Compressibility (1/GPa) = 0.01717820
#
# Stress axis : x y z
#
# Youngs Moduli (GPa) = 82.96241 106.26407 48.25531
#
# Poissons Ratio (x) = 0.36588 0.14583
# Poissons Ratio (y) = 0.28565 0.29143
# Poissons Ratio (z) = 0.25071 0.64177
#
# Static dielectric constant tensor:
#      x y z
#    x 4.085980 0.000000 0.113940 
#    y 0.000000 4.045230 0.000000 
#    z 0.113940 0.000000 4.221880 
# 
# 
# High freq. dielectric constant tensor:
#      x y z
#    x 1.850300 0.000000 0.031130 
#    y 0.000000 1.854470 0.000000 
#    z 0.031130 0.000000 1.848320 
# 
# From -- ./inp_files/77971.got.cif
#   From: 2010.06.25/outbox.cif.g09.slc.cpg/sg12_39_cif.got.tgz:77971.got - 2010.06.28 00:19:55.
