data_PCOD8111134
_publ_section_title
;
Structure prediction by ZEFSAII (Michael W. Deem and Ramdas Pophale) SiO2 
 PCOD8111134
Probable space group: C 2/M
;
_chemical_formula_sum "Si O2"
_cell_formula_units_Z 44
_cell_length_a 8.138546
_cell_length_b 30.832918
_cell_length_c 8.393569
_cell_angle_alpha 90.000000
_cell_angle_beta 87.411250
_cell_angle_gamma 90.000000
_cell_volume 2104.091748
_symmetry_space_group_name_H-M "C 2/M"
_symmetry_group_IT_number 12
_symmetry_cell_setting 'monoclinic'
loop_
_space_group_symop_operation_xyz
x,y,z
-x,y,-z
-x,-y,-z
x,-y,z
1/2+x,1/2+y,z
1/2-x,1/2+y,-z
1/2-x,1/2-y,-z
1/2+x,1/2-y,z
loop_
_atom_site_type_symbol
_atom_site_label
_atom_site_fract_x
_atom_site_fract_y
_atom_site_fract_z
Si Si1 0.000000 0.396800 0.000000
Si Si2 0.575490 0.152711 0.668974
Si Si3 0.272497 0.238627 0.317605
Si Si4 0.470033 0.688871 0.184050
Si Si5 0.585709 0.609203 0.340942
Si Si6 0.175823 0.050523 0.069834
O O1 0.996541 0.369617 0.166292
O O2 0.833336 0.425112 0.987019
O O3 0.500000 0.139749 0.500000
O O4 0.574211 0.204523 0.701514
O O5 0.763584 0.140503 0.631439
O O6 0.250000 0.250000 0.500000
O O7 0.304779 0.283537 0.220706
O O8 0.110954 0.217705 0.254228
O O9 0.454471 0.640336 0.256219
O O10 0.500000 0.680942 0.000000
O O11 0.500000 0.590279 0.500000
O O12 0.651824 0.566561 0.250313
O O13 0.216160 0.000000 0.062206
O O14 0.000000 0.061793 0.000000
#
# Coordination Sequence:
#
# PCOD8111134 Si02
#       6
#     4   8   8   8   8   8
#     4  10  23  42  68  96 134 164 216 268 323 386
#     4  10  22  39  61  91 124 172 213 263 319 377
#     4  11  22  39  56  83 121 165 208 258 312 365
#     4  11  22  37  56  85 117 158 205 253 303 368
#     4  10  22  39  60  89 123 160 207 258 318 382
#     4  10  22  42  68  96 125 165 207 259 332 393
#
# _framework density 20.911635
#
# number of rings (size 3 to 8) (size 9 to 14) (size 15 to 20)
#    0.000    1.636    0.000    5.182    3.818    0.364 
#   13.091    0.000    0.000    2.727    0.000    0.000 
#    0.000    0.000    0.000    0.000    0.000    0.000 
#
# Total GULP energy -272575.894289 kJ/mol
# GULP energy per Si atom -12389.813377 kJ/mol
# Density = 2.086404 g / cm^3
# Si number density = 20.911635 Si / 1000 Ang^3
#
#
#
# Elastic Constant Matrix: (Units=GPa)
#
#
# Indices 1 2 3 4 5 6 
#
# 1 59.1515 28.5634 23.6285 0.0000 -11.6394 0.0000
# 2 28.5634 92.7024 37.6625 0.0000 -9.3125 0.0000
# 3 23.6285 37.6625 137.9828 0.0000 -14.4354 0.0000
# 4 0.0000 0.0000 0.0000 14.1891 0.0000 -0.8563
# 5 -11.6394 -9.3125 -14.4354 0.0000 38.8084 0.0000
# 6 0.0000 0.0000 0.0000 -0.8563 0.0000 24.9690
#
#
#
# Elastic Compliance Matrix: (Units=1/GPa)
#
#
# Indices 1 2 3 4 5 6 
#
# 1 0.021028 -0.005355 -0.001679 0.000000 0.004397 0.000000
# 2 -0.005355 0.013611 -0.002731 0.000000 0.000644 0.000000
# 3 -0.001679 -0.002731 0.008489 0.000000 0.001999 0.000000
# 4 0.000000 0.000000 0.000000 0.070623 0.000000 0.002422
# 5 0.004397 0.000644 0.001999 0.000000 0.027984 0.000000
# 6 0.000000 0.000000 0.000000 0.002422 0.000000 0.040133
#
#
# Mechanical properties :
#
#
# Convention : Reuss Voigt Hill
#
# Bulk Modulus (GPa) = 42.37613 52.17169 47.27391
# Shear Modulus (GPa) = 23.89321 28.92545 26.40933
#
# Velocity S-wave (km/s) = 3.38387 3.72321 3.55759
# Velocity P-wave (km/s) = 5.96455 6.59438 6.28735
#
# Compressibility (1/GPa) = 0.02359819
#
# Stress axis : x y z
#
# Youngs Moduli (GPa) = 47.55660 73.46785 117.79523
#
# Poissons Ratio (x) = 0.39343 0.19779
# Poissons Ratio (y) = 0.25467 0.32168
# Poissons Ratio (z) = 0.07985 0.20063
#
# Static dielectric constant tensor:
#      x y z
#    x 3.891230 0.000000 0.046420 
#    y 0.000000 3.784120 0.000000 
#    z 0.046420 0.000000 3.640450 
# 
# 
# High freq. dielectric constant tensor:
#      x y z
#    x 1.825990 0.000000 -0.003170 
#    y 0.000000 1.815450 0.000000 
#    z -0.003170 0.000000 1.822840 
# 
# From -- ./inp_files/41606.got.cif
#   From: 2010.06.25/outbox.cif.g09.slc.cpg/sg12_21_cif.got.tgz:41606.got - 2010.06.28 00:19:55.
