data_PCOD8111696
_publ_section_title
;
Structure prediction by ZEFSAII (Michael W. Deem and Ramdas Pophale) SiO2 
 PCOD8111696
Probable space group: C 2/M
;
_chemical_formula_sum "Si O2"
_cell_formula_units_Z 56
_cell_length_a 14.223009
_cell_length_b 12.155775
_cell_length_c 18.699266
_cell_angle_alpha 90.000000
_cell_angle_beta 59.640314
_cell_angle_gamma 90.000000
_cell_volume 2789.612105
_symmetry_space_group_name_H-M "C 2/M"
_symmetry_group_IT_number 12
_symmetry_cell_setting 'monoclinic'
loop_
_space_group_symop_operation_xyz
x,y,z
-x,y,-z
-x,-y,-z
x,-y,z
1/2+x,1/2+y,z
1/2-x,1/2+y,-z
1/2-x,1/2-y,-z
1/2+x,1/2-y,z
loop_
_atom_site_type_symbol
_atom_site_label
_atom_site_fract_x
_atom_site_fract_y
_atom_site_fract_z
Si Si1 0.732366 0.620437 0.559986
Si Si2 0.597266 0.177678 0.613332
Si Si3 0.171082 0.223441 0.095284
Si Si4 0.718309 0.269381 0.805191
Si Si5 0.964191 0.627403 0.202736
Si Si6 0.125928 0.627306 0.360158
Si Si7 0.860774 0.000000 0.110420
Si Si8 0.895894 0.000000 0.942281
O O1 0.686884 0.500000 0.592478
O O2 0.623288 0.692810 0.609554
O O3 0.789468 0.626004 0.459938
O O4 0.825710 0.653526 0.580732
O O5 0.563119 0.129126 0.702715
O O6 0.502818 0.152034 0.592322
O O7 0.244364 0.209767 0.137224
O O8 0.116399 0.106180 0.102544
O O9 0.081098 0.318214 0.141424
O O10 0.250000 0.250000 0.000000
O O11 0.626332 0.192950 0.806389
O O12 0.820237 0.284432 0.713743
O O13 0.678388 0.392064 0.834472
O O14 0.968181 0.500000 0.176515
O O15 0.147083 0.500000 0.330344
O O16 0.988711 0.000000 0.065656
O O17 0.818545 0.000000 0.043396
#
# Coordination Sequence:
#
# PCOD8111696 Si02
#       8
#     8   8   8   8   8   8   4   4
#     4  10  22  40  65  96 132 169 217 271 317 376
#     4  11  22  40  67  95 131 173 219 260 326 382
#     4  12  27  44  69  95 127 170 218 264 332 384
#     4  12  24  42  65  98 127 170 212 270 321 388
#     4  12  27  45  64  96 136 174 215 265 327 395
#     4  11  21  37  66  97 124 164 217 268 312 371
#     4  11  22  42  70  91 123 162 218 273 317 380
#     4  11  24  44  66  94 127 164 214 274 321 388
#
# _framework density 20.074476000000001
#
# number of rings (size 3 to 8) (size 9 to 14) (size 15 to 20)
#    0.000    0.714    6.429    1.714    3.000    1.714 
#    1.286    1.429    0.000    1.714    0.000    0.000 
#    0.000    0.000    0.000    0.000    0.000    0.000 
#
# Total GULP energy -347150.388917 kJ/mol
# GULP energy per Si atom -12398.228176 kJ/mol
# Density = 2.002879 g / cm^3
# Si number density = 20.074476 Si / 1000 Ang^3
#
#
#
# Elastic Constant Matrix: (Units=GPa)
#
#
# Indices 1 2 3 4 5 6 
#
# 1 89.6957 43.0244 20.2650 0.0000 6.1917 0.0000
# 2 43.0244 134.1517 28.8466 0.0000 5.5095 0.0000
# 3 20.2650 28.8466 96.0239 0.0000 1.2456 0.0000
# 4 0.0000 0.0000 0.0000 19.3141 0.0000 2.1362
# 5 6.1917 5.5095 1.2456 0.0000 30.5690 0.0000
# 6 0.0000 0.0000 0.0000 2.1362 0.0000 34.1735
#
#
#
# Elastic Compliance Matrix: (Units=1/GPa)
#
#
# Indices 1 2 3 4 5 6 
#
# 1 0.013531 -0.003902 -0.001658 0.000000 -0.001970 0.000000
# 2 -0.003902 0.009150 -0.001915 0.000000 -0.000781 0.000000
# 3 -0.001658 -0.001915 0.011336 0.000000 0.000219 0.000000
# 4 0.000000 0.000000 0.000000 0.052136 0.000000 -0.003259
# 5 -0.001970 -0.000781 0.000219 0.000000 0.033244 0.000000
# 6 0.000000 0.000000 0.000000 -0.003259 0.000000 0.029466
#
#
# Mechanical properties :
#
#
# Convention : Reuss Voigt Hill
#
# Bulk Modulus (GPa) = 52.44650 56.01594 54.23122
# Shear Modulus (GPa) = 29.38260 31.99367 30.68813
#
# Velocity S-wave (km/s) = 3.82996 3.99651 3.91412
# Velocity P-wave (km/s) = 6.76319 7.01860 6.89208
#
# Compressibility (1/GPa) = 0.01906705
#
# Stress axis : x y z
#
# Youngs Moduli (GPa) = 73.90361 109.29445 88.21162
#
# Poissons Ratio (x) = 0.42650 0.14624
# Poissons Ratio (y) = 0.28839 0.16892
# Poissons Ratio (z) = 0.12252 0.20930
#
# Static dielectric constant tensor:
#      x y z
#    x 3.592760 0.000000 -0.365240 
#    y 0.000000 3.738800 0.000000 
#    z -0.365240 0.000000 1.342680 
# 
# 
# High freq. dielectric constant tensor:
#      x y z
#    x 1.782770 0.000000 0.002390 
#    y 0.000000 1.784390 0.000000 
#    z 0.002390 0.000000 1.794150 
# 
# From -- ./inp_files/269238.got.cif
#   From: 2010.06.25/outbox.cif.g09.slc.cpg/sg12_135_cif.got.tgz:269238.got - 2010.06.28 00:19:55.
