data_PCOD8111370
_publ_section_title
;
Structure prediction by ZEFSAII (Michael W. Deem and Ramdas Pophale) SiO2 
 PCOD8111370
Probable space group: C 2/M
;
_chemical_formula_sum "Si O2"
_cell_formula_units_Z 64
_cell_length_a 14.403976
_cell_length_b 18.035252
_cell_length_c 14.198132
_cell_angle_alpha 90.000000
_cell_angle_beta 121.871275
_cell_angle_gamma 90.000000
_cell_volume 3132.308082
_symmetry_space_group_name_H-M "C 2/M"
_symmetry_group_IT_number 12
_symmetry_cell_setting 'monoclinic'
loop_
_space_group_symop_operation_xyz
x,y,z
-x,y,-z
-x,-y,-z
x,-y,z
1/2+x,1/2+y,z
1/2-x,1/2+y,-z
1/2-x,1/2-y,-z
1/2+x,1/2-y,z
loop_
_atom_site_type_symbol
_atom_site_label
_atom_site_fract_x
_atom_site_fract_y
_atom_site_fract_z
Si Si1 0.016511 0.828237 0.288579
Si Si2 0.906787 0.174910 0.877223
Si Si3 0.623542 0.837902 0.530403
Si Si4 0.199101 0.414081 0.746107
Si Si5 0.983872 0.345054 0.710593
Si Si6 0.408097 0.848317 0.876934
Si Si7 0.815682 0.086653 0.265682
Si Si8 0.623190 0.325145 0.530118
O O1 0.984848 0.741636 0.279128
O O2 0.908926 0.874841 0.254167
O O3 0.055654 0.849748 0.206238
O O4 0.115543 0.847473 0.415188
O O5 0.797660 0.131033 0.846540
O O6 0.880855 0.261691 0.870111
O O7 0.000000 0.151390 0.000000
O O8 0.500000 0.833941 0.500000
O O9 0.691303 0.895084 0.630268
O O10 0.616796 0.861544 0.416410
O O11 0.678496 0.756215 0.570642
O O12 0.223715 0.500000 0.770864
O O13 0.088790 0.393392 0.740852
O O14 0.947881 0.369579 0.794286
O O15 0.300199 0.895021 0.844353
O O16 0.500000 0.872520 0.000000
O O17 0.810791 0.116633 0.371020
O O18 0.838942 0.000000 0.280130
O O19 0.500000 0.321610 0.500000
#
# Coordination Sequence:
#
# PCOD8111370 Si02
#       8
#     8   8   8   8   8   8   8   8
#     4   9  19  37  60  83 108 142 183 226 269 316
#     4  10  22  40  60  80 104 141 191 235 266 311
#     4   8  15  31  55  81 109 141 179 220 263 319
#     4  11  22  35  55  83 116 147 174 218 277 331
#     4   9  19  37  60  83 108 142 183 226 269 316
#     4  10  22  40  60  80 104 141 191 235 266 311
#     4  11  22  35  55  83 116 147 174 218 277 331
#     4   8  15  31  55  81 109 141 179 220 263 319
#
# _framework density 20.432217999999999
#
# number of rings (size 3 to 8) (size 9 to 14) (size 15 to 20)
#    0.000    2.500    0.000    3.750    0.000    8.000 
#    0.000   10.000    0.000    0.000    0.000    0.000 
#    0.000    0.000    0.000    0.000    0.000    0.000 
#
# Total GULP energy -396791.324947 kJ/mol
# GULP energy per Si atom -12399.728905 kJ/mol
# Density = 2.038571 g / cm^3
# Si number density = 20.432218 Si / 1000 Ang^3
#
#
#
# Elastic Constant Matrix: (Units=GPa)
#
#
# Indices 1 2 3 4 5 6 
#
# 1 28.0332 16.0060 7.3219 0.0000 -1.5297 0.0000
# 2 16.0060 50.7667 11.2341 0.0000 3.0667 0.0000
# 3 7.3219 11.2341 80.2333 0.0000 3.7390 0.0000
# 4 0.0000 0.0000 0.0000 7.5779 0.0000 4.2413
# 5 -1.5297 3.0667 3.7390 0.0000 28.6943 0.0000
# 6 0.0000 0.0000 0.0000 4.2413 0.0000 13.0345
#
#
#
# Elastic Compliance Matrix: (Units=1/GPa)
#
#
# Indices 1 2 3 4 5 6 
#
# 1 0.044333 -0.013714 -0.002318 0.000000 0.004131 0.000000
# 2 -0.013714 0.024664 -0.002058 0.000000 -0.003099 0.000000
# 3 -0.002318 -0.002058 0.013038 0.000000 -0.001603 0.000000
# 4 0.000000 0.000000 0.000000 0.161346 0.000000 -0.052500
# 5 0.004131 -0.003099 -0.001603 0.000000 0.035610 0.000000
# 6 0.000000 0.000000 0.000000 -0.052500 0.000000 0.093803
#
#
# Mechanical properties :
#
#
# Convention : Reuss Voigt Hill
#
# Bulk Modulus (GPa) = 21.80738 25.35080 23.57909
# Shear Modulus (GPa) = 11.78523 18.15941 14.97232
#
# Velocity S-wave (km/s) = 2.40426 2.98445 2.70993
# Velocity P-wave (km/s) = 4.28993 4.93053 4.62134
#
# Compressibility (1/GPa) = 0.04585603
#
# Stress axis : x y z
#
# Youngs Moduli (GPa) = 22.55646 40.54437 76.69912
#
# Poissons Ratio (x) = 0.55603 0.17779
# Poissons Ratio (y) = 0.30934 0.15781
# Poissons Ratio (z) = 0.05229 0.08342
#
# Static dielectric constant tensor:
#      x y z
#    x 3.578070 0.000000 -0.160610 
#    y 0.000000 3.420470 0.000000 
#    z -0.160610 0.000000 4.021050 
# 
# 
# High freq. dielectric constant tensor:
#      x y z
#    x 1.793750 0.000000 0.000340 
#    y 0.000000 1.771850 0.000000 
#    z 0.000340 0.000000 1.802790 
# 
# From -- ./inp_files/216841.got.cif
#   From: 2010.06.25/outbox.cif.g09.slc.cpg/sg12_109_cif.got.tgz:216841.got - 2010.06.28 00:19:55.
