data_PCOD8111159
_publ_section_title
;
Structure prediction by ZEFSAII (Michael W. Deem and Ramdas Pophale) SiO2 
 PCOD8111159
Probable space group: C 2/M
;
_chemical_formula_sum "Si O2"
_cell_formula_units_Z 64
_cell_length_a 9.304793
_cell_length_b 17.118445
_cell_length_c 34.002402
_cell_angle_alpha 90.000000
_cell_angle_beta 34.533053
_cell_angle_gamma 90.000000
_cell_volume 3070.244495
_symmetry_space_group_name_H-M "C 2/M"
_symmetry_group_IT_number 12
_symmetry_cell_setting 'monoclinic'
loop_
_space_group_symop_operation_xyz
x,y,z
-x,y,-z
-x,-y,-z
x,-y,z
1/2+x,1/2+y,z
1/2-x,1/2+y,-z
1/2-x,1/2-y,-z
1/2+x,1/2-y,z
loop_
_atom_site_type_symbol
_atom_site_label
_atom_site_fract_x
_atom_site_fract_y
_atom_site_fract_z
Si Si1 0.429064 0.090779 0.904320
Si Si2 0.581045 0.168190 0.333745
Si Si3 0.769359 0.905902 0.133254
Si Si4 0.208776 0.825138 0.484201
Si Si5 0.655186 0.588894 0.382741
Si Si6 0.735162 0.344236 0.283587
Si Si7 0.716010 0.830868 0.984958
Si Si8 0.938153 0.090602 0.755399
O O1 0.243986 0.118106 0.910307
O O2 0.709373 0.124694 0.833445
O O3 0.440930 0.000000 0.897389
O O4 0.349757 0.108255 0.966280
O O5 0.465945 0.153891 0.403278
O O6 0.373108 0.148690 0.347776
O O7 0.702716 0.253274 0.300805
O O8 0.805441 0.105689 0.278666
O O9 0.527630 0.869431 0.210306
O O10 0.021695 0.863022 0.093381
O O11 0.779456 0.000000 0.137585
O O12 0.250000 0.750000 0.500000
O O13 0.000000 0.800881 0.500000
O O14 0.107753 0.895644 0.534492
O O15 0.736103 0.500000 0.372528
O O16 0.618265 0.604510 0.345136
O O17 0.560355 0.362700 0.285781
O O18 0.500000 0.825798 0.000000
O O19 0.750000 0.750000 0.000000
O O20 0.899828 0.000000 0.754627
#
# Coordination Sequence:
#
# PCOD8111159 Si02
#       8
#     8   8   8   8   8   8   8   8
#     4   9  20  41  65  89 124 166 204 248 313 380
#     4  11  23  38  63  90 126 165 211 262 315 373
#     4  10  22  42  67  93 128 169 209 259 324 383
#     4  10  22  39  61  86 121 164 209 252 319 383
#     4  11  23  40  63  93 129 167 212 267 322 381
#     4  11  22  40  65  94 127 167 213 259 314 383
#     4  12  26  42  63  93 128 164 213 265 313 378
#     4  10  22  40  63  91 127 165 207 256 313 379
#
# _framework density 20.845244999999998
#
# number of rings (size 3 to 8) (size 9 to 14) (size 15 to 20)
#    0.000    1.500    1.250    4.500    3.500    5.750 
#    0.000    1.250    0.000    1.875    0.000    0.000 
#    0.000    0.000    0.000    0.000    0.000    0.000 
#
# Total GULP energy -396659.400495 kJ/mol
# GULP energy per Si atom -12395.606265 kJ/mol
# Density = 2.079780 g / cm^3
# Si number density = 20.845245 Si / 1000 Ang^3
#
#
#
# Elastic Constant Matrix: (Units=GPa)
#
#
# Indices 1 2 3 4 5 6 
#
# 1 55.9344 18.6232 26.5342 -0.0198 -7.2389 -0.0152
# 2 18.6232 94.9928 38.9738 0.0093 -11.1742 -0.0090
# 3 26.5342 38.9738 80.5485 -0.0385 -1.9228 0.0157
# 4 -0.0198 0.0093 -0.0385 37.1179 0.0298 -3.5929
# 5 -7.2389 -11.1742 -1.9228 0.0298 35.3657 -0.0082
# 6 -0.0152 -0.0090 0.0157 -3.5929 -0.0082 27.7668
#
#
#
# Elastic Compliance Matrix: (Units=1/GPa)
#
#
# Indices 1 2 3 4 5 6 
#
# 1 0.021856 -0.001156 -0.006551 0.000004 0.003752 0.000017
# 2 -0.001156 0.013729 -0.006172 -0.000013 0.003766 0.000007
# 3 -0.006551 -0.006172 0.017504 0.000017 -0.002340 -0.000014
# 4 0.000004 -0.000013 0.000017 0.027283 -0.000025 0.003530
# 5 0.003752 0.003766 -0.002340 -0.000025 0.030107 0.000010
# 6 0.000017 0.000007 -0.000014 0.003530 0.000010 0.036471
#
#
# Mechanical properties :
#
#
# Convention : Reuss Voigt Hill
#
# Bulk Modulus (GPa) = 39.47777 44.41534 41.94655
# Shear Modulus (GPa) = 27.29985 29.87304 28.58645
#
# Velocity S-wave (km/s) = 3.62283 3.78972 3.70721
# Velocity P-wave (km/s) = 6.03982 6.36418 6.20412
#
# Compressibility (1/GPa) = 0.02533071
#
# Stress axis : x y z
#
# Youngs Moduli (GPa) = 45.75359 72.83837 57.13115
#
# Poissons Ratio (x) = 0.08418 0.37427
# Poissons Ratio (y) = 0.05288 0.35263
# Poissons Ratio (z) = 0.29974 0.44958
#
# Static dielectric constant tensor:
#      x y z
#    x 4.026040 -0.001620 0.590460 
#    y -0.001620 3.600020 -0.002780 
#    z 0.590460 -0.002780 5.888620 
# 
# 
# High freq. dielectric constant tensor:
#      x y z
#    x 1.809570 0.000000 -0.002200 
#    y 0.000000 1.814550 0.000000 
#    z -0.002200 0.000000 1.829650 
# 
# From -- ./inp_files/372962.got.cif
#   From: 2010.06.25/outbox.cif.g09.slc.cpg/sg12_187_cif.got.tgz:372962.got - 2010.06.28 00:19:55.
