data_PCOD8111177
_publ_section_title
;
Structure prediction by ZEFSAII (Michael W. Deem and Ramdas Pophale) SiO2 
 PCOD8111177
Probable space group: C 2/M
;
_chemical_formula_sum "Si O2"
_cell_formula_units_Z 40
_cell_length_a 27.372954
_cell_length_b 8.947145
_cell_length_c 10.632750
_cell_angle_alpha 90.000000
_cell_angle_beta 131.369916
_cell_angle_gamma 90.000000
_cell_volume 1954.241592
_symmetry_space_group_name_H-M "C 2/M"
_symmetry_group_IT_number 12
_symmetry_cell_setting 'monoclinic'
loop_
_space_group_symop_operation_xyz
x,y,z
-x,y,-z
-x,-y,-z
x,-y,z
1/2+x,1/2+y,z
1/2-x,1/2+y,-z
1/2-x,1/2-y,-z
1/2+x,1/2-y,z
loop_
_atom_site_type_symbol
_atom_site_label
_atom_site_fract_x
_atom_site_fract_y
_atom_site_fract_z
Si Si1 0.183693 0.821551 0.835809
Si Si2 0.051139 0.678084 0.693727
Si Si3 0.332316 0.170161 0.710859
Si Si4 0.964483 0.670947 0.058254
Si Si5 0.194961 0.175762 0.571957
O O1 0.120470 0.758491 0.798027
O O2 0.174959 0.771028 0.676093
O O3 0.187901 0.000000 0.857972
O O4 0.250000 0.750000 0.000000
O O5 0.062763 0.500000 0.712385
O O6 0.020929 0.733181 0.776734
O O7 0.000000 0.728304 0.500000
O O8 0.267607 0.236204 0.665247
O O9 0.351899 0.255182 0.614868
O O10 0.321853 0.000000 0.653610
O O11 0.387582 0.188136 0.908789
O O12 0.988121 0.500000 0.097115
O O13 0.000000 0.753329 0.000000
O O14 0.191101 0.000000 0.556345
#
# Coordination Sequence:
#
# PCOD8111177 Si02
#       5
#     8   8   8   8   8
#     4  11  23  39  61  86 118 157 197 245 300 354
#     4  10  22  39  61  90 122 157 200 245 291 352
#     4   9  17  31  54  79 107 142 186 234 280 337
#     4   9  18  33  55  82 113 149 190 236 284 335
#     4   9  19  34  52  79 112 145 181 233 292 340
#
# _framework density 20.468298000000001
#
# number of rings (size 3 to 8) (size 9 to 14) (size 15 to 20)
#    0.000    2.400    0.000    1.800    2.800    5.200 
#    0.000    5.000    0.000    1.200    0.000    0.000 
#    0.000    0.000    0.000    0.000    0.000    0.000 
#
# Total GULP energy -247875.621957 kJ/mol
# GULP energy per Si atom -12393.781098 kJ/mol
# Density = 2.042171 g / cm^3
# Si number density = 20.468298 Si / 1000 Ang^3
#
#
#
# Elastic Constant Matrix: (Units=GPa)
#
#
# Indices 1 2 3 4 5 6 
#
# 1 135.1811 25.6854 61.4568 0.0000 -27.3981 0.0000
# 2 25.6854 35.4678 25.9250 0.0000 -5.2105 0.0000
# 3 61.4568 25.9250 111.6807 0.0000 -27.9812 0.0000
# 4 0.0000 0.0000 0.0000 25.1663 0.0000 -0.6023
# 5 -27.3981 -5.2105 -27.9812 0.0000 42.0176 0.0000
# 6 0.0000 0.0000 0.0000 -0.6023 0.0000 27.0596
#
#
#
# Elastic Compliance Matrix: (Units=1/GPa)
#
#
# Indices 1 2 3 4 5 6 
#
# 1 0.010815 -0.004362 -0.003970 0.000000 0.003867 0.000000
# 2 -0.004362 0.035770 -0.006607 0.000000 -0.002808 0.000000
# 3 -0.003970 -0.006607 0.014185 0.000000 0.006039 0.000000
# 4 0.000000 0.000000 0.000000 0.039757 0.000000 0.000885
# 5 0.003867 -0.002808 0.006039 0.000000 0.029994 0.000000
# 6 0.000000 0.000000 0.000000 0.000885 0.000000 0.036975
#
#
# Mechanical properties :
#
#
# Convention : Reuss Voigt Hill
#
# Bulk Modulus (GPa) = 32.36964 56.49601 44.43283
# Shear Modulus (GPa) = 24.07646 30.13287 27.10466
#
# Velocity S-wave (km/s) = 3.43342 3.84105 3.64294
# Velocity P-wave (km/s) = 5.61842 6.87991 6.28092
#
# Compressibility (1/GPa) = 0.03089314
#
# Stress axis : x y z
#
# Youngs Moduli (GPa) = 92.46472 27.95624 70.49602
#
# Poissons Ratio (x) = 0.12195 0.27985
# Poissons Ratio (y) = 0.40335 0.46574
# Poissons Ratio (z) = 0.36706 0.18470
#
# Static dielectric constant tensor:
#      x y z
#    x 4.000260 0.000000 -0.279600 
#    y 0.000000 3.375330 0.000000 
#    z -0.279600 0.000000 3.806100 
# 
# 
# High freq. dielectric constant tensor:
#      x y z
#    x 1.808900 0.000000 -0.013800 
#    y 0.000000 1.762220 0.000000 
#    z -0.013800 0.000000 1.809260 
# 
# From -- ./inp_files/180306.got.cif
#   From: 2010.06.25/outbox.cif.g09.slc.cpg/sg12_91_cif.got.tgz:180306.got - 2010.06.28 00:19:55.
