data_PCOD8111392
_publ_section_title
;
Structure prediction by ZEFSAII (Michael W. Deem and Ramdas Pophale) SiO2 
 PCOD8111392
Probable space group: C 2/M
;
_chemical_formula_sum "Si O2"
_cell_formula_units_Z 40
_cell_length_a 10.006279
_cell_length_b 9.035990
_cell_length_c 22.146911
_cell_angle_alpha 90.000000
_cell_angle_beta 96.781377
_cell_angle_gamma 90.000000
_cell_volume 1988.439959
_symmetry_space_group_name_H-M "C 2/M"
_symmetry_group_IT_number 12
_symmetry_cell_setting 'monoclinic'
loop_
_space_group_symop_operation_xyz
x,y,z
-x,y,-z
-x,-y,-z
x,-y,z
1/2+x,1/2+y,z
1/2-x,1/2+y,-z
1/2-x,1/2-y,-z
1/2+x,1/2-y,z
loop_
_atom_site_type_symbol
_atom_site_label
_atom_site_fract_x
_atom_site_fract_y
_atom_site_fract_z
Si Si1 0.484511 0.329154 0.369991
Si Si2 0.855914 0.172460 0.835792
Si Si3 0.391028 0.328632 0.232702
Si Si4 0.269505 0.828208 0.437786
Si Si5 0.355554 0.829123 0.963384
O O1 0.449071 0.500000 0.379978
O O2 0.451578 0.281549 0.300180
O O3 0.401633 0.232471 0.412588
O O4 0.641916 0.297864 0.388123
O O5 0.738315 0.228047 0.785689
O O6 0.851225 0.260264 0.897392
O O7 0.998563 0.203598 0.812476
O O8 0.834001 0.000000 0.847543
O O9 0.348239 0.500000 0.229886
O O10 0.250000 0.750000 0.500000
O O11 0.290661 0.000000 0.451542
O O12 0.315840 0.000000 0.955722
O O13 0.500000 0.805662 0.000000
O O14 0.250000 0.750000 0.000000
#
# Coordination Sequence:
#
# PCOD8111392 Si02
#       5
#     8   8   8   8   8
#     4  10  22  40  60  85 118 154 194 241 290 343
#     4  11  23  39  61  89 120 155 195 239 289 346
#     4  10  22  40  61  86 118 155 194 239 291 344
#     4  11  23  39  60  87 118 153 195 241 291 348
#     4  11  24  41  62  89 119 154 197 242 290 345
#
# _framework density 20.116271999999999
#
# number of rings (size 3 to 8) (size 9 to 14) (size 15 to 20)
#    0.000    1.400    0.000    4.800    0.000   12.800 
#    0.000    0.000    0.000    0.000    0.000    0.000 
#    0.000    0.000    0.000    0.000    0.000    0.000 
#
# Total GULP energy -248142.826427 kJ/mol
# GULP energy per Si atom -12407.141321 kJ/mol
# Density = 2.007049 g / cm^3
# Si number density = 20.116272 Si / 1000 Ang^3
#
#
#
# Elastic Constant Matrix: (Units=GPa)
#
#
# Indices 1 2 3 4 5 6 
#
# 1 56.9551 42.0818 -3.4823 0.0000 -5.8027 0.0000
# 2 42.0818 98.6515 33.8680 0.0000 0.0049 0.0000
# 3 -3.4823 33.8680 94.3534 0.0000 -3.3956 0.0000
# 4 0.0000 0.0000 0.0000 37.2412 0.0000 -0.3894
# 5 -5.8027 0.0049 -3.3956 0.0000 40.3143 0.0000
# 6 0.0000 0.0000 0.0000 -0.3894 0.0000 38.7753
#
#
#
# Elastic Compliance Matrix: (Units=1/GPa)
#
#
# Indices 1 2 3 4 5 6 
#
# 1 0.029366 -0.014779 0.006561 0.000000 0.004781 0.000000
# 2 -0.014779 0.019004 -0.007466 0.000000 -0.002758 0.000000
# 3 0.006561 -0.007466 0.013596 0.000000 0.002090 0.000000
# 4 0.000000 0.000000 0.000000 0.026855 0.000000 0.000270
# 5 0.004781 -0.002758 0.002090 0.000000 0.025670 0.000000
# 6 0.000000 0.000000 0.000000 0.000270 0.000000 0.025792
#
#
# Mechanical properties :
#
#
# Convention : Reuss Voigt Hill
#
# Bulk Modulus (GPa) = 32.68340 43.87724 38.28032
# Shear Modulus (GPa) = 27.49508 35.09901 31.29704
#
# Velocity S-wave (km/s) = 3.70105 4.18162 3.94865
# Velocity P-wave (km/s) = 5.87760 6.72114 6.31348
#
# Compressibility (1/GPa) = 0.03059658
#
# Stress axis : x y z
#
# Youngs Moduli (GPa) = 34.05348 52.61939 73.55190
#
# Poissons Ratio (x) = 0.77767 -0.48256
# Poissons Ratio (y) = 0.50328 0.54916
# Poissons Ratio (z) = -0.22342 0.39287
#
# Static dielectric constant tensor:
#      x y z
#    x 3.814150 0.000000 -0.000270 
#    y 0.000000 3.747560 0.000000 
#    z -0.000270 0.000000 3.975570 
# 
# 
# High freq. dielectric constant tensor:
#      x y z
#    x 1.797440 0.000000 0.002060 
#    y 0.000000 1.792510 0.000000 
#    z 0.002060 0.000000 1.803920 
# 
# From -- ./inp_files/303435.got.cif
#   From: 2010.06.25/outbox.cif.g09.slc.cpg/sg12_152_cif.got.tgz:303435.got - 2010.06.28 00:19:55.
