data_PCOD8111526
_publ_section_title
;
Structure prediction by ZEFSAII (Michael W. Deem and Ramdas Pophale) SiO2 
 PCOD8111526
Probable space group: C 2/M
;
_chemical_formula_sum "Si O2"
_cell_formula_units_Z 56
_cell_length_a 14.434603
_cell_length_b 18.360464
_cell_length_c 11.843496
_cell_angle_alpha 90.000000
_cell_angle_beta 117.495639
_cell_angle_gamma 90.000000
_cell_volume 2784.290490
_symmetry_space_group_name_H-M "C 2/M"
_symmetry_group_IT_number 12
_symmetry_cell_setting 'monoclinic'
loop_
_space_group_symop_operation_xyz
x,y,z
-x,y,-z
-x,-y,-z
x,-y,z
1/2+x,1/2+y,z
1/2-x,1/2+y,-z
1/2-x,1/2-y,-z
1/2+x,1/2-y,z
loop_
_atom_site_type_symbol
_atom_site_label
_atom_site_fract_x
_atom_site_fract_y
_atom_site_fract_z
Si Si1 0.778669 0.830759 0.544398
Si Si2 0.147610 0.416577 0.873698
Si Si3 0.397254 0.174585 0.373480
Si Si4 0.472894 0.829988 0.867495
Si Si5 0.656857 0.581517 0.859675
Si Si6 0.989393 0.204303 0.284480
Si Si7 0.221833 0.581860 0.294902
O O1 0.750000 0.750000 0.500000
O O2 0.707774 0.842107 0.615315
O O3 0.752808 0.890275 0.435645
O O4 0.903580 0.836564 0.624795
O O5 0.145635 0.500000 0.837131
O O6 0.129743 0.369820 0.752728
O O7 0.051925 0.397927 0.901692
O O8 0.252177 0.397336 0.001586
O O9 0.500000 0.146119 0.500000
O O10 0.422533 0.259894 0.351998
O O11 0.480137 0.773287 0.771908
O O12 0.358648 0.862815 0.805594
O O13 0.500000 0.789518 0.000000
O O14 0.614623 0.500000 0.866093
O O15 0.572272 0.645132 0.824404
O O16 0.684986 0.580990 0.742802
O O17 0.177265 0.500000 0.284636
#
# Coordination Sequence:
#
# PCOD8111526 Si02
#       7
#     8   8   8   8   8   8   8
#     4  12  22  41  64  88 128 170 209 257 320 373
#     4  10  22  40  62  90 129 169 206 260 322 376
#     4  11  23  39  64  94 125 166 208 262 319 377
#     4  11  21  36  63  97 125 161 209 265 321 371
#     4  10  23  43  64  89 127 170 211 263 315 372
#     4  11  25  40  63  95 126 166 215 262 311 380
#     4  11  23  39  64  96 126 164 213 264 317 376
#
# _framework density 20.112843999999999
#
# number of rings (size 3 to 8) (size 9 to 14) (size 15 to 20)
#    0.000    1.143    4.286    2.143    0.000    5.429 
#    0.000    1.429    0.000    2.143    0.000    0.000 
#    0.000    0.000    0.000    0.000    0.000    0.000 
#
# Total GULP energy -346886.746645 kJ/mol
# GULP energy per Si atom -12388.812380 kJ/mol
# Density = 2.006707 g / cm^3
# Si number density = 20.112844 Si / 1000 Ang^3
#
#
#
# Elastic Constant Matrix: (Units=GPa)
#
#
# Indices 1 2 3 4 5 6 
#
# 1 52.5918 10.8460 24.4476 0.0000 6.2597 0.0000
# 2 10.8460 79.4942 30.6879 0.0000 8.7601 0.0000
# 3 24.4476 30.6879 109.2163 0.0000 1.8787 0.0000
# 4 0.0000 0.0000 0.0000 35.5605 0.0000 10.4251
# 5 6.2597 8.7601 1.8787 0.0000 33.2499 0.0000
# 6 0.0000 0.0000 0.0000 10.4251 0.0000 16.2613
#
#
#
# Elastic Compliance Matrix: (Units=1/GPa)
#
#
# Indices 1 2 3 4 5 6 
#
# 1 0.021739 -0.000799 -0.004579 0.000000 -0.003623 0.000000
# 2 -0.000799 0.014558 -0.003852 0.000000 -0.003467 0.000000
# 3 -0.004579 -0.003852 0.011242 0.000000 0.001242 0.000000
# 4 0.000000 0.000000 0.000000 0.034630 0.000000 -0.022201
# 5 -0.003623 -0.003467 0.001242 0.000000 0.031601 0.000000
# 6 0.000000 0.000000 0.000000 -0.022201 0.000000 0.075729
#
#
# Mechanical properties :
#
#
# Convention : Reuss Voigt Hill
#
# Bulk Modulus (GPa) = 34.38977 41.47392 37.93185
# Shear Modulus (GPa) = 22.97252 28.70242 25.83747
#
# Velocity S-wave (km/s) = 3.38328 3.78176 3.58806
# Velocity P-wave (km/s) = 5.69190 6.30351 6.00550
#
# Compressibility (1/GPa) = 0.02907841
#
# Stress axis : x y z
#
# Youngs Moduli (GPa) = 45.99994 68.69250 88.95064
#
# Poissons Ratio (x) = 0.05488 0.40734
# Poissons Ratio (y) = 0.03675 0.34263
# Poissons Ratio (z) = 0.21065 0.26460
#
# Static dielectric constant tensor:
#      x y z
#    x 8.414650 0.000000 -11.518570 
#    y 0.000000 3.596700 0.000000 
#    z -11.518570 0.000000 29.561100 
# 
# 
# High freq. dielectric constant tensor:
#      x y z
#    x 1.778030 0.000000 -0.000460 
#    y 0.000000 1.780490 0.000000 
#    z -0.000460 0.000000 1.798850 
# 
# From -- ./inp_files/145504.got.cif
#   From: 2010.06.25/outbox.cif.g09.slc.cpg/sg12_73_cif.got.tgz:145504.got - 2010.06.28 00:19:55.
