data_PCOD8111374
_publ_section_title
;
Structure prediction by ZEFSAII (Michael W. Deem and Ramdas Pophale) SiO2 
 PCOD8111374
Probable space group: C 2/M
;
_chemical_formula_sum "Si O2"
_cell_formula_units_Z 64
_cell_length_a 23.659690
_cell_length_b 8.873136
_cell_length_c 30.914605
_cell_angle_alpha 90.000000
_cell_angle_beta 149.310777
_cell_angle_gamma 90.000000
_cell_volume 3312.413439
_symmetry_space_group_name_H-M "C 2/M"
_symmetry_group_IT_number 12
_symmetry_cell_setting 'monoclinic'
loop_
_space_group_symop_operation_xyz
x,y,z
-x,y,-z
-x,-y,-z
x,-y,z
1/2+x,1/2+y,z
1/2-x,1/2+y,-z
1/2-x,1/2-y,-z
1/2+x,1/2-y,z
loop_
_atom_site_type_symbol
_atom_site_label
_atom_site_fract_x
_atom_site_fract_y
_atom_site_fract_z
Si Si1 0.801467 0.177900 0.097499
Si Si2 0.577473 0.327238 0.738115
Si Si3 0.902542 0.176920 0.073882
Si Si4 0.154703 0.177966 0.232923
Si Si5 0.168142 0.172958 0.706650
Si Si6 0.242151 0.674316 0.376488
Si Si7 0.651494 0.825411 0.408945
Si Si8 0.968184 0.672200 0.528532
O O1 0.863226 0.241827 0.180510
O O2 0.871891 0.230416 0.102187
O O3 0.789984 0.000000 0.092924
O O4 0.678012 0.245330 0.013833
O O5 0.543617 0.500000 0.724101
O O6 0.664501 0.313310 0.756099
O O7 0.465948 0.238755 0.653059
O O8 0.027181 0.227161 0.145953
O O9 0.887239 0.000000 0.059490
O O10 0.215690 0.262654 0.233979
O O11 0.203175 0.223965 0.311157
O O12 0.170990 0.000000 0.238618
O O13 0.070687 0.273289 0.623748
O O14 0.154471 0.000000 0.682623
O O15 0.242601 0.500000 0.362727
O O16 0.162519 0.703021 0.364840
O O17 0.364583 0.722721 0.471565
O O18 0.750000 0.750000 0.500000
O O19 0.655656 0.000000 0.423079
O O20 0.939901 0.500000 0.521894
O O21 0.000000 0.689268 0.500000
#
# Coordination Sequence:
#
# PCOD8111374 Si02
#       8
#     8   8   8   8   8   8   8   8
#     4   9  18  36  61  86 112 144 181 224 277 336
#     4  10  22  40  60  83 113 152 192 230 280 336
#     4   9  19  35  58  87 115 141 177 228 280 332
#     4  11  22  37  57  83 113 147 186 230 283 334
#     4  11  23  38  57  81 112 149 191 237 280 330
#     4  11  23  37  56  83 113 145 186 234 283 332
#     4  11  24  39  57  84 115 149 188 232 280 332
#     4  11  22  36  55  80 109 146 191 232 277 331
#
# _framework density 19.321259999999999
#
# number of rings (size 3 to 8) (size 9 to 14) (size 15 to 20)
#    0.000    1.625    1.250    3.375    0.000    9.000 
#    0.000    3.125    0.000    3.750    0.000    0.000 
#    0.000    0.000    0.000    0.000    0.000    0.000 
#
# Total GULP energy -396951.728418 kJ/mol
# GULP energy per Si atom -12404.741513 kJ/mol
# Density = 1.927728 g / cm^3
# Si number density = 19.321260 Si / 1000 Ang^3
#
#
#
# Elastic Constant Matrix: (Units=GPa)
#
#
# Indices 1 2 3 4 5 6 
#
# 1 102.4600 40.2987 52.2033 0.0000 9.1005 0.0001
# 2 40.2987 59.2445 28.7100 0.0011 0.1104 0.0000
# 3 52.2033 28.7100 127.6518 0.0005 4.5818 -0.0002
# 4 0.0000 0.0011 0.0005 27.9642 0.0000 13.8192
# 5 9.1005 0.1104 4.5818 0.0000 32.4811 0.0000
# 6 0.0001 0.0000 -0.0002 13.8192 0.0000 13.3014
#
#
#
# Elastic Compliance Matrix: (Units=1/GPa)
#
#
# Indices 1 2 3 4 5 6 
#
# 1 0.015670 -0.008543 -0.004353 0.000001 -0.003748 -0.000001
# 2 -0.008543 0.023611 -0.001909 -0.000002 0.002583 0.000002
# 3 -0.004353 -0.001909 0.010050 0.000000 -0.000192 0.000001
# 4 0.000001 -0.000002 0.000000 0.073491 0.000000 -0.076351
# 5 -0.003748 0.002583 -0.000192 0.000000 0.031855 0.000000
# 6 -0.000001 0.000002 0.000001 -0.076351 0.000000 0.154503
#
#
# Mechanical properties :
#
#
# Convention : Reuss Voigt Hill
#
# Bulk Modulus (GPa) = 50.70587 59.08669 54.89628
# Shear Modulus (GPa) = 14.47749 25.95898 20.21823
#
# Velocity S-wave (km/s) = 2.74031 3.66942 3.23836
# Velocity P-wave (km/s) = 6.02602 6.97140 6.51588
#
# Compressibility (1/GPa) = 0.01972158
#
# Stress axis : x y z
#
# Youngs Moduli (GPa) = 63.81457 42.35384 99.50176
#
# Poissons Ratio (x) = 0.36183 0.43308
# Poissons Ratio (y) = 0.54516 0.18998
# Poissons Ratio (z) = 0.27775 0.08087
#
# Static dielectric constant tensor:
#      x y z
#    x 3.556510 0.000000 0.239280 
#    y 0.000000 3.549570 0.000000 
#    z 0.239280 0.000000 3.333980 
# 
# 
# High freq. dielectric constant tensor:
#      x y z
#    x 1.756100 0.000000 0.003190 
#    y 0.000000 1.756930 0.000000 
#    z 0.003190 0.000000 1.746090 
# 
# From -- ./inp_files/382484.got.cif
#   From: 2010.06.25/outbox.cif.g09.slc.cpg/sg12_192_cif.got.tgz:382484.got - 2010.06.28 00:19:55.
