data_PCOD8111123
_publ_section_title
;
Structure prediction by ZEFSAII (Michael W. Deem and Ramdas Pophale) SiO2 
 PCOD8111123
Probable space group: C 2/M
;
_chemical_formula_sum "Si O2"
_cell_formula_units_Z 64
_cell_length_a 31.445397
_cell_length_b 8.733092
_cell_length_c 15.187378
_cell_angle_alpha 90.000000
_cell_angle_beta 47.384517
_cell_angle_gamma 90.000000
_cell_volume 3069.269844
_symmetry_space_group_name_H-M "C 2/M"
_symmetry_group_IT_number 12
_symmetry_cell_setting 'monoclinic'
loop_
_space_group_symop_operation_xyz
x,y,z
-x,y,-z
-x,-y,-z
x,-y,z
1/2+x,1/2+y,z
1/2-x,1/2+y,-z
1/2-x,1/2-y,-z
1/2+x,1/2-y,z
loop_
_atom_site_type_symbol
_atom_site_label
_atom_site_fract_x
_atom_site_fract_y
_atom_site_fract_z
Si Si1 0.139775 0.823933 0.294119
Si Si2 0.246723 0.821933 0.908289
Si Si3 0.166303 0.816217 0.866443
Si Si4 0.580103 0.318209 0.711086
Si Si5 0.544602 0.328755 0.080161
Si Si6 0.549995 0.329348 0.276957
Si Si7 0.799709 0.820953 0.369792
Si Si8 0.933934 0.677314 0.454931
O O1 0.194190 0.712778 0.225336
O O2 0.109199 0.790732 0.243595
O O3 0.097218 0.784636 0.432091
O O4 0.159578 0.000000 0.273315
O O5 0.196831 0.755915 0.913157
O O6 0.237180 0.000000 0.935202
O O7 0.250000 0.750000 0.000000
O O8 0.202591 0.763726 0.728753
O O9 0.163774 0.000000 0.871630
O O10 0.099832 0.750230 0.953965
O O11 0.573804 0.500000 0.701138
O O12 0.520103 0.257533 0.842094
O O13 0.635840 0.276829 0.689674
O O14 0.588083 0.228782 0.609359
O O15 0.540426 0.500000 0.049246
O O16 0.562694 0.323409 0.156446
O O17 0.528352 0.500000 0.334121
O O18 0.502158 0.205116 0.370774
O O19 0.750000 0.750000 0.500000
O O20 0.789800 0.000000 0.390294
O O21 0.919631 0.500000 0.490780
#
# Coordination Sequence:
#
# PCOD8111123 Si02
#       8
#     8   8   8   8   8   8   8   8
#     4  11  22  36  56  80 111 153 200 249 298 352
#     4  11  23  39  58  85 119 156 200 246 299 359
#     4   9  19  36  59  87 117 151 196 248 300 352
#     4   9  19  36  58  85 114 149 195 242 293 354
#     4   8  14  30  57  84 110 141 183 237 290 342
#     4   9  18  34  55  80 112 151 192 237 294 354
#     4  10  22  39  60  87 118 154 198 248 299 354
#     4  11  22  34  53  82 116 152 192 241 297 356
#
# _framework density 20.851865
#
# number of rings (size 3 to 8) (size 9 to 14) (size 15 to 20)
#    0.000    2.250    0.000    3.750    1.750    5.500 
#    0.000    3.125    0.000    3.750    0.000    4.375 
#    0.000    0.000    0.000    0.000    0.000    0.000 
#
# Total GULP energy -396548.715401 kJ/mol
# GULP energy per Si atom -12392.147356 kJ/mol
# Density = 2.080441 g / cm^3
# Si number density = 20.851865 Si / 1000 Ang^3
#
#
#
# Elastic Constant Matrix: (Units=GPa)
#
#
# Indices 1 2 3 4 5 6 
#
# 1 124.6124 30.7258 55.4919 -0.0001 -9.6820 0.0002
# 2 30.7258 40.0331 19.9189 0.0001 0.8033 0.0002
# 3 55.4919 19.9189 119.1546 0.0001 -6.5518 0.0002
# 4 -0.0001 0.0001 0.0001 26.4942 0.0000 -2.6213
# 5 -9.6820 0.8033 -6.5518 0.0000 25.2180 0.0000
# 6 0.0002 0.0002 0.0002 -2.6213 0.0000 22.3960
#
#
#
# Elastic Compliance Matrix: (Units=1/GPa)
#
#
# Indices 1 2 3 4 5 6 
#
# 1 0.011931 -0.007165 -0.004154 0.000000 0.003730 0.000000
# 2 -0.007165 0.031657 -0.002193 0.000000 -0.004329 0.000000
# 3 -0.004154 -0.002193 0.010763 0.000000 0.001272 0.000000
# 4 0.000000 0.000000 0.000000 0.038186 0.000000 0.004470
# 5 0.003730 -0.004329 0.001272 0.000000 0.041554 0.000000
# 6 0.000000 0.000000 0.000000 0.004470 0.000000 0.045174
#
#
# Mechanical properties :
#
#
# Convention : Reuss Voigt Hill
#
# Bulk Modulus (GPa) = 36.59343 55.11925 45.85634
# Shear Modulus (GPa) = 23.21269 26.66587 24.93928
#
# Velocity S-wave (km/s) = 3.34011 3.57994 3.46211
# Velocity P-wave (km/s) = 5.69759 6.60145 6.16610
#
# Compressibility (1/GPa) = 0.02732731
#
# Stress axis : x y z
#
# Youngs Moduli (GPa) = 83.81436 31.58866 92.90786
#
# Poissons Ratio (x) = 0.22635 0.38590
# Poissons Ratio (y) = 0.60057 0.20375
# Poissons Ratio (z) = 0.34813 0.06927
#
# Static dielectric constant tensor:
#      x y z
#    x 3.975650 0.000000 -0.091980 
#    y 0.000000 3.462310 0.000000 
#    z -0.091980 0.000000 3.924090 
# 
# 
# High freq. dielectric constant tensor:
#      x y z
#    x 1.823160 0.000000 -0.005220 
#    y 0.000000 1.771220 0.000000 
#    z -0.005220 0.000000 1.827080 
# 
# From -- ./inp_files/249845.got.cif
#   From: 2010.06.25/outbox.cif.g09.slc.cpg/sg12_125_cif.got.tgz:249845.got - 2010.06.28 00:19:55.
