data_PCOD8111093
_publ_section_title
;
Structure prediction by ZEFSAII (Michael W. Deem and Ramdas Pophale) SiO2 
 PCOD8111093
Probable space group: C 2/M
;
_chemical_formula_sum "Si O2"
_cell_formula_units_Z 48
_cell_length_a 11.353370
_cell_length_b 16.184937
_cell_length_c 19.353372
_cell_angle_alpha 90.000000
_cell_angle_beta 42.178507
_cell_angle_gamma 90.000000
_cell_volume 2387.818829
_symmetry_space_group_name_H-M "C 2/M"
_symmetry_group_IT_number 12
_symmetry_cell_setting 'monoclinic'
loop_
_space_group_symop_operation_xyz
x,y,z
-x,y,-z
-x,-y,-z
x,-y,z
1/2+x,1/2+y,z
1/2-x,1/2+y,-z
1/2-x,1/2-y,-z
1/2+x,1/2-y,z
loop_
_atom_site_type_symbol
_atom_site_label
_atom_site_fract_x
_atom_site_fract_y
_atom_site_fract_z
Si Si1 0.624778 0.404517 0.187020
Si Si2 0.309735 0.594829 0.580947
Si Si3 0.212600 0.671649 0.755776
Si Si4 0.884341 0.696240 0.986688
Si Si5 0.877825 0.404385 0.469976
Si Si6 0.754827 0.347251 0.664958
O O1 0.652856 0.500000 0.193039
O O2 0.642370 0.349562 0.249002
O O3 0.432261 0.389845 0.239023
O O4 0.772851 0.378569 0.067471
O O5 0.500000 0.638991 0.500000
O O6 0.334112 0.500000 0.551665
O O7 0.213303 0.603371 0.695760
O O8 0.197659 0.633525 0.567768
O O9 0.253796 0.758173 0.701219
O O10 0.020792 0.663240 0.871540
O O11 0.750000 0.750000 0.000000
O O12 0.000000 0.739063 0.000000
O O13 0.825725 0.500000 0.507839
O O14 0.797649 0.345460 0.564415
O O15 0.088233 0.400387 0.370250
#
# Coordination Sequence:
#
# PCOD8111093 Si02
#       6
#     8   8   8   8   8   8
#     4  11  23  42  68  93 125 168 210 254 318 385
#     4  10  22  39  59  85 125 163 202 257 313 366
#     4  11  24  37  63  94 124 156 211 262 311 371
#     4  10  22  42  64  94 128 166 210 269 323 377
#     4  10  22  39  59  86 124 167 210 254 304 379
#     4  11  22  37  63  88 125 162 206 257 310 367
#
# _framework density 20.102027
#
# number of rings (size 3 to 8) (size 9 to 14) (size 15 to 20)
#    0.000    1.500    1.667    3.500    4.667    5.667 
#    0.000    0.000    0.000    0.500    0.000    0.000 
#    0.000    0.000    0.000    0.000    0.000    0.000 
#
# Total GULP energy -297414.349490 kJ/mol
# GULP energy per Si atom -12392.264562 kJ/mol
# Density = 2.005627 g / cm^3
# Si number density = 20.102027 Si / 1000 Ang^3
#
#
#
# Elastic Constant Matrix: (Units=GPa)
#
#
# Indices 1 2 3 4 5 6 
#
# 1 162.8934 36.0975 76.0496 0.0001 -3.8881 0.0001
# 2 36.0975 84.3389 40.3348 -0.0002 1.5193 0.0001
# 3 76.0496 40.3348 144.6317 -0.0005 2.1324 0.0005
# 4 0.0001 -0.0002 -0.0005 30.3361 0.0000 4.6646
# 5 -3.8881 1.5193 2.1324 0.0000 33.0038 -0.0001
# 6 0.0001 0.0001 0.0005 4.6646 -0.0001 28.2467
#
#
#
# Elastic Compliance Matrix: (Units=1/GPa)
#
#
# Indices 1 2 3 4 5 6 
#
# 1 0.008400 -0.001728 -0.003954 0.000000 0.001325 0.000000
# 2 -0.001728 0.014042 -0.002998 0.000000 -0.000656 0.000000
# 3 -0.003954 -0.002998 0.009844 0.000000 -0.000964 0.000000
# 4 0.000000 0.000000 0.000000 0.033823 0.000000 -0.005585
# 5 0.001325 -0.000656 -0.000964 0.000000 0.030548 0.000000
# 6 0.000000 0.000000 0.000000 -0.005585 0.000000 0.036325
#
#
# Mechanical properties :
#
#
# Convention : Reuss Voigt Hill
#
# Bulk Modulus (GPa) = 67.00053 77.42533 72.21293
# Shear Modulus (GPa) = 32.19244 34.27610 33.23427
#
# Velocity S-wave (km/s) = 4.00616 4.13377 4.07047
# Velocity P-wave (km/s) = 7.40281 7.83479 7.62186
#
# Compressibility (1/GPa) = 0.01492526
#
# Stress axis : x y z
#
# Youngs Moduli (GPa) = 119.05271 71.21514 101.58871
#
# Poissons Ratio (x) = 0.12305 0.40172
# Poissons Ratio (y) = 0.20570 0.30455
# Poissons Ratio (z) = 0.47078 0.21349
#
# Static dielectric constant tensor:
#      x y z
#    x 4.207680 0.000000 -0.115660 
#    y 0.000000 3.399820 0.000000 
#    z -0.115660 0.000000 3.806930 
# 
# 
# High freq. dielectric constant tensor:
#      x y z
#    x 1.803180 0.000000 -0.007030 
#    y 0.000000 1.760810 0.000000 
#    z -0.007030 0.000000 1.792770 
# 
# From -- ./inp_files/305627.got.cif
#   From: 2010.06.25/outbox.cif.g09.slc.cpg/sg12_153_cif.got.tgz:305627.got - 2010.06.28 00:19:55.
