data_PCOD8111991
_publ_section_title
;
Structure prediction by ZEFSAII (Michael W. Deem and Ramdas Pophale) SiO2 
 PCOD8111991
Probable space group: C 2/M
;
_chemical_formula_sum "Si O2"
_cell_formula_units_Z 64
_cell_length_a 17.697375
_cell_length_b 28.703968
_cell_length_c 8.820894
_cell_angle_alpha 90.000000
_cell_angle_beta 42.473608
_cell_angle_gamma 90.000000
_cell_volume 3025.717137
_symmetry_space_group_name_H-M "C 2/M"
_symmetry_group_IT_number 12
_symmetry_cell_setting 'monoclinic'
loop_
_space_group_symop_operation_xyz
x,y,z
-x,y,-z
-x,-y,-z
x,-y,z
1/2+x,1/2+y,z
1/2-x,1/2+y,-z
1/2-x,1/2-y,-z
1/2+x,1/2-y,z
loop_
_atom_site_type_symbol
_atom_site_label
_atom_site_fract_x
_atom_site_fract_y
_atom_site_fract_z
Si Si1 0.941702 0.750913 0.746991
Si Si2 0.090882 0.947529 0.489253
Si Si3 0.745988 0.311325 0.092773
Si Si4 0.108483 0.882027 0.749276
Si Si5 0.998654 0.445922 0.177751
Si Si6 0.227687 0.553352 0.319354
Si Si7 0.834193 0.214990 0.457708
Si Si8 0.283050 0.916890 0.007242
O O1 0.841300 0.789030 0.898452
O O2 0.000000 0.745967 0.500000
O O3 0.038463 0.764121 0.725953
O O4 0.876719 0.702617 0.877724
O O5 0.081176 0.910723 0.638169
O O6 0.212116 0.947566 0.230714
O O7 0.000000 0.932357 0.500000
O O8 0.068045 0.000000 0.583947
O O9 0.708588 0.294507 0.311766
O O10 0.731599 0.365659 0.084750
O O11 0.176291 0.913928 0.762923
O O12 0.171964 0.834156 0.619394
O O13 0.000000 0.867021 0.000000
O O14 0.026565 0.500000 0.162503
O O15 0.882796 0.432053 0.426441
O O16 0.000000 0.432725 0.000000
O O17 0.090481 0.414591 0.123215
O O18 0.258456 0.500000 0.309494
O O19 0.216602 0.559799 0.157155
O O20 0.750000 0.250000 0.500000
#
# Coordination Sequence:
#
# PCOD8111991 Si02
#       8
#     8   8   8   8   8   8   8   8
#     4   9  22  44  68  93 131 170 221 279 345 409
#     4  11  24  42  66  97 137 183 230 281 340 406
#     4  10  23  42  70  98 129 178 225 283 343 410
#     4  12  27  43  68  99 136 179 227 283 345 410
#     4  10  22  41  65  92 132 182 224 275 339 398
#     4  11  25  43  66  99 140 182 230 283 340 409
#     4  11  26  44  68 101 134 180 225 284 351 414
#     4  12  23  40  68 100 132 174 233 281 338 410
#
# _framework density 21.152010000000001
#
# number of rings (size 3 to 8) (size 9 to 14) (size 15 to 20)
#    0.000    1.250    1.250    3.375    5.250    8.000 
#    0.000    0.000    0.000    0.000    0.000    0.000 
#    0.000    0.000    0.000    0.000    0.000    0.000 
#
# Total GULP energy -396861.714388 kJ/mol
# GULP energy per Si atom -12401.928575 kJ/mol
# Density = 2.110387 g / cm^3
# Si number density = 21.152010 Si / 1000 Ang^3
#
#
#
# Elastic Constant Matrix: (Units=GPa)
#
#
# Indices 1 2 3 4 5 6 
#
# 1 111.3371 41.5208 24.0071 0.0000 -10.1947 0.0000
# 2 41.5208 102.7492 25.4804 0.0000 -6.5341 0.0000
# 3 24.0071 25.4804 82.3347 0.0000 -0.3072 0.0000
# 4 0.0000 0.0000 0.0000 34.7968 0.0000 0.4612
# 5 -10.1947 -6.5341 -0.3072 0.0000 36.8607 0.0000
# 6 0.0000 0.0000 0.0000 0.4612 0.0000 29.2831
#
#
#
# Elastic Compliance Matrix: (Units=1/GPa)
#
#
# Indices 1 2 3 4 5 6 
#
# 1 0.011060 -0.003814 -0.002036 0.000000 0.002366 0.000000
# 2 -0.003814 0.011983 -0.002593 0.000000 0.001048 0.000000
# 3 -0.002036 -0.002593 0.013538 0.000000 -0.000910 0.000000
# 4 0.000000 0.000000 0.000000 0.028744 0.000000 -0.000453
# 5 0.002366 0.001048 -0.000910 0.000000 0.027962 0.000000
# 6 0.000000 0.000000 0.000000 -0.000453 0.000000 0.034157
#
#
# Mechanical properties :
#
#
# Convention : Reuss Voigt Hill
#
# Bulk Modulus (GPa) = 50.76992 53.15972 51.96482
# Shear Modulus (GPa) = 33.13609 33.88230 33.50920
#
# Velocity S-wave (km/s) = 3.96229 4.00665 3.98453
# Velocity P-wave (km/s) = 6.70727 6.82577 6.76678
#
# Compressibility (1/GPa) = 0.01969670
#
# Stress axis : x y z
#
# Youngs Moduli (GPa) = 90.41915 83.45042 73.86612
#
# Poissons Ratio (x) = 0.31827 0.15036
# Poissons Ratio (y) = 0.34485 0.19150
# Poissons Ratio (z) = 0.18406 0.21635
#
# Static dielectric constant tensor:
#      x y z
#    x 3.931360 0.000000 -0.122790 
#    y 0.000000 4.038570 0.000000 
#    z -0.122790 0.000000 4.040870 
# 
# 
# High freq. dielectric constant tensor:
#      x y z
#    x 1.831590 0.000000 -0.003070 
#    y 0.000000 1.829340 0.000000 
#    z -0.003070 0.000000 1.843790 
# 
# From -- ./inp_files/80712.got.cif
#   From: 2010.06.25/outbox.cif.g09.slc.cpg/sg12_41_cif.got.tgz:80712.got - 2010.06.28 00:19:55.
