data_PCOD8111266
_publ_section_title
;
Structure prediction by ZEFSAII (Michael W. Deem and Ramdas Pophale) SiO2 
 PCOD8111266
Probable space group: C 2/M
;
_chemical_formula_sum "Si O2"
_cell_formula_units_Z 64
_cell_length_a 30.269159
_cell_length_b 14.223701
_cell_length_c 11.931502
_cell_angle_alpha 90.000000
_cell_angle_beta 38.390112
_cell_angle_gamma 90.000000
_cell_volume 3190.130469
_symmetry_space_group_name_H-M "C 2/M"
_symmetry_group_IT_number 12
_symmetry_cell_setting 'monoclinic'
loop_
_space_group_symop_operation_xyz
x,y,z
-x,y,-z
-x,-y,-z
x,-y,z
1/2+x,1/2+y,z
1/2-x,1/2+y,-z
1/2-x,1/2-y,-z
1/2+x,1/2-y,z
loop_
_atom_site_type_symbol
_atom_site_label
_atom_site_fract_x
_atom_site_fract_y
_atom_site_fract_z
Si Si1 0.371567 0.605392 0.113904
Si Si2 0.427112 0.233610 0.705774
Si Si3 0.340110 0.890597 0.719604
Si Si4 0.622134 0.786464 0.581837
Si Si5 0.690051 0.606340 0.523688
Si Si6 0.346979 0.107791 0.262551
Si Si7 0.042268 0.719338 0.099535
Si Si8 0.321588 0.393794 0.970618
O O1 0.402714 0.500000 0.054553
O O2 0.325115 0.627384 0.315387
O O3 0.438478 0.674722 0.974947
O O4 0.321356 0.621303 0.105633
O O5 0.500000 0.261625 0.500000
O O6 0.388818 0.145174 0.724255
O O7 0.444748 0.201741 0.795718
O O8 0.376009 0.324253 0.801106
O O9 0.358957 0.831940 0.572890
O O10 0.356330 0.000000 0.665640
O O11 0.257831 0.874346 0.915409
O O12 0.646494 0.677260 0.531056
O O13 0.662509 0.838178 0.601796
O O14 0.538860 0.795579 0.771677
O O15 0.667220 0.500000 0.537227
O O16 0.774194 0.620456 0.337261
O O17 0.361671 0.000000 0.262623
O O18 0.411295 0.144874 0.060223
O O19 0.345227 0.500000 0.893958
#
# Coordination Sequence:
#
# PCOD8111266 Si02
#       8
#     8   8   8   8   8   8   8   8
#     4   9  18  36  62  91 125 161 199 247 305 373
#     4  11  23  44  63  88 124 163 205 252 311 365
#     4  11  24  42  65  92 120 164 211 251 297 361
#     4  12  23  39  63  92 127 161 203 252 300 362
#     4  10  22  39  63  93 126 161 200 248 309 367
#     4  11  24  40  60  92 125 162 203 249 306 361
#     4  11  24  39  60  90 123 165 203 249 308 363
#     4   9  20  39  67  96 119 154 209 257 307 361
#
# _framework density 20.061875000000001
#
# number of rings (size 3 to 8) (size 9 to 14) (size 15 to 20)
#    0.000    1.500    2.500    2.250    3.500    5.000 
#    0.000    1.875    0.000    0.000    0.000    0.000 
#    0.000    0.000    0.000    0.000    0.000    0.000 
#
# Total GULP energy -396937.357058 kJ/mol
# GULP energy per Si atom -12404.292408 kJ/mol
# Density = 2.001621 g / cm^3
# Si number density = 20.061875 Si / 1000 Ang^3
#
#
#
# Elastic Constant Matrix: (Units=GPa)
#
#
# Indices 1 2 3 4 5 6 
#
# 1 60.6146 50.8395 34.6808 0.0000 -4.4436 0.0000
# 2 50.8395 129.6379 48.3561 0.0000 -3.7982 0.0000
# 3 34.6808 48.3561 82.3054 0.0000 -19.0898 0.0000
# 4 0.0000 0.0000 0.0000 23.3763 0.0000 5.8230
# 5 -4.4436 -3.7982 -19.0898 0.0000 19.4781 0.0000
# 6 0.0000 0.0000 0.0000 5.8230 0.0000 24.4434
#
#
#
# Elastic Compliance Matrix: (Units=1/GPa)
#
#
# Indices 1 2 3 4 5 6 
#
# 1 0.027245 -0.008011 -0.007369 0.000000 -0.002569 0.000000
# 2 -0.008011 0.012604 -0.005026 0.000000 -0.004296 0.000000
# 3 -0.007369 -0.005026 0.022766 0.000000 0.019651 0.000000
# 4 0.000000 0.000000 0.000000 0.045477 0.000000 -0.010834
# 5 -0.002569 -0.004296 0.019651 0.000000 0.069175 0.000000
# 6 0.000000 0.000000 0.000000 -0.010834 0.000000 0.043492
#
#
# Mechanical properties :
#
#
# Convention : Reuss Voigt Hill
#
# Bulk Modulus (GPa) = 45.86706 60.03452 52.95079
# Shear Modulus (GPa) = 18.59855 22.70499 20.65177
#
# Velocity S-wave (km/s) = 3.04807 3.36780 3.21191
# Velocity P-wave (km/s) = 5.94138 6.71657 6.34084
#
# Compressibility (1/GPa) = 0.02180214
#
# Stress axis : x y z
#
# Youngs Moduli (GPa) = 36.70440 79.33805 43.92572
#
# Poissons Ratio (x) = 0.63557 0.32370
# Poissons Ratio (y) = 0.29403 0.22077
# Poissons Ratio (z) = 0.27049 0.39876
#
# Static dielectric constant tensor:
#      x y z
#    x 3.634030 0.000000 -0.048830 
#    y 0.000000 3.838570 0.000000 
#    z -0.048830 0.000000 3.608410 
# 
# 
# High freq. dielectric constant tensor:
#      x y z
#    x 1.776790 0.000000 -0.006460 
#    y 0.000000 1.793400 0.000000 
#    z -0.006460 0.000000 1.782800 
# 
# From -- ./inp_files/183752.got.cif
#   From: 2010.06.25/outbox.cif.g09.slc.cpg/sg12_92_cif.got.tgz:183752.got - 2010.06.28 00:19:55.
