data_PCOD8111489
_publ_section_title
;
Structure prediction by ZEFSAII (Michael W. Deem and Ramdas Pophale) SiO2 
 PCOD8111489
Probable space group: C 2/M
;
_chemical_formula_sum "Si O2"
_cell_formula_units_Z 56
_cell_length_a 25.016657
_cell_length_b 8.682744
_cell_length_c 14.489074
_cell_angle_alpha 90.000000
_cell_angle_beta 60.753308
_cell_angle_gamma 90.000000
_cell_volume 2746.024391
_symmetry_space_group_name_H-M "C 2/M"
_symmetry_group_IT_number 12
_symmetry_cell_setting 'monoclinic'
loop_
_space_group_symop_operation_xyz
x,y,z
-x,y,-z
-x,-y,-z
x,-y,z
1/2+x,1/2+y,z
1/2-x,1/2+y,-z
1/2-x,1/2-y,-z
1/2+x,1/2-y,z
loop_
_atom_site_type_symbol
_atom_site_label
_atom_site_fract_x
_atom_site_fract_y
_atom_site_fract_z
Si Si1 0.596367 0.817831 0.785906
Si Si2 0.741456 0.681855 0.907902
Si Si3 0.482422 0.682093 0.786848
Si Si4 0.896413 0.180279 0.025792
Si Si5 0.675956 0.318993 0.312199
Si Si6 0.270563 0.818265 0.386992
Si Si7 0.049387 0.680336 0.382831
O O1 0.548451 0.754402 0.751933
O O2 0.578598 0.761868 0.903360
O O3 0.663223 0.753877 0.700221
O O4 0.594861 0.000000 0.785443
O O5 0.753865 0.500000 0.894982
O O6 0.674351 0.723563 0.927361
O O7 0.791985 0.774010 0.809314
O O8 0.750000 0.750000 0.000000
O O9 0.488165 0.500000 0.783577
O O10 0.459889 0.732231 0.705450
O O11 0.434041 0.739586 0.905017
O O12 0.906281 0.000000 0.030726
O O13 0.662254 0.500000 0.325767
O O14 0.719967 0.264142 0.356943
O O15 0.613556 0.225327 0.374367
O O16 0.250000 0.750000 0.500000
O O17 0.273621 0.000000 0.392051
O O18 0.045996 0.500000 0.365397
O O19 0.000000 0.732452 0.500000
#
# Coordination Sequence:
#
# PCOD8111489 Si02
#       7
#     8   8   8   8   8   8   8
#     4  11  23  41  64  95 130 167 209 259 315 376
#     4  11  22  37  62  93 127 169 212 262 320 376
#     4  11  24  42  65  94 129 169 213 261 312 376
#     4  10  22  40  61  91 127 165 210 258 311 374
#     4  11  23  43  66  94 128 165 212 262 316 381
#     4  10  24  42  64  94 127 165 211 261 316 376
#     4  11  26  46  67  94 126 165 213 265 319 378
#
# _framework density 20.393118000000001
#
# number of rings (size 3 to 8) (size 9 to 14) (size 15 to 20)
#    0.000    1.286    1.429    3.429    2.000    8.000 
#    0.000    0.000    0.000    0.000    0.000    0.000 
#    0.000    0.000    0.000    0.000    0.000    0.000 
#
# Total GULP energy -347355.781439 kJ/mol
# GULP energy per Si atom -12405.563623 kJ/mol
# Density = 2.034670 g / cm^3
# Si number density = 20.393118 Si / 1000 Ang^3
#
#
#
# Elastic Constant Matrix: (Units=GPa)
#
#
# Indices 1 2 3 4 5 6 
#
# 1 106.2766 23.9733 42.1039 0.0000 -19.3207 0.0000
# 2 23.9733 34.3101 27.5898 0.0000 -1.4088 0.0000
# 3 42.1039 27.5898 141.2783 0.0000 -12.6910 0.0000
# 4 0.0000 0.0000 0.0000 36.3153 0.0000 3.2692
# 5 -19.3207 -1.4088 -12.6910 0.0000 31.5444 0.0000
# 6 0.0000 0.0000 0.0000 3.2692 0.0000 38.4208
#
#
#
# Elastic Compliance Matrix: (Units=1/GPa)
#
#
# Indices 1 2 3 4 5 6 
#
# 1 0.013056 -0.007367 -0.001830 0.000000 0.006932 0.000000
# 2 -0.007367 0.038777 -0.005838 0.000000 -0.005129 0.000000
# 3 -0.001830 -0.005838 0.008963 0.000000 0.002225 0.000000
# 4 0.000000 0.000000 0.000000 0.027749 0.000000 -0.002361
# 5 0.006932 -0.005129 0.002225 0.000000 0.036613 0.000000
# 6 0.000000 0.000000 0.000000 -0.002361 0.000000 0.026228
#
#
# Mechanical properties :
#
#
# Convention : Reuss Voigt Hill
#
# Bulk Modulus (GPa) = 32.54364 52.13323 42.33843
# Shear Modulus (GPa) = 26.08256 33.80263 29.94259
#
# Velocity S-wave (km/s) = 3.58017 4.07572 3.83596
# Velocity P-wave (km/s) = 5.75178 6.91146 6.35812
#
# Compressibility (1/GPa) = 0.03072797
#
# Stress axis : x y z
#
# Youngs Moduli (GPa) = 76.59198 25.78835 111.56403
#
# Poissons Ratio (x) = 0.18998 0.20413
# Poissons Ratio (y) = 0.56423 0.65131
# Poissons Ratio (z) = 0.14014 0.15055
#
# Static dielectric constant tensor:
#      x y z
#    x 3.966570 0.000000 -0.091150 
#    y 0.000000 3.562400 0.000000 
#    z -0.091150 0.000000 3.768340 
# 
# 
# High freq. dielectric constant tensor:
#      x y z
#    x 1.813570 0.000000 -0.001270 
#    y 0.000000 1.798190 0.000000 
#    z -0.001270 0.000000 1.808830 
# 
# From -- ./inp_files/238246.got.cif
#   From: 2010.06.25/outbox.cif.g09.slc.cpg/sg12_120_cif.got.tgz:238246.got - 2010.06.28 00:19:55.
