data_PCOD8111771
_publ_section_title
;
Structure prediction by ZEFSAII (Michael W. Deem and Ramdas Pophale) SiO2 
 PCOD8111771
Probable space group: C 2/M
;
_chemical_formula_sum "Si O2"
_cell_formula_units_Z 48
_cell_length_a 13.238582
_cell_length_b 17.344588
_cell_length_c 15.874222
_cell_angle_alpha 90.000000
_cell_angle_beta 141.779103
_cell_angle_gamma 90.000000
_cell_volume 2255.145124
_symmetry_space_group_name_H-M "C 2/M"
_symmetry_group_IT_number 12
_symmetry_cell_setting 'monoclinic'
loop_
_space_group_symop_operation_xyz
x,y,z
-x,y,-z
-x,-y,-z
x,-y,z
1/2+x,1/2+y,z
1/2-x,1/2+y,-z
1/2-x,1/2-y,-z
1/2+x,1/2-y,z
loop_
_atom_site_type_symbol
_atom_site_label
_atom_site_fract_x
_atom_site_fract_y
_atom_site_fract_z
Si Si1 0.056374 0.682702 0.629900
Si Si2 0.396068 0.348108 0.259891
Si Si3 0.302389 0.088812 0.015645
Si Si4 0.251250 0.159814 0.520323
Si Si5 0.824286 0.588349 0.740630
Si Si6 0.817002 0.089431 0.877426
O O1 0.098470 0.759410 0.709380
O O2 0.219716 0.631357 0.738136
O O3 0.000000 0.706150 0.500000
O O4 0.912909 0.629877 0.578194
O O5 0.316053 0.356100 0.115606
O O6 0.582971 0.379436 0.378193
O O7 0.289162 0.399280 0.253171
O O8 0.258288 0.000000 0.967230
O O9 0.488878 0.107214 0.113214
O O10 0.274902 0.107280 0.095566
O O11 0.250000 0.250000 0.500000
O O12 0.264315 0.145113 0.628279
O O13 0.809723 0.500000 0.700222
O O14 0.821563 0.000000 0.857913
O O15 0.000000 0.122892 0.000000
#
# Coordination Sequence:
#
# PCOD8111771 Si02
#       6
#     8   8   8   8   8   8
#     4  11  24  43  65  91 126 167 212 263 314 371
#     4  11  23  38  62  97 130 164 207 252 312 386
#     4  10  22  41  64  94 130 164 206 261 319 378
#     4  10  22  41  59  89 129 169 209 257 305 369
#     4  11  22  41  66  93 131 169 207 259 319 379
#     4  10  23  44  65  90 122 162 215 270 316 368
#
# _framework density 21.284661
#
# number of rings (size 3 to 8) (size 9 to 14) (size 15 to 20)
#    0.000    1.500    1.667    3.500    2.333    5.667 
#    0.000    0.000    0.000    0.000    0.000    0.000 
#    0.000    0.000    0.000    0.000    0.000    0.000 
#
# Total GULP energy -297620.116891 kJ/mol
# GULP energy per Si atom -12400.838204 kJ/mol
# Density = 2.123622 g / cm^3
# Si number density = 21.284661 Si / 1000 Ang^3
#
#
#
# Elastic Constant Matrix: (Units=GPa)
#
#
# Indices 1 2 3 4 5 6 
#
# 1 58.7342 20.1479 29.7582 -0.0008 22.0261 -0.0002
# 2 20.1479 64.5701 59.2312 -0.0004 -0.7533 -0.0002
# 3 29.7582 59.2312 164.4858 -0.0017 15.8061 -0.0006
# 4 -0.0008 -0.0004 -0.0017 34.6567 -0.0005 -1.5673
# 5 22.0261 -0.7533 15.8061 -0.0005 47.9409 -0.0001
# 6 -0.0002 -0.0002 -0.0006 -1.5673 -0.0001 30.9147
#
#
#
# Elastic Compliance Matrix: (Units=1/GPa)
#
#
# Indices 1 2 3 4 5 6 
#
# 1 0.023819 -0.006802 -0.000824 0.000000 -0.010779 0.000000
# 2 -0.006802 0.025557 -0.008583 0.000000 0.006357 0.000000
# 3 -0.000824 -0.008583 0.009600 0.000000 -0.002921 0.000000
# 4 0.000000 0.000000 0.000000 0.028921 0.000000 0.001466
# 5 -0.010779 0.006357 -0.002921 0.000000 0.026874 0.000000
# 6 0.000000 0.000000 0.000000 0.001466 0.000000 0.032421
#
#
# Mechanical properties :
#
#
# Convention : Reuss Voigt Hill
#
# Bulk Modulus (GPa) = 37.65432 56.22943 46.94187
# Shear Modulus (GPa) = 26.53022 34.61266 30.57144
#
# Velocity S-wave (km/s) = 3.53434 4.03697 3.79398
# Velocity P-wave (km/s) = 5.86384 6.94295 6.42609
#
# Compressibility (1/GPa) = 0.02655738
#
# Stress axis : x y z
#
# Youngs Moduli (GPa) = 41.98366 39.12761 104.16386
#
# Poissons Ratio (x) = 0.26615 0.08584
# Poissons Ratio (y) = 0.28558 0.89408
# Poissons Ratio (z) = 0.03460 0.33585
#
# Static dielectric constant tensor:
#      x y z
#    x 4.137460 0.000000 0.525250 
#    y 0.000000 3.570260 0.000000 
#    z 0.525250 0.000000 4.246590 
# 
# 
# High freq. dielectric constant tensor:
#      x y z
#    x 1.837470 0.000000 0.015900 
#    y 0.000000 1.813740 0.000000 
#    z 0.015900 0.000000 1.851710 
# 
# From -- ./inp_files/271773.got.cif
#   From: 2010.06.25/outbox.cif.g09.slc.cpg/sg12_136_cif.got.tgz:271773.got - 2010.06.28 00:19:55.
