data_PCOD8111016
_publ_section_title
;
Structure prediction by ZEFSAII (Michael W. Deem and Ramdas Pophale) SiO2 
 PCOD8111016
Probable space group: C 2/M
;
_chemical_formula_sum "Si O2"
_cell_formula_units_Z 56
_cell_length_a 17.966721
_cell_length_b 14.015309
_cell_length_c 10.820540
_cell_angle_alpha 90.000000
_cell_angle_beta 74.869163
_cell_angle_gamma 90.000000
_cell_volume 2630.251442
_symmetry_space_group_name_H-M "C 2/M"
_symmetry_group_IT_number 12
_symmetry_cell_setting 'monoclinic'
loop_
_space_group_symop_operation_xyz
x,y,z
-x,y,-z
-x,-y,-z
x,-y,z
1/2+x,1/2+y,z
1/2-x,1/2+y,-z
1/2-x,1/2-y,-z
1/2+x,1/2-y,z
loop_
_atom_site_type_symbol
_atom_site_label
_atom_site_fract_x
_atom_site_fract_y
_atom_site_fract_z
Si Si1 0.848984 0.225278 0.683878
Si Si2 0.403212 0.610467 0.193533
Si Si3 0.242221 0.608659 0.162578
Si Si4 0.704578 0.110665 0.702345
Si Si5 0.894045 0.254182 0.397240
Si Si6 0.028832 0.751297 0.174476
Si Si7 0.632394 0.890381 0.990881
O O1 0.800645 0.322410 0.723251
O O2 0.793154 0.135332 0.690283
O O3 0.901921 0.238338 0.539699
O O4 0.900918 0.201263 0.780268
O O5 0.423886 0.500000 0.198400
O O6 0.334593 0.628152 0.123399
O O7 0.375384 0.652347 0.338537
O O8 0.481067 0.667472 0.119581
O O9 0.226246 0.500000 0.212666
O O10 0.209358 0.626796 0.039406
O O11 0.674816 0.171102 0.598885
O O12 0.697636 0.000000 0.675124
O O13 0.652672 0.140360 0.843239
O O14 0.973083 0.296660 0.303161
O O15 0.059778 0.671561 0.067173
O O16 0.606442 0.000000 0.009677
#
# Coordination Sequence:
#
# PCOD8111016 Si02
#       7
#     8   8   8   8   8   8   8
#     4  11  20  39  59  87 120 152 194 245 287 348
#     4   9  19  37  59  86 117 151 192 233 288 350
#     4   9  18  35  61  85 112 156 197 239 289 341
#     4  11  24  39  60  89 117 153 198 244 293 345
#     4  10  22  39  55  87 120 154 194 234 294 346
#     4   9  21  37  61  85 116 156 196 234 293 350
#     4   9  20  40  62  86 116 151 197 246 291 341
#
# _framework density 21.290738999999999
#
# number of rings (size 3 to 8) (size 9 to 14) (size 15 to 20)
#    0.857    1.429    1.429    0.857    0.000    5.143 
#    0.000    2.143    0.000    6.857    0.000    0.000 
#    0.000    0.000    0.000    0.000    0.000    0.000 
#
# Total GULP energy -347093.237158 kJ/mol
# GULP energy per Si atom -12396.187041 kJ/mol
# Density = 2.124228 g / cm^3
# Si number density = 21.290739 Si / 1000 Ang^3
#
#
#
# Elastic Constant Matrix: (Units=GPa)
#
#
# Indices 1 2 3 4 5 6 
#
# 1 103.2584 44.3518 7.7359 0.0000 -11.0650 0.0000
# 2 44.3518 98.2072 26.2700 0.0000 -2.4050 0.0000
# 3 7.7359 26.2700 72.8261 0.0000 -6.4779 0.0000
# 4 0.0000 0.0000 0.0000 20.1976 0.0000 -5.3942
# 5 -11.0650 -2.4050 -6.4779 0.0000 23.9104 0.0000
# 6 0.0000 0.0000 0.0000 -5.3942 0.0000 35.8791
#
#
#
# Elastic Compliance Matrix: (Units=1/GPa)
#
#
# Indices 1 2 3 4 5 6 
#
# 1 0.012758 -0.005971 0.001302 0.000000 0.005656 0.000000
# 2 -0.005971 0.014065 -0.004672 0.000000 -0.002614 0.000000
# 3 0.001302 -0.004672 0.015668 0.000000 0.004377 0.000000
# 4 0.000000 0.000000 0.000000 0.051582 0.000000 0.007755
# 5 0.005656 -0.002614 0.004377 0.000000 0.045363 0.000000
# 6 0.000000 0.000000 0.000000 0.007755 0.000000 0.029037
#
#
# Mechanical properties :
#
#
# Convention : Reuss Voigt Hill
#
# Bulk Modulus (GPa) = 42.00276 47.88968 44.94622
# Shear Modulus (GPa) = 25.62898 29.05967 27.34432
#
# Velocity S-wave (km/s) = 3.47329 3.69846 3.58764
# Velocity P-wave (km/s) = 5.98799 6.38593 6.19016
#
# Compressibility (1/GPa) = 0.02380796
#
# Stress axis : x y z
#
# Youngs Moduli (GPa) = 78.38317 71.09860 63.82579
#
# Poissons Ratio (x) = 0.42456 -0.08310
# Poissons Ratio (y) = 0.46806 0.29818
# Poissons Ratio (z) = -0.10205 0.33216
#
# Static dielectric constant tensor:
#      x y z
#    x 3.909590 0.000000 0.043930 
#    y 0.000000 3.724610 0.000000 
#    z 0.043930 0.000000 3.561800 
# 
# 
# High freq. dielectric constant tensor:
#      x y z
#    x 1.844480 0.000000 0.004690 
#    y 0.000000 1.824080 0.000000 
#    z 0.004690 0.000000 1.818890 
# 
# From -- ./inp_files/155992.got.cif
#   From: 2010.06.25/outbox.cif.g09.slc.cpg/sg12_78_cif.got.tgz:155992.got - 2010.06.28 00:19:55.
