data_PCOD8111469
_publ_section_title
;
Structure prediction by ZEFSAII (Michael W. Deem and Ramdas Pophale) SiO2 
 PCOD8111469
Probable space group: C 2/M
;
_chemical_formula_sum "Si O2"
_cell_formula_units_Z 64
_cell_length_a 15.303849
_cell_length_b 8.591865
_cell_length_c 23.841894
_cell_angle_alpha 90.000000
_cell_angle_beta 88.544364
_cell_angle_gamma 90.000000
_cell_volume 3133.925710
_symmetry_space_group_name_H-M "C 2/M"
_symmetry_group_IT_number 12
_symmetry_cell_setting 'monoclinic'
loop_
_space_group_symop_operation_xyz
x,y,z
-x,y,-z
-x,-y,-z
x,-y,z
1/2+x,1/2+y,z
1/2-x,1/2+y,-z
1/2-x,1/2-y,-z
1/2+x,1/2-y,z
loop_
_atom_site_type_symbol
_atom_site_label
_atom_site_fract_x
_atom_site_fract_y
_atom_site_fract_z
Si Si1 0.353653 0.678637 0.143741
Si Si2 0.657897 0.178527 0.135888
Si Si3 0.350266 0.181356 0.642739
Si Si4 0.155922 0.822111 0.628715
Si Si5 0.994725 0.682685 0.437856
Si Si6 0.512976 0.316426 0.063281
Si Si7 0.902206 0.320200 0.257093
Si Si8 0.589851 0.680346 0.247852
O O1 0.371114 0.500000 0.160546
O O2 0.259138 0.698730 0.116252
O O3 0.427815 0.736159 0.099596
O O4 0.355711 0.781532 0.199489
O O5 0.598718 0.231892 0.085118
O O6 0.641132 0.284867 0.190132
O O7 0.637030 0.000000 0.151410
O O8 0.257829 0.206893 0.613173
O O9 0.426714 0.249483 0.601688
O O10 0.349198 0.277903 0.700460
O O11 0.365143 0.000000 0.656610
O O12 0.140311 0.782132 0.693645
O O13 0.098595 0.718064 0.588105
O O14 0.129276 0.000000 0.619046
O O15 0.007498 0.500000 0.442190
O O16 0.000000 0.757168 0.500000
O O17 0.527908 0.500000 0.066643
O O18 0.500000 0.260606 0.000000
O O19 0.887982 0.500000 0.272052
O O20 0.004414 0.286024 0.251455
O O21 0.563471 0.500000 0.249508
#
# Coordination Sequence:
#
# PCOD8111469 Si02
#       8
#     8   8   8   8   8   8   8   8
#     4  10  22  40  61  88 124 160 196 244 300 354
#     4  11  23  39  61  90 122 159 199 245 300 354
#     4  10  22  40  61  88 124 160 196 244 300 354
#     4  11  23  39  61  90 122 159 199 245 300 354
#     4  10  22  41  63  86 117 161 207 250 296 348
#     4  10  22  41  63  86 117 161 207 250 296 348
#     4  12  23  37  61  91 122 157 196 243 299 359
#     4  12  23  37  61  91 122 157 196 243 299 359
#
# _framework density 20.421672999999998
#
# number of rings (size 3 to 8) (size 9 to 14) (size 15 to 20)
#    0.000    1.250    2.500    3.750    0.000    6.500 
#    0.000    0.000    0.000    0.000    0.000    0.000 
#    0.000    0.000    0.000    0.000    0.000    0.000 
#
# Total GULP energy -396974.281704 kJ/mol
# GULP energy per Si atom -12405.446303 kJ/mol
# Density = 2.037519 g / cm^3
# Si number density = 20.421673 Si / 1000 Ang^3
#
#
#
# Elastic Constant Matrix: (Units=GPa)
#
#
# Indices 1 2 3 4 5 6 
#
# 1 121.1046 18.7595 42.6336 0.0000 18.7169 0.0000
# 2 18.7595 38.4210 16.0423 0.0000 4.2817 0.0000
# 3 42.6336 16.0423 128.3118 0.0000 17.4252 0.0000
# 4 0.0000 0.0000 0.0000 24.5095 0.0000 6.3247
# 5 18.7169 4.2817 17.4252 0.0000 18.4130 0.0000
# 6 0.0000 0.0000 0.0000 6.3247 0.0000 27.4994
#
#
#
# Elastic Compliance Matrix: (Units=1/GPa)
#
#
# Indices 1 2 3 4 5 6 
#
# 1 0.010786 -0.003502 -0.002028 0.000000 -0.008230 0.000000
# 2 -0.003502 0.028808 -0.002308 0.000000 -0.000954 0.000000
# 3 -0.002028 -0.002308 0.009642 0.000000 -0.006527 0.000000
# 4 0.000000 0.000000 0.000000 0.043375 0.000000 -0.009976
# 5 -0.008230 -0.000954 -0.006527 0.000000 0.069074 0.000000
# 6 0.000000 0.000000 0.000000 -0.009976 0.000000 0.038659
#
#
# Mechanical properties :
#
#
# Convention : Reuss Voigt Hill
#
# Bulk Modulus (GPa) = 29.79920 49.18979 39.49450
# Shear Modulus (GPa) = 22.00637 28.11118 25.05878
#
# Velocity S-wave (km/s) = 3.28624 3.71420 3.50675
# Velocity P-wave (km/s) = 5.38728 6.52173 5.98146
#
# Compressibility (1/GPa) = 0.03355795
#
# Stress axis : x y z
#
# Youngs Moduli (GPa) = 92.71444 34.71301 103.70893
#
# Poissons Ratio (x) = 0.12157 0.21034
# Poissons Ratio (y) = 0.32471 0.23941
# Poissons Ratio (z) = 0.18804 0.08013
#
# Static dielectric constant tensor:
#      x y z
#    x 3.818710 0.000000 -0.051220 
#    y 0.000000 3.600800 0.000000 
#    z -0.051220 0.000000 3.725280 
# 
# 
# High freq. dielectric constant tensor:
#      x y z
#    x 1.811060 0.000000 0.003400 
#    y 0.000000 1.791280 0.000000 
#    z 0.003400 0.000000 1.790410 
# 
# From -- ./inp_files/338855.got.cif
#   From: 2010.06.25/outbox.cif.g09.slc.cpg/sg12_170_cif.got.tgz:338855.got - 2010.06.28 00:19:55.
