data_PCOD8111041
_publ_section_title
;
Structure prediction by ZEFSAII (Michael W. Deem and Ramdas Pophale) SiO2 
 PCOD8111041
Probable space group: C 2/M
;
_chemical_formula_sum "Si O2"
_cell_formula_units_Z 40
_cell_length_a 12.110843
_cell_length_b 13.945392
_cell_length_c 11.733873
_cell_angle_alpha 90.000000
_cell_angle_beta 107.925626
_cell_angle_gamma 90.000000
_cell_volume 1885.539250
_symmetry_space_group_name_H-M "C 2/M"
_symmetry_group_IT_number 12
_symmetry_cell_setting 'monoclinic'
loop_
_space_group_symop_operation_xyz
x,y,z
-x,y,-z
-x,-y,-z
x,-y,z
1/2+x,1/2+y,z
1/2-x,1/2+y,-z
1/2-x,1/2-y,-z
1/2+x,1/2-y,z
loop_
_atom_site_type_symbol
_atom_site_label
_atom_site_fract_x
_atom_site_fract_y
_atom_site_fract_z
Si Si1 0.341967 0.698974 0.373575
Si Si2 0.624439 0.888667 0.919769
Si Si3 0.864909 0.613423 0.825723
Si Si4 0.729315 0.108435 0.720653
Si Si5 0.932666 0.109877 0.628196
O O1 0.216203 0.668018 0.289205
O O2 0.348504 0.815191 0.373704
O O3 0.359309 0.664207 0.507650
O O4 0.440362 0.656307 0.320683
O O5 0.496628 0.851724 0.841994
O O6 0.719296 0.866974 0.852101
O O7 0.606138 0.000000 0.935060
O O8 0.667142 0.849744 0.056048
O O9 0.846271 0.500000 0.803005
O O10 0.864031 0.117862 0.725835
O O11 0.683534 0.000000 0.681351
O O12 0.946840 0.000000 0.595120
#
# Coordination Sequence:
#
# PCOD8111041 Si02
#       5
#     8   8   8   8   8
#     4  11  21  35  63  82 110 152 198 224 276 346
#     4   8  17  35  56  83 119 147 180 237 287 326
#     4   9  17  33  60  88 112 147 191 232 279 337
#     4  10  22  39  57  81 120 152 182 236 289 324
#     4  10  22  41  58  83 118 148 184 239 284 329
#
# _framework density 21.214089999999999
#
# number of rings (size 3 to 8) (size 9 to 14) (size 15 to 20)
#    0.000    2.400    0.000    4.200    2.800    0.800 
#    0.000    3.000    0.000    4.800    0.000    0.000 
#    0.000    0.000    0.000    0.000    0.000    0.000 
#
# Total GULP energy -247867.654916 kJ/mol
# GULP energy per Si atom -12393.382746 kJ/mol
# Density = 2.116581 g / cm^3
# Si number density = 21.214090 Si / 1000 Ang^3
#
#
#
# Elastic Constant Matrix: (Units=GPa)
#
#
# Indices 1 2 3 4 5 6 
#
# 1 95.9361 8.0569 36.0301 0.0000 -27.9147 0.0000
# 2 8.0569 98.3323 6.0310 0.0000 -1.5528 0.0000
# 3 36.0301 6.0310 56.5766 0.0000 0.9172 0.0000
# 4 0.0000 0.0000 0.0000 6.7771 0.0000 8.7744
# 5 -27.9147 -1.5528 0.9172 0.0000 46.2288 0.0000
# 6 0.0000 0.0000 0.0000 8.7744 0.0000 20.6255
#
#
#
# Elastic Compliance Matrix: (Units=1/GPa)
#
#
# Indices 1 2 3 4 5 6 
#
# 1 0.018079 -0.000592 -0.011631 0.000000 0.011128 0.000000
# 2 -0.000592 0.010262 -0.000717 0.000000 0.000001 0.000000
# 3 -0.011631 -0.000717 0.025281 0.000000 -0.007549 0.000000
# 4 0.000000 0.000000 0.000000 0.328473 0.000000 -0.139737
# 5 0.011128 0.000001 -0.007549 0.000000 0.028501 0.000000
# 6 0.000000 0.000000 0.000000 -0.139737 0.000000 0.107930
#
#
# Mechanical properties :
#
#
# Convention : Reuss Voigt Hill
#
# Bulk Modulus (GPa) = 36.04570 39.00901 37.52736
# Shear Modulus (GPa) = 9.03092 28.10809 18.56951
#
# Velocity S-wave (km/s) = 2.06550 3.64397 2.96182
# Velocity P-wave (km/s) = 4.76620 6.01106 5.42446
#
# Compressibility (1/GPa) = 0.02774256
#
# Stress axis : x y z
#
# Youngs Moduli (GPa) = 55.31158 97.44584 39.55549
#
# Poissons Ratio (x) = 0.05771 0.46007
# Poissons Ratio (y) = 0.03276 0.02835
# Poissons Ratio (z) = 0.64332 0.06985
#
# Static dielectric constant tensor:
#      x y z
#    x 3.898520 0.000000 -0.246690 
#    y 0.000000 3.937640 0.000000 
#    z -0.246690 0.000000 3.545460 
# 
# 
# High freq. dielectric constant tensor:
#      x y z
#    x 1.833710 0.000000 -0.023410 
#    y 0.000000 1.833480 0.000000 
#    z -0.023410 0.000000 1.804930 
# 
# From -- ./inp_files/129820.got.cif
#   From: 2010.06.25/outbox.cif.g09.slc.cpg/sg12_65_cif.got.tgz:129820.got - 2010.06.28 00:19:55.
