data_PCOD8111340
_publ_section_title
;
Structure prediction by ZEFSAII (Michael W. Deem and Ramdas Pophale) SiO2 
 PCOD8111340
Probable space group: C 2/M
;
_chemical_formula_sum "Si O2"
_cell_formula_units_Z 56
_cell_length_a 20.273811
_cell_length_b 20.961834
_cell_length_c 16.998034
_cell_angle_alpha 90.000000
_cell_angle_beta 21.308844
_cell_angle_gamma 90.000000
_cell_volume 2625.078886
_symmetry_space_group_name_H-M "C 2/M"
_symmetry_group_IT_number 12
_symmetry_cell_setting 'monoclinic'
loop_
_space_group_symop_operation_xyz
x,y,z
-x,y,-z
-x,-y,-z
x,-y,z
1/2+x,1/2+y,z
1/2-x,1/2+y,-z
1/2-x,1/2-y,-z
1/2+x,1/2-y,z
loop_
_atom_site_type_symbol
_atom_site_label
_atom_site_fract_x
_atom_site_fract_y
_atom_site_fract_z
Si Si1 0.210569 0.681101 0.966126
Si Si2 0.736772 0.426785 0.849935
Si Si3 0.137083 0.572317 0.461618
Si Si4 0.297488 0.845408 0.463334
Si Si5 0.711686 0.070462 0.672916
Si Si6 0.781961 0.571357 0.160147
Si Si7 0.919331 0.189806 0.892997
O O1 0.198961 0.751589 0.938102
O O2 0.004725 0.675595 0.226833
O O3 0.282189 0.626111 0.828568
O O4 0.352482 0.679561 0.878468
O O5 0.679469 0.500000 0.933411
O O6 0.742322 0.417374 0.750114
O O7 0.929643 0.410147 0.674106
O O8 0.597368 0.375799 0.040018
O O9 0.147800 0.500000 0.478143
O O10 0.218884 0.612898 0.440406
O O11 0.228492 0.882572 0.462171
O O12 0.136440 0.792447 0.651380
O O13 0.790367 0.089585 0.671959
O O14 0.781874 0.000000 0.573153
O O15 0.496620 0.070246 0.919535
O O16 0.710628 0.500000 0.215625
#
# Coordination Sequence:
#
# PCOD8111340 Si02
#       7
#     8   8   8   8   8   8   8
#     4  10  22  40  57  80 118 151 186 238 286 330
#     4   9  19  37  59  85 115 150 192 235 285 347
#     4   9  18  35  60  86 116 149 186 238 292 339
#     4  11  20  35  59  84 112 151 190 228 286 338
#     4   8  15  29  53  85 113 137 181 233 273 328
#     4   8  15  32  58  81 106 148 187 223 279 336
#     4  11  23  38  57  84 115 150 193 235 280 338
#
# _framework density 21.332692999999999
#
# number of rings (size 3 to 8) (size 9 to 14) (size 15 to 20)
#    0.000    2.571    1.429    2.571    0.000    2.857 
#    0.000    9.286    0.000    1.714    0.000    0.000 
#    0.000    0.000    0.000    0.000    0.000    0.000 
#
# Total GULP energy -346880.086872 kJ/mol
# GULP energy per Si atom -12388.574531 kJ/mol
# Density = 2.128414 g / cm^3
# Si number density = 21.332693 Si / 1000 Ang^3
#
#
#
# Elastic Constant Matrix: (Units=GPa)
#
#
# Indices 1 2 3 4 5 6 
#
# 1 90.4021 36.9706 14.5545 0.0500 5.0069 0.0128
# 2 36.9706 81.7972 6.3847 0.1334 7.5170 -0.0228
# 3 14.5545 6.3847 52.0974 0.1855 -8.8389 -0.0715
# 4 0.0500 0.1334 0.1855 19.7988 -0.0813 -3.2249
# 5 5.0069 7.5170 -8.8389 -0.0813 20.5489 -0.0192
# 6 0.0128 -0.0228 -0.0715 -3.2249 -0.0192 23.9983
#
#
#
# Elastic Compliance Matrix: (Units=1/GPa)
#
#
# Indices 1 2 3 4 5 6 
#
# 1 0.014228 -0.005868 -0.003754 0.000023 -0.002935 -0.000024
# 2 -0.005868 0.015385 -0.001033 -0.000099 -0.004643 -0.000002
# 3 -0.003754 -0.001033 0.022211 -0.000138 0.010846 0.000057
# 4 0.000023 -0.000099 -0.000138 0.051641 0.000182 0.006939
# 5 -0.002935 -0.004643 0.010846 0.000182 0.055744 0.000099
# 6 -0.000024 -0.000002 0.000057 0.006939 0.000099 0.042602
#
#
# Mechanical properties :
#
#
# Convention : Reuss Voigt Hill
#
# Bulk Modulus (GPa) = 32.77264 37.79072 35.28168
# Shear Modulus (GPa) = 21.43211 23.96164 22.69687
#
# Velocity S-wave (km/s) = 3.17308 3.35511 3.26536
# Velocity P-wave (km/s) = 5.36848 5.72384 5.54901
#
# Compressibility (1/GPa) = 0.03051326
#
# Stress axis : x y z
#
# Youngs Moduli (GPa) = 70.28158 64.99736 45.02290
#
# Poissons Ratio (x) = 0.38142 0.16901
# Poissons Ratio (y) = 0.41243 0.04653
# Poissons Ratio (z) = 0.26383 0.06717
#
# Static dielectric constant tensor:
#      x y z
#    x 3.909160 -0.000170 0.109640 
#    y -0.000170 4.114850 0.000350 
#    z 0.109640 0.000350 3.602760 
# 
# 
# High freq. dielectric constant tensor:
#      x y z
#    x 1.834660 -0.000020 -0.008260 
#    y -0.000020 1.834670 0.000040 
#    z -0.008260 0.000040 1.821670 
# 
# From -- ./inp_files/286009.got.cif
#   From: 2010.06.25/outbox.cif.g09.slc.cpg/sg12_144_cif.got.tgz:286009.got - 2010.06.28 00:19:55.
