data_PCOD8111795
_publ_section_title
;
Structure prediction by ZEFSAII (Michael W. Deem and Ramdas Pophale) SiO2 
 PCOD8111795
Probable space group: C 2/M
;
_chemical_formula_sum "Si O2"
_cell_formula_units_Z 64
_cell_length_a 20.409241
_cell_length_b 17.580762
_cell_length_c 9.168702
_cell_angle_alpha 90.000000
_cell_angle_beta 89.326866
_cell_angle_gamma 90.000000
_cell_volume 3289.595007
_symmetry_space_group_name_H-M "C 2/M"
_symmetry_group_IT_number 12
_symmetry_cell_setting 'monoclinic'
loop_
_space_group_symop_operation_xyz
x,y,z
-x,y,-z
-x,-y,-z
x,-y,z
1/2+x,1/2+y,z
1/2-x,1/2+y,-z
1/2-x,1/2-y,-z
1/2+x,1/2-y,z
loop_
_atom_site_type_symbol
_atom_site_label
_atom_site_fract_x
_atom_site_fract_y
_atom_site_fract_z
Si Si1 0.998447 0.321830 0.668226
Si Si2 0.435376 0.916442 0.907526
Si Si3 0.650758 0.335077 0.991670
Si Si4 0.255289 0.408358 0.782363
Si Si5 0.455574 0.336122 0.764749
Si Si6 0.869366 0.322290 0.147336
Si Si7 0.090510 0.087238 0.747538
Si Si8 0.638859 0.412178 0.443836
O O1 0.069194 0.314256 0.744894
O O2 0.000000 0.347261 0.500000
O O3 0.953427 0.384035 0.748848
O O4 0.960795 0.242153 0.676811
O O5 0.403425 0.000000 0.887872
O O6 0.500000 0.923525 0.000000
O O7 0.385694 0.861709 0.992875
O O8 0.712311 0.361387 0.085462
O O9 0.585056 0.322383 0.087378
O O10 0.662317 0.258828 0.895447
O O11 0.641301 0.404185 0.878285
O O12 0.257258 0.500000 0.807354
O O13 0.182093 0.376712 0.767612
O O14 0.293571 0.384491 0.632877
O O15 0.526936 0.366809 0.800778
O O16 0.420844 0.397850 0.663877
O O17 0.122570 0.125333 0.600995
O O18 0.071590 0.000000 0.722429
O O19 0.645471 0.500000 0.474513
#
# Coordination Sequence:
#
# PCOD8111795 Si02
#       8
#     8   8   8   8   8   8   8   8
#     4  11  22  36  59  90 124 152 190 247 301 355
#     4   9  19  36  59  84 112 150 195 243 295 349
#     4  11  22  36  58  87 119 152 196 250 290 347
#     4  10  22  41  62  82 113 159 208 247 287 347
#     4  11  20  34  57  84 121 158 194 235 294 361
#     4  11  21  39  62  86 116 160 200 241 297 352
#     4  11  21  33  55  87 121 156 193 243 299 351
#     4   9  20  37  56  83 120 162 200 236 288 354
#
# _framework density 19.455283999999999
#
# number of rings (size 3 to 8) (size 9 to 14) (size 15 to 20)
#    0.000    1.625    2.500    3.000    0.000    3.750 
#    0.000    1.875    0.000    1.500    0.000    0.000 
#    0.000    0.000    0.000    0.000    0.000    0.000 
#
# Total GULP energy -396698.568608 kJ/mol
# GULP energy per Si atom -12396.830269 kJ/mol
# Density = 1.941100 g / cm^3
# Si number density = 19.455284 Si / 1000 Ang^3
#
#
#
# Elastic Constant Matrix: (Units=GPa)
#
#
# Indices 1 2 3 4 5 6 
#
# 1 69.4704 16.1293 28.1599 0.0000 -11.8317 0.0000
# 2 16.1293 67.3741 19.2849 0.0000 -6.8281 0.0000
# 3 28.1599 19.2849 99.6170 0.0000 -8.4459 0.0000
# 4 0.0000 0.0000 0.0000 22.0010 0.0000 -2.6553
# 5 -11.8317 -6.8281 -8.4459 0.0000 16.3401 0.0000
# 6 0.0000 0.0000 0.0000 -2.6553 0.0000 26.1260
#
#
#
# Elastic Compliance Matrix: (Units=1/GPa)
#
#
# Indices 1 2 3 4 5 6 
#
# 1 0.018220 -0.002219 -0.003850 0.000000 0.010276 0.000000
# 2 -0.002219 0.016421 -0.002203 0.000000 0.004117 0.000000
# 3 -0.003850 -0.002203 0.011754 0.000000 0.002367 0.000000
# 4 0.000000 0.000000 0.000000 0.046017 0.000000 0.004677
# 5 0.010276 0.004117 0.002367 0.000000 0.071584 0.000000
# 6 0.000000 0.000000 0.000000 0.004677 0.000000 0.038751
#
#
# Mechanical properties :
#
#
# Convention : Reuss Voigt Hill
#
# Bulk Modulus (GPa) = 33.49712 40.40105 36.94908
# Shear Modulus (GPa) = 21.81106 24.41925 23.11515
#
# Velocity S-wave (km/s) = 3.35190 3.54665 3.45065
# Velocity P-wave (km/s) = 5.67760 6.13048 5.90838
#
# Compressibility (1/GPa) = 0.02985332
#
# Stress axis : x y z
#
# Youngs Moduli (GPa) = 54.88351 60.89617 85.07830
#
# Poissons Ratio (x) = 0.13510 0.32754
# Poissons Ratio (y) = 0.12176 0.18741
# Poissons Ratio (z) = 0.21129 0.13414
#
# Static dielectric constant tensor:
#      x y z
#    x 3.380850 0.000000 -0.260700 
#    y 0.000000 3.612310 0.000000 
#    z -0.260700 0.000000 3.695040 
# 
# 
# High freq. dielectric constant tensor:
#      x y z
#    x 1.737730 0.000000 -0.016640 
#    y 0.000000 1.761030 0.000000 
#    z -0.016640 0.000000 1.758990 
# 
# From -- ./inp_files/87941.got.cif
#   From: 2010.06.25/outbox.cif.g09.slc.cpg/sg12_44_cif.got.tgz:87941.got - 2010.06.28 00:19:55.
