data_PCOD8111119
_publ_section_title
;
Structure prediction by ZEFSAII (Michael W. Deem and Ramdas Pophale) SiO2 
 PCOD8111119
Probable space group: C 2/M
;
_chemical_formula_sum "Si O2"
_cell_formula_units_Z 56
_cell_length_a 29.177003
_cell_length_b 8.944973
_cell_length_c 21.075156
_cell_angle_alpha 90.000000
_cell_angle_beta 150.472183
_cell_angle_gamma 90.000000
_cell_volume 2710.826980
_symmetry_space_group_name_H-M "C 2/M"
_symmetry_group_IT_number 12
_symmetry_cell_setting 'monoclinic'
loop_
_space_group_symop_operation_xyz
x,y,z
-x,y,-z
-x,-y,-z
x,-y,z
1/2+x,1/2+y,z
1/2-x,1/2+y,-z
1/2-x,1/2-y,-z
1/2+x,1/2-y,z
loop_
_atom_site_type_symbol
_atom_site_label
_atom_site_fract_x
_atom_site_fract_y
_atom_site_fract_z
Si Si1 0.662079 0.675249 0.581188
Si Si2 0.655316 0.331700 0.899510
Si Si3 0.456123 0.332626 0.362512
Si Si4 0.028363 0.323124 0.103750
Si Si5 0.371450 0.176587 0.012760
Si Si6 0.221689 0.324029 0.399141
Si Si7 0.195735 0.323500 0.744802
O O1 0.676777 0.500000 0.611451
O O2 0.556834 0.729400 0.464425
O O3 0.696762 0.715554 0.552492
O O4 0.720895 0.765524 0.704547
O O5 0.673679 0.500000 0.945923
O O6 0.599398 0.332088 0.768414
O O7 0.750000 0.250000 0.000000
O O8 0.595438 0.239667 0.879449
O O9 0.462610 0.500000 0.398336
O O10 0.406913 0.231770 0.356948
O O11 0.037646 0.500000 0.109181
O O12 0.125222 0.262621 0.251144
O O13 0.945665 0.272915 0.050154
O O14 0.000000 0.257651 0.000000
O O15 0.271664 0.252379 0.882384
O O16 0.358714 0.000000 0.999344
O O17 0.213102 0.500000 0.401278
O O18 0.250000 0.250000 0.500000
O O19 0.200105 0.500000 0.753203
#
# Coordination Sequence:
#
# PCOD8111119 Si02
#       7
#     8   8   8   8   8   8   8
#     4  10  22  41  64  86 116 162 204 240 293 361
#     4  11  22  37  58  86 120 157 199 245 296 356
#     4  10  22  39  60  85 118 161 202 238 291 361
#     4   9  19  38  64  92 119 157 209 256 301 359
#     4  11  22  37  61  88 119 160 201 246 299 357
#     4  10  22  41  65  93 124 161 204 254 308 364
#     4  12  24  38  59  90 123 155 195 250 304 355
#
# _framework density 20.657902
#
# number of rings (size 3 to 8) (size 9 to 14) (size 15 to 20)
#    0.000    1.571    1.429    3.429    2.000    5.714 
#    0.000    0.714    0.000    3.000    0.000    0.000 
#    0.000    0.000    0.000    0.000    0.000    0.000 
#
# Total GULP energy -347148.916697 kJ/mol
# GULP energy per Si atom -12398.175596 kJ/mol
# Density = 2.061088 g / cm^3
# Si number density = 20.657902 Si / 1000 Ang^3
#
#
#
# Elastic Constant Matrix: (Units=GPa)
#
#
# Indices 1 2 3 4 5 6 
#
# 1 163.8067 57.5555 53.5109 0.0000 -11.0575 0.0000
# 2 57.5555 84.2655 25.3021 0.0000 -1.7274 0.0000
# 3 53.5109 25.3021 103.0633 0.0000 -4.6147 0.0000
# 4 0.0000 0.0000 0.0000 16.4129 0.0000 -9.3202
# 5 -11.0575 -1.7274 -4.6147 0.0000 36.1803 0.0000
# 6 0.0000 0.0000 0.0000 -9.3202 0.0000 31.6910
#
#
#
# Elastic Compliance Matrix: (Units=1/GPa)
#
#
# Indices 1 2 3 4 5 6 
#
# 1 0.009189 -0.005213 -0.003396 0.000000 0.002126 0.000000
# 2 -0.005213 0.015771 -0.001210 0.000000 -0.000995 0.000000
# 3 -0.003396 -0.001210 0.011781 0.000000 0.000407 0.000000
# 4 0.000000 0.000000 0.000000 0.073143 0.000000 0.021511
# 5 0.002126 -0.000995 0.000407 0.000000 0.028294 0.000000
# 6 0.000000 0.000000 0.000000 0.021511 0.000000 0.037881
#
#
# Mechanical properties :
#
#
# Convention : Reuss Voigt Hill
#
# Bulk Modulus (GPa) = 58.46709 69.31919 63.89314
# Shear Modulus (GPa) = 24.82642 31.17464 28.00053
#
# Velocity S-wave (km/s) = 3.47044 3.88892 3.68562
# Velocity P-wave (km/s) = 6.66503 7.33441 7.00771
#
# Compressibility (1/GPa) = 0.01710364
#
# Stress axis : x y z
#
# Youngs Moduli (GPa) = 108.82013 63.40801 84.88087
#
# Poissons Ratio (x) = 0.33057 0.28827
# Poissons Ratio (y) = 0.56731 0.10267
# Poissons Ratio (z) = 0.36957 0.07669
#
# Static dielectric constant tensor:
#      x y z
#    x 3.730180 0.000000 0.307010 
#    y 0.000000 3.619040 0.000000 
#    z 0.307010 0.000000 3.148210 
# 
# 
# High freq. dielectric constant tensor:
#      x y z
#    x 1.825370 0.000000 -0.009710 
#    y 0.000000 1.782160 0.000000 
#    z -0.009710 0.000000 1.816690 
# 
# From -- ./inp_files/329656.got.cif
#   From: 2010.06.25/outbox.cif.g09.slc.cpg/sg12_165_cif.got.tgz:329656.got - 2010.06.28 00:19:55.
