data_PCOD8111390
_publ_section_title
;
Structure prediction by ZEFSAII (Michael W. Deem and Ramdas Pophale) SiO2 
 PCOD8111390
Probable space group: C 2/M
;
_chemical_formula_sum "Si O2"
_cell_formula_units_Z 48
_cell_length_a 10.005240
_cell_length_b 9.003832
_cell_length_c 26.856673
_cell_angle_alpha 90.000000
_cell_angle_beta 79.384060
_cell_angle_gamma 90.000000
_cell_volume 2377.986748
_symmetry_space_group_name_H-M "C 2/M"
_symmetry_group_IT_number 12
_symmetry_cell_setting 'monoclinic'
loop_
_space_group_symop_operation_xyz
x,y,z
-x,y,-z
-x,-y,-z
x,-y,z
1/2+x,1/2+y,z
1/2-x,1/2+y,-z
1/2-x,1/2-y,-z
1/2+x,1/2-y,z
loop_
_atom_site_type_symbol
_atom_site_label
_atom_site_fract_x
_atom_site_fract_y
_atom_site_fract_z
Si Si1 0.520499 0.672163 0.888218
Si Si2 0.240360 0.671917 0.448074
Si Si3 0.588016 0.670641 0.275625
Si Si4 0.760598 0.672404 0.946531
Si Si5 0.610468 0.829161 0.784069
Si Si6 0.535843 0.671259 0.391216
O O1 0.485990 0.500000 0.882774
O O2 0.618032 0.696662 0.928606
O O3 0.380110 0.757815 0.905647
O O4 0.594120 0.731865 0.834374
O O5 0.216498 0.500000 0.459880
O O6 0.250000 0.750000 0.500000
O O7 0.375660 0.701413 0.406829
O O8 0.112397 0.732122 0.426709
O O9 0.540225 0.500000 0.273117
O O10 0.490447 0.777079 0.251757
O O11 0.738463 0.694224 0.245500
O O12 0.582558 0.720900 0.333260
O O13 0.792105 0.500000 0.952490
O O14 0.750000 0.750000 0.000000
O O15 0.579797 0.000000 0.798978
O O16 0.571904 0.500000 0.398760
#
# Coordination Sequence:
#
# PCOD8111390 Si02
#       6
#     8   8   8   8   8   8
#     4  11  24  41  61  87 120 157 197 241 290 345
#     4  11  23  38  59  86 116 153 195 240 292 348
#     4  10  22  40  61  86 118 154 192 239 293 347
#     4  11  24  41  63  91 121 156 198 243 293 349
#     4  11  23  38  60  89 117 151 195 239 288 346
#     4  10  22  40  60  85 117 152 193 240 290 347
#
# _framework density 20.185141999999999
#
# number of rings (size 3 to 8) (size 9 to 14) (size 15 to 20)
#    0.000    1.333    0.000    5.000    0.000   12.667 
#    0.000    0.000    0.000    0.000    0.000    0.000 
#    0.000    0.000    0.000    0.000    0.000    0.000 
#
# Total GULP energy -297784.332728 kJ/mol
# GULP energy per Si atom -12407.680530 kJ/mol
# Density = 2.013920 g / cm^3
# Si number density = 20.185142 Si / 1000 Ang^3
#
#
#
# Elastic Constant Matrix: (Units=GPa)
#
#
# Indices 1 2 3 4 5 6 
#
# 1 72.9250 50.8347 12.0999 0.0000 6.0635 0.0000
# 2 50.8347 112.9326 43.4049 0.0000 7.9443 0.0000
# 3 12.0999 43.4049 107.7403 0.0000 0.2467 0.0000
# 4 0.0000 0.0000 0.0000 40.3330 0.0000 2.7434
# 5 6.0635 7.9443 0.2467 0.0000 37.6208 0.0000
# 6 0.0000 0.0000 0.0000 2.7434 0.0000 35.6437
#
#
#
# Elastic Compliance Matrix: (Units=1/GPa)
#
#
# Indices 1 2 3 4 5 6 
#
# 1 0.020285 -0.009666 0.001619 0.000000 -0.001239 0.000000
# 2 -0.009666 0.015266 -0.005061 0.000000 -0.001633 0.000000
# 3 0.001619 -0.005061 0.011137 0.000000 0.000735 0.000000
# 4 0.000000 0.000000 0.000000 0.024924 0.000000 -0.001918
# 5 -0.001239 -0.001633 0.000735 0.000000 0.027121 0.000000
# 6 0.000000 0.000000 0.000000 -0.001918 0.000000 0.028203
#
#
# Mechanical properties :
#
#
# Convention : Reuss Voigt Hill
#
# Bulk Modulus (GPa) = 48.84762 56.25299 52.55031
# Shear Modulus (GPa) = 31.25474 35.20337 33.22906
#
# Velocity S-wave (km/s) = 3.93924 4.18068 4.06176
# Velocity P-wave (km/s) = 6.70392 7.15773 6.93454
#
# Compressibility (1/GPa) = 0.02047182
#
# Stress axis : x y z
#
# Youngs Moduli (GPa) = 49.29709 65.50603 89.79159
#
# Poissons Ratio (x) = 0.63319 -0.14536
# Poissons Ratio (y) = 0.47651 0.45441
# Poissons Ratio (z) = -0.07980 0.33151
#
# Static dielectric constant tensor:
#      x y z
#    x 3.745390 0.000000 -0.094960 
#    y 0.000000 3.819310 0.000000 
#    z -0.094960 0.000000 3.896660 
# 
# 
# High freq. dielectric constant tensor:
#      x y z
#    x 1.800070 0.000000 -0.003810 
#    y 0.000000 1.797580 0.000000 
#    z -0.003810 0.000000 1.805180 
# 
# From -- ./inp_files/334787.got.cif
#   From: 2010.06.25/outbox.cif.g09.slc.cpg/sg12_168_cif.got.tgz:334787.got - 2010.06.28 00:19:55.
