data_PCOD8111036
_publ_section_title
;
Structure prediction by ZEFSAII (Michael W. Deem and Ramdas Pophale) SiO2 
 PCOD8111036
Probable space group: C 2/M
;
_chemical_formula_sum "Si O2"
_cell_formula_units_Z 56
_cell_length_a 19.182137
_cell_length_b 8.935232
_cell_length_c 18.011947
_cell_angle_alpha 90.000000
_cell_angle_beta 99.823939
_cell_angle_gamma 90.000000
_cell_volume 3041.922460
_symmetry_space_group_name_H-M "C 2/M"
_symmetry_group_IT_number 12
_symmetry_cell_setting 'monoclinic'
loop_
_space_group_symop_operation_xyz
x,y,z
-x,y,-z
-x,-y,-z
x,-y,z
1/2+x,1/2+y,z
1/2-x,1/2+y,-z
1/2-x,1/2-y,-z
1/2+x,1/2-y,z
loop_
_atom_site_type_symbol
_atom_site_label
_atom_site_fract_x
_atom_site_fract_y
_atom_site_fract_z
Si Si1 0.895196 0.674606 0.443289
Si Si2 0.305215 0.671687 0.316520
Si Si3 0.460764 0.823684 0.605927
Si Si4 0.451157 0.674999 0.759681
Si Si5 0.767423 0.677938 0.081224
Si Si6 0.677992 0.824203 0.193033
Si Si7 0.887604 0.174304 0.186597
O O1 0.891209 0.500000 0.432444
O O2 0.823523 0.742748 0.395975
O O3 0.902854 0.714381 0.531700
O O4 0.963342 0.732700 0.409905
O O5 0.315076 0.500000 0.337326
O O6 0.225702 0.706729 0.274928
O O7 0.360000 0.722170 0.262607
O O8 0.439496 0.732385 0.674426
O O9 0.461242 0.000000 0.624176
O O10 0.434106 0.500000 0.758626
O O11 0.399895 0.762164 0.806227
O O12 0.529642 0.709553 0.803438
O O13 0.763158 0.500000 0.075861
O O14 0.710271 0.737856 0.129303
O O15 0.846734 0.727941 0.118001
O O16 0.750000 0.750000 0.000000
O O17 0.675791 0.000000 0.174155
O O18 0.870298 0.000000 0.169325
#
# Coordination Sequence:
#
# PCOD8111036 Si02
#       7
#     8   8   8   8   8   8   8
#     4   9  17  29  48  74 104 139 185 233 276 324
#     4   9  17  32  52  75 104 140 181 228 278 323
#     4   9  18  31  47  73 108 144 180 228 284 326
#     4  11  21  35  55  82 112 145 186 228 273 326
#     4  11  22  39  64  90 114 143 179 217 261 318
#     4  10  22  39  57  80 114 148 179 223 275 324
#     4   9  19  35  55  82 114 144 179 225 270 318
#
# _framework density 18.409410000000001
#
# number of rings (size 3 to 8) (size 9 to 14) (size 15 to 20)
#    0.000    2.286    1.429    3.857    0.000    4.571 
#    0.000    2.857    0.000    4.286    0.000    0.000 
#    0.000    0.000    0.000    0.000    0.000    0.000 
#
# Total GULP energy -347186.209071 kJ/mol
# GULP energy per Si atom -12399.507467 kJ/mol
# Density = 1.836751 g / cm^3
# Si number density = 18.409410 Si / 1000 Ang^3
#
#
#
# Elastic Constant Matrix: (Units=GPa)
#
#
# Indices 1 2 3 4 5 6 
#
# 1 94.7908 47.9912 44.7817 0.0000 8.5755 0.0000
# 2 47.9912 96.3319 60.1903 0.0000 5.4936 0.0000
# 3 44.7817 60.1903 118.5511 0.0000 8.2090 0.0000
# 4 0.0000 0.0000 0.0000 36.3153 0.0000 1.6517
# 5 8.5755 5.4936 8.2090 0.0000 16.8041 0.0000
# 6 0.0000 0.0000 0.0000 1.6517 0.0000 30.1039
#
#
#
# Elastic Compliance Matrix: (Units=1/GPa)
#
#
# Indices 1 2 3 4 5 6 
#
# 1 0.015002 -0.005668 -0.002471 0.000000 -0.004596 0.000000
# 2 -0.005668 0.017370 -0.006712 0.000000 0.000493 0.000000
# 3 -0.002471 -0.006712 0.012976 0.000000 -0.002884 0.000000
# 4 0.000000 0.000000 0.000000 0.027606 0.000000 -0.001515
# 5 -0.004596 0.000493 -0.002884 0.000000 0.063102 0.000000
# 6 0.000000 0.000000 0.000000 -0.001515 0.000000 0.033301
#
#
# Mechanical properties :
#
#
# Convention : Reuss Voigt Hill
#
# Bulk Modulus (GPa) = 63.91277 68.40002 66.15639
# Shear Modulus (GPa) = 24.47669 27.09202 25.78435
#
# Velocity S-wave (km/s) = 3.65029 3.84036 3.74653
# Velocity P-wave (km/s) = 7.24976 7.54321 7.39794
#
# Compressibility (1/GPa) = 0.01564633
#
# Stress axis : x y z
#
# Youngs Moduli (GPa) = 66.65653 57.56941 77.06378
#
# Poissons Ratio (x) = 0.32629 0.19043
# Poissons Ratio (y) = 0.37780 0.51728
# Poissons Ratio (z) = 0.16471 0.38643
#
# Static dielectric constant tensor:
#      x y z
#    x 3.476460 0.000000 0.259780 
#    y 0.000000 3.340600 0.000000 
#    z 0.259780 0.000000 3.441100 
# 
# 
# High freq. dielectric constant tensor:
#      x y z
#    x 1.698410 0.000000 0.012820 
#    y 0.000000 1.715590 0.000000 
#    z 0.012820 0.000000 1.709120 
# 
# From -- ./inp_files/275601.got.cif
#   From: 2010.06.25/outbox.cif.g09.slc.cpg/sg12_138_cif.got.tgz:275601.got - 2010.06.28 00:19:55.
