data_PCOD8111131
_publ_section_title
;
Structure prediction by ZEFSAII (Michael W. Deem and Ramdas Pophale) SiO2 
 PCOD8111131
Probable space group: C 2/M
;
_chemical_formula_sum "Si O2"
_cell_formula_units_Z 64
_cell_length_a 13.065607
_cell_length_b 25.992240
_cell_length_c 17.745189
_cell_angle_alpha 90.000000
_cell_angle_beta 147.235928
_cell_angle_gamma 90.000000
_cell_volume 3261.343046
_symmetry_space_group_name_H-M "C 2/M"
_symmetry_group_IT_number 12
_symmetry_cell_setting 'monoclinic'
loop_
_space_group_symop_operation_xyz
x,y,z
-x,y,-z
-x,-y,-z
x,-y,z
1/2+x,1/2+y,z
1/2-x,1/2+y,-z
1/2-x,1/2-y,-z
1/2+x,1/2-y,z
loop_
_atom_site_type_symbol
_atom_site_label
_atom_site_fract_x
_atom_site_fract_y
_atom_site_fract_z
Si Si1 0.530814 0.622411 0.435904
Si Si2 0.874504 0.941433 0.115118
Si Si3 0.582866 0.722223 0.855763
Si Si4 0.780000 0.640262 0.874228
Si Si5 0.730398 0.443058 0.439342
Si Si6 0.965125 0.360394 0.396782
Si Si7 0.338117 0.793311 0.603922
Si Si8 0.958042 0.135614 0.887725
O O1 0.500000 0.600732 0.500000
O O2 0.325945 0.632818 0.271060
O O3 0.639216 0.578253 0.458747
O O4 0.665047 0.672217 0.525880
O O5 0.728546 0.911254 0.079352
O O6 0.078453 0.942068 0.279092
O O7 0.899079 0.909392 0.052452
O O8 0.801591 0.000000 0.054936
O O9 0.664664 0.686880 0.840126
O O10 0.445476 0.766964 0.740175
O O11 0.473795 0.687499 0.848591
O O12 0.750000 0.750000 0.000000
O O13 0.000000 0.654649 0.000000
O O14 0.803317 0.500000 0.501544
O O15 0.905542 0.410395 0.520537
O O16 0.756439 0.382085 0.255063
O O17 0.000000 0.332525 0.500000
O O18 0.015109 0.323928 0.357738
O O19 0.250000 0.750000 0.500000
O O20 0.000000 0.148386 0.000000
#
# Coordination Sequence:
#
# PCOD8111131 Si02
#       8
#     8   8   8   8   8   8   8   8
#     4  10  22  39  60  89 118 154 197 248 297 339
#     4   9  19  39  64  87 118 157 194 240 295 351
#     4  11  24  41  59  83 119 159 198 240 296 352
#     4  10  22  40  61  86 119 155 200 245 292 352
#     4   9  19  38  63  89 119 154 195 240 291 355
#     4  11  21  36  61  90 116 151 198 237 289 352
#     4  11  22  39  58  85 119 151 195 246 291 344
#     4  11  23  40  59  87 122 154 191 245 294 348
#
# _framework density 19.623816999999999
#
# number of rings (size 3 to 8) (size 9 to 14) (size 15 to 20)
#    0.000    1.750    2.500    1.500    1.750    4.500 
#    2.250    0.000    0.000    0.000    0.000    0.000 
#    0.000    0.000    0.000    0.000    0.000    0.000 
#
# Total GULP energy -396769.856215 kJ/mol
# GULP energy per Si atom -12399.058007 kJ/mol
# Density = 1.957915 g / cm^3
# Si number density = 19.623817 Si / 1000 Ang^3
#
#
#
# Elastic Constant Matrix: (Units=GPa)
#
#
# Indices 1 2 3 4 5 6 
#
# 1 96.3950 21.8761 37.8583 0.0001 -10.7200 0.0001
# 2 21.8761 99.6916 16.9660 -0.0001 -6.1082 0.0001
# 3 37.8583 16.9660 97.0805 0.0000 -7.1225 -0.0001
# 4 0.0001 -0.0001 0.0000 26.6062 0.0001 0.4359
# 5 -10.7200 -6.1082 -7.1225 0.0001 36.3088 0.0001
# 6 0.0001 0.0001 -0.0001 0.4359 0.0001 5.6269
#
#
#
# Elastic Compliance Matrix: (Units=1/GPa)
#
#
# Indices 1 2 3 4 5 6 
#
# 1 0.012858 -0.001898 -0.004492 0.000000 0.002596 0.000000
# 2 -0.001898 0.010690 -0.001052 0.000000 0.001032 0.000000
# 3 -0.004492 -0.001052 0.012303 0.000000 0.000910 0.000000
# 4 0.000000 0.000000 0.000000 0.037633 0.000000 -0.002915
# 5 0.002596 0.001032 0.000910 0.000000 0.028660 0.000000
# 6 0.000000 0.000000 0.000000 -0.002915 0.000000 0.177943
#
#
# Mechanical properties :
#
#
# Convention : Reuss Voigt Hill
#
# Bulk Modulus (GPa) = 47.69629 49.61866 48.65748
# Shear Modulus (GPa) = 16.55852 28.13951 22.34901
#
# Velocity S-wave (km/s) = 2.90797 3.79086 3.37838
# Velocity P-wave (km/s) = 5.96935 6.67088 6.32984
#
# Compressibility (1/GPa) = 0.02096599
#
# Stress axis : x y z
#
# Youngs Moduli (GPa) = 77.77545 93.54795 81.28025
#
# Poissons Ratio (x) = 0.17755 0.36510
# Poissons Ratio (y) = 0.14761 0.08553
# Poissons Ratio (z) = 0.34936 0.09844
#
# Static dielectric constant tensor:
#      x y z
#    x 3.520400 0.000000 -0.070530 
#    y 0.000000 3.576940 0.000000 
#    z -0.070530 0.000000 3.450310 
# 
# 
# High freq. dielectric constant tensor:
#      x y z
#    x 1.769950 0.000000 -0.001550 
#    y 0.000000 1.762330 0.000000 
#    z -0.001550 0.000000 1.760810 
# 
# From -- ./inp_files/209422.got.cif
#   From: 2010.06.25/outbox.cif.g09.slc.cpg/sg12_105_cif.got.tgz:209422.got - 2010.06.28 00:19:55.
