data_PCOD8111847
_publ_section_title
;
Structure prediction by ZEFSAII (Michael W. Deem and Ramdas Pophale) SiO2 
 PCOD8111847
Probable space group: C 2/M
;
_chemical_formula_sum "Si O2"
_cell_formula_units_Z 56
_cell_length_a 19.940399
_cell_length_b 8.746636
_cell_length_c 26.011269
_cell_angle_alpha 90.000000
_cell_angle_beta 38.526544
_cell_angle_gamma 90.000000
_cell_volume 2825.783129
_symmetry_space_group_name_H-M "C 2/M"
_symmetry_group_IT_number 12
_symmetry_cell_setting 'monoclinic'
loop_
_space_group_symop_operation_xyz
x,y,z
-x,y,-z
-x,-y,-z
x,-y,z
1/2+x,1/2+y,z
1/2-x,1/2+y,-z
1/2-x,1/2-y,-z
1/2+x,1/2-y,z
loop_
_atom_site_type_symbol
_atom_site_label
_atom_site_fract_x
_atom_site_fract_y
_atom_site_fract_z
Si Si1 0.771806 0.175419 0.932530
Si Si2 0.813518 0.681544 0.300904
Si Si3 0.023894 0.821185 0.348608
Si Si4 0.092523 0.179651 0.480690
Si Si5 0.623649 0.824445 0.928140
Si Si6 0.980958 0.679779 0.757686
Si Si7 0.747296 0.179097 0.238255
O O1 0.666132 0.196786 0.960700
O O2 0.872730 0.247245 0.843403
O O3 0.798291 0.000000 0.926248
O O4 0.750000 0.250000 0.000000
O O5 0.810943 0.500000 0.294397
O O6 0.709581 0.742894 0.394695
O O7 0.918813 0.734408 0.268397
O O8 0.819370 0.764202 0.242506
O O9 0.930586 0.782650 0.445801
O O10 0.996732 0.728693 0.313894
O O11 0.136246 0.771451 0.306277
O O12 0.029869 0.000000 0.332017
O O13 0.000000 0.254086 0.500000
O O14 0.091630 0.000000 0.471985
O O15 0.690282 0.713314 0.851602
O O16 0.638275 0.000000 0.901167
O O17 0.500000 0.774217 0.000000
O O18 0.966613 0.500000 0.768252
O O19 0.723573 0.000000 0.255940
#
# Coordination Sequence:
#
# PCOD8111847 Si02
#       7
#     8   8   8   8   8   8   8
#     4  11  24  42  65  90 123 163 201 248 303 361
#     4  10  22  41  63  88 122 165 207 249 303 363
#     4  11  21  38  65  89 119 164 208 250 303 362
#     4   9  17  34  62  90 116 156 210 254 297 360
#     4  10  23  43  66  91 119 158 204 246 299 363
#     4  11  24  41  62  90 126 163 203 250 304 365
#     4  12  24  38  61  93 126 159 202 253 304 356
#
# _framework density 19.817515
#
# number of rings (size 3 to 8) (size 9 to 14) (size 15 to 20)
#    0.000    1.429    2.857    2.571    2.000    2.571 
#    0.000    2.143    0.000    0.000    0.000    0.000 
#    0.000    0.000    0.000    0.000    0.000    0.000 
#
# Total GULP energy -347316.029433 kJ/mol
# GULP energy per Si atom -12404.143908 kJ/mol
# Density = 1.977241 g / cm^3
# Si number density = 19.817515 Si / 1000 Ang^3
#
#
#
# Elastic Constant Matrix: (Units=GPa)
#
#
# Indices 1 2 3 4 5 6 
#
# 1 126.7009 35.1624 31.9360 -0.0003 2.3998 0.0018
# 2 35.1624 58.6328 27.1496 -0.0005 1.0147 0.0027
# 3 31.9360 27.1496 72.9996 0.0000 1.9092 0.0000
# 4 -0.0003 -0.0005 0.0000 20.4930 -0.0001 9.0488
# 5 2.3998 1.0147 1.9092 -0.0001 34.8169 -0.0009
# 6 0.0018 0.0027 0.0000 9.0488 -0.0009 30.6476
#
#
#
# Elastic Compliance Matrix: (Units=1/GPa)
#
#
# Indices 1 2 3 4 5 6 
#
# 1 0.009852 -0.004724 -0.002543 0.000000 -0.000402 0.000000
# 2 -0.004724 0.022870 -0.006439 0.000001 0.000012 -0.000002
# 3 -0.002543 -0.006439 0.017221 -0.000001 -0.000581 0.000001
# 4 0.000000 0.000001 -0.000001 0.056113 0.000000 -0.016567
# 5 -0.000402 0.000012 -0.000581 0.000000 0.028781 0.000001
# 6 0.000000 -0.000002 0.000001 -0.016567 0.000001 0.037520
#
#
# Mechanical properties :
#
#
# Convention : Reuss Voigt Hill
#
# Bulk Modulus (GPa) = 44.38305 49.64770 47.01538
# Shear Modulus (GPa) = 24.12204 28.13052 26.12628
#
# Velocity S-wave (km/s) = 3.49264 3.77168 3.63484
# Velocity P-wave (km/s) = 6.22167 6.63885 6.43364
#
# Compressibility (1/GPa) = 0.02253112
#
# Stress axis : x y z
#
# Youngs Moduli (GPa) = 101.50063 43.72586 58.06823
#
# Poissons Ratio (x) = 0.20656 0.14765
# Poissons Ratio (y) = 0.47950 0.37391
# Poissons Ratio (z) = 0.25808 0.28156
#
# Static dielectric constant tensor:
#      x y z
#    x 3.747580 0.000000 -0.032240 
#    y 0.000000 3.469790 0.000000 
#    z -0.032240 0.000000 3.743210 
# 
# 
# High freq. dielectric constant tensor:
#      x y z
#    x 1.783100 0.000000 0.004710 
#    y 0.000000 1.760510 0.000000 
#    z 0.004710 0.000000 1.779670 
# 
# From -- ./inp_files/362992.got.cif
#   From: 2010.06.25/outbox.cif.g09.slc.cpg/sg12_182_cif.got.tgz:362992.got - 2010.06.28 00:19:55.
