data_PCOD8111935
_publ_section_title
;
Structure prediction by ZEFSAII (Michael W. Deem and Ramdas Pophale) SiO2 
 PCOD8111935
Probable space group: C 2/M
;
_chemical_formula_sum "Si O2"
_cell_formula_units_Z 64
_cell_length_a 30.916728
_cell_length_b 20.112508
_cell_length_c 15.390887
_cell_angle_alpha 90.000000
_cell_angle_beta 18.187762
_cell_angle_gamma 90.000000
_cell_volume 2987.182145
_symmetry_space_group_name_H-M "C 2/M"
_symmetry_group_IT_number 12
_symmetry_cell_setting 'monoclinic'
loop_
_space_group_symop_operation_xyz
x,y,z
-x,y,-z
-x,-y,-z
x,-y,z
1/2+x,1/2+y,z
1/2-x,1/2+y,-z
1/2-x,1/2-y,-z
1/2+x,1/2-y,z
loop_
_atom_site_type_symbol
_atom_site_label
_atom_site_fract_x
_atom_site_fract_y
_atom_site_fract_z
Si Si1 0.649778 0.424545 0.027456
Si Si2 0.943003 0.571137 0.013354
Si Si3 0.502552 0.314377 0.591052
Si Si4 0.341934 0.925336 0.823680
Si Si5 0.596016 0.199635 0.985704
Si Si6 0.689211 0.801457 0.996211
Si Si7 0.266274 0.072512 0.614888
Si Si8 0.718687 0.789585 0.472547
O O1 0.590875 0.500000 0.143781
O O2 0.762994 0.411886 0.884981
O O3 0.719378 0.410572 0.801817
O O4 0.528652 0.370764 0.276637
O O5 0.863310 0.500000 0.165547
O O6 0.844550 0.631499 0.171963
O O7 0.000000 0.586708 0.000000
O O8 0.067127 0.568016 0.705947
O O9 0.500000 0.347794 0.500000
O O10 0.651718 0.282334 0.329932
O O11 0.384329 0.257169 0.809401
O O12 0.500000 0.915917 0.500000
O O13 0.310844 0.000000 0.918375
O O14 0.300575 0.871771 0.974525
O O15 0.595134 0.191502 0.090263
O O16 0.698677 0.258348 0.765088
O O17 0.443504 0.213692 0.239148
O O18 0.225901 0.133621 0.627598
O O19 0.205359 0.000000 0.700936
O O20 0.750000 0.750000 0.500000
#
# Coordination Sequence:
#
# PCOD8111935 Si02
#       8
#     8   8   8   8   8   8   8   8
#     4  10  22  41  64  92 128 175 227 274 332 394
#     4   9  18  35  60  91 124 159 202 252 318 389
#     4  12  25  43  63  90 127 176 223 277 330 393
#     4  10  23  39  61  92 130 174 224 277 327 389
#     4  11  23  38  61  91 124 160 204 261 317 379
#     4  12  26  41  63  93 130 172 224 272 337 397
#     4   9  19  36  62  92 124 166 214 263 315 384
#     4  11  22  40  64  92 124 161 205 259 324 391
#
# _framework density 21.424873000000002
#
# number of rings (size 3 to 8) (size 9 to 14) (size 15 to 20)
#    0.000    1.500    1.250    4.125    5.250    1.250 
#    0.000    0.000    0.000    2.250    0.000    0.000 
#    0.000    0.000    0.000    0.000    0.000    0.000 
#
# Total GULP energy -396604.251333 kJ/mol
# GULP energy per Si atom -12393.882854 kJ/mol
# Density = 2.137611 g / cm^3
# Si number density = 21.424873 Si / 1000 Ang^3
#
#
#
# Elastic Constant Matrix: (Units=GPa)
#
#
# Indices 1 2 3 4 5 6 
#
# 1 94.6123 41.4089 31.7821 -0.0016 11.1203 0.0025
# 2 41.4089 164.0065 45.2196 -0.0001 10.2068 0.0006
# 3 31.7821 45.2196 97.2036 -0.0011 1.5135 0.0010
# 4 -0.0016 -0.0001 -0.0011 27.7226 -0.0022 6.4407
# 5 11.1203 10.2068 1.5135 -0.0022 31.8854 0.0001
# 6 0.0025 0.0006 0.0010 6.4407 0.0001 30.1750
#
#
#
# Elastic Compliance Matrix: (Units=1/GPa)
#
#
# Indices 1 2 3 4 5 6 
#
# 1 0.013029 -0.002181 -0.003188 0.000001 -0.003695 -0.000001
# 2 -0.002181 0.007501 -0.002753 0.000000 -0.001510 0.000000
# 3 -0.003188 -0.002753 0.012589 0.000000 0.001396 0.000000
# 4 0.000001 0.000000 0.000000 0.037954 0.000003 -0.008101
# 5 -0.003695 -0.001510 0.001396 0.000003 0.033068 0.000000
# 6 -0.000001 0.000000 0.000000 -0.008101 0.000000 0.034869
#
#
# Mechanical properties :
#
#
# Convention : Reuss Voigt Hill
#
# Bulk Modulus (GPa) = 59.25707 65.84931 62.55319
# Shear Modulus (GPa) = 31.07938 33.78405 32.43172
#
# Velocity S-wave (km/s) = 3.81283 3.97528 3.89490
# Velocity P-wave (km/s) = 6.86307 7.20223 7.03470
#
# Compressibility (1/GPa) = 0.01687562
#
# Stress axis : x y z
#
# Youngs Moduli (GPa) = 76.75161 133.31719 79.43432
#
# Poissons Ratio (x) = 0.29072 0.25324
# Poissons Ratio (y) = 0.16737 0.21868
# Poissons Ratio (z) = 0.24469 0.36702
#
# Static dielectric constant tensor:
#      x y z
#    x 3.728270 -0.000010 0.129640 
#    y -0.000010 4.484630 0.000010 
#    z 0.129640 0.000010 3.928850 
# 
# 
# High freq. dielectric constant tensor:
#      x y z
#    x 1.824710 0.000000 0.025350 
#    y 0.000000 1.864520 0.000000 
#    z 0.025350 0.000000 1.825140 
# 
# From -- ./inp_files/251904.got.cif
#   From: 2010.06.25/outbox.cif.g09.slc.cpg/sg12_126_cif.got.tgz:251904.got - 2010.06.28 00:19:55.
