data_PCOD8111228
_publ_section_title
;
Structure prediction by ZEFSAII (Michael W. Deem and Ramdas Pophale) SiO2 
 PCOD8111228
Probable space group: C 2/M
;
_chemical_formula_sum "Si O2"
_cell_formula_units_Z 64
_cell_length_a 19.333096
_cell_length_b 14.254682
_cell_length_c 15.180648
_cell_angle_alpha 90.000000
_cell_angle_beta 133.697626
_cell_angle_gamma 90.000000
_cell_volume 3024.718818
_symmetry_space_group_name_H-M "C 2/M"
_symmetry_group_IT_number 12
_symmetry_cell_setting 'monoclinic'
loop_
_space_group_symop_operation_xyz
x,y,z
-x,y,-z
-x,-y,-z
x,-y,z
1/2+x,1/2+y,z
1/2-x,1/2+y,-z
1/2-x,1/2-y,-z
1/2+x,1/2-y,z
loop_
_atom_site_type_symbol
_atom_site_label
_atom_site_fract_x
_atom_site_fract_y
_atom_site_fract_z
Si Si1 0.172603 0.896339 0.767367
Si Si2 0.966713 0.274125 0.794583
Si Si3 0.800614 0.606786 0.597935
Si Si4 0.102305 0.828349 0.110068
Si Si5 0.144684 0.796209 0.568971
Si Si6 0.677485 0.221592 0.013372
Si Si7 0.770539 0.396090 0.374704
Si Si8 0.020073 0.892979 0.316059
O O1 0.132035 0.827681 0.657554
O O2 0.275045 0.865417 0.894407
O O3 0.094706 0.896096 0.777023
O O4 0.184212 0.000000 0.737259
O O5 0.906215 0.348187 0.684143
O O6 0.928430 0.265581 0.861515
O O7 0.954963 0.167908 0.747293
O O8 0.075900 0.310086 0.883703
O O9 0.809094 0.500000 0.637046
O O10 0.745944 0.667465 0.622145
O O11 0.744699 0.615424 0.455900
O O12 0.156551 0.803509 0.066596
O O13 0.175054 0.889833 0.231943
O O14 0.000000 0.880968 0.000000
O O15 0.149566 0.682623 0.576734
O O16 0.060060 0.839875 0.437313
O O17 0.750000 0.250000 0.000000
O O18 0.815324 0.500000 0.399288
O O19 0.061368 0.000000 0.345197
#
# Coordination Sequence:
#
# PCOD8111228 Si02
#       8
#     8   8   8   8   8   8   8   8
#     4  11  23  40  64  94 122 163 217 264 315 381
#     4  11  21  39  63  92 128 167 209 258 317 371
#     4  11  22  37  62  96 127 164 209 254 315 384
#     4  10  22  39  62  92 122 162 211 260 310 372
#     4  12  21  40  63  90 131 166 199 263 329 372
#     4  11  22  41  65  86 123 172 208 258 317 372
#     4  11  22  37  61  92 127 166 208 252 313 384
#     4  11  23  38  63  97 127 162 211 261 319 381
#
# _framework density 21.158991
#
# number of rings (size 3 to 8) (size 9 to 14) (size 15 to 20)
#    0.000    1.000    5.000    2.625    0.000    3.250 
#    0.000    2.500    0.000    6.000    0.000    0.000 
#    0.000    0.000    0.000    0.000    0.000    0.000 
#
# Total GULP energy -396667.564689 kJ/mol
# GULP energy per Si atom -12395.861397 kJ/mol
# Density = 2.111083 g / cm^3
# Si number density = 21.158991 Si / 1000 Ang^3
#
#
#
# Elastic Constant Matrix: (Units=GPa)
#
#
# Indices 1 2 3 4 5 6 
#
# 1 98.7615 30.0740 28.3807 0.0000 -3.5382 0.0000
# 2 30.0740 125.2467 29.6977 0.0000 4.6896 0.0000
# 3 28.3807 29.6977 121.1573 0.0000 14.2340 0.0000
# 4 0.0000 0.0000 0.0000 26.0606 0.0000 2.1755
# 5 -3.5382 4.6896 14.2340 0.0000 36.6506 0.0000
# 6 0.0000 0.0000 0.0000 2.1755 0.0000 18.6542
#
#
#
# Elastic Compliance Matrix: (Units=1/GPa)
#
#
# Indices 1 2 3 4 5 6 
#
# 1 0.011609 -0.002299 -0.002433 0.000000 0.002360 0.000000
# 2 -0.002299 0.008935 -0.001563 0.000000 -0.000758 0.000000
# 3 -0.002433 -0.001563 0.009651 0.000000 -0.003783 0.000000
# 4 0.000000 0.000000 0.000000 0.038749 0.000000 -0.004519
# 5 0.002360 -0.000758 -0.003783 0.000000 0.029079 0.000000
# 6 0.000000 0.000000 0.000000 -0.004519 0.000000 0.054134
#
#
# Mechanical properties :
#
#
# Convention : Reuss Voigt Hill
#
# Bulk Modulus (GPa) = 56.79823 57.94115 57.36969
# Shear Modulus (GPa) = 29.30558 33.40728 31.35643
#
# Velocity S-wave (km/s) = 3.72562 3.97781 3.85378
# Velocity P-wave (km/s) = 6.73861 6.96710 6.85380
#
# Compressibility (1/GPa) = 0.01760618
#
# Stress axis : x y z
#
# Youngs Moduli (GPa) = 86.13835 111.91727 103.61458
#
# Poissons Ratio (x) = 0.25730 0.25211
# Poissons Ratio (y) = 0.19803 0.16190
# Poissons Ratio (z) = 0.20959 0.17487
#
# Static dielectric constant tensor:
#      x y z
#    x 3.686170 0.000000 0.040280 
#    y 0.000000 3.717750 0.000000 
#    z 0.040280 0.000000 4.041820 
# 
# 
# High freq. dielectric constant tensor:
#      x y z
#    x 1.819000 0.000000 0.000860 
#    y 0.000000 1.807710 0.000000 
#    z 0.000860 0.000000 1.844860 
# 
# From -- ./inp_files/225758.got.cif
#   From: 2010.06.25/outbox.cif.g09.slc.cpg/sg12_113_cif.got.tgz:225758.got - 2010.06.28 00:19:55.
