data_PCOD8111060
_publ_section_title
;
Structure prediction by ZEFSAII (Michael W. Deem and Ramdas Pophale) SiO2 
 PCOD8111060
Probable space group: C 2/M
;
_chemical_formula_sum "Si O2"
_cell_formula_units_Z 40
_cell_length_a 14.058956
_cell_length_b 22.693058
_cell_length_c 9.020475
_cell_angle_alpha 90.000000
_cell_angle_beta 41.247967
_cell_angle_gamma 90.000000
_cell_volume 1897.453685
_symmetry_space_group_name_H-M "C 2/M"
_symmetry_group_IT_number 12
_symmetry_cell_setting 'monoclinic'
loop_
_space_group_symop_operation_xyz
x,y,z
-x,y,-z
-x,-y,-z
x,-y,z
1/2+x,1/2+y,z
1/2-x,1/2+y,-z
1/2-x,1/2-y,-z
1/2+x,1/2-y,z
loop_
_atom_site_type_symbol
_atom_site_label
_atom_site_fract_x
_atom_site_fract_y
_atom_site_fract_z
Si Si1 0.764470 0.435485 0.517928
Si Si2 0.144886 0.260098 0.417199
Si Si3 0.034148 0.934407 0.296018
Si Si4 0.627820 0.176077 0.740820
Si Si5 0.651513 0.638726 0.904979
O O1 0.837814 0.500000 0.443525
O O2 0.609106 0.441540 0.629278
O O3 0.863448 0.393722 0.300106
O O4 0.744627 0.408901 0.704869
O O5 0.221600 0.198151 0.364839
O O6 0.096617 0.290414 0.625549
O O7 0.255909 0.301237 0.194551
O O8 0.000000 0.245533 0.500000
O O9 0.000000 0.909959 0.500000
O O10 0.106905 0.000000 0.221702
O O11 0.134060 0.887314 0.091510
O O12 0.500000 0.190633 0.000000
O O13 0.500000 0.652587 0.000000
#
# Coordination Sequence:
#
# PCOD8111060 Si02
#       5
#     8   8   8   8   8
#     4   9  18  33  54  80 111 149 187 224 276 336
#     4  10  22  39  59  83 111 147 190 235 286 339
#     4   9  17  29  50  83 116 145 184 230 273 325
#     4  10  22  39  58  83 113 145 188 238 283 335
#     4   9  17  33  58  82 112 149 186 226 275 335
#
# _framework density 21.080883
#
# number of rings (size 3 to 8) (size 9 to 14) (size 15 to 20)
#    0.000    2.600    0.000    1.200    0.000    7.600 
#    0.000    0.000    0.000   15.000    0.000    0.000 
#    0.000    0.000    0.000    0.000    0.000    0.000 
#
# Total GULP energy -247949.105388 kJ/mol
# GULP energy per Si atom -12397.455269 kJ/mol
# Density = 2.103290 g / cm^3
# Si number density = 21.080883 Si / 1000 Ang^3
#
#
#
# Elastic Constant Matrix: (Units=GPa)
#
#
# Indices 1 2 3 4 5 6 
#
# 1 84.0999 27.1049 30.1263 0.0000 3.4734 0.0000
# 2 27.1049 92.0796 40.5427 0.0000 7.2816 0.0000
# 3 30.1263 40.5427 117.7120 0.0000 21.0255 0.0000
# 4 0.0000 0.0000 0.0000 -15.1083 0.0000 -10.4646
# 5 3.4734 7.2816 21.0255 0.0000 32.0753 0.0000
# 6 0.0000 0.0000 0.0000 -10.4646 0.0000 9.7351
#
#
#
# Elastic Compliance Matrix: (Units=1/GPa)
#
#
# Indices 1 2 3 4 5 6 
#
# 1 0.013759 -0.002947 -0.002673 0.000000 0.000931 0.000000
# 2 -0.002947 0.013433 -0.003833 0.000000 -0.000217 0.000000
# 3 -0.002673 -0.003833 0.011657 0.000000 -0.006482 0.000000
# 4 0.000000 0.000000 0.000000 -0.037940 0.000000 -0.040784
# 5 0.000931 -0.000217 -0.006482 0.000000 0.035374 0.000000
# 6 0.000000 0.000000 0.000000 -0.040784 0.000000 0.058881
#
#
# Mechanical properties :
#
#
# Convention : Reuss Voigt Hill
#
# Bulk Modulus (GPa) = 50.14272 54.38215 52.26244
# Shear Modulus (GPa) = 41.41869 18.41494 29.91681
#
# Velocity S-wave (km/s) = 4.43736 2.95877 3.77124
# Velocity P-wave (km/s) = 7.07750 6.12579 6.61878
#
# Compressibility (1/GPa) = 0.01994307
#
# Stress axis : x y z
#
# Youngs Moduli (GPa) = 72.67745 74.44491 85.78217
#
# Poissons Ratio (x) = 0.21940 0.22927
# Poissons Ratio (y) = 0.21419 0.32884
# Poissons Ratio (z) = 0.19425 0.28538
#
# Static dielectric constant tensor:
#      x y z
#    x 3.481100 0.000000 0.256600 
#    y 0.000000 4.195630 0.000000 
#    z 0.256600 0.000000 3.813160 
# 
# 
# High freq. dielectric constant tensor:
#      x y z
#    x 1.794280 0.000000 0.020090 
#    y 0.000000 1.836220 0.000000 
#    z 0.020090 0.000000 1.820320 
# 
# From -- ./inp_files/65077.got.cif
#   From: 2010.06.25/outbox.cif.g09.slc.cpg/sg12_33_cif.got.tgz:65077.got - 2010.06.28 00:19:55.
