data_PCOD8111841
_publ_section_title
;
Structure prediction by ZEFSAII (Michael W. Deem and Ramdas Pophale) SiO2 
 PCOD8111841
Probable space group: C 2/M
;
_chemical_formula_sum "Si O2"
_cell_formula_units_Z 28
_cell_length_a 8.678031
_cell_length_b 32.736333
_cell_length_c 5.091936
_cell_angle_alpha 90.000000
_cell_angle_beta 113.871992
_cell_angle_gamma 90.000000
_cell_volume 1322.802559
_symmetry_space_group_name_H-M "C 2/M"
_symmetry_group_IT_number 12
_symmetry_cell_setting 'monoclinic'
loop_
_space_group_symop_operation_xyz
x,y,z
-x,y,-z
-x,-y,-z
x,-y,z
1/2+x,1/2+y,z
1/2-x,1/2+y,-z
1/2-x,1/2-y,-z
1/2+x,1/2-y,z
loop_
_atom_site_type_symbol
_atom_site_label
_atom_site_fract_x
_atom_site_fract_y
_atom_site_fract_z
Si Si1 0.884470 0.000000 0.673879
Si Si2 0.887072 0.216672 0.173107
Si Si3 0.698026 0.083209 0.635303
Si Si4 0.300486 0.133033 0.859655
O O1 0.769387 0.960412 0.608376
O O2 0.000000 0.000000 0.500000
O O3 0.000000 0.000000 0.000000
O O4 0.790600 0.175741 0.178852
O O5 0.000000 0.231401 0.500000
O O6 0.750000 0.250000 0.000000
O O7 0.000000 0.207901 0.000000
O O8 0.500000 0.077862 0.500000
O O9 0.758395 0.115207 0.458413
O O10 0.758124 0.100897 0.956832
O O11 0.500000 0.140635 0.000000
#
# Coordination Sequence:
#
# PCOD8111841 Si02
#       4
#     4   8   8   8
#     4  12  25  38  59  90 124 158 202 258 305 356
#     4  12  26  43  66  95 129 168 208 258 313 373
#     4  10  22  41  63  87 121 164 204 248 307 374
#     4  10  22  41  65  91 121 160 207 255 307 369
#
# _framework density 21.167183000000001
#
# number of rings (size 3 to 8) (size 9 to 14) (size 15 to 20)
#    0.000    1.143    0.000    5.571    0.000   10.286 
#    0.000    5.714    0.000    0.000    0.000    0.000 
#    0.000    0.000    0.000    0.000    0.000    0.000 
#
# Total GULP energy -173642.590888 kJ/mol
# GULP energy per Si atom -12403.042206 kJ/mol
# Density = 2.111901 g / cm^3
# Si number density = 21.167183 Si / 1000 Ang^3
#
#
#
# Elastic Constant Matrix: (Units=GPa)
#
#
# Indices 1 2 3 4 5 6 
#
# 1 103.2142 94.8615 59.7345 0.0000 -37.9291 0.0000
# 2 94.8615 172.3697 47.9099 0.0000 0.8267 0.0000
# 3 59.7345 47.9099 135.5258 0.0000 -21.4999 0.0000
# 4 0.0000 0.0000 0.0000 27.8093 0.0000 -2.1535
# 5 -37.9291 0.8267 -21.4999 0.0000 32.3881 0.0000
# 6 0.0000 0.0000 0.0000 -2.1535 0.0000 30.3879
#
#
#
# Elastic Compliance Matrix: (Units=1/GPa)
#
#
# Indices 1 2 3 4 5 6 
#
# 1 0.201031 -0.107780 -0.014218 0.000000 0.228737 0.000000
# 2 -0.107780 0.064321 0.005011 0.000000 -0.124535 0.000000
# 3 -0.014218 0.005011 0.010297 0.000000 -0.009943 0.000000
# 4 0.000000 0.000000 0.000000 0.036158 0.000000 0.002562
# 5 0.228737 -0.124535 -0.009943 0.000000 0.295323 0.000000
# 6 0.000000 0.000000 0.000000 0.002562 0.000000 0.033089
#
#
# Mechanical properties :
#
#
# Convention : Reuss Voigt Hill
#
# Bulk Modulus (GPa) = 23.99583 90.68015 57.33799
# Shear Modulus (GPa) = 5.63008 32.02398 18.82703
#
# Velocity S-wave (km/s) = 1.63266 3.89383 2.98559
# Velocity P-wave (km/s) = 3.86200 7.94663 6.24756
#
# Compressibility (1/GPa) = 0.04167392
#
# Stress axis : x y z
#
# Youngs Moduli (GPa) = 4.97435 15.54693 97.11739
#
# Poissons Ratio (x) = 1.67565 1.38085
# Poissons Ratio (y) = 0.53614 -0.48661
# Poissons Ratio (z) = 0.07073 -0.07790
#
# Static dielectric constant tensor:
#      x y z
#    x 4.482730 0.000000 -0.323730 
#    y 0.000000 3.689010 0.000000 
#    z -0.323730 0.000000 4.295530 
# 
# 
# High freq. dielectric constant tensor:
#      x y z
#    x 1.849910 0.000000 -0.010150 
#    y 0.000000 1.841820 0.000000 
#    z -0.010150 0.000000 1.843120 
# 
# From -- ./inp_files/3663.got.cif
#   From: 2010.06.25/outbox.cif.g09.slc.cpg/sg12_2_cif.got.tgz:3663.got - 2010.06.28 00:19:55.
