data_PCOD8111320
_publ_section_title
;
Structure prediction by ZEFSAII (Michael W. Deem and Ramdas Pophale) SiO2 
 PCOD8111320
Probable space group: C 2/M
;
_chemical_formula_sum "Si O2"
_cell_formula_units_Z 44
_cell_length_a 15.823365
_cell_length_b 14.952035
_cell_length_c 23.496659
_cell_angle_alpha 90.000000
_cell_angle_beta 157.880861
_cell_angle_gamma 90.000000
_cell_volume 2093.192459
_symmetry_space_group_name_H-M "C 2/M"
_symmetry_group_IT_number 12
_symmetry_cell_setting 'monoclinic'
loop_
_space_group_symop_operation_xyz
x,y,z
-x,y,-z
-x,-y,-z
x,-y,z
1/2+x,1/2+y,z
1/2-x,1/2+y,-z
1/2-x,1/2-y,-z
1/2+x,1/2-y,z
loop_
_atom_site_type_symbol
_atom_site_label
_atom_site_fract_x
_atom_site_fract_y
_atom_site_fract_z
Si Si1 0.836058 0.500000 0.567469
Si Si2 0.251290 0.000000 0.680793
Si Si3 0.000000 0.651797 0.000000
Si Si4 0.470447 0.140372 0.742161
Si Si5 0.902357 0.217533 0.042580
Si Si6 0.681583 0.000000 0.565007
Si Si7 0.235874 0.816442 0.343257
Si Si8 0.186219 0.000000 0.771723
O O1 0.893931 0.589569 0.637673
O O2 0.955141 0.500000 0.580370
O O3 0.578369 0.500000 0.387502
O O4 0.381540 0.088080 0.741814
O O5 0.000000 0.000000 0.500000
O O6 0.260902 0.000000 0.753441
O O7 0.975119 0.709483 0.041711
O O8 0.780587 0.589370 0.859886
O O9 0.743273 0.144216 0.911951
O O10 0.363901 0.239077 0.678325
O O11 0.750000 0.250000 0.000000
O O12 0.127404 0.179500 0.212157
O O13 0.500000 0.000000 0.500000
O O14 0.825104 0.909138 0.662504
O O15 0.500000 0.800803 0.500000
#
# Coordination Sequence:
#
# PCOD8111320 Si02
#       8
#     4   4   4   8   8   4   8   4
#     4  11  25  39  65 101 132 167 225 267 340 396
#     4  11  19  40  67 104 136 168 218 269 339 400
#     4  11  26  42  64  99 138 178 222 277 346 397
#     4  10  22  39  67 100 133 169 215 278 331 394
#     4  10  23  42  63  97 131 172 225 264 337 400
#     4  10  25  44  58  90 124 171 229 265 326 390
#     4  10  22  41  69  90 126 178 222 271 328 395
#     4  11  23  40  65  98 143 167 214 288 332 406
#
# _framework density 21.020523000000001
#
# number of rings (size 3 to 8) (size 9 to 14) (size 15 to 20)
#    0.000    1.636    1.818    2.727    7.636    5.091 
#    0.000    0.000    0.000    7.091    0.000    0.000 
#    0.000    0.000    0.000    0.000    0.000    0.000 
#
# Total GULP energy -272686.600848 kJ/mol
# GULP energy per Si atom -12394.845493 kJ/mol
# Density = 2.097268 g / cm^3
# Si number density = 21.020523 Si / 1000 Ang^3
#
#
#
# Elastic Constant Matrix: (Units=GPa)
#
#
# Indices 1 2 3 4 5 6 
#
# 1 92.7252 39.0892 30.0456 -0.0339 -23.7590 -0.0136
# 2 39.0892 158.3505 59.8412 -0.0291 -15.8559 -0.0119
# 3 30.0456 59.8412 174.6384 -0.0084 -3.3850 0.0272
# 4 -0.0339 -0.0291 -0.0084 24.2208 -0.0017 -11.6197
# 5 -23.7590 -15.8559 -3.3850 -0.0017 41.5813 0.0026
# 6 -0.0136 -0.0119 0.0272 -11.6197 0.0026 11.7420
#
#
#
# Elastic Compliance Matrix: (Units=1/GPa)
#
#
# Indices 1 2 3 4 5 6 
#
# 1 0.014001 -0.002173 -0.001528 0.000047 0.007047 0.000062
# 2 -0.002173 0.007876 -0.002294 0.000020 0.001575 0.000031
# 3 -0.001528 -0.002294 0.006752 -0.000023 -0.001198 -0.000042
# 4 0.000047 0.000020 -0.000023 0.078604 0.000031 0.077785
# 5 0.007047 0.001575 -0.001198 0.000031 0.028579 0.000037
# 6 0.000062 0.000031 -0.000042 0.077785 0.000037 0.162140
#
#
# Mechanical properties :
#
#
# Convention : Reuss Voigt Hill
#
# Bulk Modulus (GPa) = 60.09988 75.96291 68.03140
# Shear Modulus (GPa) = 15.84841 35.29136 25.56988
#
# Velocity S-wave (km/s) = 2.74879 4.10188 3.49151
# Velocity P-wave (km/s) = 6.22315 7.65832 6.97773
#
# Compressibility (1/GPa) = 0.01663897
#
# Stress axis : x y z
#
# Youngs Moduli (GPa) = 71.42119 126.96176 148.10582
#
# Poissons Ratio (x) = 0.27593 0.22624
# Poissons Ratio (y) = 0.15522 0.33982
# Poissons Ratio (z) = 0.10910 0.29131
#
# Static dielectric constant tensor:
#      x y z
#    x 3.752500 0.000010 -0.156460 
#    y 0.000010 4.401420 -0.000130 
#    z -0.156460 -0.000130 4.424710 
# 
# 
# High freq. dielectric constant tensor:
#      x y z
#    x 1.818750 0.000000 -0.008810 
#    y 0.000000 1.826750 -0.000020 
#    z -0.008810 -0.000020 1.834940 
# 
# From -- ./inp_files/344173.got.cif
#   From: 2010.06.25/outbox.cif.g09.slc.cpg/sg12_173_cif.got.tgz:344173.got - 2010.06.28 00:19:55.
