data_PCOD8111910
_publ_section_title
;
Structure prediction by ZEFSAII (Michael W. Deem and Ramdas Pophale) SiO2 
 PCOD8111910
Probable space group: C 2/M
;
_chemical_formula_sum "Si O2"
_cell_formula_units_Z 40
_cell_length_a 18.917315
_cell_length_b 8.911355
_cell_length_c 24.629375
_cell_angle_alpha 90.000000
_cell_angle_beta 28.487674
_cell_angle_gamma 90.000000
_cell_volume 1980.374901
_symmetry_space_group_name_H-M "C 2/M"
_symmetry_group_IT_number 12
_symmetry_cell_setting 'monoclinic'
loop_
_space_group_symop_operation_xyz
x,y,z
-x,y,-z
-x,-y,-z
x,-y,z
1/2+x,1/2+y,z
1/2-x,1/2+y,-z
1/2-x,1/2-y,-z
1/2+x,1/2-y,z
loop_
_atom_site_type_symbol
_atom_site_label
_atom_site_fract_x
_atom_site_fract_y
_atom_site_fract_z
Si Si1 0.070178 0.326374 0.510038
Si Si2 0.878354 0.673683 0.317629
Si Si3 0.622643 0.831105 0.962482
Si Si4 0.903755 0.823777 0.911834
Si Si5 0.089369 0.329184 0.272412
O O1 0.119924 0.500000 0.474495
O O2 0.209123 0.224079 0.430904
O O3 0.000000 0.276595 0.500000
O O4 0.949570 0.299277 0.638551
O O5 0.888949 0.500000 0.294262
O O6 0.965686 0.769627 0.214642
O O7 0.945705 0.702508 0.331937
O O8 0.780021 0.780419 0.832929
O O9 0.642864 0.000000 0.971262
O O10 0.500000 0.824646 0.000000
O O11 0.560993 0.722545 0.050617
O O12 0.888695 0.000000 0.917243
O O13 0.750000 0.750000 0.000000
O O14 0.143342 0.500000 0.227562
#
# Coordination Sequence:
#
# PCOD8111910 Si02
#       5
#     8   8   8   8   8
#     4  10  23  42  63  92 125 163 212 263 316 374
#     4  11  23  40  64  93 125 166 212 260 312 374
#     4  11  25  42  63  95 131 168 210 259 314 376
#     4  12  24  41  66  95 128 167 210 259 314 375
#     4  10  22  41  64  90 124 169 214 256 311 376
#
# _framework density 20.198195999999999
#
# number of rings (size 3 to 8) (size 9 to 14) (size 15 to 20)
#    0.000    1.200    2.000    3.600    2.800    3.600 
#    0.000    0.000    0.000    0.000    0.000    0.000 
#    0.000    0.000    0.000    0.000    0.000    0.000 
#
# Total GULP energy -248103.658875 kJ/mol
# GULP energy per Si atom -12405.182944 kJ/mol
# Density = 2.015222 g / cm^3
# Si number density = 20.198196 Si / 1000 Ang^3
#
#
#
# Elastic Constant Matrix: (Units=GPa)
#
#
# Indices 1 2 3 4 5 6 
#
# 1 114.1559 48.4289 35.3691 0.0005 11.0941 0.0001
# 2 48.4289 127.4535 36.5702 0.0005 -0.0887 -0.0001
# 3 35.3691 36.5702 64.0134 0.0016 10.0274 0.0005
# 4 0.0005 0.0005 0.0016 52.4596 -0.0002 -1.5872
# 5 11.0941 -0.0887 10.0274 -0.0002 39.8988 -0.0001
# 6 0.0001 -0.0001 0.0005 -1.5872 -0.0001 29.2503
#
#
#
# Elastic Compliance Matrix: (Units=1/GPa)
#
#
# Indices 1 2 3 4 5 6 
#
# 1 0.011653 -0.003205 -0.004267 0.000000 -0.002175 0.000000
# 2 -0.003205 0.010344 -0.004457 0.000000 0.002034 0.000000
# 3 -0.004267 -0.004457 0.021175 -0.000001 -0.004145 0.000000
# 4 0.000000 0.000000 -0.000001 0.019094 0.000000 0.001036
# 5 -0.002175 0.002034 -0.004145 0.000000 0.026714 0.000000
# 6 0.000000 0.000000 0.000000 0.001036 0.000000 0.034244
#
#
# Mechanical properties :
#
#
# Convention : Reuss Voigt Hill
#
# Bulk Modulus (GPa) = 51.77664 60.70656 56.24160
# Shear Modulus (GPa) = 32.56889 36.67205 34.62047
#
# Velocity S-wave (km/s) = 4.01991 4.26562 4.14459
# Velocity P-wave (km/s) = 6.87286 7.37437 7.12803
#
# Compressibility (1/GPa) = 0.01931373
#
# Stress axis : x y z
#
# Youngs Moduli (GPa) = 85.81458 96.67265 47.22535
#
# Poissons Ratio (x) = 0.30984 0.20151
# Poissons Ratio (y) = 0.27504 0.21050
# Poissons Ratio (z) = 0.36616 0.43090
#
# Static dielectric constant tensor:
#      x y z
#    x 3.999950 0.000000 0.240840 
#    y 0.000000 3.795330 0.000000 
#    z 0.240840 0.000000 3.563330 
# 
# 
# High freq. dielectric constant tensor:
#      x y z
#    x 1.801870 0.000000 0.007020 
#    y 0.000000 1.796310 0.000000 
#    z 0.007020 0.000000 1.791770 
# 
# From -- ./inp_files/151712.got.cif
#   From: 2010.06.25/outbox.cif.g09.slc.cpg/sg12_76_cif.got.tgz:151712.got - 2010.06.28 00:19:55.
