data_PCOD8111192
_publ_section_title
;
Structure prediction by ZEFSAII (Michael W. Deem and Ramdas Pophale) SiO2 
 PCOD8111192
Probable space group: C 2/M
;
_chemical_formula_sum "Si O2"
_cell_formula_units_Z 44
_cell_length_a 26.963405
_cell_length_b 14.934872
_cell_length_c 5.141366
_cell_angle_alpha 90.000000
_cell_angle_beta 77.761885
_cell_angle_gamma 90.000000
_cell_volume 2023.352702
_symmetry_space_group_name_H-M "C 2/M"
_symmetry_group_IT_number 12
_symmetry_cell_setting 'monoclinic'
loop_
_space_group_symop_operation_xyz
x,y,z
-x,y,-z
-x,-y,-z
x,-y,z
1/2+x,1/2+y,z
1/2-x,1/2+y,-z
1/2-x,1/2-y,-z
1/2+x,1/2-y,z
loop_
_atom_site_type_symbol
_atom_site_label
_atom_site_fract_x
_atom_site_fract_y
_atom_site_fract_z
Si Si1 0.119986 0.277526 0.163006
Si Si2 0.768371 0.148357 0.469955
Si Si3 0.384942 0.337039 0.340015
Si Si4 0.463492 0.500000 0.288916
Si Si5 0.971722 0.605775 0.782477
Si Si6 0.213134 0.597680 0.033939
O O1 0.103599 0.238780 0.459296
O O2 0.085757 0.363026 0.141861
O O3 0.176515 0.316827 0.104225
O O4 0.112450 0.202257 0.953080
O O5 0.750000 0.250000 0.500000
O O6 0.827708 0.130616 0.457063
O O7 0.756645 0.107763 0.201217
O O8 0.738008 0.095433 0.723440
O O9 0.426697 0.414159 0.325570
O O10 0.500000 0.500000 0.500000
O O11 0.500000 0.500000 0.000000
O O12 0.972293 0.500000 0.783108
O O13 0.000000 0.644898 0.500000
O O14 0.000000 0.646107 0.000000
O O15 0.186414 0.500000 0.100449
#
# Coordination Sequence:
#
# PCOD8111192 Si02
#       6
#     8   8   8   4   8   8
#     4  12  23  43  67 100 132 176 222 273 347 420
#     4  12  23  46  66 101 142 181 236 281 345 425
#     4  12  27  44  73  96 130 180 227 289 360 407
#     4  12  30  54  72 102 140 180 248 320 358 414
#     4  10  22  39  61  92 129 167 211 264 315 389
#     4  12  25  40  68 104 145 185 221 279 347 427
#
# _framework density 21.746086999999999
#
# number of rings (size 3 to 8) (size 9 to 14) (size 15 to 20)
#    0.000    0.364    3.636    4.909    2.545    4.364 
#    0.000    5.455    0.000    0.000    0.000    0.000 
#    0.000    0.000    0.000    0.000    0.000    0.000 
#
# Total GULP energy -272829.094070 kJ/mol
# GULP energy per Si atom -12401.322458 kJ/mol
# Density = 2.169659 g / cm^3
# Si number density = 21.746087 Si / 1000 Ang^3
#
#
#
# Elastic Constant Matrix: (Units=GPa)
#
#
# Indices 1 2 3 4 5 6 
#
# 1 142.7895 47.6176 43.8410 0.0000 2.1027 0.0000
# 2 47.6176 93.7805 31.8383 0.0000 3.8229 0.0000
# 3 43.8410 31.8383 113.6940 0.0000 13.0438 0.0000
# 4 0.0000 0.0000 0.0000 1.5481 0.0000 -19.6127
# 5 2.1027 3.8229 13.0438 0.0000 43.3752 0.0000
# 6 0.0000 0.0000 0.0000 -19.6127 0.0000 38.0635
#
#
#
# Elastic Compliance Matrix: (Units=1/GPa)
#
#
# Indices 1 2 3 4 5 6 
#
# 1 0.009013 -0.003755 -0.002498 0.000000 0.000645 0.000000
# 2 -0.003755 0.013348 -0.002254 0.000000 -0.000317 0.000000
# 3 -0.002498 -0.002254 0.010723 0.000000 -0.002905 0.000000
# 4 0.000000 0.000000 0.000000 -0.116856 0.000000 -0.060211
# 5 0.000645 -0.000317 -0.002905 0.000000 0.023925 0.000000
# 6 0.000000 0.000000 0.000000 -0.060211 0.000000 -0.004753
#
#
# Mechanical properties :
#
#
# Convention : Reuss Voigt Hill
#
# Bulk Modulus (GPa) = 62.22343 66.31753 64.27048
# Shear Modulus (GPa) = -118.39714 31.72852 -43.33431
#
# Velocity S-wave (km/s) = -7.38671 3.82389 -4.46886
# Velocity P-wave (km/s) = 6.63894 7.07522 1.72961
#
# Compressibility (1/GPa) = 0.01607112
#
# Stress axis : x y z
#
# Youngs Moduli (GPa) = 110.95248 74.91963 93.25595
#
# Poissons Ratio (x) = 0.28129 0.23295
# Poissons Ratio (y) = 0.41658 0.21017
# Poissons Ratio (z) = 0.27716 0.16885
#
# Static dielectric constant tensor:
#      x y z
#    x 4.037640 0.000000 0.136130 
#    y 0.000000 4.271950 0.000000 
#    z 0.136130 0.000000 4.256050 
# 
# 
# High freq. dielectric constant tensor:
#      x y z
#    x 1.861330 0.000000 0.010680 
#    y 0.000000 1.855440 0.000000 
#    z 0.010680 0.000000 1.871140 
# 
# From -- ./inp_files/27869.got.cif
#   From: 2010.06.25/outbox.cif.g09.slc.cpg/sg12_14_cif.got.tgz:27869.got - 2010.06.28 00:19:55.
