data_PCOD8111373
_publ_section_title
;
Structure prediction by ZEFSAII (Michael W. Deem and Ramdas Pophale) SiO2 
 PCOD8111373
Probable space group: C 2/M
;
_chemical_formula_sum "Si O2"
_cell_formula_units_Z 56
_cell_length_a 25.592386
_cell_length_b 14.554785
_cell_length_c 16.752608
_cell_angle_alpha 90.000000
_cell_angle_beta 28.863073
_cell_angle_gamma 90.000000
_cell_volume 3012.260556
_symmetry_space_group_name_H-M "C 2/M"
_symmetry_group_IT_number 12
_symmetry_cell_setting 'monoclinic'
loop_
_space_group_symop_operation_xyz
x,y,z
-x,y,-z
-x,-y,-z
x,-y,z
1/2+x,1/2+y,z
1/2-x,1/2+y,-z
1/2-x,1/2-y,-z
1/2+x,1/2-y,z
loop_
_atom_site_type_symbol
_atom_site_label
_atom_site_fract_x
_atom_site_fract_y
_atom_site_fract_z
Si Si1 0.656432 0.393322 0.254180
Si Si2 0.499896 0.895051 0.412951
Si Si3 0.450643 0.274378 0.290646
Si Si4 0.417257 0.605500 0.180094
Si Si5 0.669101 0.895567 0.489873
Si Si6 0.341837 0.195915 0.921809
Si Si7 0.446616 0.391406 0.446652
O O1 0.633316 0.500000 0.285417
O O2 0.567312 0.355033 0.309759
O O3 0.633699 0.359767 0.374838
O O4 0.779321 0.372086 0.065862
O O5 0.500000 0.845931 0.500000
O O6 0.383420 0.880797 0.527307
O O7 0.592685 0.857472 0.232468
O O8 0.529893 0.000000 0.385994
O O9 0.434854 0.326944 0.229842
O O10 0.383762 0.178121 0.378255
O O11 0.578657 0.257077 0.130464
O O12 0.407432 0.337692 0.420667
O O13 0.436831 0.500000 0.180724
O O14 0.296324 0.619791 0.309343
O O15 0.500000 0.633575 0.000000
O O16 0.644370 0.000000 0.553681
O O17 0.250000 0.250000 0.000000
O O18 0.442548 0.500000 0.434171
#
# Coordination Sequence:
#
# PCOD8111373 Si02
#       7
#     8   8   8   8   8   8   8
#     4   9  18  34  51  71 109 150 183 228 282 325
#     4   9  19  35  54  76 106 147 188 223 268 331
#     4  11  21  35  58  83 109 147 189 230 279 338
#     4  10  22  40  60  83 111 142 183 238 291 336
#     4   9  20  39  58  79 109 147 187 230 284 334
#     4  11  21  31  47  79 112 142 182 225 274 326
#     4   9  18  33  53  77 106 145 188 229 275 331
#
# _framework density 18.590689000000001
#
# number of rings (size 3 to 8) (size 9 to 14) (size 15 to 20)
#    0.000    2.286    1.429    2.143    0.000    5.143 
#    0.000    1.429    0.000    0.429    0.000    0.000 
#    0.000    0.000    0.000    0.000    0.000    0.000 
#
# Total GULP energy -347094.289027 kJ/mol
# GULP energy per Si atom -12396.224608 kJ/mol
# Density = 1.854838 g / cm^3
# Si number density = 18.590689 Si / 1000 Ang^3
#
#
#
# Elastic Constant Matrix: (Units=GPa)
#
#
# Indices 1 2 3 4 5 6 
#
# 1 118.4477 58.1429 80.0123 0.0000 8.4327 0.0000
# 2 58.1429 85.2932 53.4590 0.0000 7.5831 0.0000
# 3 80.0123 53.4590 145.2105 0.0000 0.1560 0.0000
# 4 0.0000 0.0000 0.0000 -16.3718 0.0000 -17.7262
# 5 8.4327 7.5831 0.1560 0.0000 32.6944 0.0000
# 6 0.0000 0.0000 0.0000 -17.7262 0.0000 18.9992
#
#
#
# Elastic Compliance Matrix: (Units=1/GPa)
#
#
# Indices 1 2 3 4 5 6 
#
# 1 0.016389 -0.006867 -0.006500 0.000000 -0.002603 0.000000
# 2 -0.006867 0.018532 -0.003036 0.000000 -0.002513 0.000000
# 3 -0.006500 -0.003036 0.011583 0.000000 0.002325 0.000000
# 4 0.000000 0.000000 0.000000 -0.030386 0.000000 -0.028350
# 5 -0.002603 -0.002513 0.002325 0.000000 0.031829 0.000000
# 6 0.000000 0.000000 0.000000 -0.028350 0.000000 0.026184
#
#
# Mechanical properties :
#
#
# Convention : Reuss Voigt Hill
#
# Bulk Modulus (GPa) = 72.99972 81.35332 77.17652
# Shear Modulus (GPa) = 44.84169 17.55349 31.19759
#
# Velocity S-wave (km/s) = 4.91659 3.07613 4.10094
# Velocity P-wave (km/s) = 8.46065 7.51479 8.00171
#
# Compressibility (1/GPa) = 0.01369868
#
# Stress axis : x y z
#
# Youngs Moduli (GPa) = 61.01492 53.96202 86.33207
#
# Poissons Ratio (x) = 0.37056 0.56115
# Poissons Ratio (y) = 0.41899 0.26209
# Poissons Ratio (z) = 0.39659 0.16382
#
# Static dielectric constant tensor:
#      x y z
#    x 3.329720 0.000000 0.682120 
#    y 0.000000 3.540380 0.000000 
#    z 0.682120 0.000000 -2.658600 
# 
# 
# High freq. dielectric constant tensor:
#      x y z
#    x 1.707000 0.000000 -0.001980 
#    y 0.000000 1.731190 0.000000 
#    z -0.001980 0.000000 1.719120 
# 
# From -- ./inp_files/240889.got.cif
#   From: 2010.06.25/outbox.cif.g09.slc.cpg/sg12_121_cif.got.tgz:240889.got - 2010.06.28 00:19:55.
