data_PCOD8111869
_publ_section_title
;
Structure prediction by ZEFSAII (Michael W. Deem and Ramdas Pophale) SiO2 
 PCOD8111869
Probable space group: C 2/M
;
_chemical_formula_sum "Si O2"
_cell_formula_units_Z 56
_cell_length_a 9.537650
_cell_length_b 14.199836
_cell_length_c 20.632518
_cell_angle_alpha 90.000000
_cell_angle_beta 87.401505
_cell_angle_gamma 90.000000
_cell_volume 2791.451934
_symmetry_space_group_name_H-M "C 2/M"
_symmetry_group_IT_number 12
_symmetry_cell_setting 'monoclinic'
loop_
_space_group_symop_operation_xyz
x,y,z
-x,y,-z
-x,-y,-z
x,-y,z
1/2+x,1/2+y,z
1/2-x,1/2+y,-z
1/2-x,1/2-y,-z
1/2+x,1/2-y,z
loop_
_atom_site_type_symbol
_atom_site_label
_atom_site_fract_x
_atom_site_fract_y
_atom_site_fract_z
Si Si1 0.060320 0.607950 0.863301
Si Si2 0.146421 0.320250 0.463152
Si Si3 0.308009 0.781870 0.250335
Si Si4 0.238694 0.890902 0.835781
Si Si5 0.543191 0.268290 0.336722
Si Si6 0.420650 0.397741 0.441199
Si Si7 0.874540 0.227297 0.045002
O O1 0.094055 0.500000 0.881601
O O2 0.171451 0.643134 0.807421
O O3 0.075806 0.673736 0.925394
O O4 0.905178 0.618114 0.838209
O O5 0.250000 0.250000 0.500000
O O6 0.119319 0.291354 0.390193
O O7 0.252964 0.408545 0.455083
O O8 0.000000 0.348288 0.500000
O O9 0.308666 0.673967 0.223722
O O10 0.433427 0.794777 0.299097
O O11 0.160706 0.809090 0.286140
O O12 0.165287 0.851782 0.901940
O O13 0.194081 0.000000 0.825341
O O14 0.454887 0.350611 0.372311
O O15 0.500000 0.341475 0.500000
O O16 0.490736 0.500000 0.437778
O O17 0.750000 0.250000 0.000000
O O18 0.000000 0.183879 0.000000
#
# Coordination Sequence:
#
# PCOD8111869 Si02
#       7
#     8   8   8   8   8   8   8
#     4  10  22  41  64  90 124 167 205 251 306 360
#     4  12  20  38  65  88 115 161 203 248 311 383
#     4  11  23  39  62  92 120 161 210 259 301 366
#     4  10  22  41  63  89 128 167 201 252 309 355
#     4  12  21  38  63  88 116 160 205 248 307 370
#     4  11  24  40  59  90 125 152 195 260 319 370
#     4  11  22  39  64  97 127 159 204 253 300 361
#
# _framework density 20.061243000000001
#
# number of rings (size 3 to 8) (size 9 to 14) (size 15 to 20)
#    0.000    1.000    7.143    0.000    0.000    2.571 
#    0.000    2.143    0.000    0.000    0.000    0.000 
#    0.000    0.000    0.000    0.000    0.000    0.000 
#
# Total GULP energy -347085.626476 kJ/mol
# GULP energy per Si atom -12395.915231 kJ/mol
# Density = 2.001558 g / cm^3
# Si number density = 20.061243 Si / 1000 Ang^3
#
#
#
# Elastic Constant Matrix: (Units=GPa)
#
#
# Indices 1 2 3 4 5 6 
#
# 1 130.8539 16.6500 35.1263 0.0000 -21.4153 0.0000
# 2 16.6500 92.5724 23.3276 0.0000 -3.2007 0.0000
# 3 35.1263 23.3276 93.0477 0.0000 -12.7997 0.0000
# 4 0.0000 0.0000 0.0000 14.0653 0.0000 2.6361
# 5 -21.4153 -3.2007 -12.7997 0.0000 53.6018 0.0000
# 6 0.0000 0.0000 0.0000 2.6361 0.0000 21.9741
#
#
#
# Elastic Compliance Matrix: (Units=1/GPa)
#
#
# Indices 1 2 3 4 5 6 
#
# 1 0.008962 -0.000811 -0.002786 0.000000 0.002867 0.000000
# 2 -0.000811 0.011604 -0.002639 0.000000 -0.000261 0.000000
# 3 -0.002786 -0.002639 0.012703 0.000000 0.001763 0.000000
# 4 0.000000 0.000000 0.000000 0.072732 0.000000 -0.008725
# 5 0.002867 -0.000261 0.001763 0.000000 0.020207 0.000000
# 6 0.000000 0.000000 0.000000 -0.008725 0.000000 0.046555
#
#
# Mechanical properties :
#
#
# Convention : Reuss Voigt Hill
#
# Bulk Modulus (GPa) = 48.08105 51.85354 49.96729
# Shear Modulus (GPa) = 26.01900 34.01957 30.01928
#
# Velocity S-wave (km/s) = 3.60527 4.12246 3.87251
# Velocity P-wave (km/s) = 6.43038 6.96874 6.70496
#
# Compressibility (1/GPa) = 0.02079822
#
# Stress axis : x y z
#
# Youngs Moduli (GPa) = 111.57873 86.17580 78.72210
#
# Poissons Ratio (x) = 0.06988 0.21929
# Poissons Ratio (y) = 0.09047 0.20775
# Poissons Ratio (z) = 0.31082 0.22742
#
# Static dielectric constant tensor:
#      x y z
#    x 3.989750 0.000000 -0.101090 
#    y 0.000000 3.533990 0.000000 
#    z -0.101090 0.000000 3.851980 
# 
# 
# High freq. dielectric constant tensor:
#      x y z
#    x 1.799380 0.000000 -0.003210 
#    y 0.000000 1.759210 0.000000 
#    z -0.003210 0.000000 1.794440 
# 
# From -- ./inp_files/300147.got.cif
#   From: 2010.06.25/outbox.cif.g09.slc.cpg/sg12_151_cif.got.tgz:300147.got - 2010.06.28 00:19:55.
