data_PCOD8111122
_publ_section_title
;
Structure prediction by ZEFSAII (Michael W. Deem and Ramdas Pophale) SiO2 
 PCOD8111122
Probable space group: C 2/M
;
_chemical_formula_sum "Si O2"
_cell_formula_units_Z 56
_cell_length_a 20.784080
_cell_length_b 9.062243
_cell_length_c 17.907791
_cell_angle_alpha 90.000000
_cell_angle_beta 54.259537
_cell_angle_gamma 90.000000
_cell_volume 2737.717759
_symmetry_space_group_name_H-M "C 2/M"
_symmetry_group_IT_number 12
_symmetry_cell_setting 'monoclinic'
loop_
_space_group_symop_operation_xyz
x,y,z
-x,y,-z
-x,-y,-z
x,-y,z
1/2+x,1/2+y,z
1/2-x,1/2+y,-z
1/2-x,1/2-y,-z
1/2+x,1/2-y,z
loop_
_atom_site_type_symbol
_atom_site_label
_atom_site_fract_x
_atom_site_fract_y
_atom_site_fract_z
Si Si1 0.164320 0.671765 0.785241
Si Si2 0.681196 0.670723 0.403758
Si Si3 0.450513 0.326298 0.235437
Si Si4 0.452857 0.660632 0.607762
Si Si5 0.915072 0.673981 0.405549
Si Si6 0.280527 0.826663 0.090901
Si Si7 0.131791 0.827997 0.098910
O O1 0.142220 0.500000 0.806247
O O2 0.227370 0.699547 0.675957
O O3 0.085750 0.764078 0.817499
O O4 0.200340 0.730338 0.838879
O O5 0.664591 0.500000 0.435948
O O6 0.635020 0.710346 0.357457
O O7 0.652649 0.770839 0.491783
O O8 0.437710 0.500000 0.247832
O O9 0.401320 0.248873 0.335100
O O10 0.542628 0.281562 0.179864
O O11 0.500000 0.639303 0.500000
O O12 0.450493 0.500000 0.651603
O O13 0.496092 0.782352 0.628482
O O14 0.908310 0.500000 0.402524
O O15 0.190177 0.784509 0.128194
O O16 0.292362 0.000000 0.077966
O O17 0.343340 0.755145 0.992651
O O18 0.137309 0.000000 0.077264
#
# Coordination Sequence:
#
# PCOD8111122 Si02
#       7
#     8   8   8   8   8   8   8
#     4  10  22  39  60  87 118 154 197 242 290 343
#     4   9  19  36  58  81 112 157 200 238 286 347
#     4  11  24  40  59  83 117 159 200 239 286 350
#     4   8  15  30  53  78 105 143 189 233 283 342
#     4  11  22  35  54  82 117 153 195 247 295 340
#     4   9  19  38  65  92 117 147 187 238 292 345
#     4   9  20  39  64  90 116 150 192 235 285 349
#
# _framework density 20.454993000000002
#
# number of rings (size 3 to 8) (size 9 to 14) (size 15 to 20)
#    0.000    2.429    0.000    2.571    2.000    6.000 
#    0.000    2.857    0.000    0.000    0.000    0.000 
#    0.000    0.000    0.000    0.000    0.000    0.000 
#
# Total GULP energy -347125.492712 kJ/mol
# GULP energy per Si atom -12397.339025 kJ/mol
# Density = 2.040844 g / cm^3
# Si number density = 20.454993 Si / 1000 Ang^3
#
#
#
# Elastic Constant Matrix: (Units=GPa)
#
#
# Indices 1 2 3 4 5 6 
#
# 1 117.9587 52.2455 57.2786 0.0000 15.2072 0.0000
# 2 52.2455 88.3392 49.6291 0.0000 7.8022 0.0000
# 3 57.2786 49.6291 87.9719 0.0000 14.1071 0.0000
# 4 0.0000 0.0000 0.0000 29.0873 0.0000 2.7592
# 5 15.2072 7.8022 14.1071 0.0000 23.7015 0.0000
# 6 0.0000 0.0000 0.0000 2.7592 0.0000 29.2103
#
#
#
# Elastic Compliance Matrix: (Units=1/GPa)
#
#
# Indices 1 2 3 4 5 6 
#
# 1 0.013820 -0.004575 -0.005789 0.000000 -0.003915 0.000000
# 2 -0.004575 0.018087 -0.007452 0.000000 0.001417 0.000000
# 3 -0.005789 -0.007452 0.020288 0.000000 -0.005908 0.000000
# 4 0.000000 0.000000 0.000000 0.034690 0.000000 -0.003277
# 5 -0.003915 0.001417 -0.005908 0.000000 0.047754 0.000000
# 6 0.000000 0.000000 0.000000 -0.003277 0.000000 0.034544
#
#
# Mechanical properties :
#
#
# Convention : Reuss Voigt Hill
#
# Bulk Modulus (GPa) = 60.37866 68.06403 64.22135
# Shear Modulus (GPa) = 23.77137 25.40757 24.58947
#
# Velocity S-wave (km/s) = 3.41270 3.52820 3.47093
# Velocity P-wave (km/s) = 6.71644 7.06717 6.89403
#
# Compressibility (1/GPa) = 0.01656214
#
# Stress axis : x y z
#
# Youngs Moduli (GPa) = 72.35993 55.28714 49.28967
#
# Poissons Ratio (x) = 0.25295 0.28535
# Poissons Ratio (y) = 0.33106 0.36732
# Poissons Ratio (z) = 0.41891 0.41202
#
# Static dielectric constant tensor:
#      x y z
#    x 4.174300 0.000000 -0.007990 
#    y 0.000000 3.491620 0.000000 
#    z -0.007990 0.000000 3.573820 
# 
# 
# High freq. dielectric constant tensor:
#      x y z
#    x 1.808660 0.000000 0.002650 
#    y 0.000000 1.781960 0.000000 
#    z 0.002650 0.000000 1.787310 
# 
# From -- ./inp_files/280995.got.cif
#   From: 2010.06.25/outbox.cif.g09.slc.cpg/sg12_141_cif.got.tgz:280995.got - 2010.06.28 00:19:55.
