data_PCOD8111677
_publ_section_title
;
Structure prediction by ZEFSAII (Michael W. Deem and Ramdas Pophale) SiO2 
 PCOD8111677
Probable space group: C 2/M
;
_chemical_formula_sum "Si O2"
_cell_formula_units_Z 36
_cell_length_a 14.740169
_cell_length_b 11.138075
_cell_length_c 16.641249
_cell_angle_alpha 90.000000
_cell_angle_beta 140.336967
_cell_angle_gamma 90.000000
_cell_volume 1743.828683
_symmetry_space_group_name_H-M "C 2/M"
_symmetry_group_IT_number 12
_symmetry_cell_setting 'monoclinic'
loop_
_space_group_symop_operation_xyz
x,y,z
-x,y,-z
-x,-y,-z
x,-y,z
1/2+x,1/2+y,z
1/2-x,1/2+y,-z
1/2-x,1/2-y,-z
1/2+x,1/2-y,z
loop_
_atom_site_type_symbol
_atom_site_label
_atom_site_fract_x
_atom_site_fract_y
_atom_site_fract_z
Si Si1 0.000000 0.240221 0.500000
Si Si2 0.268274 0.358530 0.754104
Si Si3 0.019308 0.810437 0.817669
Si Si4 0.765355 0.628991 0.094055
Si Si5 0.646414 0.364340 0.447942
O O1 0.888144 0.329561 0.383389
O O2 0.927934 0.155074 0.517212
O O3 0.301523 0.500000 0.767268
O O4 0.381591 0.285479 0.778255
O O5 0.283788 0.308886 0.856026
O O6 0.099083 0.686265 0.855844
O O7 0.973560 0.870786 0.702916
O O8 0.133608 0.889557 0.943874
O O9 0.822289 0.500000 0.159805
O O10 0.718055 0.500000 0.497616
O O11 0.750000 0.250000 0.500000
#
# Coordination Sequence:
#
# PCOD8111677 Si02
#       5
#     4   8   8   8   8
#     4  12  24  42  60  96 127 172 209 264 317 380
#     4  11  22  39  64  94 127 166 213 264 314 379
#     4  11  22  40  66  93 126 161 216 263 318 374
#     4  10  22  40  65  93 125 165 211 264 320 379
#     4  12  26  44  67  94 129 172 216 265 321 380
#
# _framework density 20.644231000000001
#
# number of rings (size 3 to 8) (size 9 to 14) (size 15 to 20)
#    0.000    0.889    4.444    3.333    0.000    3.556 
#    0.000    0.000    0.000    2.667    0.000    0.000 
#    0.000    0.000    0.000    0.000    0.000    0.000 
#
# Total GULP energy -223050.411442 kJ/mol
# GULP energy per Si atom -12391.689525 kJ/mol
# Density = 2.059724 g / cm^3
# Si number density = 20.644231 Si / 1000 Ang^3
#
#
#
# Elastic Constant Matrix: (Units=GPa)
#
#
# Indices 1 2 3 4 5 6 
#
# 1 135.0769 54.9220 52.2507 0.0000 -12.7704 0.0000
# 2 54.9220 89.0311 36.9988 0.0000 2.4574 0.0000
# 3 52.2507 36.9988 122.4757 0.0000 -17.0928 0.0000
# 4 0.0000 0.0000 0.0000 -41.3368 0.0000 -49.3662
# 5 -12.7704 2.4574 -17.0928 0.0000 40.0719 0.0000
# 6 0.0000 0.0000 0.0000 -49.3662 0.0000 -36.8804
#
#
#
# Elastic Compliance Matrix: (Units=1/GPa)
#
#
# Indices 1 2 3 4 5 6 
#
# 1 0.011017 -0.005810 -0.002558 0.000000 0.002777 0.000000
# 2 -0.005810 0.016168 -0.002980 0.000000 -0.004114 0.000000
# 3 -0.002558 -0.002980 0.010705 0.000000 0.003934 0.000000
# 4 0.000000 0.000000 0.000000 0.040417 0.000000 -0.054100
# 5 0.002777 -0.004114 0.003934 0.000000 0.027770 0.000000
# 6 0.000000 0.000000 0.000000 -0.054100 0.000000 0.045300
#
#
# Mechanical properties :
#
#
# Convention : Reuss Voigt Hill
#
# Bulk Modulus (GPa) = 65.80776 70.54741 68.17759
# Shear Modulus (GPa) = 27.91136 5.86509 16.88823
#
# Velocity S-wave (km/s) = 3.68097 1.68737 2.86328
# Velocity P-wave (km/s) = 7.07194 6.16793 6.63535
#
# Compressibility (1/GPa) = 0.01519578
#
# Stress axis : x y z
#
# Youngs Moduli (GPa) = 90.76505 61.85011 93.41322
#
# Poissons Ratio (x) = 0.35937 0.23891
# Poissons Ratio (y) = 0.52737 0.27834
# Poissons Ratio (z) = 0.23214 0.18429
#
# Static dielectric constant tensor:
#      x y z
#    x 3.874210 0.000000 -0.234670 
#    y 0.000000 3.571280 0.000000 
#    z -0.234670 0.000000 3.999750 
# 
# 
# High freq. dielectric constant tensor:
#      x y z
#    x 1.816130 0.000000 -0.015880 
#    y 0.000000 1.789650 0.000000 
#    z -0.015880 0.000000 1.822620 
# 
# From -- ./inp_files/213587.got.cif
#   From: 2010.06.25/outbox.cif.g09.slc.cpg/sg12_107_cif.got.tgz:213587.got - 2010.06.28 00:19:55.
