data_PCOD8111720
_publ_section_title
;
Structure prediction by ZEFSAII (Michael W. Deem and Ramdas Pophale) SiO2 
 PCOD8111720
Probable space group: C 2/M
;
_chemical_formula_sum "Si O2"
_cell_formula_units_Z 48
_cell_length_a 11.939118
_cell_length_b 16.768471
_cell_length_c 11.515584
_cell_angle_alpha 90.000000
_cell_angle_beta 102.172164
_cell_angle_gamma 90.000000
_cell_volume 2253.598983
_symmetry_space_group_name_H-M "C 2/M"
_symmetry_group_IT_number 12
_symmetry_cell_setting 'monoclinic'
loop_
_space_group_symop_operation_xyz
x,y,z
-x,y,-z
-x,-y,-z
x,-y,z
1/2+x,1/2+y,z
1/2-x,1/2+y,-z
1/2-x,1/2-y,-z
1/2+x,1/2-y,z
loop_
_atom_site_type_symbol
_atom_site_label
_atom_site_fract_x
_atom_site_fract_y
_atom_site_fract_z
Si Si1 0.564118 0.091435 0.271763
Si Si2 0.359937 0.593040 0.704827
Si Si3 0.389630 0.339562 0.255156
Si Si4 0.241948 0.839343 0.541584
Si Si5 0.696079 0.909119 0.074307
Si Si6 0.829702 0.660444 0.176640
O O1 0.632024 0.140898 0.383249
O O2 0.602714 0.116265 0.150389
O O3 0.429801 0.107367 0.255455
O O4 0.593425 0.000000 0.300582
O O5 0.383682 0.500000 0.733994
O O6 0.476633 0.643140 0.725424
O O7 0.290714 0.602015 0.570066
O O8 0.289046 0.631917 0.794038
O O9 0.353538 0.351083 0.380630
O O10 0.322084 0.401003 0.157804
O O11 0.356888 0.251683 0.206834
O O12 0.250000 0.750000 0.500000
O O13 0.677985 0.000000 0.028618
O O14 0.678658 0.850567 0.962963
#
# Coordination Sequence:
#
# PCOD8111720 Si02
#       6
#     8   8   8   8   8   8
#     4  10  22  40  66  94 125 168 218 268 321 384
#     4  12  26  43  68 101 134 173 219 271 331 389
#     4  11  25  43  67  94 133 175 218 264 327 396
#     4  11  22  44  67  94 130 172 218 269 324 390
#     4  10  22  43  68  95 128 170 221 271 323 387
#     4  12  24  42  67  95 137 171 216 270 331 389
#
# _framework density 21.299264000000001
#
# number of rings (size 3 to 8) (size 9 to 14) (size 15 to 20)
#    0.000    1.000    1.667    5.000    2.333    5.333 
#    3.000    3.333    0.000    0.000    0.000    0.000 
#    0.000    0.000    0.000    0.000    0.000    0.000 
#
# Total GULP energy -297763.223433 kJ/mol
# GULP energy per Si atom -12406.800976 kJ/mol
# Density = 2.125079 g / cm^3
# Si number density = 21.299264 Si / 1000 Ang^3
#
#
#
# Elastic Constant Matrix: (Units=GPa)
#
#
# Indices 1 2 3 4 5 6 
#
# 1 108.7158 11.3354 9.8241 0.0000 11.7470 0.0000
# 2 11.3354 90.9953 25.6689 0.0000 -5.8342 0.0000
# 3 9.8241 25.6689 55.8214 0.0000 1.4263 0.0000
# 4 0.0000 0.0000 0.0000 27.6478 0.0000 1.1257
# 5 11.7470 -5.8342 1.4263 0.0000 16.8582 0.0000
# 6 0.0000 0.0000 0.0000 1.1257 0.0000 32.5578
#
#
#
# Elastic Compliance Matrix: (Units=1/GPa)
#
#
# Indices 1 2 3 4 5 6 
#
# 1 0.010259 -0.001505 -0.000919 0.000000 -0.007592 0.000000
# 2 -0.001505 0.013261 -0.005990 0.000000 0.006145 0.000000
# 3 -0.000919 -0.005990 0.020912 0.000000 -0.003202 0.000000
# 4 0.000000 0.000000 0.000000 0.036220 0.000000 -0.001252
# 5 -0.007592 0.006145 -0.003202 0.000000 0.067005 0.000000
# 6 0.000000 0.000000 0.000000 -0.001252 0.000000 0.030758
#
#
# Mechanical properties :
#
#
# Convention : Reuss Voigt Hill
#
# Bulk Modulus (GPa) = 36.22841 38.79881 37.51361
# Shear Modulus (GPa) = 24.45644 29.32638 26.89141
#
# Velocity S-wave (km/s) = 3.39223 3.71465 3.55709
# Velocity P-wave (km/s) = 5.69114 6.05423 5.87549
#
# Compressibility (1/GPa) = 0.02760264
#
# Stress axis : x y z
#
# Youngs Moduli (GPa) = 97.47918 75.41035 47.81887
#
# Poissons Ratio (x) = 0.11352 0.04396
# Poissons Ratio (y) = 0.14674 0.28643
# Poissons Ratio (z) = 0.08961 0.45170
#
# Static dielectric constant tensor:
#      x y z
#    x 4.003070 0.000000 0.022370 
#    y 0.000000 3.835250 0.000000 
#    z 0.022370 0.000000 3.965900 
# 
# 
# High freq. dielectric constant tensor:
#      x y z
#    x 1.839940 0.000000 0.003250 
#    y 0.000000 1.843930 0.000000 
#    z 0.003250 0.000000 1.844230 
# 
# From -- ./inp_files/131789.got.cif
#   From: 2010.06.25/outbox.cif.g09.slc.cpg/sg12_66_cif.got.tgz:131789.got - 2010.06.28 00:19:55.
