data_PCOD8111974
_publ_section_title
;
Structure prediction by ZEFSAII (Michael W. Deem and Ramdas Pophale) SiO2 
 PCOD8111974
Probable space group: C 2/M
;
_chemical_formula_sum "Si O2"
_cell_formula_units_Z 48
_cell_length_a 31.534825
_cell_length_b 16.277121
_cell_length_c 8.880243
_cell_angle_alpha 90.000000
_cell_angle_beta 147.572658
_cell_angle_gamma 90.000000
_cell_volume 2444.239141
_symmetry_space_group_name_H-M "C 2/M"
_symmetry_group_IT_number 12
_symmetry_cell_setting 'monoclinic'
loop_
_space_group_symop_operation_xyz
x,y,z
-x,y,-z
-x,-y,-z
x,-y,z
1/2+x,1/2+y,z
1/2-x,1/2+y,-z
1/2-x,1/2-y,-z
1/2+x,1/2-y,z
loop_
_atom_site_type_symbol
_atom_site_label
_atom_site_fract_x
_atom_site_fract_y
_atom_site_fract_z
Si Si1 0.596352 0.000000 0.960308
Si Si2 0.000596 0.904471 0.326161
Si Si3 0.191037 0.640432 0.401026
Si Si4 0.349298 0.672276 0.725024
Si Si5 0.846238 0.831477 0.365785
Si Si6 0.590236 0.000000 0.596891
Si Si7 0.183064 0.356434 0.727205
O O1 0.628825 0.080584 0.138084
O O2 0.621204 0.000000 0.860513
O O3 0.503073 0.000000 0.696275
O O4 0.000000 0.884498 0.500000
O O5 0.083509 0.876851 0.507313
O O6 0.987019 0.000000 0.252596
O O7 0.931860 0.853350 0.042528
O O8 0.277573 0.624632 0.590517
O O9 0.160333 0.731312 0.275238
O O10 0.197390 0.622990 0.596413
O O11 0.349565 0.648581 0.551509
O O12 0.851764 0.734313 0.352151
O O13 0.765218 0.868230 0.059563
O O14 0.619701 0.918557 0.603184
#
# Coordination Sequence:
#
# PCOD8111974 Si02
#       7
#     4   8   8   8   8   4   8
#     4  11  25  41  61  92 125 162 205 251 303 359
#     4  11  25  41  61  90 125 164 205 251 303 360
#     4  10  22  41  65  91 122 161 203 251 307 363
#     4  10  22  41  65  92 122 160 204 252 306 362
#     4  10  22  41  65  92 122 160 204 252 306 362
#     4  11  25  41  61  92 125 162 205 251 303 359
#     4  10  22  41  65  91 122 161 203 251 307 363
#
# _framework density 19.638013000000001
#
# number of rings (size 3 to 8) (size 9 to 14) (size 15 to 20)
#    0.000    1.667    0.000    3.000    4.667    6.667 
#    0.000    0.000    0.000    0.000    0.000    0.000 
#    0.000    0.000    0.000    0.000    0.000    0.000 
#
# Total GULP energy -297754.943456 kJ/mol
# GULP energy per Si atom -12406.455977 kJ/mol
# Density = 1.959332 g / cm^3
# Si number density = 19.638013 Si / 1000 Ang^3
#
#
#
# Elastic Constant Matrix: (Units=GPa)
#
#
# Indices 1 2 3 4 5 6 
#
# 1 125.9027 43.3908 38.5003 0.0000 -8.7142 0.0000
# 2 43.3908 59.1120 30.6290 0.0000 -11.5667 0.0000
# 3 38.5003 30.6290 102.7922 0.0000 -18.1034 0.0000
# 4 0.0000 0.0000 0.0000 36.0546 0.0000 -3.5080
# 5 -8.7142 -11.5667 -18.1034 0.0000 28.6595 0.0000
# 6 0.0000 0.0000 0.0000 -3.5080 0.0000 31.9221
#
#
#
# Elastic Compliance Matrix: (Units=1/GPa)
#
#
# Indices 1 2 3 4 5 6 
#
# 1 0.010997 -0.007132 -0.002151 0.000000 -0.000894 0.000000
# 2 -0.007132 0.025249 -0.003870 0.000000 0.005577 0.000000
# 3 -0.002151 -0.003870 0.012711 0.000000 0.005813 0.000000
# 4 0.000000 0.000000 0.000000 0.028035 0.000000 0.003081
# 5 -0.000894 0.005577 0.005813 0.000000 0.040544 0.000000
# 6 0.000000 0.000000 0.000000 0.003081 0.000000 0.031665
#
#
# Mechanical properties :
#
#
# Convention : Reuss Voigt Hill
#
# Bulk Modulus (GPa) = 44.14949 56.98301 50.56625
# Shear Modulus (GPa) = 27.31397 31.01302 29.16350
#
# Velocity S-wave (km/s) = 3.73349 3.97827 3.85782
# Velocity P-wave (km/s) = 6.41215 7.08391 6.75639
#
# Compressibility (1/GPa) = 0.02265032
#
# Stress axis : x y z
#
# Youngs Moduli (GPa) = 90.93728 39.60564 78.67287
#
# Poissons Ratio (x) = 0.28248 0.16921
# Poissons Ratio (y) = 0.64860 0.30445
# Poissons Ratio (z) = 0.19559 0.15327
#
# Static dielectric constant tensor:
#      x y z
#    x 3.820000 0.000000 -0.069510 
#    y 0.000000 3.615190 0.000000 
#    z -0.069510 0.000000 3.616510 
# 
# 
# High freq. dielectric constant tensor:
#      x y z
#    x 1.783640 0.000000 -0.004210 
#    y 0.000000 1.770910 0.000000 
#    z -0.004210 0.000000 1.777940 
# 
# From -- ./inp_files/112968.got.cif
#   From: 2010.06.25/outbox.cif.g09.slc.cpg/sg12_57_cif.got.tgz:112968.got - 2010.06.28 00:19:55.
