data_PCOD8111548
_publ_section_title
;
Structure prediction by ZEFSAII (Michael W. Deem and Ramdas Pophale) SiO2 
 PCOD8111548
Probable space group: C 2/M
;
_chemical_formula_sum "Si O2"
_cell_formula_units_Z 64
_cell_length_a 24.123239
_cell_length_b 27.369092
_cell_length_c 8.514669
_cell_angle_alpha 90.000000
_cell_angle_beta 148.368118
_cell_angle_gamma 90.000000
_cell_volume 2948.329071
_symmetry_space_group_name_H-M "C 2/M"
_symmetry_group_IT_number 12
_symmetry_cell_setting 'monoclinic'
loop_
_space_group_symop_operation_xyz
x,y,z
-x,y,-z
-x,-y,-z
x,-y,z
1/2+x,1/2+y,z
1/2-x,1/2+y,-z
1/2-x,1/2-y,-z
1/2+x,1/2-y,z
loop_
_atom_site_type_symbol
_atom_site_label
_atom_site_fract_x
_atom_site_fract_y
_atom_site_fract_z
Si Si1 0.109573 0.947334 0.217024
Si Si2 0.951008 0.183671 0.132017
Si Si3 0.839500 0.203690 0.533814
Si Si4 0.266258 0.283652 0.886852
Si Si5 0.293260 0.892482 0.179559
Si Si6 0.496556 0.056253 0.305052
Si Si7 0.209535 0.611686 0.189491
Si Si8 0.914783 0.922728 0.170219
O O1 0.202981 0.912578 0.490883
O O2 0.121000 0.000000 0.330378
O O3 0.104306 0.959025 0.019359
O O4 0.000000 0.920965 0.000000
O O5 0.952712 0.127530 0.183005
O O6 0.074049 0.197046 0.399723
O O7 0.888245 0.194695 0.820977
O O8 0.889811 0.211112 0.129204
O O9 0.796723 0.258800 0.410585
O O10 0.735205 0.169392 0.260671
O O11 0.211162 0.335432 0.787118
O O12 0.250000 0.250000 0.000000
O O13 0.397855 0.917571 0.504258
O O14 0.284984 0.903775 0.976513
O O15 0.195697 0.920840 0.011929
O O16 0.500000 0.055466 0.500000
O O17 0.484904 0.000000 0.214369
O O18 0.402666 0.091935 0.016194
O O19 0.000000 0.942609 0.500000
#
# Coordination Sequence:
#
# PCOD8111548 Si02
#       8
#     8   8   8   8   8   8   8   8
#     4  11  23  38  60  92 124 160 210 265 327 399
#     4  10  23  39  61  89 124 171 214 264 328 403
#     4  11  21  39  63  89 126 172 214 269 331 395
#     4  11  23  38  58  96 131 167 219 269 328 400
#     4  10  22  40  62  94 129 170 216 269 332 392
#     4   9  20  39  64  92 123 168 223 271 319 384
#     4  11  20  39  65  91 123 167 216 266 328 390
#     4  11  22  38  63  91 127 162 208 267 334 400
#
# _framework density 21.707211000000001
#
# number of rings (size 3 to 8) (size 9 to 14) (size 15 to 20)
#    0.000    1.500    2.500    3.000    1.750    2.250 
#    2.250    0.625    0.000    1.500    0.000    0.000 
#    0.000    0.000    0.000    0.000    0.000    0.000 
#
# Total GULP energy -396509.559246 kJ/mol
# GULP energy per Si atom -12390.923726 kJ/mol
# Density = 2.165780 g / cm^3
# Si number density = 21.707211 Si / 1000 Ang^3
#
#
#
# Elastic Constant Matrix: (Units=GPa)
#
#
# Indices 1 2 3 4 5 6 
#
# 1 80.9934 34.0435 36.3317 0.0000 16.9522 0.0000
# 2 34.0435 92.7099 46.9364 0.0000 21.5886 0.0000
# 3 36.3317 46.9364 124.4280 0.0000 21.7353 0.0000
# 4 0.0000 0.0000 0.0000 32.1178 0.0000 5.3674
# 5 16.9522 21.5886 21.7353 0.0000 45.2008 0.0000
# 6 0.0000 0.0000 0.0000 5.3674 0.0000 21.3124
#
#
#
# Elastic Compliance Matrix: (Units=1/GPa)
#
#
# Indices 1 2 3 4 5 6 
#
# 1 0.015718 -0.003760 -0.002680 0.000000 -0.002810 0.000000
# 2 -0.003760 0.015049 -0.003897 0.000000 -0.003903 0.000000
# 3 -0.002680 -0.003897 0.010686 0.000000 -0.002272 0.000000
# 4 0.000000 0.000000 0.000000 0.032503 0.000000 -0.008186
# 5 -0.002810 -0.003903 -0.002272 0.000000 0.026134 0.000000
# 6 0.000000 0.000000 0.000000 -0.008186 0.000000 0.048983
#
#
# Mechanical properties :
#
#
# Convention : Reuss Voigt Hill
#
# Bulk Modulus (GPa) = 48.12734 59.19493 53.66114
# Shear Modulus (GPa) = 28.30072 31.78084 30.04078
#
# Velocity S-wave (km/s) = 3.61466 3.83047 3.72413
# Velocity P-wave (km/s) = 6.29605 6.84779 6.57771
#
# Compressibility (1/GPa) = 0.02077821
#
# Stress axis : x y z
#
# Youngs Moduli (GPa) = 63.62289 66.44941 93.57851
#
# Poissons Ratio (x) = 0.24988 0.25079
# Poissons Ratio (y) = 0.23925 0.36467
# Poissons Ratio (z) = 0.17051 0.25895
#
# Static dielectric constant tensor:
#      x y z
#    x 4.385890 0.000000 0.003750 
#    y 0.000000 3.972790 0.000000 
#    z 0.003750 0.000000 4.156380 
# 
# 
# High freq. dielectric constant tensor:
#      x y z
#    x 1.854790 0.000000 0.005260 
#    y 0.000000 1.851820 0.000000 
#    z 0.005260 0.000000 1.849970 
# 
# From -- ./inp_files/100262.got.cif
#   From: 2010.06.25/outbox.cif.g09.slc.cpg/sg12_51_cif.got.tgz:100262.got - 2010.06.28 00:19:55.
