data_PCOD8111424
_publ_section_title
;
Structure prediction by ZEFSAII (Michael W. Deem and Ramdas Pophale) SiO2 
 PCOD8111424
Probable space group: C 2/M
;
_chemical_formula_sum "Si O2"
_cell_formula_units_Z 48
_cell_length_a 27.117915
_cell_length_b 8.561352
_cell_length_c 15.443468
_cell_angle_alpha 90.000000
_cell_angle_beta 40.824922
_cell_angle_gamma 90.000000
_cell_volume 2343.986245
_symmetry_space_group_name_H-M "C 2/M"
_symmetry_group_IT_number 12
_symmetry_cell_setting 'monoclinic'
loop_
_space_group_symop_operation_xyz
x,y,z
-x,y,-z
-x,-y,-z
x,-y,z
1/2+x,1/2+y,z
1/2-x,1/2+y,-z
1/2-x,1/2-y,-z
1/2+x,1/2-y,z
loop_
_atom_site_type_symbol
_atom_site_label
_atom_site_fract_x
_atom_site_fract_y
_atom_site_fract_z
Si Si1 0.548332 0.681251 0.019998
Si Si2 0.711083 0.818684 0.804752
Si Si3 0.950877 0.181363 0.316247
Si Si4 0.961617 0.681926 0.642311
Si Si5 0.791115 0.682823 0.863094
Si Si6 0.788050 0.683059 0.534372
O O1 0.571774 0.500000 0.990633
O O2 0.500790 0.728036 0.167386
O O3 0.500000 0.721782 0.000000
O O4 0.622632 0.785096 0.918126
O O5 0.748108 0.725851 0.833552
O O6 0.751102 0.769472 0.663831
O O7 0.724297 0.000000 0.803489
O O8 0.876963 0.287505 0.413775
O O9 0.997598 0.214246 0.340387
O O10 0.927557 0.000000 0.343546
O O11 0.966179 0.500000 0.662581
O O12 0.876532 0.744577 0.747483
O O13 0.000000 0.712933 0.500000
O O14 0.791645 0.500000 0.871395
O O15 0.750000 0.750000 0.000000
O O16 0.771867 0.500000 0.563522
O O17 0.750000 0.750000 0.500000
#
# Coordination Sequence:
#
# PCOD8111424 Si02
#       6
#     8   8   8   8   8   8
#     4  10  22  41  64  90 124 164 204 251 308 367
#     4  12  25  41  64  94 127 164 209 257 309 370
#     4  11  23  39  63  94 125 160 204 253 307 366
#     4  10  22  40  61  85 116 159 206 252 305 361
#     4  11  23  40  63  91 125 164 207 256 309 366
#     4  12  25  43  66  92 126 164 206 256 310 369
#
# _framework density 20.477936
#
# number of rings (size 3 to 8) (size 9 to 14) (size 15 to 20)
#    0.000    1.000    0.000    7.000    0.000    8.667 
#    0.000    0.000    0.000    0.000    0.000    0.000 
#    0.000    0.000    0.000    0.000    0.000    0.000 
#
# Total GULP energy -297782.676554 kJ/mol
# GULP energy per Si atom -12407.611523 kJ/mol
# Density = 2.043133 g / cm^3
# Si number density = 20.477936 Si / 1000 Ang^3
#
#
#
# Elastic Constant Matrix: (Units=GPa)
#
#
# Indices 1 2 3 4 5 6 
#
# 1 133.7711 5.1880 55.7522 -0.0058 0.2373 0.0034
# 2 5.1880 34.3927 14.7712 -0.0046 -9.7715 -0.0003
# 3 55.7522 14.7712 147.2978 0.0018 -3.4086 -0.0003
# 4 -0.0058 -0.0046 0.0018 30.5544 0.0042 2.5530
# 5 0.2373 -9.7715 -3.4086 0.0042 43.1434 -0.0016
# 6 0.0034 -0.0003 -0.0003 2.5530 -0.0016 35.9942
#
#
#
# Elastic Compliance Matrix: (Units=1/GPa)
#
#
# Indices 1 2 3 4 5 6 
#
# 1 0.008880 0.000020 -0.003370 0.000002 -0.000311 -0.000001
# 2 0.000020 0.032418 -0.003094 0.000004 0.007098 0.000000
# 3 -0.003370 -0.003094 0.008374 -0.000002 -0.000021 0.000000
# 4 0.000002 0.000004 -0.000002 0.032924 -0.000002 -0.002335
# 5 -0.000311 0.007098 -0.000021 -0.000002 0.024786 0.000001
# 6 -0.000001 0.000000 0.000000 -0.002335 0.000001 0.027948
#
#
# Mechanical properties :
#
#
# Convention : Reuss Voigt Hill
#
# Bulk Modulus (GPa) = 27.18617 51.87606 39.53111
# Shear Modulus (GPa) = 31.15636 37.92175 34.53905
#
# Velocity S-wave (km/s) = 3.90482 4.30796 4.11134
# Velocity P-wave (km/s) = 5.79955 7.08042 6.47175
#
# Compressibility (1/GPa) = 0.03678341
#
# Stress axis : x y z
#
# Youngs Moduli (GPa) = 112.61457 30.84660 119.41164
#
# Poissons Ratio (x) = -0.00061 0.40244
# Poissons Ratio (y) = -0.00222 0.36948
# Poissons Ratio (z) = 0.37953 0.09544
#
# Static dielectric constant tensor:
#      x y z
#    x 3.751880 0.000010 -0.008120 
#    y 0.000010 3.666400 -0.000010 
#    z -0.008120 -0.000010 3.893170 
# 
# 
# High freq. dielectric constant tensor:
#      x y z
#    x 1.819700 0.000000 0.001060 
#    y 0.000000 1.804490 0.000000 
#    z 0.001060 0.000000 1.822290 
# 
# From -- ./inp_files/244665.got.cif
#   From: 2010.06.25/outbox.cif.g09.slc.cpg/sg12_123_cif.got.tgz:244665.got - 2010.06.28 00:19:55.
