data_PCOD8111961
_publ_section_title
;
Structure prediction by ZEFSAII (Michael W. Deem and Ramdas Pophale) SiO2 
 PCOD8111961
Probable space group: C 2/M
;
_chemical_formula_sum "Si O2"
_cell_formula_units_Z 64
_cell_length_a 27.982851
_cell_length_b 13.595809
_cell_length_c 12.120502
_cell_angle_alpha 90.000000
_cell_angle_beta 39.240891
_cell_angle_gamma 90.000000
_cell_volume 2916.987673
_symmetry_space_group_name_H-M "C 2/M"
_symmetry_group_IT_number 12
_symmetry_cell_setting 'monoclinic'
loop_
_space_group_symop_operation_xyz
x,y,z
-x,y,-z
-x,-y,-z
x,-y,z
1/2+x,1/2+y,z
1/2-x,1/2+y,-z
1/2-x,1/2-y,-z
1/2+x,1/2-y,z
loop_
_atom_site_type_symbol
_atom_site_label
_atom_site_fract_x
_atom_site_fract_y
_atom_site_fract_z
Si Si1 0.896205 0.698071 0.875880
Si Si2 0.342979 0.113119 0.750620
Si Si3 0.945424 0.386973 0.362261
Si Si4 0.917154 0.280595 0.199697
Si Si5 0.669709 0.390136 0.056738
Si Si6 0.865187 0.115622 0.447242
Si Si7 0.688762 0.112704 0.778374
Si Si8 0.071041 0.888581 0.437158
O O1 0.882976 0.679508 0.770245
O O2 0.878585 0.813559 0.930219
O O3 0.982702 0.681961 0.749879
O O4 0.841009 0.627849 0.044068
O O5 0.382317 0.137538 0.565055
O O6 0.353089 0.000000 0.766598
O O7 0.256165 0.142392 0.894883
O O8 0.971171 0.500000 0.322759
O O9 0.910927 0.363834 0.304800
O O10 0.897256 0.173588 0.284520
O O11 0.856384 0.310984 0.217050
O O12 0.000000 0.277108 0.000000
O O13 0.657314 0.500000 0.030468
O O14 0.645354 0.385848 0.228293
O O15 0.776675 0.137999 0.617078
O O16 0.907347 0.157265 0.482287
O O17 0.879590 0.000000 0.403784
O O18 0.673329 0.000000 0.770592
O O19 0.000000 0.836196 0.500000
O O20 0.045649 0.000000 0.507055
#
# Coordination Sequence:
#
# PCOD8111961 Si02
#       8
#     8   8   8   8   8   8   8   8
#     4  12  23  37  67 100 131 176 219 273 335 405
#     4  10  22  41  64  96 135 172 216 277 342 402
#     4  11  25  43  66  95 130 172 223 282 336 392
#     4  12  26  44  69  97 129 178 227 282 342 397
#     4  10  23  40  60  98 140 177 217 260 329 409
#     4  10  24  45  70 101 134 175 226 280 337 402
#     4  11  24  45  71  98 132 175 231 288 333 393
#     4   9  19  36  63  95 136 181 217 260 319 398
#
# _framework density 21.940441
#
# number of rings (size 3 to 8) (size 9 to 14) (size 15 to 20)
#    0.000    1.375    1.250    3.375    5.250    3.750 
#    0.000    0.625    0.000    0.000    0.000    0.000 
#    0.000    0.000    0.000    0.000    0.000    0.000 
#
# Total GULP energy -396901.007343 kJ/mol
# GULP energy per Si atom -12403.156479 kJ/mol
# Density = 2.189050 g / cm^3
# Si number density = 21.940441 Si / 1000 Ang^3
#
#
#
# Elastic Constant Matrix: (Units=GPa)
#
#
# Indices 1 2 3 4 5 6 
#
# 1 109.4892 42.9777 48.3131 0.0000 -1.3351 0.0000
# 2 42.9777 90.3664 31.8862 0.0000 -5.3269 0.0000
# 3 48.3131 31.8862 121.3905 0.0000 10.2802 0.0000
# 4 0.0000 0.0000 0.0000 26.8005 0.0000 -1.2738
# 5 -1.3351 -5.3269 10.2802 0.0000 24.4138 0.0000
# 6 0.0000 0.0000 0.0000 -1.2738 0.0000 32.6734
#
#
#
# Elastic Compliance Matrix: (Units=1/GPa)
#
#
# Indices 1 2 3 4 5 6 
#
# 1 0.012689 -0.004553 -0.003971 0.000000 0.001372 0.000000
# 2 -0.004553 0.014251 -0.002254 0.000000 0.003810 0.000000
# 3 -0.003971 -0.002254 0.010857 0.000000 -0.005281 0.000000
# 4 0.000000 0.000000 0.000000 0.037382 0.000000 0.001457
# 5 0.001372 0.003810 -0.005281 0.000000 0.044090 0.000000
# 6 0.000000 0.000000 0.000000 0.001457 0.000000 0.030663
#
#
# Mechanical properties :
#
#
# Convention : Reuss Voigt Hill
#
# Bulk Modulus (GPa) = 61.56537 63.06668 62.31602
# Shear Modulus (GPa) = 28.26411 29.98214 29.12313
#
# Velocity S-wave (km/s) = 3.59307 3.70066 3.64726
# Velocity P-wave (km/s) = 6.73310 6.86052 6.79711
#
# Compressibility (1/GPa) = 0.01624290
#
# Stress axis : x y z
#
# Youngs Moduli (GPa) = 78.80647 70.16876 92.10276
#
# Poissons Ratio (x) = 0.31948 0.36570
# Poissons Ratio (y) = 0.35881 0.20760
# Poissons Ratio (z) = 0.31291 0.15816
#
# Static dielectric constant tensor:
#      x y z
#    x 3.950990 0.000000 0.009660 
#    y 0.000000 4.074900 0.000000 
#    z 0.009660 0.000000 4.060640 
# 
# 
# High freq. dielectric constant tensor:
#      x y z
#    x 1.850890 0.000000 -0.009310 
#    y 0.000000 1.873750 0.000000 
#    z -0.009310 0.000000 1.871640 
# 
# From -- ./inp_files/183792.got.cif
#   From: 2010.06.25/outbox.cif.g09.slc.cpg/sg12_92_cif.got.tgz:183792.got - 2010.06.28 00:19:55.
