data_PCOD8111170
_publ_section_title
;
Structure prediction by ZEFSAII (Michael W. Deem and Ramdas Pophale) SiO2 
 PCOD8111170
Probable space group: C 2/M
;
_chemical_formula_sum "Si O2"
_cell_formula_units_Z 64
_cell_length_a 30.399698
_cell_length_b 18.436871
_cell_length_c 9.583986
_cell_angle_alpha 90.000000
_cell_angle_beta 141.517780
_cell_angle_gamma 90.000000
_cell_volume 3342.587161
_symmetry_space_group_name_H-M "C 2/M"
_symmetry_group_IT_number 12
_symmetry_cell_setting 'monoclinic'
loop_
_space_group_symop_operation_xyz
x,y,z
-x,y,-z
-x,-y,-z
x,-y,z
1/2+x,1/2+y,z
1/2-x,1/2+y,-z
1/2-x,1/2-y,-z
1/2+x,1/2-y,z
loop_
_atom_site_type_symbol
_atom_site_label
_atom_site_fract_x
_atom_site_fract_y
_atom_site_fract_z
Si Si1 0.195087 0.417949 0.076950
Si Si2 0.344651 0.418015 0.845441
Si Si3 0.067702 0.685423 0.748992
Si Si4 0.579728 0.348489 0.723816
Si Si5 0.347781 0.584899 0.350825
Si Si6 0.581805 0.353542 0.216466
Si Si7 0.569547 0.806182 0.085972
Si Si8 0.191137 0.417175 0.390187
O O1 0.171229 0.500000 0.986533
O O2 0.132548 0.366167 0.872207
O O3 0.265358 0.397875 0.166722
O O4 0.211316 0.406572 0.279436
O O5 0.355418 0.500000 0.922059
O O6 0.370540 0.410074 0.750831
O O7 0.261782 0.397083 0.652211
O O8 0.395075 0.365707 0.057945
O O9 0.084622 0.762329 0.719406
O O10 0.000000 0.652696 0.500000
O O11 0.053924 0.691308 0.881285
O O12 0.500000 0.376141 0.500000
O O13 0.633288 0.391365 0.757841
O O14 0.364064 0.500000 0.416087
O O15 0.396022 0.635773 0.568427
O O16 0.597516 0.272338 0.201988
O O17 0.500000 0.373071 0.000000
O O18 0.628198 0.864298 0.277753
O O19 0.500000 0.826742 0.000000
O O20 0.167659 0.500000 0.361505
#
# Coordination Sequence:
#
# PCOD8111170 Si02
#       8
#     8   8   8   8   8   8   8   8
#     4   9  19  39  63  87 116 150 191 239 288 340
#     4  11  21  37  58  84 115 151 194 235 288 344
#     4  10  22  40  61  86 118 153 190 234 290 350
#     4  11  24  39  56  82 120 157 192 237 289 340
#     4  11  23  39  59  85 117 153 195 239 284 340
#     4  11  22  35  57  87 112 149 193 239 279 337
#     4  10  22  39  61  89 117 149 191 240 288 339
#     4   9  19  38  63  88 117 150 188 239 291 342
#
# _framework density 19.146844999999999
#
# number of rings (size 3 to 8) (size 9 to 14) (size 15 to 20)
#    0.000    1.750    2.500    1.500    5.250    5.500 
#    2.250    0.000    0.000    0.000    0.000    0.000 
#    0.000    0.000    0.000    0.000    0.000    0.000 
#
# Total GULP energy -396873.766615 kJ/mol
# GULP energy per Si atom -12402.305207 kJ/mol
# Density = 1.910327 g / cm^3
# Si number density = 19.146845 Si / 1000 Ang^3
#
#
#
# Elastic Constant Matrix: (Units=GPa)
#
#
# Indices 1 2 3 4 5 6 
#
# 1 103.2411 46.7390 29.1144 0.0000 19.9252 0.0000
# 2 46.7390 85.2102 57.0788 0.0000 24.1234 0.0000
# 3 29.1144 57.0788 105.8609 0.0000 21.9827 0.0000
# 4 0.0000 0.0000 0.0000 32.4900 0.0000 4.8231
# 5 19.9252 24.1234 21.9827 0.0000 29.5179 0.0000
# 6 0.0000 0.0000 0.0000 4.8231 0.0000 29.6725
#
#
#
# Elastic Compliance Matrix: (Units=1/GPa)
#
#
# Indices 1 2 3 4 5 6 
#
# 1 0.013263 -0.006636 0.000785 0.000000 -0.004114 0.000000
# 2 -0.006636 0.023981 -0.009423 0.000000 -0.008102 0.000000
# 3 0.000785 -0.009423 0.015168 0.000000 -0.004125 0.000000
# 4 0.000000 0.000000 0.000000 0.031540 0.000000 -0.005127
# 5 -0.004114 -0.008102 -0.004125 0.000000 0.046348 0.000000
# 6 0.000000 0.000000 0.000000 -0.005127 0.000000 0.034534
#
#
# Mechanical properties :
#
#
# Convention : Reuss Voigt Hill
#
# Bulk Modulus (GPa) = 45.73811 62.24185 53.98998
# Shear Modulus (GPa) = 24.67067 29.09476 26.88271
#
# Velocity S-wave (km/s) = 3.59346 3.90238 3.75110
# Velocity P-wave (km/s) = 6.41539 7.27207 6.85712
#
# Compressibility (1/GPa) = 0.02186361
#
# Stress axis : x y z
#
# Youngs Moduli (GPa) = 75.39820 41.69933 65.92911
#
# Poissons Ratio (x) = 0.27671 -0.05173
# Poissons Ratio (y) = 0.50033 0.62125
# Poissons Ratio (z) = -0.05916 0.39293
#
# Static dielectric constant tensor:
#      x y z
#    x 3.387240 0.000000 0.077420 
#    y 0.000000 3.464750 0.000000 
#    z 0.077420 0.000000 3.473570 
# 
# 
# High freq. dielectric constant tensor:
#      x y z
#    x 1.741270 0.000000 0.006440 
#    y 0.000000 1.745020 0.000000 
#    z 0.006440 0.000000 1.747040 
# 
# From -- ./inp_files/112917.got.cif
#   From: 2010.06.25/outbox.cif.g09.slc.cpg/sg12_57_cif.got.tgz:112917.got - 2010.06.28 00:19:55.
