data_PCOD8111379
_publ_section_title
;
Structure prediction by ZEFSAII (Michael W. Deem and Ramdas Pophale) SiO2 
 PCOD8111379
Probable space group: C 2/M
;
_chemical_formula_sum "Si O2"
_cell_formula_units_Z 40
_cell_length_a 27.205835
_cell_length_b 8.772374
_cell_length_c 18.443894
_cell_angle_alpha 90.000000
_cell_angle_beta 27.126861
_cell_angle_gamma 90.000000
_cell_volume 2007.061394
_symmetry_space_group_name_H-M "C 2/M"
_symmetry_group_IT_number 12
_symmetry_cell_setting 'monoclinic'
loop_
_space_group_symop_operation_xyz
x,y,z
-x,y,-z
-x,-y,-z
x,-y,z
1/2+x,1/2+y,z
1/2-x,1/2+y,-z
1/2-x,1/2-y,-z
1/2+x,1/2-y,z
loop_
_atom_site_type_symbol
_atom_site_label
_atom_site_fract_x
_atom_site_fract_y
_atom_site_fract_z
Si Si1 0.585936 0.681239 0.829460
Si Si2 0.117157 0.825615 0.372251
Si Si3 0.513656 0.680517 0.767491
Si Si4 0.290100 0.175331 0.020563
Si Si5 0.177079 0.320911 0.440708
O O1 0.582862 0.500000 0.835766
O O2 0.556743 0.742384 0.787966
O O3 0.704567 0.741142 0.693956
O O4 0.500000 0.747968 0.000000
O O5 0.196414 0.805444 0.201444
O O6 0.155676 0.715635 0.385329
O O7 0.000000 0.772295 0.500000
O O8 0.114285 0.000000 0.403975
O O9 0.511123 0.500000 0.769347
O O10 0.589840 0.737345 0.603919
O O11 0.394061 0.739989 0.913760
O O12 0.318769 0.000000 0.968365
O O13 0.250000 0.250000 0.000000
O O14 0.167858 0.500000 0.466083
#
# Coordination Sequence:
#
# PCOD8111379 Si02
#       5
#     8   8   8   8   8
#     4   9  19  36  58  85 116 152 194 240 290 345
#     4  10  22  40  60  84 116 152 189 234 292 351
#     4  11  22  38  60  84 118 159 195 238 292 344
#     4  11  23  39  61  89 120 153 193 239 287 346
#     4  11  22  37  60  88 117 151 197 245 288 345
#
# _framework density 19.929635000000001
#
# number of rings (size 3 to 8) (size 9 to 14) (size 15 to 20)
#    0.000    1.600    0.000    4.800    0.000    5.200 
#    0.000    3.000    0.000    7.200    0.000    0.000 
#    0.000    0.000    0.000    0.000    0.000    0.000 
#
# Total GULP energy -248111.616508 kJ/mol
# GULP energy per Si atom -12405.580825 kJ/mol
# Density = 1.988427 g / cm^3
# Si number density = 19.929635 Si / 1000 Ang^3
#
#
#
# Elastic Constant Matrix: (Units=GPa)
#
#
# Indices 1 2 3 4 5 6 
#
# 1 151.4791 42.4122 46.9234 -0.0015 -16.0337 -0.0002
# 2 42.4122 71.7836 32.8408 -0.0078 -3.2772 0.0038
# 3 46.9234 32.8408 112.4298 -0.0100 -19.4019 0.0044
# 4 -0.0015 -0.0078 -0.0100 46.8135 0.0009 -21.2706
# 5 -16.0337 -3.2772 -19.4019 0.0009 44.3872 -0.0003
# 6 -0.0002 0.0038 0.0044 -21.2706 -0.0003 41.9145
#
#
#
# Elastic Compliance Matrix: (Units=1/GPa)
#
#
# Indices 1 2 3 4 5 6 
#
# 1 0.008573 -0.004030 -0.002074 -0.000001 0.001892 0.000000
# 2 -0.004030 0.018010 -0.003894 0.000002 -0.001828 0.000000
# 3 -0.002074 -0.003894 0.011593 0.000002 0.004031 0.000000
# 4 -0.000001 0.000002 0.000002 0.027763 0.000000 0.014089
# 5 0.001892 -0.001828 0.004031 0.000000 0.024839 0.000000
# 6 0.000000 0.000000 0.000000 0.014089 0.000000 0.031008
#
#
# Mechanical properties :
#
#
# Convention : Reuss Voigt Hill
#
# Bulk Modulus (GPa) = 55.00775 64.44948 59.72861
# Shear Modulus (GPa) = 33.81979 40.85745 37.33862
#
# Velocity S-wave (km/s) = 4.12389 4.53270 4.33312
# Velocity P-wave (km/s) = 7.09480 7.73321 7.42087
#
# Compressibility (1/GPa) = 0.01817926
#
# Stress axis : x y z
#
# Youngs Moduli (GPa) = 116.64982 55.52527 86.25713
#
# Poissons Ratio (x) = 0.22375 0.17892
# Poissons Ratio (y) = 0.47006 0.33592
# Poissons Ratio (z) = 0.24196 0.21623
#
# Static dielectric constant tensor:
#      x y z
#    x 3.802060 0.000000 -0.071280 
#    y 0.000000 3.559460 0.000000 
#    z -0.071280 0.000000 3.838470 
# 
# 
# High freq. dielectric constant tensor:
#      x y z
#    x 1.795150 0.000000 -0.001850 
#    y 0.000000 1.764530 0.000000 
#    z -0.001850 0.000000 1.798640 
# 
# From -- ./inp_files/151691.got.cif
#   From: 2010.06.25/outbox.cif.g09.slc.cpg/sg12_76_cif.got.tgz:151691.got - 2010.06.28 00:19:55.
