data_PCOD8111436
_publ_section_title
;
Structure prediction by ZEFSAII (Michael W. Deem and Ramdas Pophale) SiO2 
 PCOD8111436
Probable space group: C 2/M
;
_chemical_formula_sum "Si O2"
_cell_formula_units_Z 64
_cell_length_a 9.549186
_cell_length_b 13.997052
_cell_length_c 23.922428
_cell_angle_alpha 90.000000
_cell_angle_beta 95.420554
_cell_angle_gamma 90.000000
_cell_volume 3183.183871
_symmetry_space_group_name_H-M "C 2/M"
_symmetry_group_IT_number 12
_symmetry_cell_setting 'monoclinic'
loop_
_space_group_symop_operation_xyz
x,y,z
-x,y,-z
-x,-y,-z
x,-y,z
1/2+x,1/2+y,z
1/2-x,1/2+y,-z
1/2-x,1/2-y,-z
1/2+x,1/2-y,z
loop_
_atom_site_type_symbol
_atom_site_label
_atom_site_fract_x
_atom_site_fract_y
_atom_site_fract_z
Si Si1 0.613771 0.251941 0.958577
Si Si2 0.719096 0.261137 0.303292
Si Si3 0.488605 0.111397 0.133389
Si Si4 0.181967 0.890050 0.865425
Si Si5 0.047683 0.760403 0.773258
Si Si6 0.364058 0.887427 0.612466
Si Si7 0.681053 0.887302 0.597326
Si Si8 0.660171 0.386524 0.506331
O O1 0.592060 0.152883 0.923834
O O2 0.612036 0.338913 0.915376
O O3 0.500000 0.273211 0.000000
O O4 0.750000 0.250000 0.000000
O O5 0.872448 0.254140 0.281999
O O6 0.612243 0.285314 0.248996
O O7 0.669906 0.162246 0.329937
O O8 0.725931 0.344680 0.349133
O O9 0.652591 0.129484 0.129564
O O10 0.441130 0.165948 0.187723
O O11 0.451334 0.000000 0.138626
O O12 0.112499 0.851737 0.806308
O O13 0.144952 0.000000 0.869215
O O14 0.517061 0.856958 0.594294
O O15 0.242282 0.853961 0.565080
O O16 0.360019 0.000000 0.623200
O O17 0.749424 0.847306 0.542649
O O18 0.696439 0.000000 0.601672
O O19 0.500000 0.346006 0.500000
O O20 0.656092 0.500000 0.503114
#
# Coordination Sequence:
#
# PCOD8111436 Si02
#       8
#     8   8   8   8   8   8   8   8
#     4  11  22  39  63  98 136 163 197 255 302 345
#     4  12  24  40  61  90 121 152 202 257 310 357
#     4  10  22  41  67  91 120 170 214 241 295 369
#     4  10  22  41  65  92 123 167 211 246 299 360
#     4  11  24  42  61  88 123 158 199 263 306 346
#     4  10  22  40  62  86 116 158 200 241 302 376
#     4  10  22  40  61  86 118 157 199 244 302 372
#     4   9  19  36  59  88 121 152 190 247 307 366
#
# _framework density 20.105654999999999
#
# number of rings (size 3 to 8) (size 9 to 14) (size 15 to 20)
#    0.000    1.625    3.750    0.375    1.750    5.000 
#    0.000    1.250    0.000    0.000    0.000    0.000 
#    0.000    0.000    0.000    0.000    0.000    0.000 
#
# Total GULP energy -396875.355145 kJ/mol
# GULP energy per Si atom -12402.354848 kJ/mol
# Density = 2.005989 g / cm^3
# Si number density = 20.105655 Si / 1000 Ang^3
#
#
#
# Elastic Constant Matrix: (Units=GPa)
#
#
# Indices 1 2 3 4 5 6 
#
# 1 115.4252 40.1935 47.1157 0.0000 4.1472 0.0000
# 2 40.1935 84.1303 39.4538 0.0000 0.7589 0.0000
# 3 47.1157 39.4538 115.1630 0.0000 0.9754 0.0000
# 4 0.0000 0.0000 0.0000 24.8033 0.0000 1.5713
# 5 4.1472 0.7589 0.9754 0.0000 53.5566 0.0000
# 6 0.0000 0.0000 0.0000 1.5713 0.0000 25.4605
#
#
#
# Elastic Compliance Matrix: (Units=1/GPa)
#
#
# Indices 1 2 3 4 5 6 
#
# 1 0.011401 -0.003879 -0.003329 0.000000 -0.000767 0.000000
# 2 -0.003879 0.015482 -0.003718 0.000000 0.000149 0.000000
# 3 -0.003329 -0.003718 0.011318 0.000000 0.000104 0.000000
# 4 0.000000 0.000000 0.000000 0.040476 0.000000 -0.002498
# 5 -0.000767 0.000149 0.000104 0.000000 0.018727 0.000000
# 6 0.000000 0.000000 0.000000 -0.002498 0.000000 0.039431
#
#
# Mechanical properties :
#
#
# Convention : Reuss Voigt Hill
#
# Bulk Modulus (GPa) = 61.16646 63.13827 62.15236
# Shear Modulus (GPa) = 30.46262 33.29445 31.87853
#
# Velocity S-wave (km/s) = 3.89669 4.07378 3.98622
# Velocity P-wave (km/s) = 7.12279 7.32113 7.22264
#
# Compressibility (1/GPa) = 0.01634883
#
# Stress axis : x y z
#
# Youngs Moduli (GPa) = 87.71415 64.59211 88.35259
#
# Poissons Ratio (x) = 0.25053 0.29412
# Poissons Ratio (y) = 0.34021 0.32853
# Poissons Ratio (z) = 0.29200 0.24018
#
# Static dielectric constant tensor:
#      x y z
#    x 3.772590 0.000000 0.000350 
#    y 0.000000 3.507110 0.000000 
#    z 0.000350 0.000000 3.471710 
# 
# 
# High freq. dielectric constant tensor:
#      x y z
#    x 1.795050 0.000000 0.001430 
#    y 0.000000 1.778090 0.000000 
#    z 0.001430 0.000000 1.795280 
# 
# From -- ./inp_files/332941.got.cif
#   From: 2010.06.25/outbox.cif.g09.slc.cpg/sg12_167_cif.got.tgz:332941.got - 2010.06.28 00:19:55.
