data_PCOD8111563
_publ_section_title
;
Structure prediction by ZEFSAII (Michael W. Deem and Ramdas Pophale) SiO2 
 PCOD8111563
Probable space group: C 2/M
;
_chemical_formula_sum "Si O2"
_cell_formula_units_Z 56
_cell_length_a 16.439438
_cell_length_b 17.641332
_cell_length_c 9.549955
_cell_angle_alpha 90.000000
_cell_angle_beta 68.780819
_cell_angle_gamma 90.000000
_cell_volume 2581.844106
_symmetry_space_group_name_H-M "C 2/M"
_symmetry_group_IT_number 12
_symmetry_cell_setting 'monoclinic'
loop_
_space_group_symop_operation_xyz
x,y,z
-x,y,-z
-x,-y,-z
x,-y,z
1/2+x,1/2+y,z
1/2-x,1/2+y,-z
1/2-x,1/2-y,-z
1/2+x,1/2-y,z
loop_
_atom_site_type_symbol
_atom_site_label
_atom_site_fract_x
_atom_site_fract_y
_atom_site_fract_z
Si Si1 0.487181 0.666890 0.165311
Si Si2 0.297191 0.693664 0.607467
Si Si3 0.549357 0.793802 0.608725
Si Si4 0.851315 0.088608 0.821665
Si Si5 0.289243 0.339315 0.317929
Si Si6 0.298698 0.911251 0.878419
Si Si7 0.510744 0.911060 0.155581
O O1 0.505740 0.733684 0.264345
O O2 0.555595 0.600376 0.160998
O O3 0.388987 0.634704 0.234814
O O4 0.500000 0.697007 0.000000
O O5 0.361471 0.754727 0.492953
O O6 0.344412 0.638002 0.685123
O O7 0.262482 0.644689 0.496995
O O8 0.222596 0.749161 0.718064
O O9 0.500000 0.819343 0.500000
O O10 0.560259 0.867448 0.703209
O O11 0.840985 0.000000 0.790983
O O12 0.774627 0.119871 0.969564
O O13 0.224330 0.388754 0.265041
O O14 0.393836 0.880221 0.858537
O O15 0.299772 0.000000 0.892313
O O16 0.497761 0.000000 0.190296
O O17 0.500000 0.890902 0.000000
#
# Coordination Sequence:
#
# PCOD8111563 Si02
#       7
#     8   8   8   8   8   8   8
#     4  11  22  39  63  98 127 168 222 263 326 383
#     4  10  23  41  61  94 128 172 220 264 327 388
#     4  11  21  38  63  91 130 165 215 270 311 387
#     4  11  24  42  66  96 134 175 219 273 331 392
#     4  10  22  40  63  89 129 168 209 271 315 386
#     4  10  22  40  64  96 125 165 215 261 324 388
#     4  10  23  43  67  96 130 169 215 269 327 385
#
# _framework density 21.689924000000001
#
# number of rings (size 3 to 8) (size 9 to 14) (size 15 to 20)
#    0.000    1.571    2.857    1.286    0.000    6.857 
#    0.000    5.714    0.000    0.000    0.000    0.000 
#    0.000    0.000    0.000    0.000    0.000    0.000 
#
# Total GULP energy -347054.090224 kJ/mol
# GULP energy per Si atom -12394.788937 kJ/mol
# Density = 2.164056 g / cm^3
# Si number density = 21.689924 Si / 1000 Ang^3
#
#
#
# Elastic Constant Matrix: (Units=GPa)
#
#
# Indices 1 2 3 4 5 6 
#
# 1 108.7261 29.1351 41.6406 0.0000 13.1111 0.0000
# 2 29.1351 59.1739 34.4999 0.0000 2.0063 0.0000
# 3 41.6406 34.4999 109.4885 0.0000 17.3069 0.0000
# 4 0.0000 0.0000 0.0000 40.2292 0.0000 5.3558
# 5 13.1111 2.0063 17.3069 0.0000 39.0644 0.0000
# 6 0.0000 0.0000 0.0000 5.3558 0.0000 33.3763
#
#
#
# Elastic Compliance Matrix: (Units=1/GPa)
#
#
# Indices 1 2 3 4 5 6 
#
# 1 0.011635 -0.004034 -0.002763 0.000000 -0.002474 0.000000
# 2 -0.004034 0.022242 -0.005923 0.000000 0.002835 0.000000
# 3 -0.002763 -0.005923 0.012748 0.000000 -0.004417 0.000000
# 4 0.000000 0.000000 0.000000 0.025400 0.000000 -0.004076
# 5 -0.002474 0.002835 -0.004417 0.000000 0.028240 0.000000
# 6 0.000000 0.000000 0.000000 -0.004076 0.000000 0.030615
#
#
# Mechanical properties :
#
#
# Convention : Reuss Voigt Hill
#
# Bulk Modulus (GPa) = 47.19879 54.21553 50.70716
# Shear Modulus (GPa) = 30.60306 34.00819 32.30562
#
# Velocity S-wave (km/s) = 3.76032 3.96400 3.86350
# Velocity P-wave (km/s) = 6.37662 6.78241 6.58264
#
# Compressibility (1/GPa) = 0.02118698
#
# Stress axis : x y z
#
# Youngs Moduli (GPa) = 85.94906 44.95922 78.44068
#
# Poissons Ratio (x) = 0.18136 0.21672
# Poissons Ratio (y) = 0.34671 0.46458
# Poissons Ratio (z) = 0.23746 0.26628
#
# Static dielectric constant tensor:
#      x y z
#    x 4.131240 0.000000 0.073450 
#    y 0.000000 3.632050 0.000000 
#    z 0.073450 0.000000 4.192960 
# 
# 
# High freq. dielectric constant tensor:
#      x y z
#    x 1.864280 0.000000 0.010950 
#    y 0.000000 1.827990 0.000000 
#    z 0.010950 0.000000 1.859860 
# 
# From -- ./inp_files/75837.got.cif
#   From: 2010.06.25/outbox.cif.g09.slc.cpg/sg12_38_cif.got.tgz:75837.got - 2010.06.28 00:19:55.
