data_PCOD8111615
_publ_section_title
;
Structure prediction by ZEFSAII (Michael W. Deem and Ramdas Pophale) SiO2 
 PCOD8111615
Probable space group: C 2/M
;
_chemical_formula_sum "Si O2"
_cell_formula_units_Z 64
_cell_length_a 19.796561
_cell_length_b 8.328564
_cell_length_c 35.043981
_cell_angle_alpha 90.000000
_cell_angle_beta 147.558433
_cell_angle_gamma 90.000000
_cell_volume 3099.515557
_symmetry_space_group_name_H-M "C 2/M"
_symmetry_group_IT_number 12
_symmetry_cell_setting 'monoclinic'
loop_
_space_group_symop_operation_xyz
x,y,z
-x,y,-z
-x,-y,-z
x,-y,z
1/2+x,1/2+y,z
1/2-x,1/2+y,-z
1/2-x,1/2-y,-z
1/2+x,1/2-y,z
loop_
_atom_site_type_symbol
_atom_site_label
_atom_site_fract_x
_atom_site_fract_y
_atom_site_fract_z
Si Si1 0.391935 0.185608 0.977606
Si Si2 0.631825 0.187130 0.825159
Si Si3 0.886947 0.815210 0.056588
Si Si4 0.789704 0.687737 0.559827
Si Si5 0.164951 0.808235 0.681318
Si Si6 0.969649 0.188215 0.526663
Si Si7 0.946015 0.813496 0.292002
Si Si8 0.558950 0.812912 0.202516
O O1 0.257025 0.215814 0.894530
O O2 0.402584 0.000000 0.994348
O O3 0.500000 0.236720 0.000000
O O4 0.415937 0.293535 0.026019
O O5 0.597375 0.210684 0.764788
O O6 0.519562 0.255473 0.798779
O O7 0.655206 0.000000 0.844802
O O8 0.987740 0.718244 0.129137
O O9 0.894910 0.000000 0.072029
O O10 0.750000 0.750000 0.000000
O O11 0.823269 0.500000 0.574266
O O12 0.750000 0.750000 0.500000
O O13 0.675502 0.723449 0.534000
O O14 0.906508 0.788604 0.630750
O O15 0.131423 0.750486 0.708143
O O16 0.300916 0.737556 0.733542
O O17 0.060606 0.737070 0.602511
O O18 0.162830 0.000000 0.680041
O O19 0.000000 0.265952 0.500000
O O20 0.997427 0.000000 0.538830
O O21 0.919705 0.000000 0.271370
O O22 0.575814 0.000000 0.216699
#
# Coordination Sequence:
#
# PCOD8111615 Si02
#       8
#     8   8   8   8   8   8   8   8
#     4  11  25  44  67  93 125 166 210 256 312 373
#     4  11  24  41  63  93 125 160 204 256 309 363
#     4  12  24  41  66  93 124 163 208 257 310 370
#     4  11  21  37  62  89 117 154 201 251 306 364
#     4   9  19  37  59  86 118 159 206 248 297 363
#     4   9  18  33  59  89 116 151 201 252 294 349
#     4  11  23  40  61  87 123 164 205 251 306 369
#     4  10  22  40  64  90 121 161 208 256 305 367
#
# _framework density 20.648389000000002
#
# number of rings (size 3 to 8) (size 9 to 14) (size 15 to 20)
#    0.000    1.500    2.500    2.625    3.500    1.500 
#    0.000    0.625    0.000    1.500    0.000    0.000 
#    0.000    0.000    0.000    0.000    0.000    0.000 
#
# Total GULP energy -396898.445889 kJ/mol
# GULP energy per Si atom -12403.076434 kJ/mol
# Density = 2.060139 g / cm^3
# Si number density = 20.648389 Si / 1000 Ang^3
#
#
#
# Elastic Constant Matrix: (Units=GPa)
#
#
# Indices 1 2 3 4 5 6 
#
# 1 169.0412 19.8341 60.7563 0.0004 0.3838 -0.0003
# 2 19.8341 27.8608 -4.7518 0.0011 4.7949 -0.0008
# 3 60.7563 -4.7518 104.7249 0.0006 -2.0558 -0.0006
# 4 0.0004 0.0011 0.0006 30.8759 -0.0003 -1.8071
# 5 0.3838 4.7949 -2.0558 -0.0003 43.8712 0.0001
# 6 -0.0003 -0.0008 -0.0006 -1.8071 0.0001 23.9860
#
#
#
# Elastic Compliance Matrix: (Units=1/GPa)
#
#
# Indices 1 2 3 4 5 6 
#
# 1 0.008680 -0.007170 -0.005352 0.000000 0.000457 0.000000
# 2 -0.007170 0.042768 0.006015 -0.000002 -0.004330 0.000001
# 3 -0.005352 0.006015 0.012927 0.000000 -0.000005 0.000000
# 4 0.000000 -0.000002 0.000000 0.032531 0.000000 0.002451
# 5 0.000457 -0.004330 -0.000005 0.000000 0.023263 0.000000
# 6 0.000000 0.000001 0.000000 0.002451 0.000000 0.041876
#
#
# Mechanical properties :
#
#
# Convention : Reuss Voigt Hill
#
# Bulk Modulus (GPa) = 19.47004 50.36713 34.91859
# Shear Modulus (GPa) = 26.01754 34.79916 30.40835
#
# Velocity S-wave (km/s) = 3.55354 4.10972 3.84171
# Velocity P-wave (km/s) = 5.12705 6.85313 6.05195
#
# Compressibility (1/GPa) = 0.05136096
#
# Stress axis : x y z
#
# Youngs Moduli (GPa) = 115.21355 23.38178 77.36029
#
# Poissons Ratio (x) = 0.16766 0.41402
# Poissons Ratio (y) = 0.82612 -0.46536
# Poissons Ratio (z) = 0.61660 -0.14065
#
# Static dielectric constant tensor:
#      x y z
#    x 4.010060 -0.000010 0.098130 
#    y -0.000010 3.635100 0.000010 
#    z 0.098130 0.000010 3.852250 
# 
# 
# High freq. dielectric constant tensor:
#      x y z
#    x 1.824910 0.000000 0.000540 
#    y 0.000000 1.782060 0.000000 
#    z 0.000540 0.000000 1.815470 
# 
# From -- ./inp_files/378518.got.cif
#   From: 2010.06.25/outbox.cif.g09.slc.cpg/sg12_190_cif.got.tgz:378518.got - 2010.06.28 00:19:55.
