data_PCOD8111811
_publ_section_title
;
Structure prediction by ZEFSAII (Michael W. Deem and Ramdas Pophale) SiO2 
 PCOD8111811
Probable space group: C 2/M
;
_chemical_formula_sum "Si O2"
_cell_formula_units_Z 56
_cell_length_a 27.252607
_cell_length_b 8.923171
_cell_length_c 18.610233
_cell_angle_alpha 90.000000
_cell_angle_beta 143.171577
_cell_angle_gamma 90.000000
_cell_volume 2712.756737
_symmetry_space_group_name_H-M "C 2/M"
_symmetry_group_IT_number 12
_symmetry_cell_setting 'monoclinic'
loop_
_space_group_symop_operation_xyz
x,y,z
-x,y,-z
-x,-y,-z
x,-y,z
1/2+x,1/2+y,z
1/2-x,1/2+y,-z
1/2-x,1/2-y,-z
1/2+x,1/2-y,z
loop_
_atom_site_type_symbol
_atom_site_label
_atom_site_fract_x
_atom_site_fract_y
_atom_site_fract_z
Si Si1 0.830509 0.829127 0.564895
Si Si2 0.882754 0.834346 0.003460
Si Si3 0.539019 0.174938 0.190943
Si Si4 0.779407 0.674920 0.108749
Si Si5 0.300971 0.668849 0.368565
Si Si6 0.407811 0.822176 0.374778
Si Si7 0.867376 0.168037 0.820236
O O1 0.750000 0.750000 0.500000
O O2 0.904920 0.730770 0.679481
O O3 0.844086 0.827868 0.495898
O O4 0.831931 0.000000 0.595398
O O5 0.790512 0.787167 0.914700
O O6 0.896926 0.836808 0.935701
O O7 0.901051 0.000000 0.056936
O O8 0.946920 0.713940 0.109069
O O9 0.560817 0.261433 0.143284
O O10 0.549045 0.000000 0.189792
O O11 0.786662 0.500000 0.100897
O O12 0.865284 0.730162 0.248114
O O13 0.750000 0.750000 0.000000
O O14 0.297114 0.500000 0.333162
O O15 0.350043 0.772279 0.371614
O O16 0.210845 0.727591 0.278171
O O17 0.500000 0.759232 0.500000
O O18 0.409842 0.000000 0.377051
O O19 0.847270 0.000000 0.769338
#
# Coordination Sequence:
#
# PCOD8111811 Si02
#       7
#     8   8   8   8   8   8   8
#     4  11  23  39  59  86 123 166 206 252 309 368
#     4  10  22  41  62  87 122 164 208 252 311 378
#     4  12  25  38  57  91 128 164 211 259 304 363
#     4  10  22  42  66  95 126 164 209 260 322 384
#     4  11  23  38  62  93 123 156 204 256 307 367
#     4  10  22  43  69  95 125 162 210 262 319 390
#     4  11  21  38  64  88 120 164 206 249 306 368
#
# _framework density 20.643208999999999
#
# number of rings (size 3 to 8) (size 9 to 14) (size 15 to 20)
#    0.000    1.286    2.857    3.000    0.000    7.143 
#    0.000    2.857    0.000    0.000    0.000    0.000 
#    0.000    0.000    0.000    0.000    0.000    0.000 
#
# Total GULP energy -347031.729662 kJ/mol
# GULP energy per Si atom -12393.990345 kJ/mol
# Density = 2.059622 g / cm^3
# Si number density = 20.643209 Si / 1000 Ang^3
#
#
#
# Elastic Constant Matrix: (Units=GPa)
#
#
# Indices 1 2 3 4 5 6 
#
# 1 62.1244 18.0292 42.1116 0.0000 -4.4265 0.0000
# 2 18.0292 53.8554 41.8256 0.0000 -2.6138 0.0000
# 3 42.1116 41.8256 147.5138 0.0000 3.3799 0.0000
# 4 0.0000 0.0000 0.0000 30.8850 0.0000 -0.2984
# 5 -4.4265 -2.6138 3.3799 0.0000 30.5083 0.0000
# 6 0.0000 0.0000 0.0000 -0.2984 0.0000 30.1398
#
#
#
# Elastic Compliance Matrix: (Units=1/GPa)
#
#
# Indices 1 2 3 4 5 6 
#
# 1 0.020648 -0.002710 -0.005203 0.000000 0.003340 0.000000
# 2 -0.002710 0.024407 -0.006202 0.000000 0.002385 0.000000
# 3 -0.005203 -0.006202 0.010078 0.000000 -0.002403 0.000000
# 4 0.000000 0.000000 0.000000 0.032381 0.000000 0.000321
# 5 0.003340 0.002385 -0.002403 0.000000 0.033733 0.000000
# 6 0.000000 0.000000 0.000000 0.000321 0.000000 0.033182
#
#
# Mechanical properties :
#
#
# Convention : Reuss Voigt Hill
#
# Bulk Modulus (GPa) = 37.16756 51.93629 44.55192
# Shear Modulus (GPa) = 26.09260 29.07508 27.58384
#
# Velocity S-wave (km/s) = 3.55911 3.75701 3.65940
# Velocity P-wave (km/s) = 5.91045 6.63580 6.28360
#
# Compressibility (1/GPa) = 0.02690519
#
# Stress axis : x y z
#
# Youngs Moduli (GPa) = 48.43140 40.97121 99.22928
#
# Poissons Ratio (x) = 0.11102 0.51626
# Poissons Ratio (y) = 0.13123 0.61537
# Poissons Ratio (z) = 0.25197 0.25408
#
# Static dielectric constant tensor:
#      x y z
#    x 3.662750 0.000000 -0.053540 
#    y 0.000000 3.644010 0.000000 
#    z -0.053540 0.000000 4.119840 
# 
# 
# High freq. dielectric constant tensor:
#      x y z
#    x 1.797390 0.000000 -0.002020 
#    y 0.000000 1.806520 0.000000 
#    z -0.002020 0.000000 1.820930 
# 
# From -- ./inp_files/329724.got.cif
#   From: 2010.06.25/outbox.cif.g09.slc.cpg/sg12_165_cif.got.tgz:329724.got - 2010.06.28 00:19:55.
