data_PCOD8111205
_publ_section_title
;
Structure prediction by ZEFSAII (Michael W. Deem and Ramdas Pophale) SiO2 
 PCOD8111205
Probable space group: C 2/M
;
_chemical_formula_sum "Si O2"
_cell_formula_units_Z 40
_cell_length_a 11.321730
_cell_length_b 24.043388
_cell_length_c 12.925256
_cell_angle_alpha 90.000000
_cell_angle_beta 149.719140
_cell_angle_gamma 90.000000
_cell_volume 1774.124912
_symmetry_space_group_name_H-M "C 2/M"
_symmetry_group_IT_number 12
_symmetry_cell_setting 'monoclinic'
loop_
_space_group_symop_operation_xyz
x,y,z
-x,y,-z
-x,-y,-z
x,-y,z
1/2+x,1/2+y,z
1/2-x,1/2+y,-z
1/2-x,1/2-y,-z
1/2+x,1/2-y,z
loop_
_atom_site_type_symbol
_atom_site_label
_atom_site_fract_x
_atom_site_fract_y
_atom_site_fract_z
Si Si1 0.238644 0.226581 0.343881
Si Si2 0.622309 0.834559 0.351536
Si Si3 0.409840 0.635287 0.033606
Si Si4 0.827174 0.062300 0.159580
Si Si5 0.712403 0.937408 0.299057
O O1 0.500000 0.229686 0.500000
O O2 0.233317 0.194393 0.448659
O O3 0.129149 0.288738 0.264782
O O4 0.065207 0.191049 0.142162
O O5 0.359574 0.849017 0.184715
O O6 0.758283 0.891135 0.421975
O O7 0.500000 0.600467 0.000000
O O8 0.459320 0.602641 0.178749
O O9 0.881952 0.071464 0.325328
O O10 0.899944 0.000000 0.184074
O O11 0.551605 0.071324 0.938699
O O12 0.744071 0.000000 0.367873
#
# Coordination Sequence:
#
# PCOD8111205 Si02
#       5
#     8   8   8   8   8
#     4  11  23  40  58  84 121 152 198 242 289 348
#     4  10  22  39  62  87 116 156 190 242 299 344
#     4  11  21  38  60  85 120 157 197 236 284 351
#     4   8  16  32  57  89 118 150 193 241 290 345
#     4   8  15  33  60  88 116 146 192 246 294 342
#
# _framework density 22.546327000000002
#
# number of rings (size 3 to 8) (size 9 to 14) (size 15 to 20)
#    0.000    2.400    2.000    1.800    0.000    3.600 
#    7.200    1.000    0.000    4.200    0.000    0.000 
#    0.000    0.000    0.000    0.200    0.000    0.000 
#
# Total GULP energy -247862.280141 kJ/mol
# GULP energy per Si atom -12393.114007 kJ/mol
# Density = 2.249501 g / cm^3
# Si number density = 22.546327 Si / 1000 Ang^3
#
#
#
# Elastic Constant Matrix: (Units=GPa)
#
#
# Indices 1 2 3 4 5 6 
#
# 1 149.3196 83.5328 23.8461 0.0002 6.0830 0.0001
# 2 83.5328 148.6051 21.8045 0.0000 4.9708 0.0000
# 3 23.8461 21.8045 38.2663 0.0007 15.8697 0.0002
# 4 0.0002 0.0000 0.0007 15.8836 0.0003 -8.1779
# 5 6.0830 4.9708 15.8697 0.0003 43.4883 0.0001
# 6 0.0001 0.0000 0.0002 -8.1779 0.0001 31.6092
#
#
#
# Elastic Compliance Matrix: (Units=1/GPa)
#
#
# Indices 1 2 3 4 5 6 
#
# 1 0.010157 -0.005203 -0.003561 0.000000 0.000474 0.000000
# 2 -0.005203 0.010032 -0.002711 0.000000 0.000570 0.000000
# 3 -0.003561 -0.002711 0.034833 -0.000002 -0.011903 -0.000001
# 4 0.000000 0.000000 -0.000002 0.072633 0.000000 0.018792
# 5 0.000474 0.000570 -0.011903 0.000000 0.027207 0.000000
# 6 0.000000 0.000000 -0.000001 0.018792 0.000000 0.036498
#
#
# Mechanical properties :
#
#
# Convention : Reuss Voigt Hill
#
# Bulk Modulus (GPa) = 31.17923 66.06198 48.62061
# Shear Modulus (GPa) = 22.22209 31.99674 27.10941
#
# Velocity S-wave (km/s) = 3.14286 3.77125 3.47131
# Velocity P-wave (km/s) = 5.19895 6.95178 6.13826
#
# Compressibility (1/GPa) = 0.03207263
#
# Stress axis : x y z
#
# Youngs Moduli (GPa) = 98.45445 99.67678 28.70833
#
# Poissons Ratio (x) = 0.51858 0.10224
# Poissons Ratio (y) = 0.51223 0.07783
# Poissons Ratio (z) = 0.35063 0.27022
#
# Static dielectric constant tensor:
#      x y z
#    x 4.423800 0.000000 -0.121090 
#    y 0.000000 4.214620 0.000000 
#    z -0.121090 0.000000 3.968070 
# 
# 
# High freq. dielectric constant tensor:
#      x y z
#    x 1.889700 0.000000 0.004640 
#    y 0.000000 1.882610 0.000000 
#    z 0.004640 0.000000 1.905710 
# 
# From -- ./inp_files/47072.got.cif
#   From: 2010.06.25/outbox.cif.g09.slc.cpg/sg12_24_cif.got.tgz:47072.got - 2010.06.28 00:19:55.
