data_PCOD8111230
_publ_section_title
;
Structure prediction by ZEFSAII (Michael W. Deem and Ramdas Pophale) SiO2 
 PCOD8111230
Probable space group: C 2/M
;
_chemical_formula_sum "Si O2"
_cell_formula_units_Z 64
_cell_length_a 31.254303
_cell_length_b 8.818661
_cell_length_c 14.984959
_cell_angle_alpha 90.000000
_cell_angle_beta 49.169184
_cell_angle_gamma 90.000000
_cell_volume 3125.067027
_symmetry_space_group_name_H-M "C 2/M"
_symmetry_group_IT_number 12
_symmetry_cell_setting 'monoclinic'
loop_
_space_group_symop_operation_xyz
x,y,z
-x,y,-z
-x,-y,-z
x,-y,z
1/2+x,1/2+y,z
1/2-x,1/2+y,-z
1/2-x,1/2-y,-z
1/2+x,1/2-y,z
loop_
_atom_site_type_symbol
_atom_site_label
_atom_site_fract_x
_atom_site_fract_y
_atom_site_fract_z
Si Si1 0.494655 0.679951 0.904070
Si Si2 0.287929 0.322989 0.372244
Si Si3 0.791293 0.322789 0.014723
Si Si4 0.488690 0.828198 0.411204
Si Si5 0.761220 0.172247 0.726848
Si Si6 0.120537 0.171684 0.501739
Si Si7 0.080789 0.678682 0.138881
Si Si8 0.108928 0.677646 0.695055
O O1 0.493596 0.500000 0.900771
O O2 0.440100 0.743344 0.925211
O O3 0.547866 0.745745 0.778812
O O4 0.500000 0.734967 0.000000
O O5 0.292538 0.500000 0.384756
O O6 0.250000 0.250000 0.500000
O O7 0.262017 0.291529 0.311941
O O8 0.350508 0.249694 0.285757
O O9 0.791126 0.500000 0.996937
O O10 0.764905 0.278383 0.144852
O O11 0.750000 0.250000 0.000000
O O12 0.856030 0.262170 0.923678
O O13 0.500000 0.815705 0.500000
O O14 0.437835 0.714333 0.464307
O O15 0.541926 0.779154 0.277352
O O16 0.471138 0.000000 0.409497
O O17 0.829274 0.186584 0.638915
O O18 0.743765 0.000000 0.724564
O O19 0.135602 0.284226 0.562441
O O20 0.116607 0.000000 0.543750
O O21 0.081340 0.500000 0.119718
O O22 0.103363 0.500000 0.718182
#
# Coordination Sequence:
#
# PCOD8111230 Si02
#       8
#     8   8   8   8   8   8   8   8
#     4  11  25  43  64  94 130 168 213 265 320 380
#     4  12  24  39  61  92 128 167 209 256 314 379
#     4  10  24  45  67  93 126 170 221 272 323 380
#     4  10  22  39  62  92 125 161 204 258 320 385
#     4  10  23  42  62  90 128 169 215 265 317 380
#     4  11  22  38  62  91 126 164 208 264 321 378
#     4  10  22  42  65  93 128 169 215 263 319 384
#     4  12  24  40  63  90 126 169 210 258 319 381
#
# _framework density 20.479561
#
# number of rings (size 3 to 8) (size 9 to 14) (size 15 to 20)
#    0.000    1.250    2.500    3.000    3.500    2.750 
#    0.000    0.000    0.000    0.000    0.000    0.000 
#    0.000    0.000    0.000    0.000    0.000    0.000 
#
# Total GULP energy -396850.517813 kJ/mol
# GULP energy per Si atom -12401.578682 kJ/mol
# Density = 2.043295 g / cm^3
# Si number density = 20.479561 Si / 1000 Ang^3
#
#
#
# Elastic Constant Matrix: (Units=GPa)
#
#
# Indices 1 2 3 4 5 6 
#
# 1 153.3323 54.7199 67.2173 0.0000 -12.1586 -0.0001
# 2 54.7199 68.2500 35.1686 0.0000 -2.1771 -0.0005
# 3 67.2173 35.1686 119.0567 0.0000 -5.9833 0.0000
# 4 0.0000 0.0000 0.0000 23.9057 0.0000 0.7743
# 5 -12.1586 -2.1771 -5.9833 0.0000 37.2349 0.0000
# 6 -0.0001 -0.0005 0.0000 0.7743 0.0000 39.6441
#
#
#
# Elastic Compliance Matrix: (Units=1/GPa)
#
#
# Indices 1 2 3 4 5 6 
#
# 1 0.010822 -0.006503 -0.004063 0.000000 0.002501 0.000000
# 2 -0.006503 0.021192 -0.002654 0.000000 -0.001311 0.000000
# 3 -0.004063 -0.002654 0.011496 0.000000 0.000365 0.000000
# 4 0.000000 0.000000 0.000000 0.041857 0.000000 -0.000818
# 5 0.002501 -0.001311 0.000365 0.000000 0.027655 0.000000
# 6 0.000000 0.000000 0.000000 -0.000818 0.000000 0.025240
#
#
# Mechanical properties :
#
#
# Convention : Reuss Voigt Hill
#
# Bulk Modulus (GPa) = 58.58791 72.76117 65.67454
# Shear Modulus (GPa) = 29.34382 32.39251 30.86817
#
# Velocity S-wave (km/s) = 3.78939 3.98137 3.88657
# Velocity P-wave (km/s) = 6.91491 7.53266 7.23039
#
# Compressibility (1/GPa) = 0.01706837
#
# Stress axis : x y z
#
# Youngs Moduli (GPa) = 92.40334 47.18799 86.98796
#
# Poissons Ratio (x) = 0.30687 0.35346
# Poissons Ratio (y) = 0.60091 0.23089
# Poissons Ratio (z) = 0.37546 0.12525
#
# Static dielectric constant tensor:
#      x y z
#    x 3.707870 0.000000 -0.491510 
#    y 0.000000 3.362800 0.000000 
#    z -0.491510 0.000000 2.977720 
# 
# 
# High freq. dielectric constant tensor:
#      x y z
#    x 1.807870 0.000000 -0.007830 
#    y 0.000000 1.797580 0.000000 
#    z -0.007830 0.000000 1.804790 
# 
# From -- ./inp_files/249737.got.cif
#   From: 2010.06.25/outbox.cif.g09.slc.cpg/sg12_125_cif.got.tgz:249737.got - 2010.06.28 00:19:55.
