data_PCOD8111209
_publ_section_title
;
Structure prediction by ZEFSAII (Michael W. Deem and Ramdas Pophale) SiO2 
 PCOD8111209
Probable space group: C 2/M
;
_chemical_formula_sum "Si O2"
_cell_formula_units_Z 56
_cell_length_a 20.102482
_cell_length_b 8.601885
_cell_length_c 25.574899
_cell_angle_alpha 90.000000
_cell_angle_beta 140.048933
_cell_angle_gamma 90.000000
_cell_volume 2839.764503
_symmetry_space_group_name_H-M "C 2/M"
_symmetry_group_IT_number 12
_symmetry_cell_setting 'monoclinic'
loop_
_space_group_symop_operation_xyz
x,y,z
-x,y,-z
-x,-y,-z
x,-y,z
1/2+x,1/2+y,z
1/2-x,1/2+y,-z
1/2-x,1/2-y,-z
1/2+x,1/2-y,z
loop_
_atom_site_type_symbol
_atom_site_label
_atom_site_fract_x
_atom_site_fract_y
_atom_site_fract_z
Si Si1 0.225486 0.183223 0.737517
Si Si2 0.987426 0.185499 0.434144
Si Si3 0.060727 0.317587 0.179095
Si Si4 0.497031 0.181720 0.256963
Si Si5 0.223026 0.183168 0.853348
Si Si6 0.864678 0.816712 0.567843
Si Si7 0.433202 0.682247 0.009465
O O1 0.119869 0.257036 0.651962
O O2 0.320873 0.233893 0.758942
O O3 0.244501 0.242318 0.807574
O O4 0.212652 0.000000 0.730221
O O5 0.000000 0.252754 0.500000
O O6 0.080025 0.242318 0.452117
O O7 0.984147 0.000000 0.433227
O O8 0.043808 0.500000 0.157550
O O9 0.037356 0.272032 0.224187
O O10 0.989435 0.219675 0.097400
O O11 0.377970 0.231120 0.186429
O O12 0.566905 0.268567 0.341406
O O13 0.507958 0.000000 0.274101
O O14 0.204113 0.000000 0.845671
O O15 0.323191 0.230963 0.946858
O O16 0.750000 0.750000 0.500000
O O17 0.856357 0.000000 0.562777
O O18 0.413313 0.500000 0.992357
O O19 0.500000 0.743423 0.000000
#
# Coordination Sequence:
#
# PCOD8111209 Si02
#       7
#     8   8   8   8   8   8   8
#     4   9  17  33  58  87 113 150 203 247 287 345
#     4   9  18  33  59  90 117 148 197 249 288 342
#     4  10  22  39  62  89 118 158 206 249 296 359
#     4  11  24  41  62  90 124 159 200 249 302 361
#     4  11  21  38  65  88 117 161 204 246 295 361
#     4  11  23  40  62  89 122 161 201 245 304 362
#     4  11  23  38  59  91 126 155 194 252 314 359
#
# _framework density 19.719946
#
# number of rings (size 3 to 8) (size 9 to 14) (size 15 to 20)
#    0.000    1.714    2.857    1.714    2.000    2.286 
#    0.000    0.000    0.000    1.714    0.000    0.000 
#    0.000    0.000    0.000    0.000    0.000    0.000 
#
# Total GULP energy -347249.487573 kJ/mol
# GULP energy per Si atom -12401.767413 kJ/mol
# Density = 1.967506 g / cm^3
# Si number density = 19.719946 Si / 1000 Ang^3
#
#
#
# Elastic Constant Matrix: (Units=GPa)
#
#
# Indices 1 2 3 4 5 6 
#
# 1 174.4718 34.7178 74.0512 0.0000 8.8210 0.0001
# 2 34.7178 32.0690 22.7963 -0.0001 -3.4821 0.0003
# 3 74.0512 22.7963 137.7474 0.0000 13.7615 0.0000
# 4 0.0000 -0.0001 0.0000 30.0606 0.0000 2.5267
# 5 8.8210 -3.4821 13.7615 0.0000 39.5209 0.0000
# 6 0.0001 0.0003 0.0000 2.5267 0.0000 25.5906
#
#
#
# Elastic Compliance Matrix: (Units=1/GPa)
#
#
# Indices 1 2 3 4 5 6 
#
# 1 0.008631 -0.007137 -0.003319 0.000000 -0.001400 0.000000
# 2 -0.007137 0.042362 -0.003840 0.000000 0.006662 -0.000001
# 3 -0.003319 -0.003840 0.009987 0.000000 -0.003075 0.000000
# 4 0.000000 0.000000 0.000000 0.033545 0.000000 -0.003312
# 5 -0.001400 0.006662 -0.003075 0.000000 0.027273 0.000000
# 6 0.000000 -0.000001 0.000000 -0.003312 0.000000 0.039404
#
#
# Mechanical properties :
#
#
# Convention : Reuss Voigt Hill
#
# Bulk Modulus (GPa) = 30.87493 67.49098 49.18296
# Shear Modulus (GPa) = 24.92669 33.21593 29.07131
#
# Velocity S-wave (km/s) = 3.55918 4.10858 3.84371
# Velocity P-wave (km/s) = 5.70798 7.53699 6.68533
#
# Compressibility (1/GPa) = 0.03238874
#
# Stress axis : x y z
#
# Youngs Moduli (GPa) = 115.85875 23.60620 100.13411
#
# Poissons Ratio (x) = 0.16847 0.33236
# Poissons Ratio (y) = 0.82685 0.38448
# Poissons Ratio (z) = 0.38455 0.09064
#
# Static dielectric constant tensor:
#      x y z
#    x 3.827630 0.000000 0.177270 
#    y 0.000000 3.318410 0.000000 
#    z 0.177270 0.000000 5.730370 
# 
# 
# High freq. dielectric constant tensor:
#      x y z
#    x 1.779270 0.000000 0.005940 
#    y 0.000000 1.744500 0.000000 
#    z 0.005940 0.000000 1.781560 
# 
# From -- ./inp_files/363242.got.cif
#   From: 2010.06.25/outbox.cif.g09.slc.cpg/sg12_182_cif.got.tgz:363242.got - 2010.06.28 00:19:55.
