data_PCOD8111531
_publ_section_title
;
Structure prediction by ZEFSAII (Michael W. Deem and Ramdas Pophale) SiO2 
 PCOD8111531
Probable space group: C 2/M
;
_chemical_formula_sum "Si O2"
_cell_formula_units_Z 32
_cell_length_a 18.305231
_cell_length_b 14.050976
_cell_length_c 12.293016
_cell_angle_alpha 90.000000
_cell_angle_beta 153.461167
_cell_angle_gamma 90.000000
_cell_volume 1412.724452
_symmetry_space_group_name_H-M "C 2/M"
_symmetry_group_IT_number 12
_symmetry_cell_setting 'monoclinic'
loop_
_space_group_symop_operation_xyz
x,y,z
-x,y,-z
-x,-y,-z
x,-y,z
1/2+x,1/2+y,z
1/2-x,1/2+y,-z
1/2-x,1/2-y,-z
1/2+x,1/2-y,z
loop_
_atom_site_type_symbol
_atom_site_label
_atom_site_fract_x
_atom_site_fract_y
_atom_site_fract_z
Si Si1 0.232548 0.107938 0.306524
Si Si2 0.498274 0.300759 0.160362
Si Si3 0.564076 0.609488 0.702256
Si Si4 0.433826 0.894072 0.152156
O O1 0.429036 0.114093 0.570362
O O2 0.158752 0.170492 0.307007
O O3 0.172805 0.000000 0.243039
O O4 0.163131 0.146417 0.100290
O O5 0.521454 0.328452 0.317761
O O6 0.470999 0.186966 0.112149
O O7 0.500000 0.646097 0.500000
O O8 0.512637 0.500000 0.650081
O O9 0.758349 0.623596 0.972113
O O10 0.440108 0.000000 0.106361
#
# Coordination Sequence:
#
# PCOD8111531 Si02
#       4
#     8   8   8   8
#     4  10  22  41  65  93 120 155 208 254 298 356
#     4  11  21  39  67  88 121 163 203 246 308 356
#     4  10  22  40  62  91 126 160 200 250 306 361
#     4  10  23  41  60  91 126 159 204 251 297 360
#
# _framework density 22.651267000000001
#
# number of rings (size 3 to 8) (size 9 to 14) (size 15 to 20)
#    0.000    1.750    0.000    4.500    3.500    1.000 
#    0.000    6.250    0.000    0.000    0.000    0.000 
#    0.000    0.000    0.000    0.000    0.000    0.000 
#
# Total GULP energy -198378.906054 kJ/mol
# GULP energy per Si atom -12398.681628 kJ/mol
# Density = 2.259971 g / cm^3
# Si number density = 22.651267 Si / 1000 Ang^3
#
#
#
# Elastic Constant Matrix: (Units=GPa)
#
#
# Indices 1 2 3 4 5 6 
#
# 1 97.2195 38.6894 33.3545 0.0000 -26.1051 0.0000
# 2 38.6894 139.4237 -2.8682 0.0000 -11.8179 0.0000
# 3 33.3545 -2.8682 113.6695 0.0000 3.0283 0.0000
# 4 0.0000 0.0000 0.0000 13.7859 0.0000 -17.5656
# 5 -26.1051 -11.8179 3.0283 0.0000 31.4432 0.0000
# 6 0.0000 0.0000 0.0000 -17.5656 0.0000 12.1652
#
#
#
# Elastic Compliance Matrix: (Units=1/GPa)
#
#
# Indices 1 2 3 4 5 6 
#
# 1 0.017306 -0.003773 -0.005533 0.000000 0.013483 0.000000
# 2 -0.003773 0.008233 0.001319 0.000000 -0.000166 0.000000
# 3 -0.005533 0.001319 0.010591 0.000000 -0.005117 0.000000
# 4 0.000000 0.000000 0.000000 -0.086375 0.000000 -0.124718
# 5 0.013483 -0.000166 -0.005117 0.000000 0.043428 0.000000
# 6 0.000000 0.000000 0.000000 -0.124718 0.000000 -0.097882
#
#
# Mechanical properties :
#
#
# Convention : Reuss Voigt Hill
#
# Bulk Modulus (GPa) = 49.61296 54.29600 51.95448
# Shear Modulus (GPa) = -60.96965 30.22133 -15.37416
#
# Velocity S-wave (km/s) = -5.19376 3.65663 -2.60808
# Velocity P-wave (km/s) = 3.74383 6.46919 3.73056
#
# Compressibility (1/GPa) = 0.02015603
#
# Stress axis : x y z
#
# Youngs Moduli (GPa) = 57.78295 121.46864 94.42405
#
# Poissons Ratio (x) = 0.45835 0.52241
# Poissons Ratio (y) = 0.21804 -0.12458
# Poissons Ratio (z) = 0.31969 -0.16026
#
# Static dielectric constant tensor:
#      x y z
#    x 3.508230 0.000000 0.032410 
#    y 0.000000 4.433160 0.000000 
#    z 0.032410 0.000000 4.201380 
# 
# 
# High freq. dielectric constant tensor:
#      x y z
#    x 1.851370 0.000000 0.009150 
#    y 0.000000 1.914000 0.000000 
#    z 0.009150 0.000000 1.904880 
# 
# From -- ./inp_files/45205.got.cif
#   From: 2010.06.25/outbox.cif.g09.slc.cpg/sg12_23_cif.got.tgz:45205.got - 2010.06.28 00:19:55.
