data_PCOD8111839
_publ_section_title
;
Structure prediction by ZEFSAII (Michael W. Deem and Ramdas Pophale) SiO2 
 PCOD8111839
Probable space group: C 2/M
;
_chemical_formula_sum "Si O2"
_cell_formula_units_Z 48
_cell_length_a 8.592838
_cell_length_b 28.383838
_cell_length_c 9.739164
_cell_angle_alpha 90.000000
_cell_angle_beta 92.204389
_cell_angle_gamma 90.000000
_cell_volume 2373.602081
_symmetry_space_group_name_H-M "C 2/M"
_symmetry_group_IT_number 12
_symmetry_cell_setting 'monoclinic'
loop_
_space_group_symop_operation_xyz
x,y,z
-x,y,-z
-x,-y,-z
x,-y,z
1/2+x,1/2+y,z
1/2-x,1/2+y,-z
1/2-x,1/2-y,-z
1/2+x,1/2-y,z
loop_
_atom_site_type_symbol
_atom_site_label
_atom_site_fract_x
_atom_site_fract_y
_atom_site_fract_z
Si Si1 0.881261 0.208195 0.176891
Si Si2 0.837594 0.445805 0.549316
Si Si3 0.331853 0.897766 0.061636
Si Si4 0.171221 0.107328 0.777180
Si Si5 0.855001 0.053635 0.724591
Si Si6 0.724345 0.299373 0.137758
O O1 0.803021 0.163325 0.249502
O O2 0.826550 0.260027 0.223633
O O3 0.062370 0.198670 0.213671
O O4 0.827400 0.211392 0.018181
O O5 0.859689 0.500000 0.591250
O O6 0.793581 0.418661 0.685460
O O7 0.704056 0.439328 0.432023
O O8 0.000000 0.424883 0.500000
O O9 0.286556 0.936764 0.173752
O O10 0.323707 0.847522 0.140123
O O11 0.500000 0.906609 0.000000
O O12 0.204210 0.902153 0.938002
O O13 0.995423 0.089934 0.748937
O O14 0.913299 0.000000 0.747349
#
# Coordination Sequence:
#
# PCOD8111839 Si02
#       6
#     8   8   8   8   8   8
#     4   9  18  31  53  82 114 150 191 240 286 343
#     4  10  22  41  63  87 116 155 201 244 295 360
#     4  11  23  36  56  90 124 155 195 246 298 347
#     4  11  21  37  59  90 118 152 203 244 293 351
#     4  11  23  40  61  86 119 160 199 242 298 356
#     4   9  18  32  51  81 118 151 190 236 290 348
#
# _framework density 20.222429999999999
#
# number of rings (size 3 to 8) (size 9 to 14) (size 15 to 20)
#    0.000    1.833    1.667    2.500    7.000    3.667 
#    0.000    0.000    0.000    1.000    0.000    0.000 
#    0.000    0.000    0.000    0.000    0.000    0.000 
#
# Total GULP energy -297443.157246 kJ/mol
# GULP energy per Si atom -12393.464885 kJ/mol
# Density = 2.017640 g / cm^3
# Si number density = 20.222430 Si / 1000 Ang^3
#
#
#
# Elastic Constant Matrix: (Units=GPa)
#
#
# Indices 1 2 3 4 5 6 
#
# 1 85.1717 31.3556 5.8377 0.0000 -14.0570 0.0000
# 2 31.3556 111.6656 42.7508 0.0000 -2.4326 0.0000
# 3 5.8377 42.7508 47.2440 0.0000 -11.4785 0.0000
# 4 0.0000 0.0000 0.0000 15.0008 0.0000 5.3233
# 5 -14.0570 -2.4326 -11.4785 0.0000 28.5945 0.0000
# 6 0.0000 0.0000 0.0000 5.3233 0.0000 31.3873
#
#
#
# Elastic Compliance Matrix: (Units=1/GPa)
#
#
# Indices 1 2 3 4 5 6 
#
# 1 0.015261 -0.006485 0.006284 0.000000 0.009473 0.000000
# 2 -0.006485 0.016934 -0.016562 0.000000 -0.008396 0.000000
# 3 0.006284 -0.016562 0.039653 0.000000 0.017598 0.000000
# 4 0.000000 0.000000 0.000000 0.070932 0.000000 -0.012030
# 5 0.009473 -0.008396 0.017598 0.000000 0.045979 0.000000
# 6 0.000000 0.000000 0.000000 -0.012030 0.000000 0.033900
#
#
# Mechanical properties :
#
#
# Convention : Reuss Voigt Hill
#
# Bulk Modulus (GPa) = 26.09467 44.88551 35.49009
# Shear Modulus (GPa) = 18.59024 25.93901 22.26462
#
# Velocity S-wave (km/s) = 3.03527 3.58534 3.32171
# Velocity P-wave (km/s) = 5.02152 6.27564 5.68328
#
# Compressibility (1/GPa) = 0.03832200
#
# Stress axis : x y z
#
# Youngs Moduli (GPa) = 65.52616 59.05277 25.21900
#
# Poissons Ratio (x) = 0.38294 -0.15847
# Poissons Ratio (y) = 0.42492 0.41768
# Poissons Ratio (z) = -0.41175 0.97803
#
# Static dielectric constant tensor:
#      x y z
#    x 3.713340 0.000000 -0.040960 
#    y 0.000000 3.837980 0.000000 
#    z -0.040960 0.000000 3.335150 
# 
# 
# High freq. dielectric constant tensor:
#      x y z
#    x 1.797020 0.000000 -0.003420 
#    y 0.000000 1.796620 0.000000 
#    z -0.003420 0.000000 1.748420 
# 
# From -- ./inp_files/42139.got.cif
#   From: 2010.06.25/outbox.cif.g09.slc.cpg/sg12_22_cif.got.tgz:42139.got - 2010.06.28 00:19:55.
