data_PCOD8111794
_publ_section_title
;
Structure prediction by ZEFSAII (Michael W. Deem and Ramdas Pophale) SiO2 
 PCOD8111794
Probable space group: C 2/M
;
_chemical_formula_sum "Si O2"
_cell_formula_units_Z 48
_cell_length_a 15.513074
_cell_length_b 30.451576
_cell_length_c 9.028789
_cell_angle_alpha 90.000000
_cell_angle_beta 144.696080
_cell_angle_gamma 90.000000
_cell_volume 2464.903674
_symmetry_space_group_name_H-M "C 2/M"
_symmetry_group_IT_number 12
_symmetry_cell_setting 'monoclinic'
loop_
_space_group_symop_operation_xyz
x,y,z
-x,y,-z
-x,-y,-z
x,-y,z
1/2+x,1/2+y,z
1/2-x,1/2+y,-z
1/2-x,1/2-y,-z
1/2+x,1/2-y,z
loop_
_atom_site_type_symbol
_atom_site_label
_atom_site_fract_x
_atom_site_fract_y
_atom_site_fract_z
Si Si1 0.460165 0.688185 0.780132
Si Si2 0.297981 0.124000 0.600632
Si Si3 0.420332 0.233811 0.232292
Si Si4 0.899873 0.114350 0.213749
Si Si5 0.101371 0.360679 0.928007
Si Si6 0.438287 0.450038 0.749384
O O1 0.296411 0.667603 0.565977
O O2 0.470525 0.730876 0.691660
O O3 0.569499 0.651183 0.866834
O O4 0.500000 0.703068 0.000000
O O5 0.434680 0.119565 0.675516
O O6 0.210032 0.078573 0.469194
O O7 0.352671 0.131303 0.841332
O O8 0.500000 0.223561 0.500000
O O9 0.410442 0.190562 0.120704
O O10 0.250000 0.250000 0.000000
O O11 0.000000 0.124367 0.500000
O O12 0.941110 0.067265 0.201448
O O13 0.723197 0.114982 0.996709
O O14 0.399417 0.500000 0.654268
O O15 0.500000 0.445573 0.000000
#
# Coordination Sequence:
#
# PCOD8111794 Si02
#       6
#     8   8   8   8   8   8
#     4  11  23  39  62  85 124 175 214 259 313 367
#     4  10  22  41  61  92 130 167 203 262 324 378
#     4  12  26  41  61  90 128 172 226 277 313 366
#     4  11  19  40  65  90 126 163 209 260 313 382
#     4  11  23  38  62  92 127 167 211 263 319 375
#     4  10  22  42  69  96 124 163 208 254 315 393
#
# _framework density 19.473378
#
# number of rings (size 3 to 8) (size 9 to 14) (size 15 to 20)
#    0.000    1.167    5.000    3.500    4.667    2.333 
#    0.000    2.500    0.000    2.000    0.000    0.000 
#    0.000    0.000    0.000    0.000    0.000    0.000 
#
# Total GULP energy -297493.639504 kJ/mol
# GULP energy per Si atom -12395.568313 kJ/mol
# Density = 1.942906 g / cm^3
# Si number density = 19.473378 Si / 1000 Ang^3
#
#
#
# Elastic Constant Matrix: (Units=GPa)
#
#
# Indices 1 2 3 4 5 6 
#
# 1 123.1459 52.0419 50.8941 0.0000 32.2652 0.0000
# 2 52.0419 147.2947 49.2697 0.0000 13.0904 0.0000
# 3 50.8941 49.2697 81.7116 0.0000 25.3702 0.0000
# 4 0.0000 0.0000 0.0000 25.8736 0.0000 -7.3803
# 5 32.2652 13.0904 25.3702 0.0000 44.2164 0.0000
# 6 0.0000 0.0000 0.0000 -7.3803 0.0000 25.0557
#
#
#
# Elastic Compliance Matrix: (Units=1/GPa)
#
#
# Indices 1 2 3 4 5 6 
#
# 1 0.012542 -0.002387 -0.004563 0.000000 -0.005827 0.000000
# 2 -0.002387 0.008968 -0.004426 0.000000 0.001626 0.000000
# 3 -0.004563 -0.004426 0.019843 0.000000 -0.006746 0.000000
# 4 0.000000 0.000000 0.000000 0.042195 0.000000 0.012429
# 5 -0.005827 0.001626 -0.006746 0.000000 0.030257 0.000000
# 6 0.000000 0.000000 0.000000 0.012429 0.000000 0.043572
#
#
# Mechanical properties :
#
#
# Convention : Reuss Voigt Hill
#
# Bulk Modulus (GPa) = 53.75902 72.95152 63.35527
# Shear Modulus (GPa) = 26.83415 32.35892 29.59654
#
# Velocity S-wave (km/s) = 3.71616 4.08082 3.90275
# Velocity P-wave (km/s) = 6.78819 7.72966 7.27417
#
# Compressibility (1/GPa) = 0.01860153
#
# Stress axis : x y z
#
# Youngs Moduli (GPa) = 79.73324 111.50271 50.39467
#
# Poissons Ratio (x) = 0.26616 0.22996
# Poissons Ratio (y) = 0.19032 0.22304
# Poissons Ratio (z) = 0.36384 0.49349
#
# Static dielectric constant tensor:
#      x y z
#    x 4.664150 0.000000 0.928390 
#    y 0.000000 3.549130 0.000000 
#    z 0.928390 0.000000 4.398180 
# 
# 
# High freq. dielectric constant tensor:
#      x y z
#    x 1.774420 0.000000 0.001360 
#    y 0.000000 1.742470 0.000000 
#    z 0.001360 0.000000 1.760390 
# 
# From -- ./inp_files/68364.got.cif
#   From: 2010.06.25/outbox.cif.g09.slc.cpg/sg12_35_cif.got.tgz:68364.got - 2010.06.28 00:19:55.
