data_PCOD8111547
_publ_section_title
;
Structure prediction by ZEFSAII (Michael W. Deem and Ramdas Pophale) SiO2 
 PCOD8111547
Probable space group: C 2/M
;
_chemical_formula_sum "Si O2"
_cell_formula_units_Z 44
_cell_length_a 11.551556
_cell_length_b 17.922296
_cell_length_c 12.948263
_cell_angle_alpha 90.000000
_cell_angle_beta 55.379021
_cell_angle_gamma 90.000000
_cell_volume 2206.011103
_symmetry_space_group_name_H-M "C 2/M"
_symmetry_group_IT_number 12
_symmetry_cell_setting 'monoclinic'
loop_
_space_group_symop_operation_xyz
x,y,z
-x,y,-z
-x,-y,-z
x,-y,z
1/2+x,1/2+y,z
1/2-x,1/2+y,-z
1/2-x,1/2-y,-z
1/2+x,1/2-y,z
loop_
_atom_site_type_symbol
_atom_site_label
_atom_site_fract_x
_atom_site_fract_y
_atom_site_fract_z
Si Si1 0.076968 0.500000 0.849013
Si Si2 0.500000 0.743606 0.000000
Si Si3 0.901607 0.000000 0.149975
Si Si4 0.513489 0.350972 0.180876
Si Si5 0.263081 0.151466 0.211001
Si Si6 0.932678 0.500000 0.702525
Si Si7 0.500000 0.882925 0.500000
Si Si8 0.246273 0.731618 0.384766
O O1 0.171897 0.572941 0.788977
O O2 0.972363 0.500000 0.803732
O O3 0.000000 0.500000 0.000000
O O4 0.570476 0.688051 0.047949
O O5 0.376485 0.795793 0.100878
O O6 0.935632 0.071537 0.201073
O O7 0.736367 0.000000 0.208668
O O8 0.000000 0.000000 0.000000
O O9 0.639626 0.365799 0.194351
O O10 0.403718 0.292302 0.280548
O O11 0.203171 0.194841 0.341239
O O12 0.998783 0.430143 0.606887
O O13 0.361693 0.834086 0.580993
O O14 0.250000 0.750000 0.500000
#
# Coordination Sequence:
#
# PCOD8111547 Si02
#       8
#     4   4   4   8   8   4   4   8
#     4  12  26  43  62  95 136 184 222 271 334 402
#     4  10  22  40  62  94 128 178 216 270 320 400
#     4  12  24  41  67  98 135 177 214 274 327 391
#     4  11  23  40  63  97 132 166 222 267 335 384
#     4  11  24  42  63  96 132 173 220 272 333 392
#     4  11  26  44  69 100 132 180 231 271 327 404
#     4  11  22  46  72  95 132 172 232 275 324 400
#     4  11  23  42  68  96 128 172 218 277 333 387
#
# _framework density 19.945502000000001
#
# number of rings (size 3 to 8) (size 9 to 14) (size 15 to 20)
#    0.000    0.909    3.636    3.273    2.545    1.455 
#    0.000    0.000    0.000    3.818    0.000    0.000 
#    0.000    0.000    0.000    0.000    0.000    0.000 
#
# Total GULP energy -272781.473997 kJ/mol
# GULP energy per Si atom -12399.157909 kJ/mol
# Density = 1.990011 g / cm^3
# Si number density = 19.945502 Si / 1000 Ang^3
#
#
#
# Elastic Constant Matrix: (Units=GPa)
#
#
# Indices 1 2 3 4 5 6 
#
# 1 157.3319 65.0556 50.0083 0.0000 20.3636 0.0000
# 2 65.0556 149.7949 50.8252 0.0000 14.2566 0.0000
# 3 50.0083 50.8252 112.6567 0.0000 21.7813 0.0000
# 4 0.0000 0.0000 0.0000 34.4659 0.0000 -8.9060
# 5 20.3636 14.2566 21.7813 0.0000 37.8648 0.0000
# 6 0.0000 0.0000 0.0000 -8.9060 0.0000 33.9543
#
#
#
# Elastic Compliance Matrix: (Units=1/GPa)
#
#
# Indices 1 2 3 4 5 6 
#
# 1 0.008448 -0.002749 -0.002061 0.000000 -0.002323 0.000000
# 2 -0.002749 0.008813 -0.002700 0.000000 -0.000287 0.000000
# 3 -0.002061 -0.002700 0.011925 0.000000 -0.004735 0.000000
# 4 0.000000 0.000000 0.000000 0.031124 0.000000 0.008164
# 5 -0.002323 -0.000287 -0.004735 0.000000 0.030490 0.000000
# 6 0.000000 0.000000 0.000000 0.008164 0.000000 0.031593
#
#
# Mechanical properties :
#
#
# Convention : Reuss Voigt Hill
#
# Bulk Modulus (GPa) = 70.59063 83.50686 77.04874
# Shear Modulus (GPa) = 35.17766 38.18330 36.68048
#
# Velocity S-wave (km/s) = 4.20419 4.38011 4.29305
# Velocity P-wave (km/s) = 7.68346 8.21821 7.95532
#
# Compressibility (1/GPa) = 0.01416619
#
# Stress axis : x y z
#
# Youngs Moduli (GPa) = 118.36672 113.46750 83.85654
#
# Poissons Ratio (x) = 0.31189 0.17283
# Poissons Ratio (y) = 0.32536 0.22645
# Poissons Ratio (z) = 0.24395 0.30642
#
# Static dielectric constant tensor:
#      x y z
#    x 3.540380 0.000000 0.109660 
#    y 0.000000 3.593860 0.000000 
#    z 0.109660 0.000000 3.852170 
# 
# 
# High freq. dielectric constant tensor:
#      x y z
#    x 1.781580 0.000000 0.003590 
#    y 0.000000 1.798060 0.000000 
#    z 0.003590 0.000000 1.787030 
# 
# From -- ./inp_files/131622.got.cif
#   From: 2010.06.25/outbox.cif.g09.slc.cpg/sg12_66_cif.got.tgz:131622.got - 2010.06.28 00:19:55.
