data_PCOD8111999
_publ_section_title
;
Structure prediction by ZEFSAII (Michael W. Deem and Ramdas Pophale) SiO2 
 PCOD8111999
Probable space group: C 2/M
;
_chemical_formula_sum "Si O2"
_cell_formula_units_Z 64
_cell_length_a 13.067509
_cell_length_b 15.123174
_cell_length_c 23.845371
_cell_angle_alpha 90.000000
_cell_angle_beta 139.859625
_cell_angle_gamma 90.000000
_cell_volume 3037.891393
_symmetry_space_group_name_H-M "C 2/M"
_symmetry_group_IT_number 12
_symmetry_cell_setting 'monoclinic'
loop_
_space_group_symop_operation_xyz
x,y,z
-x,y,-z
-x,-y,-z
x,-y,z
1/2+x,1/2+y,z
1/2-x,1/2+y,-z
1/2-x,1/2-y,-z
1/2+x,1/2-y,z
loop_
_atom_site_type_symbol
_atom_site_label
_atom_site_fract_x
_atom_site_fract_y
_atom_site_fract_z
Si Si1 0.062965 0.248771 0.758700
Si Si2 0.658889 0.739586 0.039166
Si Si3 0.448672 0.632179 0.417198
Si Si4 0.071726 0.307096 0.640313
Si Si5 0.732674 0.901993 0.512465
Si Si6 0.186422 0.100002 0.329677
Si Si7 0.359067 0.106225 0.053258
Si Si8 0.097760 0.404297 0.249470
O O1 0.217834 0.243039 0.860329
O O2 0.118165 0.258060 0.717421
O O3 0.967502 0.160812 0.733483
O O4 0.953761 0.333321 0.726292
O O5 0.377465 0.835103 0.004928
O O6 0.715083 0.657373 0.024187
O O7 0.500000 0.703013 0.000000
O O8 0.500000 0.596915 0.500000
O O9 0.417868 0.736818 0.406013
O O10 0.587456 0.614052 0.430909
O O11 0.288543 0.586926 0.327473
O O12 0.198586 0.381386 0.675471
O O13 0.890995 0.339714 0.571388
O O14 0.716216 0.886961 0.572021
O O15 0.680921 0.000000 0.474410
O O16 0.125086 0.000000 0.298034
O O17 0.522292 0.117758 0.156995
O O18 0.323644 0.000000 0.027748
O O19 0.030503 0.500000 0.240234
#
# Coordination Sequence:
#
# PCOD8111999 Si02
#       8
#     8   8   8   8   8   8   8   8
#     4  11  24  42  64  94 129 165 211 266 322 381
#     4  10  23  40  68  98 129 163 207 263 323 386
#     4  12  23  36  62  92 126 168 217 261 316 368
#     4  12  24  39  63  87 125 172 219 262 317 377
#     4  11  24  40  59  90 127 170 223 273 316 372
#     4  11  24  43  65  92 128 175 221 267 319 375
#     4   9  21  43  68  95 129 167 208 259 321 386
#     4  10  22  41  65  93 127 165 211 266 320 378
#
# _framework density 21.067243999999999
#
# number of rings (size 3 to 8) (size 9 to 14) (size 15 to 20)
#    0.000    1.250    2.500    3.000    1.750    6.000 
#    0.000    0.000    0.000    0.000    0.000    0.000 
#    0.000    0.000    0.000    0.000    0.000    0.000 
#
# Total GULP energy -396673.651483 kJ/mol
# GULP energy per Si atom -12396.051609 kJ/mol
# Density = 2.101929 g / cm^3
# Si number density = 21.067244 Si / 1000 Ang^3
#
#
#
# Elastic Constant Matrix: (Units=GPa)
#
#
# Indices 1 2 3 4 5 6 
#
# 1 107.9945 33.2357 47.8670 0.0000 6.9563 0.0000
# 2 33.2357 128.2256 46.3806 0.0000 1.6243 0.0000
# 3 47.8670 46.3806 105.0309 0.0000 3.5319 0.0000
# 4 0.0000 0.0000 0.0000 3.7253 0.0000 2.5143
# 5 6.9563 1.6243 3.5319 0.0000 24.0166 0.0000
# 6 0.0000 0.0000 0.0000 2.5143 0.0000 8.3486
#
#
#
# Elastic Compliance Matrix: (Units=1/GPa)
#
#
# Indices 1 2 3 4 5 6 
#
# 1 0.011958 -0.001341 -0.004768 0.000000 -0.002672 0.000000
# 2 -0.001341 0.009432 -0.003563 0.000000 0.000275 0.000000
# 3 -0.004768 -0.003563 0.013278 0.000000 -0.000331 0.000000
# 4 0.000000 0.000000 0.000000 0.336915 0.000000 -0.101465
# 5 -0.002672 0.000275 -0.000331 0.000000 0.042442 0.000000
# 6 0.000000 0.000000 0.000000 -0.101465 0.000000 0.150338
#
#
# Mechanical properties :
#
#
# Convention : Reuss Voigt Hill
#
# Bulk Modulus (GPa) = 65.25546 66.24642 65.75094
# Shear Modulus (GPa) = 8.49166 21.46928 14.98047
#
# Velocity S-wave (km/s) = 2.00985 3.19577 2.66950
# Velocity P-wave (km/s) = 6.03557 6.71794 6.38588
#
# Compressibility (1/GPa) = 0.01532439
#
# Stress axis : x y z
#
# Youngs Moduli (GPa) = 83.62808 106.02602 75.31083
#
# Poissons Ratio (x) = 0.14219 0.35905
# Poissons Ratio (y) = 0.11215 0.26833
# Poissons Ratio (z) = 0.39870 0.37777
#
# Static dielectric constant tensor:
#      x y z
#    x 4.905520 0.000000 -1.655980 
#    y 0.000000 4.050470 0.000000 
#    z -1.655980 0.000000 5.887590 
# 
# 
# High freq. dielectric constant tensor:
#      x y z
#    x 1.819120 0.000000 0.001180 
#    y 0.000000 1.840170 0.000000 
#    z 0.001180 0.000000 1.820750 
# 
# From -- ./inp_files/358449.got.cif
#   From: 2010.06.25/outbox.cif.g09.slc.cpg/sg12_180_cif.got.tgz:358449.got - 2010.06.28 00:19:55.
