data_PCOD8111249
_publ_section_title
;
Structure prediction by ZEFSAII (Michael W. Deem and Ramdas Pophale) SiO2 
 PCOD8111249
Probable space group: C 2/M
;
_chemical_formula_sum "Si O2"
_cell_formula_units_Z 40
_cell_length_a 9.952896
_cell_length_b 21.667906
_cell_length_c 8.770711
_cell_angle_alpha 90.000000
_cell_angle_beta 88.304572
_cell_angle_gamma 90.000000
_cell_volume 1890.649589
_symmetry_space_group_name_H-M "C 2/M"
_symmetry_group_IT_number 12
_symmetry_cell_setting 'monoclinic'
loop_
_space_group_symop_operation_xyz
x,y,z
-x,y,-z
-x,-y,-z
x,-y,z
1/2+x,1/2+y,z
1/2-x,1/2+y,-z
1/2-x,1/2-y,-z
1/2+x,1/2-y,z
loop_
_atom_site_type_symbol
_atom_site_label
_atom_site_fract_x
_atom_site_fract_y
_atom_site_fract_z
Si Si1 0.527149 0.350552 0.823911
Si Si2 0.768391 0.426763 0.885575
Si Si3 0.499072 0.930764 0.338078
Si Si4 0.230518 0.627474 0.791903
Si Si5 0.621972 0.759680 0.609886
O O1 0.623379 0.410890 0.817023
O O2 0.387869 0.369649 0.745266
O O3 0.594969 0.298426 0.719399
O O4 0.500000 0.328312 0.000000
O O5 0.775701 0.500000 0.923979
O O6 0.889539 0.401961 0.776911
O O7 0.784837 0.381427 0.027869
O O8 0.500000 0.895062 0.500000
O O9 0.347027 0.930776 0.278680
O O10 0.548583 0.000000 0.362694
O O11 0.147458 0.685512 0.729455
O O12 0.500000 0.773905 0.500000
O O13 0.750000 0.750000 0.500000
#
# Coordination Sequence:
#
# PCOD8111249 Si02
#       5
#     8   8   8   8   8
#     4  10  25  43  65  97 130 169 219 263 326 393
#     4  10  23  43  68  97 133 172 217 269 323 390
#     4  10  22  39  62  96 131 169 218 269 325 384
#     4  11  23  40  65  95 127 173 214 266 325 385
#     4  12  26  46  68  96 133 171 218 273 328 386
#
# _framework density 21.156749000000001
#
# number of rings (size 3 to 8) (size 9 to 14) (size 15 to 20)
#    0.000    1.400    2.000    1.800    5.600   10.800 
#    0.000    0.000    0.000    4.200    0.000    0.000 
#    0.000    0.000    0.000    0.000    0.000    0.000 
#
# Total GULP energy -247816.991153 kJ/mol
# GULP energy per Si atom -12390.849558 kJ/mol
# Density = 2.110859 g / cm^3
# Si number density = 21.156749 Si / 1000 Ang^3
#
#
#
# Elastic Constant Matrix: (Units=GPa)
#
#
# Indices 1 2 3 4 5 6 
#
# 1 182.6606 48.7485 80.9686 0.0000 8.4483 0.0000
# 2 48.7485 84.5279 53.3738 0.0000 -7.5710 0.0000
# 3 80.9686 53.3738 110.6793 0.0000 -10.1350 0.0000
# 4 0.0000 0.0000 0.0000 31.4466 0.0000 4.0908
# 5 8.4483 -7.5710 -10.1350 0.0000 42.2959 0.0000
# 6 0.0000 0.0000 0.0000 4.0908 0.0000 36.4517
#
#
#
# Elastic Compliance Matrix: (Units=1/GPa)
#
#
# Indices 1 2 3 4 5 6 
#
# 1 0.008667 -0.001587 -0.005889 0.000000 -0.003426 0.000000
# 2 -0.001587 0.017351 -0.007048 0.000000 0.001734 0.000000
# 3 -0.005889 -0.007048 0.017110 0.000000 0.004015 0.000000
# 4 0.000000 0.000000 0.000000 0.032271 0.000000 -0.003622
# 5 -0.003426 0.001734 0.004015 0.000000 0.025600 0.000000
# 6 0.000000 0.000000 0.000000 -0.003622 0.000000 0.027840
#
#
# Mechanical properties :
#
#
# Convention : Reuss Voigt Hill
#
# Bulk Modulus (GPa) = 71.01962 82.67218 76.84590
# Shear Modulus (GPa) = 30.75430 35.02398 32.88914
#
# Velocity S-wave (km/s) = 3.81680 4.07314 3.94705
# Velocity P-wave (km/s) = 7.28458 7.82825 7.56130
#
# Compressibility (1/GPa) = 0.01408062
#
# Stress axis : x y z
#
# Youngs Moduli (GPa) = 115.37994 57.63349 58.44681
#
# Poissons Ratio (x) = 0.09145 0.34419
# Poissons Ratio (y) = 0.18308 0.41192
# Poissons Ratio (z) = 0.67947 0.40619
#
# Static dielectric constant tensor:
#      x y z
#    x 4.004780 0.000000 0.014230 
#    y 0.000000 3.664810 0.000000 
#    z 0.014230 0.000000 4.089300 
# 
# 
# High freq. dielectric constant tensor:
#      x y z
#    x 1.847460 0.000000 0.002890 
#    y 0.000000 1.816190 0.000000 
#    z 0.002890 0.000000 1.839470 
# 
# From -- ./inp_files/39324.got.cif
#   From: 2010.06.25/outbox.cif.g09.slc.cpg/sg12_20_cif.got.tgz:39324.got - 2010.06.28 00:19:55.
