data_PCOD8111769
_publ_section_title
;
Structure prediction by ZEFSAII (Michael W. Deem and Ramdas Pophale) SiO2 
 PCOD8111769
Probable space group: C 2/M
;
_chemical_formula_sum "Si O2"
_cell_formula_units_Z 48
_cell_length_a 9.196955
_cell_length_b 29.510865
_cell_length_c 18.006370
_cell_angle_alpha 90.000000
_cell_angle_beta 27.635376
_cell_angle_gamma 90.000000
_cell_volume 2266.852613
_symmetry_space_group_name_H-M "C 2/M"
_symmetry_group_IT_number 12
_symmetry_cell_setting 'monoclinic'
loop_
_space_group_symop_operation_xyz
x,y,z
-x,y,-z
-x,-y,-z
x,-y,z
1/2+x,1/2+y,z
1/2-x,1/2+y,-z
1/2-x,1/2-y,-z
1/2+x,1/2-y,z
loop_
_atom_site_type_symbol
_atom_site_label
_atom_site_fract_x
_atom_site_fract_y
_atom_site_fract_z
Si Si1 0.245891 0.300305 0.818218
Si Si2 0.651436 0.132541 0.077528
Si Si3 0.493683 0.288754 0.140377
Si Si4 0.057985 0.950600 0.887239
Si Si5 0.342107 0.100719 0.368171
Si Si6 0.877217 0.672360 0.478104
O O1 0.268433 0.295207 0.896915
O O2 0.003624 0.262857 0.892381
O O3 0.586894 0.294531 0.627527
O O4 0.128150 0.350911 0.849844
O O5 0.518029 0.125106 0.220212
O O6 0.914703 0.172579 0.961227
O O7 0.816355 0.087776 0.967146
O O8 0.138811 0.295519 0.325379
O O9 0.423509 0.938063 0.707572
O O10 0.993446 0.000000 0.879091
O O11 0.000000 0.954618 0.000000
O O12 0.274862 0.134862 0.465542
O O13 0.000000 0.080760 0.500000
O O14 0.000000 0.649788 0.500000
#
# Coordination Sequence:
#
# PCOD8111769 Si02
#       6
#     8   8   8   8   8   8
#     4  11  24  39  61  90 126 168 209 255 297 364
#     4  11  22  38  63  89 124 161 205 253 306 359
#     4  11  24  39  61  89 127 167 213 251 303 357
#     4   9  20  38  63  96 124 152 195 252 315 368
#     4  11  21  38  67  90 120 161 202 255 307 365
#     4  10  22  41  59  87 124 168 204 253 302 363
#
# _framework density 21.174731999999999
#
# number of rings (size 3 to 8) (size 9 to 14) (size 15 to 20)
#    0.000    1.500    3.333    1.500    2.333    0.333 
#    0.000    0.000    0.000    2.500    0.000    0.000 
#    0.000    0.000    0.000    0.000    0.000    0.000 
#
# Total GULP energy -297496.726907 kJ/mol
# GULP energy per Si atom -12395.696954 kJ/mol
# Density = 2.112654 g / cm^3
# Si number density = 21.174732 Si / 1000 Ang^3
#
#
#
# Elastic Constant Matrix: (Units=GPa)
#
#
# Indices 1 2 3 4 5 6 
#
# 1 70.5251 34.1851 38.7688 0.0002 -12.7603 -0.0002
# 2 34.1851 135.9725 48.2994 0.0001 -6.5410 -0.0002
# 3 38.7688 48.2994 136.3683 0.0009 -7.0398 -0.0008
# 4 0.0002 0.0001 0.0009 20.9575 -0.0001 -13.7810
# 5 -12.7603 -6.5410 -7.0398 -0.0001 38.2563 0.0001
# 6 -0.0002 -0.0002 -0.0008 -13.7810 0.0001 21.6819
#
#
#
# Elastic Compliance Matrix: (Units=1/GPa)
#
#
# Indices 1 2 3 4 5 6 
#
# 1 0.018761 -0.003058 -0.003992 0.000000 0.005000 0.000000
# 2 -0.003058 0.008942 -0.002293 0.000000 0.000087 0.000000
# 3 -0.003992 -0.002293 0.009280 0.000000 -0.000016 0.000000
# 4 0.000000 0.000000 0.000000 0.081979 0.000000 0.052106
# 5 0.005000 0.000087 -0.000016 0.000000 0.027819 0.000000
# 6 0.000000 0.000000 0.000000 0.052106 0.000000 0.079240
#
#
# Mechanical properties :
#
#
# Convention : Reuss Voigt Hill
#
# Bulk Modulus (GPa) = 54.65930 65.04136 59.85033
# Shear Modulus (GPa) = 19.93568 30.95330 25.44449
#
# Velocity S-wave (km/s) = 3.07169 3.82750 3.47023
# Velocity P-wave (km/s) = 6.20080 7.09339 6.66206
#
# Compressibility (1/GPa) = 0.01829515
#
# Stress axis : x y z
#
# Youngs Moduli (GPa) = 53.30190 111.83144 107.76442
#
# Poissons Ratio (x) = 0.34199 0.43024
# Poissons Ratio (y) = 0.16300 0.24713
# Poissons Ratio (z) = 0.21280 0.25646
#
# Static dielectric constant tensor:
#      x y z
#    x 3.709530 0.000000 -0.170480 
#    y 0.000000 3.987070 0.000000 
#    z -0.170480 0.000000 4.294770 
# 
# 
# High freq. dielectric constant tensor:
#      x y z
#    x 1.813300 0.000000 -0.014620 
#    y 0.000000 1.798040 0.000000 
#    z -0.014620 0.000000 1.878200 
# 
# From -- ./inp_files/200781.got.cif
#   From: 2010.06.25/outbox.cif.g09.slc.cpg/sg12_101_cif.got.tgz:200781.got - 2010.06.28 00:19:55.
