data_PCOD8111981
_publ_section_title
;
Structure prediction by ZEFSAII (Michael W. Deem and Ramdas Pophale) SiO2 
 PCOD8111981
Probable space group: C 2/M
;
_chemical_formula_sum "Si O2"
_cell_formula_units_Z 56
_cell_length_a 17.008261
_cell_length_b 14.951836
_cell_length_c 20.507178
_cell_angle_alpha 90.000000
_cell_angle_beta 28.970357
_cell_angle_gamma 90.000000
_cell_volume 2525.957084
_symmetry_space_group_name_H-M "C 2/M"
_symmetry_group_IT_number 12
_symmetry_cell_setting 'monoclinic'
loop_
_space_group_symop_operation_xyz
x,y,z
-x,y,-z
-x,-y,-z
x,-y,z
1/2+x,1/2+y,z
1/2-x,1/2+y,-z
1/2-x,1/2-y,-z
1/2+x,1/2-y,z
loop_
_atom_site_type_symbol
_atom_site_label
_atom_site_fract_x
_atom_site_fract_y
_atom_site_fract_z
Si Si1 0.682826 0.762952 0.391666
Si Si2 0.315617 0.721111 0.159486
Si Si3 0.840577 0.103341 0.366302
Si Si4 0.719180 0.897844 0.593451
Si Si5 0.143093 0.605530 0.182145
Si Si6 0.181538 0.403515 0.892196
Si Si7 0.313975 0.396592 0.931318
O O1 0.500000 0.762160 0.500000
O O2 0.804000 0.793058 0.245350
O O3 0.700117 0.836943 0.435760
O O4 0.728529 0.664804 0.384939
O O5 0.205624 0.648246 0.203522
O O6 0.237507 0.819867 0.203348
O O7 0.500000 0.714709 0.000000
O O8 0.841045 0.113981 0.444143
O O9 0.012403 0.142520 0.216494
O O10 0.810238 0.000000 0.369258
O O11 0.543043 0.869915 0.694621
O O12 0.718423 0.000000 0.619982
O O13 0.167032 0.500000 0.171356
O O14 0.245707 0.647756 0.047074
O O15 0.271454 0.500000 0.813988
O O16 0.183583 0.382634 0.968070
O O17 0.000000 0.412943 0.000000
O O18 0.338394 0.500000 0.928837
#
# Coordination Sequence:
#
# PCOD8111981 Si02
#       7
#     8   8   8   8   8   8   8
#     4  12  27  42  62  93 128 164 203 256 315 365
#     4  11  25  40  60  97 126 166 205 247 313 366
#     4  10  22  43  68  93 120 162 211 253 305 368
#     4  10  24  44  66  90 122 165 210 255 307 366
#     4  10  22  41  65  92 124 163 207 255 305 362
#     4   9  20  36  56  86 129 166 201 247 301 366
#     4   9  19  36  64  94 118 159 208 253 304 356
#
# _framework density 22.169813999999999
#
# number of rings (size 3 to 8) (size 9 to 14) (size 15 to 20)
#    0.000    1.857    0.000    2.143    8.000    2.571 
#    0.000    0.000    0.000    0.000    0.000    0.000 
#    0.000    0.000    0.000    0.000    0.000    0.000 
#
# Total GULP energy -347146.268204 kJ/mol
# GULP energy per Si atom -12398.081007 kJ/mol
# Density = 2.211935 g / cm^3
# Si number density = 22.169814 Si / 1000 Ang^3
#
#
#
# Elastic Constant Matrix: (Units=GPa)
#
#
# Indices 1 2 3 4 5 6 
#
# 1 131.4022 49.4753 35.6529 -0.0023 -1.3301 -0.0012
# 2 49.4753 75.3318 21.6559 0.0047 -8.0897 -0.0033
# 3 35.6529 21.6559 103.4182 -0.0097 4.8088 -0.0026
# 4 -0.0023 0.0047 -0.0097 17.5321 0.0097 0.7589
# 5 -1.3301 -8.0897 4.8088 0.0097 31.0048 0.0017
# 6 -0.0012 -0.0033 -0.0026 0.7589 0.0017 45.1096
#
#
#
# Elastic Compliance Matrix: (Units=1/GPa)
#
#
# Indices 1 2 3 4 5 6 
#
# 1 0.010640 -0.006425 -0.002282 0.000002 -0.000866 0.000000
# 2 -0.006425 0.018562 -0.001898 -0.000010 0.004862 0.000001
# 3 -0.002282 -0.001898 0.010960 0.000008 -0.002293 0.000000
# 4 0.000002 -0.000010 0.000008 0.057080 -0.000021 -0.000960
# 5 -0.000866 0.004862 -0.002293 -0.000021 0.033840 -0.000001
# 6 0.000000 0.000001 0.000000 -0.000960 -0.000001 0.022184
#
#
# Mechanical properties :
#
#
# Convention : Reuss Voigt Hill
#
# Bulk Modulus (GPa) = 52.76565 58.19115 55.47840
# Shear Modulus (GPa) = 27.65578 32.28715 29.97146
#
# Velocity S-wave (km/s) = 3.53576 3.82036 3.68081
# Velocity P-wave (km/s) = 6.36562 6.76499 6.56834
#
# Compressibility (1/GPa) = 0.01895172
#
# Stress axis : x y z
#
# Youngs Moduli (GPa) = 93.98740 53.87392 91.23739
#
# Poissons Ratio (x) = 0.34612 0.20824
# Poissons Ratio (y) = 0.60384 0.17318
# Poissons Ratio (z) = 0.21452 0.10226
#
# Static dielectric constant tensor:
#      x y z
#    x 3.921570 -0.000010 0.140080 
#    y -0.000010 4.249910 0.000010 
#    z 0.140080 0.000010 4.041070 
# 
# 
# High freq. dielectric constant tensor:
#      x y z
#    x 1.874610 0.000000 0.002330 
#    y 0.000000 1.876420 0.000000 
#    z 0.002330 0.000000 1.864010 
# 
# From -- ./inp_files/316680.got.cif
#   From: 2010.06.25/outbox.cif.g09.slc.cpg/sg12_159_cif.got.tgz:316680.got - 2010.06.28 00:19:55.
