data_PCOD8111992
_publ_section_title
;
Structure prediction by ZEFSAII (Michael W. Deem and Ramdas Pophale) SiO2 
 PCOD8111992
Probable space group: C 2/M
;
_chemical_formula_sum "Si O2"
_cell_formula_units_Z 48
_cell_length_a 12.472575
_cell_length_b 13.878606
_cell_length_c 14.617179
_cell_angle_alpha 90.000000
_cell_angle_beta 60.334781
_cell_angle_gamma 90.000000
_cell_volume 2198.626139
_symmetry_space_group_name_H-M "C 2/M"
_symmetry_group_IT_number 12
_symmetry_cell_setting 'monoclinic'
loop_
_space_group_symop_operation_xyz
x,y,z
-x,y,-z
-x,-y,-z
x,-y,z
1/2+x,1/2+y,z
1/2-x,1/2+y,-z
1/2-x,1/2-y,-z
1/2+x,1/2-y,z
loop_
_atom_site_type_symbol
_atom_site_label
_atom_site_fract_x
_atom_site_fract_y
_atom_site_fract_z
Si Si1 0.063831 0.890548 0.594760
Si Si2 0.770616 0.108424 0.305892
Si Si3 0.383645 0.113899 0.168491
Si Si4 0.863499 0.113647 0.066913
Si Si5 0.841371 0.614458 0.983035
Si Si6 0.824558 0.197506 0.625191
O O1 0.111496 0.883909 0.677626
O O2 0.158816 0.840038 0.484906
O O3 0.930966 0.840447 0.647142
O O4 0.048391 0.000000 0.569229
O O5 0.814142 0.138788 0.187444
O O6 0.668232 0.185728 0.380274
O O7 0.714736 0.000000 0.332069
O O8 0.527876 0.140152 0.119726
O O9 0.308693 0.165030 0.281268
O O10 0.361783 0.000000 0.184463
O O11 0.337086 0.153780 0.089124
O O12 0.771451 0.158513 0.029152
O O13 0.870853 0.000000 0.048864
O O14 0.000000 0.159559 0.000000
O O15 0.830143 0.500000 0.992077
#
# Coordination Sequence:
#
# PCOD8111992 Si02
#       6
#     8   8   8   8   8   8
#     4  10  22  41  65  93 123 153 203 262 309 365
#     4  10  23  41  59  85 123 165 202 250 308 365
#     4   9  17  31  55  86 121 158 196 252 318 365
#     4   9  18  34  56  80 114 164 210 247 295 360
#     4   8  16  31  52  83 120 156 200 251 304 370
#     4  11  21  37  62  91 117 158 204 256 306 361
#
# _framework density 21.831814999999999
#
# number of rings (size 3 to 8) (size 9 to 14) (size 15 to 20)
#    0.000    2.500    0.000    3.500    2.333    1.333 
#    3.000    2.500    0.000    6.000    0.000    0.000 
#    0.000    0.000    0.000    0.000    0.000    0.000 
#
# Total GULP energy -297581.119270 kJ/mol
# GULP energy per Si atom -12399.213303 kJ/mol
# Density = 2.178213 g / cm^3
# Si number density = 21.831815 Si / 1000 Ang^3
#
#
#
# Elastic Constant Matrix: (Units=GPa)
#
#
# Indices 1 2 3 4 5 6 
#
# 1 139.3341 27.1003 47.4123 0.0000 4.1526 0.0000
# 2 27.1003 89.4129 17.5307 0.0000 -6.7721 0.0000
# 3 47.4123 17.5307 61.0568 0.0000 -8.9077 0.0000
# 4 0.0000 0.0000 0.0000 19.5399 0.0000 0.4674
# 5 4.1526 -6.7721 -8.9077 0.0000 37.1669 0.0000
# 6 0.0000 0.0000 0.0000 0.4674 0.0000 21.9678
#
#
#
# Elastic Compliance Matrix: (Units=1/GPa)
#
#
# Indices 1 2 3 4 5 6 
#
# 1 0.010363 -0.001827 -0.008021 0.000000 -0.003413 0.000000
# 2 -0.001827 0.012243 -0.001804 0.000000 0.002002 0.000000
# 3 -0.008021 -0.001804 0.024048 0.000000 0.006331 0.000000
# 4 0.000000 0.000000 0.000000 0.051203 0.000000 -0.001089
# 5 -0.003413 0.002002 0.006331 0.000000 0.029169 0.000000
# 6 0.000000 0.000000 0.000000 -0.001089 0.000000 0.045544
#
#
# Mechanical properties :
#
#
# Convention : Reuss Voigt Hill
#
# Bulk Modulus (GPa) = 42.82574 52.65449 47.74012
# Shear Modulus (GPa) = 24.55075 28.91897 26.73486
#
# Velocity S-wave (km/s) = 3.35705 3.64349 3.50320
# Velocity P-wave (km/s) = 5.88942 6.47075 6.18691
#
# Compressibility (1/GPa) = 0.02335044
#
# Stress axis : x y z
#
# Youngs Moduli (GPa) = 96.49371 81.67752 41.58289
#
# Poissons Ratio (x) = 0.14922 0.33353
# Poissons Ratio (y) = 0.17629 0.07504
# Poissons Ratio (z) = 0.77396 0.14739
#
# Static dielectric constant tensor:
#      x y z
#    x 4.059110 0.000000 0.094030 
#    y 0.000000 3.989580 0.000000 
#    z 0.094030 0.000000 3.732130 
# 
# 
# High freq. dielectric constant tensor:
#      x y z
#    x 1.851790 0.000000 0.010000 
#    y 0.000000 1.868450 0.000000 
#    z 0.010000 0.000000 1.847050 
# 
# From -- ./inp_files/204866.got.cif
#   From: 2010.06.25/outbox.cif.g09.slc.cpg/sg12_103_cif.got.tgz:204866.got - 2010.06.28 00:19:55.
