data_PCOD8111884
_publ_section_title
;
Structure prediction by ZEFSAII (Michael W. Deem and Ramdas Pophale) SiO2 
 PCOD8111884
Probable space group: C 2/M
;
_chemical_formula_sum "Si O2"
_cell_formula_units_Z 40
_cell_length_a 14.683381
_cell_length_b 8.579758
_cell_length_c 24.725050
_cell_angle_alpha 90.000000
_cell_angle_beta 41.943332
_cell_angle_gamma 90.000000
_cell_volume 2081.956528
_symmetry_space_group_name_H-M "C 2/M"
_symmetry_group_IT_number 12
_symmetry_cell_setting 'monoclinic'
loop_
_space_group_symop_operation_xyz
x,y,z
-x,y,-z
-x,-y,-z
x,-y,z
1/2+x,1/2+y,z
1/2-x,1/2+y,-z
1/2-x,1/2-y,-z
1/2+x,1/2-y,z
loop_
_atom_site_type_symbol
_atom_site_label
_atom_site_fract_x
_atom_site_fract_y
_atom_site_fract_z
Si Si1 0.170840 0.682888 0.085800
Si Si2 0.118199 0.817708 0.804121
Si Si3 0.147507 0.185321 0.499824
Si Si4 0.859643 0.684470 0.089069
Si Si5 0.855226 0.316880 0.615720
O O1 0.179744 0.500000 0.077057
O O2 0.235057 0.742738 0.112333
O O3 0.016072 0.734507 0.157331
O O4 0.250000 0.750000 0.000000
O O5 0.158725 0.746790 0.843137
O O6 0.237435 0.778842 0.709921
O O7 0.090781 0.000000 0.822082
O O8 0.250000 0.250000 0.500000
O O9 0.190597 0.244025 0.421265
O O10 0.993441 0.242676 0.578570
O O11 0.152353 0.000000 0.499384
O O12 0.851069 0.500000 0.091940
O O13 0.000000 0.742522 0.000000
O O14 0.878538 0.500000 0.597502
#
# Coordination Sequence:
#
# PCOD8111884 Si02
#       5
#     8   8   8   8   8
#     4  12  24  39  61  86 117 157 203 253 304 359
#     4  11  24  41  63  90 123 161 202 253 306 359
#     4  11  22  39  66  94 124 163 201 243 299 361
#     4  11  23  39  61  87 116 157 204 252 304 357
#     4  10  22  41  63  92 126 159 200 250 303 359
#
# _framework density 19.212696000000001
#
# number of rings (size 3 to 8) (size 9 to 14) (size 15 to 20)
#    0.000    1.000    2.000    6.600    0.000    5.600 
#    0.000    0.000    0.000    0.000    0.000    0.000 
#    0.000    0.000    0.000    0.000    0.000    0.000 
#
# Total GULP energy -248079.003526 kJ/mol
# GULP energy per Si atom -12403.950176 kJ/mol
# Density = 1.916897 g / cm^3
# Si number density = 19.212696 Si / 1000 Ang^3
#
#
#
# Elastic Constant Matrix: (Units=GPa)
#
#
# Indices 1 2 3 4 5 6 
#
# 1 202.5336 77.8979 82.4539 0.0000 2.1514 0.0000
# 2 77.8979 153.2958 73.5101 0.0000 -0.8887 0.0000
# 3 82.4539 73.5101 149.6243 0.0000 1.6721 0.0000
# 4 0.0000 0.0000 0.0000 31.6445 0.0000 2.4665
# 5 2.1514 -0.8887 1.6721 0.0000 24.2612 0.0000
# 6 0.0000 0.0000 0.0000 2.4665 0.0000 38.1346
#
#
#
# Elastic Compliance Matrix: (Units=1/GPa)
#
#
# Indices 1 2 3 4 5 6 
#
# 1 0.006895 -0.002207 -0.002709 0.000000 -0.000506 0.000000
# 2 -0.002207 0.009249 -0.003336 0.000000 0.000764 0.000000
# 3 -0.002709 -0.003336 0.009822 0.000000 -0.000559 0.000000
# 4 0.000000 0.000000 0.000000 0.031761 0.000000 -0.002054
# 5 -0.000506 0.000764 -0.000559 0.000000 0.041329 0.000000
# 6 0.000000 0.000000 0.000000 -0.002054 0.000000 0.026356
#
#
# Mechanical properties :
#
#
# Convention : Reuss Voigt Hill
#
# Bulk Modulus (GPa) = 105.70992 108.13085 106.92039
# Shear Modulus (GPa) = 34.46567 36.91418 35.68992
#
# Velocity S-wave (km/s) = 4.24004 4.38807 4.31469
# Velocity P-wave (km/s) = 8.89443 9.05962 8.97740
#
# Compressibility (1/GPa) = 0.00945985
#
# Stress axis : x y z
#
# Youngs Moduli (GPa) = 145.03587 108.11654 101.81344
#
# Poissons Ratio (x) = 0.23865 0.27586
# Poissons Ratio (y) = 0.32014 0.33968
# Poissons Ratio (z) = 0.39297 0.36071
#
# Static dielectric constant tensor:
#      x y z
#    x 3.761270 0.000000 -0.025410 
#    y 0.000000 3.759940 0.000000 
#    z -0.025410 0.000000 3.560860 
# 
# 
# High freq. dielectric constant tensor:
#      x y z
#    x 1.762940 0.000000 0.000410 
#    y 0.000000 1.770090 0.000000 
#    z 0.000410 0.000000 1.750120 
# 
# From -- ./inp_files/337684.got.cif
#   From: 2010.06.25/outbox.cif.g09.slc.cpg/sg12_169_cif.got.tgz:337684.got - 2010.06.28 00:19:55.
