data_PCOD8112785
_publ_section_title
;
Structure prediction by ZEFSAII (Michael W. Deem and Ramdas Pophale) SiO2 
 PCOD8112785
Probable space group: C 2/M
;
_chemical_formula_sum "Si O2"
_cell_formula_units_Z 44
_cell_length_a 8.585789
_cell_length_b 15.835264
_cell_length_c 16.290629
_cell_angle_alpha 90.000000
_cell_angle_beta 113.446279
_cell_angle_gamma 90.000000
_cell_volume 2031.973252
_symmetry_space_group_name_H-M "C 2/M"
_symmetry_group_IT_number 12
_symmetry_cell_setting 'monoclinic'
loop_
_space_group_symop_operation_xyz
x,y,z
-x,y,-z
-x,-y,-z
x,-y,z
1/2+x,1/2+y,z
1/2-x,1/2+y,-z
1/2-x,1/2-y,-z
1/2+x,1/2-y,z
loop_
_atom_site_type_symbol
_atom_site_label
_atom_site_fract_x
_atom_site_fract_y
_atom_site_fract_z
Si Si1 0.896926 0.000000 0.562202
Si Si2 0.219005 0.824283 0.429502
Si Si3 0.877068 0.661449 0.776558
Si Si4 0.141361 0.000000 0.959689
Si Si5 0.918098 0.274717 0.319024
Si Si6 0.845156 0.000000 0.230797
Si Si7 0.644897 0.166253 0.965598
O O1 0.000000 0.000000 0.500000
O O2 0.776296 0.081984 0.532497
O O3 0.004624 0.000000 0.670517
O O4 0.250000 0.750000 0.500000
O O5 0.364547 0.820997 0.391144
O O6 0.026626 0.810876 0.356556
O O7 0.752200 0.742323 0.763604
O O8 0.778727 0.578450 0.781465
O O9 0.953014 0.660837 0.699911
O O10 0.054100 0.672515 0.859801
O O11 0.085368 0.000000 0.850228
O O12 0.243901 0.916307 0.000896
O O13 0.000000 0.000000 0.000000
O O14 0.500000 0.159974 0.000000
O O15 0.750000 0.250000 0.000000
#
# Coordination Sequence:
#
# PCOD8112785 Si02
#       7
#     4   8   8   4   8   4   8
#     4  12  26  42  72 106 140 189 234 285 364 430
#     4  11  23  44  68 101 141 183 237 298 358 420
#     4  11  23  42  69  98 140 181 237 286 357 419
#     4  12  28  48  71 105 145 194 241 307 364 427
#     4  10  23  41  68  99 137 188 232 291 355 427
#     4  12  25  47  71 100 145 182 234 300 359 429
#     4  12  24  43  70 103 142 187 239 297 362 426
#
# _framework density 21.653827
#
# number of rings (size 3 to 8) (size 9 to 14) (size 15 to 20)
#    0.000    0.727    3.636    4.091    2.545    2.182 
#    0.000    1.818    0.000    0.000    0.000    0.000 
#    0.000    0.000    0.000    0.000    0.000    0.000 
#
# Total GULP energy -272591.713766 kJ/mol
# GULP energy per Si atom -12390.532444 kJ/mol
# Density = 2.160454 g / cm^3
# Si number density = 21.653827 Si / 1000 Ang^3
#
#
#
# Elastic Constant Matrix: (Units=GPa)
#
#
# Indices 1 2 3 4 5 6 
#
# 1 153.2603 67.2021 40.2480 0.0000 -37.9936 0.0000
# 2 67.2021 165.2710 38.6730 0.0000 -14.0020 0.0000
# 3 40.2480 38.6730 104.1469 0.0000 -8.6657 0.0000
# 4 0.0000 0.0000 0.0000 31.2477 0.0000 2.8592
# 5 -37.9936 -14.0020 -8.6657 0.0000 44.8515 0.0000
# 6 0.0000 0.0000 0.0000 2.8592 0.0000 41.3767
#
#
#
# Elastic Compliance Matrix: (Units=1/GPa)
#
#
# Indices 1 2 3 4 5 6 
#
# 1 0.010248 -0.003027 -0.002229 0.000000 0.007306 0.000000
# 2 -0.003027 0.007638 -0.001709 0.000000 -0.000510 0.000000
# 3 -0.002229 -0.001709 0.011074 0.000000 -0.000282 0.000000
# 4 0.000000 0.000000 0.000000 0.032206 0.000000 -0.002226
# 5 0.007306 -0.000510 -0.000282 0.000000 0.028271 0.000000
# 6 0.000000 0.000000 0.000000 -0.002226 0.000000 0.024322
#
#
# Mechanical properties :
#
#
# Convention : Reuss Voigt Hill
#
# Bulk Modulus (GPa) = 66.52489 79.43602 72.98045
# Shear Modulus (GPa) = 37.67915 41.93220 39.80568
#
# Velocity S-wave (km/s) = 4.17594 4.40532 4.29216
# Velocity P-wave (km/s) = 7.35119 7.91454 7.63806
#
# Compressibility (1/GPa) = 0.01503197
#
# Stress axis : x y z
#
# Youngs Moduli (GPa) = 97.57565 130.92248 90.29936
#
# Poissons Ratio (x) = 0.39627 0.20125
# Poissons Ratio (y) = 0.29533 0.15432
# Poissons Ratio (z) = 0.21747 0.22374
#
# Static dielectric constant tensor:
#      x y z
#    x 4.083950 0.000000 -0.041710 
#    y 0.000000 3.931020 0.000000 
#    z -0.041710 0.000000 4.356110 
# 
# 
# High freq. dielectric constant tensor:
#      x y z
#    x 1.868240 0.000000 -0.005060 
#    y 0.000000 1.850690 0.000000 
#    z -0.005060 0.000000 1.857270 
# 
# From -- ./inp_files/255536.got.cif
#   From: 2010.06.25/outbox.cif.g09.slc.cpg/sg12_128_cif.got.tgz:255536.got - 2010.06.28 00:19:55.
