data_PCOD8112014
_publ_section_title
;
Structure prediction by ZEFSAII (Michael W. Deem and Ramdas Pophale) SiO2 
 PCOD8112014
Probable space group: C 2/M
;
_chemical_formula_sum "Si O2"
_cell_formula_units_Z 56
_cell_length_a 27.826454
_cell_length_b 16.290495
_cell_length_c 9.152619
_cell_angle_alpha 90.000000
_cell_angle_beta 37.442115
_cell_angle_gamma 90.000000
_cell_volume 2522.390121
_symmetry_space_group_name_H-M "C 2/M"
_symmetry_group_IT_number 12
_symmetry_cell_setting 'monoclinic'
loop_
_space_group_symop_operation_xyz
x,y,z
-x,y,-z
-x,-y,-z
x,-y,z
1/2+x,1/2+y,z
1/2-x,1/2+y,-z
1/2-x,1/2-y,-z
1/2+x,1/2-y,z
loop_
_atom_site_type_symbol
_atom_site_label
_atom_site_fract_x
_atom_site_fract_y
_atom_site_fract_z
Si Si1 0.784736 0.870767 0.013633
Si Si2 0.864274 0.410260 0.463455
Si Si3 0.405715 0.322480 0.211942
Si Si4 0.080779 0.000000 0.891277
Si Si5 0.356493 0.172207 0.175122
Si Si6 0.501166 0.903209 0.334024
Si Si7 0.228849 0.197860 0.260283
Si Si8 0.914403 0.000000 0.779156
O O1 0.714224 0.923288 0.251921
O O2 0.777416 0.778757 0.095313
O O3 0.774268 0.866927 0.863932
O O4 0.866890 0.916997 0.850195
O O5 0.894592 0.500000 0.340904
O O6 0.846109 0.358423 0.364686
O O7 0.930435 0.366410 0.405336
O O8 0.374445 0.415790 0.260783
O O9 0.383182 0.267277 0.125062
O O10 0.361111 0.287544 0.465331
O O11 0.500000 0.318212 0.000000
O O12 0.066661 0.000000 0.096755
O O13 0.000000 0.000000 0.000000
O O14 0.273934 0.161568 0.291812
O O15 0.417572 0.118066 0.938613
O O16 0.500000 0.864354 0.500000
O O17 0.489845 0.000000 0.373591
O O18 0.000000 0.000000 0.500000
#
# Coordination Sequence:
#
# PCOD8112014 Si02
#       8
#     8   8   8   4   8   8   8   4
#     4  11  25  47  68 100 140 181 229 294 351 421
#     4  11  22  40  67  99 136 174 223 284 350 414
#     4  11  24  43  71  99 139 182 240 298 364 426
#     4  10  26  46  70 102 139 176 239 302 354 416
#     4  12  23  41  67 102 133 187 231 286 351 434
#     4  10  22  41  65  99 142 176 223 283 348 430
#     4  11  26  45  68  99 141 181 235 292 361 424
#     4  12  28  48  76 106 141 195 245 292 355 431
#
# _framework density 22.201165
#
# number of rings (size 3 to 8) (size 9 to 14) (size 15 to 20)
#    0.000    1.000    2.143    3.857    6.000    1.143 
#    3.857    0.714    0.000    0.000    0.000    0.000 
#    0.000    0.000    0.000    0.000    0.000    0.000 
#
# Total GULP energy -347100.853037 kJ/mol
# GULP energy per Si atom -12396.459037 kJ/mol
# Density = 2.215063 g / cm^3
# Si number density = 22.201165 Si / 1000 Ang^3
#
#
#
# Elastic Constant Matrix: (Units=GPa)
#
#
# Indices 1 2 3 4 5 6 
#
# 1 180.5568 54.4865 67.1709 0.0000 14.6786 0.0000
# 2 54.4865 79.6052 29.6032 0.0000 3.1919 0.0000
# 3 67.1709 29.6032 145.4254 0.0000 -2.0247 0.0000
# 4 0.0000 0.0000 0.0000 25.7241 0.0000 1.3665
# 5 14.6786 3.1919 -2.0247 0.0000 41.2586 0.0000
# 6 0.0000 0.0000 0.0000 1.3665 0.0000 29.4046
#
#
#
# Elastic Compliance Matrix: (Units=1/GPa)
#
#
# Indices 1 2 3 4 5 6 
#
# 1 0.008171 -0.004400 -0.002916 0.000000 -0.002710 0.000000
# 2 -0.004400 0.016018 -0.001225 0.000000 0.000266 0.000000
# 3 -0.002916 -0.001225 0.008494 0.000000 0.001549 0.000000
# 4 0.000000 0.000000 0.000000 0.038970 0.000000 -0.001811
# 5 -0.002710 0.000266 0.001549 0.000000 0.025257 0.000000
# 6 0.000000 0.000000 0.000000 -0.001811 0.000000 0.034092
#
#
# Mechanical properties :
#
#
# Convention : Reuss Voigt Hill
#
# Bulk Modulus (GPa) = 64.09420 78.67873 71.38647
# Shear Modulus (GPa) = 32.61871 36.23259 34.42565
#
# Velocity S-wave (km/s) = 3.83722 4.04420 3.94207
# Velocity P-wave (km/s) = 6.96884 7.57122 7.27627
#
# Compressibility (1/GPa) = 0.01560204
#
# Stress axis : x y z
#
# Youngs Moduli (GPa) = 122.37783 62.42869 117.72558
#
# Poissons Ratio (x) = 0.27467 0.34334
# Poissons Ratio (y) = 0.53844 0.14419
# Poissons Ratio (z) = 0.35690 0.07646
#
# Static dielectric constant tensor:
#      x y z
#    x 4.186140 0.000000 0.127290 
#    y 0.000000 4.231020 0.000000 
#    z 0.127290 0.000000 3.900510 
# 
# 
# High freq. dielectric constant tensor:
#      x y z
#    x 1.881150 0.000000 0.005890 
#    y 0.000000 1.877300 0.000000 
#    z 0.005890 0.000000 1.873980 
# 
# From -- ./inp_files/106011.got.cif
#   From: 2010.06.25/outbox.cif.g09.slc.cpg/sg12_54_cif.got.tgz:106011.got - 2010.06.28 00:19:55.
