data_PCOD8112769
_publ_section_title
;
Structure prediction by ZEFSAII (Michael W. Deem and Ramdas Pophale) SiO2 
 PCOD8112769
Probable space group: C 2/M
;
_chemical_formula_sum "Si O2"
_cell_formula_units_Z 40
_cell_length_a 10.866441
_cell_length_b 13.961685
_cell_length_c 11.477056
_cell_angle_alpha 90.000000
_cell_angle_beta 110.340696
_cell_angle_gamma 90.000000
_cell_volume 1632.649062
_symmetry_space_group_name_H-M "C 2/M"
_symmetry_group_IT_number 12
_symmetry_cell_setting 'monoclinic'
loop_
_space_group_symop_operation_xyz
x,y,z
-x,y,-z
-x,-y,-z
x,-y,z
1/2+x,1/2+y,z
1/2-x,1/2+y,-z
1/2-x,1/2-y,-z
1/2+x,1/2-y,z
loop_
_atom_site_type_symbol
_atom_site_label
_atom_site_fract_x
_atom_site_fract_y
_atom_site_fract_z
Si Si1 0.763408 0.611385 0.722873
Si Si2 0.495912 0.724601 0.365584
Si Si3 0.347490 0.732958 0.923626
Si Si4 0.648793 0.104984 0.746667
Si Si5 0.239110 0.895658 0.456702
O O1 0.782177 0.500000 0.761053
O O2 0.611257 0.640678 0.683660
O O3 0.847929 0.674152 0.840216
O O4 0.807424 0.633438 0.602287
O O5 0.500000 0.759726 0.500000
O O6 0.460147 0.812736 0.265197
O O7 0.635253 0.681723 0.376469
O O8 0.290113 0.637837 0.842233
O O9 0.500000 0.711428 0.000000
O O10 0.250000 0.750000 0.000000
O O11 0.653177 0.097983 0.608042
O O12 0.609419 0.000000 0.785309
O O13 0.171851 0.000000 0.454092
#
# Coordination Sequence:
#
# PCOD8112769 Si02
#       5
#     8   8   8   8   8
#     4   9  19  38  65  97 131 168 216 277 342 402
#     4   9  18  32  58  93 132 165 204 257 329 402
#     4  11  27  47  68  95 131 181 239 283 330 394
#     4  10  23  41  65  96 132 171 222 279 339 403
#     4   9  18  37  66 101 130 166 215 269 342 420
#
# _framework density 24.500062
#
# number of rings (size 3 to 8) (size 9 to 14) (size 15 to 20)
#    0.000    2.400    0.000    0.600    5.600   11.600 
#    3.600    0.000    0.000    1.200    0.000    0.000 
#    0.000    0.000    0.000    0.000    0.000    0.000 
#
# Total GULP energy -247834.120822 kJ/mol
# GULP energy per Si atom -12391.706041 kJ/mol
# Density = 2.444430 g / cm^3
# Si number density = 24.500062 Si / 1000 Ang^3
#
#
#
# Elastic Constant Matrix: (Units=GPa)
#
#
# Indices 1 2 3 4 5 6 
#
# 1 71.4389 19.7363 37.7483 0.0000 12.1510 0.0000
# 2 19.7363 176.0358 50.4840 0.0000 25.4548 0.0000
# 3 37.7483 50.4840 99.6268 0.0000 9.3696 0.0000
# 4 0.0000 0.0000 0.0000 32.0885 0.0000 2.5515
# 5 12.1510 25.4548 9.3696 0.0000 50.4780 0.0000
# 6 0.0000 0.0000 0.0000 2.5515 0.0000 4.7233
#
#
#
# Elastic Compliance Matrix: (Units=1/GPa)
#
#
# Indices 1 2 3 4 5 6 
#
# 1 0.017991 0.000378 -0.006700 0.000000 -0.003278 0.000000
# 2 0.000378 0.007060 -0.003437 0.000000 -0.003013 0.000000
# 3 -0.006700 -0.003437 0.014252 0.000000 0.000701 0.000000
# 4 0.000000 0.000000 0.000000 0.032562 0.000000 -0.017590
# 5 -0.003278 -0.003013 0.000701 0.000000 0.021989 0.000000
# 6 0.000000 0.000000 0.000000 -0.017590 0.000000 0.221219
#
#
# Mechanical properties :
#
#
# Convention : Reuss Voigt Hill
#
# Bulk Modulus (GPa) = 50.54427 62.55984 56.55205
# Shear Modulus (GPa) = 14.65472 33.40016 24.02744
#
# Velocity S-wave (km/s) = 2.44836 3.69625 3.13503
# Velocity P-wave (km/s) = 5.35422 6.61864 6.01972
#
# Compressibility (1/GPa) = 0.01978464
#
# Stress axis : x y z
#
# Youngs Moduli (GPa) = 55.58188 141.64884 70.16488
#
# Poissons Ratio (x) = -0.05361 0.47013
# Poissons Ratio (y) = -0.02103 0.24118
# Poissons Ratio (z) = 0.37242 0.48690
#
# Static dielectric constant tensor:
#      x y z
#    x 4.230130 0.000000 0.065500 
#    y 0.000000 4.778460 0.000000 
#    z 0.065500 0.000000 4.503130 
# 
# 
# High freq. dielectric constant tensor:
#      x y z
#    x 1.964680 0.000000 0.009000 
#    y 0.000000 1.988770 0.000000 
#    z 0.009000 0.000000 1.960530 
# 
# From -- ./inp_files/129802.got.cif
#   From: 2010.06.25/outbox.cif.g09.slc.cpg/sg12_65_cif.got.tgz:129802.got - 2010.06.28 00:19:55.
