data_PCOD8112295
_publ_section_title
;
Structure prediction by ZEFSAII (Michael W. Deem and Ramdas Pophale) SiO2 
 PCOD8112295
Probable space group: C 2/M
;
_chemical_formula_sum "Si O2"
_cell_formula_units_Z 48
_cell_length_a 14.305845
_cell_length_b 29.886567
_cell_length_c 8.779761
_cell_angle_alpha 90.000000
_cell_angle_beta 145.058906
_cell_angle_gamma 90.000000
_cell_volume 2149.934238
_symmetry_space_group_name_H-M "C 2/M"
_symmetry_group_IT_number 12
_symmetry_cell_setting 'monoclinic'
loop_
_space_group_symop_operation_xyz
x,y,z
-x,y,-z
-x,-y,-z
x,-y,z
1/2+x,1/2+y,z
1/2-x,1/2+y,-z
1/2-x,1/2-y,-z
1/2+x,1/2-y,z
loop_
_atom_site_type_symbol
_atom_site_label
_atom_site_fract_x
_atom_site_fract_y
_atom_site_fract_z
Si Si1 0.680480 0.050882 0.699214
Si Si2 0.682330 0.449280 0.792866
Si Si3 0.814898 0.367523 0.804600
Si Si4 0.319629 0.372848 0.698950
Si Si5 0.824759 0.724363 0.955431
Si Si6 0.875797 0.710683 0.474488
O O1 0.500000 0.068523 0.500000
O O2 0.756832 0.078163 0.661743
O O3 0.668802 0.000000 0.626162
O O4 0.801654 0.055687 0.004357
O O5 0.500000 0.436810 0.500000
O O6 0.727716 0.500000 0.803398
O O7 0.805684 0.414731 0.878982
O O8 0.689905 0.367831 0.495758
O O9 0.762782 0.326891 0.848542
O O10 0.000000 0.360166 0.000000
O O11 0.199780 0.338122 0.619619
O O12 0.500000 0.363720 0.000000
O O13 0.768439 0.752725 0.733384
O O14 0.750000 0.750000 0.000000
O O15 0.021410 0.722879 0.235809
O O16 0.000000 0.711383 0.500000
#
# Coordination Sequence:
#
# PCOD8112295 Si02
#       6
#     8   8   8   8   8   8
#     4  10  22  42  69  96 128 178 230 266 319 400
#     4  10  23  43  69  98 134 181 228 270 319 398
#     4  12  25  43  67 101 138 169 221 282 338 391
#     4  12  26  40  64 100 137 174 207 280 341 390
#     4  10  24  43  68  97 126 176 220 271 324 399
#     4  10  23  44  68  92 127 172 222 264 323 401
#
# _framework density 22.326263999999998
#
# number of rings (size 3 to 8) (size 9 to 14) (size 15 to 20)
#    0.000    1.333    1.667    2.500    7.000    4.667 
#    0.000    0.000    0.000    0.000    0.000    0.000 
#    0.000    0.000    0.000    0.000    0.000    0.000 
#
# Total GULP energy -297594.662871 kJ/mol
# GULP energy per Si atom -12399.777620 kJ/mol
# Density = 2.227545 g / cm^3
# Si number density = 22.326264 Si / 1000 Ang^3
#
#
#
# Elastic Constant Matrix: (Units=GPa)
#
#
# Indices 1 2 3 4 5 6 
#
# 1 60.6467 53.3042 26.9359 0.0000 -0.4369 0.0000
# 2 53.3042 154.9130 49.8061 0.0000 -7.7500 0.0000
# 3 26.9359 49.8061 169.6647 0.0000 -0.0362 0.0000
# 4 0.0000 0.0000 0.0000 35.6029 0.0000 -1.4445
# 5 -0.4369 -7.7500 -0.0362 0.0000 25.4122 0.0000
# 6 0.0000 0.0000 0.0000 -1.4445 0.0000 30.0113
#
#
#
# Elastic Compliance Matrix: (Units=1/GPa)
#
#
# Indices 1 2 3 4 5 6 
#
# 1 0.024092 -0.007906 -0.001504 0.000000 -0.001999 0.000000
# 2 -0.007906 0.009844 -0.001634 0.000000 0.002864 0.000000
# 3 -0.001504 -0.001634 0.006612 0.000000 -0.000515 0.000000
# 4 0.000000 0.000000 0.000000 0.028143 0.000000 0.001355
# 5 -0.001999 0.002864 -0.000515 0.000000 0.040190 0.000000
# 6 0.000000 0.000000 0.000000 0.001355 0.000000 0.033386
#
#
# Mechanical properties :
#
#
# Convention : Reuss Voigt Hill
#
# Bulk Modulus (GPa) = 54.17314 71.70188 62.93751
# Shear Modulus (GPa) = 29.32409 35.21715 32.27062
#
# Velocity S-wave (km/s) = 3.62807 3.97594 3.80598
# Velocity P-wave (km/s) = 6.47051 7.29813 6.89674
#
# Compressibility (1/GPa) = 0.01845933
#
# Stress axis : x y z
#
# Youngs Moduli (GPa) = 41.50832 101.58178 151.23127
#
# Poissons Ratio (x) = 0.80311 0.22750
# Poissons Ratio (y) = 0.32817 0.24712
# Poissons Ratio (z) = 0.06244 0.16599
#
# Static dielectric constant tensor:
#      x y z
#    x 3.580270 0.000000 -0.120880 
#    y 0.000000 4.186810 0.000000 
#    z -0.120880 0.000000 5.024730 
# 
# 
# High freq. dielectric constant tensor:
#      x y z
#    x 1.845880 0.000000 -0.003800 
#    y 0.000000 1.892280 0.000000 
#    z -0.003800 0.000000 1.908120 
# 
# From -- ./inp_files/67425.got.cif
#   From: 2010.06.25/outbox.cif.g09.slc.cpg/sg12_34_cif.got.tgz:67425.got - 2010.06.28 00:19:55.
