data_PCOD8112700
_publ_section_title
;
Structure prediction by ZEFSAII (Michael W. Deem and Ramdas Pophale) SiO2 
 PCOD8112700
Probable space group: C 2/M
;
_chemical_formula_sum "Si O2"
_cell_formula_units_Z 48
_cell_length_a 21.885632
_cell_length_b 8.675334
_cell_length_c 12.244446
_cell_angle_alpha 90.000000
_cell_angle_beta 79.083573
_cell_angle_gamma 90.000000
_cell_volume 2282.725385
_symmetry_space_group_name_H-M "C 2/M"
_symmetry_group_IT_number 12
_symmetry_cell_setting 'monoclinic'
loop_
_space_group_symop_operation_xyz
x,y,z
-x,y,-z
-x,-y,-z
x,-y,z
1/2+x,1/2+y,z
1/2-x,1/2+y,-z
1/2-x,1/2-y,-z
1/2+x,1/2-y,z
loop_
_atom_site_type_symbol
_atom_site_label
_atom_site_fract_x
_atom_site_fract_y
_atom_site_fract_z
Si Si1 0.572828 0.327316 0.974926
Si Si2 0.157961 0.323865 0.787206
Si Si3 0.735479 0.820843 0.121698
Si Si4 0.434736 0.182745 0.571347
Si Si5 0.681106 0.178036 0.531635
Si Si6 0.890170 0.818541 0.799696
O O1 0.600535 0.500000 0.949986
O O2 0.593229 0.215935 0.869187
O O3 0.500000 0.334302 0.000000
O O4 0.594814 0.258781 0.083591
O O5 0.177163 0.500000 0.805953
O O6 0.206522 0.202891 0.819308
O O7 0.152061 0.295780 0.660873
O O8 0.680188 0.731198 0.200731
O O9 0.719411 0.000000 0.115090
O O10 0.750000 0.750000 0.000000
O O11 0.500000 0.245848 0.500000
O O12 0.372269 0.248053 0.531015
O O13 0.434518 0.237141 0.696743
O O14 0.433756 0.000000 0.563709
O O15 0.750000 0.250000 0.500000
O O16 0.690708 0.000000 0.501031
O O17 0.899537 0.000000 0.786237
#
# Coordination Sequence:
#
# PCOD8112700 Si02
#       6
#     8   8   8   8   8   8
#     4  10  23  41  60  87 124 165 206 252 312 374
#     4  11  23  39  63  94 125 158 205 257 310 373
#     4  12  23  38  61  91 125 161 201 247 307 371
#     4  10  23  43  66  91 125 167 214 263 316 376
#     4  10  23  42  63  92 124 163 210 259 311 369
#     4  11  23  40  63  92 126 160 205 259 311 372
#
# _framework density 21.027497
#
# number of rings (size 3 to 8) (size 9 to 14) (size 15 to 20)
#    0.000    1.333    1.667    3.500    2.333    6.000 
#    0.000    0.000    0.000    0.000    0.000    0.000 
#    0.000    0.000    0.000    0.000    0.000    0.000 
#
# Total GULP energy -297601.812871 kJ/mol
# GULP energy per Si atom -12400.075536 kJ/mol
# Density = 2.097964 g / cm^3
# Si number density = 21.027497 Si / 1000 Ang^3
#
#
#
# Elastic Constant Matrix: (Units=GPa)
#
#
# Indices 1 2 3 4 5 6 
#
# 1 104.0931 26.4575 40.3903 0.0000 -11.7218 0.0000
# 2 26.4575 39.8424 36.7614 0.0000 -1.5520 0.0000
# 3 40.3903 36.7614 128.7320 0.0000 -20.5433 0.0000
# 4 0.0000 0.0000 0.0000 38.9030 0.0000 -8.7870
# 5 -11.7218 -1.5520 -20.5433 0.0000 37.8745 0.0000
# 6 0.0000 0.0000 0.0000 -8.7870 0.0000 31.2563
#
#
#
# Elastic Compliance Matrix: (Units=1/GPa)
#
#
# Indices 1 2 3 4 5 6 
#
# 1 0.012167 -0.006581 -0.001511 0.000000 0.002676 0.000000
# 2 -0.006581 0.038274 -0.009787 0.000000 -0.005777 0.000000
# 3 -0.001511 -0.009787 0.011931 0.000000 0.005603 0.000000
# 4 0.000000 0.000000 0.000000 0.027448 0.000000 0.007716
# 5 0.002676 -0.005777 0.005603 0.000000 0.030034 0.000000
# 6 0.000000 0.000000 0.000000 0.007716 0.000000 0.034163
#
#
# Mechanical properties :
#
#
# Convention : Reuss Voigt Hill
#
# Bulk Modulus (GPa) = 37.57381 53.32065 45.44723
# Shear Modulus (GPa) = 25.17041 32.87732 29.02387
#
# Velocity S-wave (km/s) = 3.46356 3.95845 3.71924
# Velocity P-wave (km/s) = 5.82260 6.80478 6.33276
#
# Compressibility (1/GPa) = 0.02661428
#
# Stress axis : x y z
#
# Youngs Moduli (GPa) = 82.18779 26.12736 83.81509
#
# Poissons Ratio (x) = 0.17195 0.12665
# Poissons Ratio (y) = 0.54090 0.82027
# Poissons Ratio (z) = 0.12419 0.25570
#
# Static dielectric constant tensor:
#      x y z
#    x 4.049910 0.000000 0.060350 
#    y 0.000000 4.398260 0.000000 
#    z 0.060350 0.000000 4.227280 
# 
# 
# High freq. dielectric constant tensor:
#      x y z
#    x 1.828210 0.000000 -0.006700 
#    y 0.000000 1.813560 0.000000 
#    z -0.006700 0.000000 1.835740 
# 
# From -- ./inp_files/172198.got.cif
#   From: 2010.06.25/outbox.cif.g09.slc.cpg/sg12_87_cif.got.tgz:172198.got - 2010.06.28 00:19:55.
