data_PCOD8112469
_publ_section_title
;
Structure prediction by ZEFSAII (Michael W. Deem and Ramdas Pophale) SiO2 
 PCOD8112469
Probable space group: C 2/M
;
_chemical_formula_sum "Si O2"
_cell_formula_units_Z 44
_cell_length_a 8.667609
_cell_length_b 20.773093
_cell_length_c 12.930172
_cell_angle_alpha 90.000000
_cell_angle_beta 113.750940
_cell_angle_gamma 90.000000
_cell_volume 2130.936720
_symmetry_space_group_name_H-M "C 2/M"
_symmetry_group_IT_number 12
_symmetry_cell_setting 'monoclinic'
loop_
_space_group_symop_operation_xyz
x,y,z
-x,y,-z
-x,-y,-z
x,-y,z
1/2+x,1/2+y,z
1/2-x,1/2+y,-z
1/2-x,1/2-y,-z
1/2+x,1/2-y,z
loop_
_atom_site_type_symbol
_atom_site_label
_atom_site_fract_x
_atom_site_fract_y
_atom_site_fract_z
Si Si1 0.354717 0.787098 0.114747
Si Si2 0.308956 0.819177 0.478239
Si Si3 0.500000 0.115543 0.000000
Si Si4 0.312210 0.573309 0.408490
Si Si5 0.336465 0.428235 0.178183
Si Si6 0.902625 0.823840 0.779200
O O1 0.226662 0.817034 0.161912
O O2 0.485584 0.740038 0.207474
O O3 0.250000 0.750000 0.000000
O O4 0.465184 0.842110 0.091939
O O5 0.500000 0.811300 0.500000
O O6 0.250000 0.750000 0.500000
O O7 0.301394 0.875039 0.562277
O O8 0.196504 0.840966 0.351274
O O9 0.661645 0.072195 0.068292
O O10 0.500000 0.579206 0.500000
O O11 0.243995 0.500000 0.405842
O O12 0.305705 0.593908 0.287383
O O13 0.411291 0.500000 0.195937
O O14 0.471487 0.382174 0.159544
#
# Coordination Sequence:
#
# PCOD8112469 Si02
#       6
#     8   8   4   8   8   8
#     4  12  23  41  67  98 126 174 219 273 336 398
#     4  12  27  40  65 103 136 171 222 279 333 392
#     4  12  25  42  72  94 135 170 230 274 334 394
#     4  10  22  45  70  93 130 180 221 267 338 408
#     4  11  25  45  69  98 133 178 225 271 331 400
#     4  12  24  42  66  95 136 171 218 274 337 393
#
# _framework density 20.648197
#
# number of rings (size 3 to 8) (size 9 to 14) (size 15 to 20)
#    0.000    0.545    5.455    1.909    7.636    0.364 
#    0.000    2.727    0.000    0.000    0.000    0.000 
#    0.000    0.000    0.000    0.000    0.000    0.000 
#
# Total GULP energy -272918.074054 kJ/mol
# GULP energy per Si atom -12405.367002 kJ/mol
# Density = 2.060120 g / cm^3
# Si number density = 20.648197 Si / 1000 Ang^3
#
#
#
# Elastic Constant Matrix: (Units=GPa)
#
#
# Indices 1 2 3 4 5 6 
#
# 1 146.0484 67.3537 34.6889 0.0000 -13.2452 0.0000
# 2 67.3537 119.3685 26.7441 0.0000 -23.8770 0.0000
# 3 34.6889 26.7441 84.3747 0.0000 1.1760 0.0000
# 4 0.0000 0.0000 0.0000 30.0240 0.0000 0.0290
# 5 -13.2452 -23.8770 1.1760 0.0000 41.2637 0.0000
# 6 0.0000 0.0000 0.0000 0.0290 0.0000 3.7875
#
#
#
# Elastic Compliance Matrix: (Units=1/GPa)
#
#
# Indices 1 2 3 4 5 6 
#
# 1 0.009700 -0.004847 -0.002457 0.000000 0.000379 0.000000
# 2 -0.004847 0.012770 -0.002137 0.000000 0.005894 0.000000
# 3 -0.002457 -0.002137 0.013573 0.000000 -0.002412 0.000000
# 4 0.000000 0.000000 0.000000 0.033307 0.000000 -0.000255
# 5 0.000379 0.005894 -0.002412 0.000000 0.027836 0.000000
# 6 0.000000 0.000000 0.000000 -0.000255 0.000000 0.264030
#
#
# Mechanical properties :
#
#
# Convention : Reuss Voigt Hill
#
# Bulk Modulus (GPa) = 58.27108 67.48500 62.87804
# Shear Modulus (GPa) = 12.95945 29.74869 21.35407
#
# Velocity S-wave (km/s) = 2.50797 3.79983 3.21936
# Velocity P-wave (km/s) = 6.05547 7.21150 6.65862
#
# Compressibility (1/GPa) = 0.01716117
#
# Stress axis : x y z
#
# Youngs Moduli (GPa) = 103.08884 78.30664 73.67531
#
# Poissons Ratio (x) = 0.37956 0.18102
# Poissons Ratio (y) = 0.49969 0.15745
# Poissons Ratio (z) = 0.25329 0.16735
#
# Static dielectric constant tensor:
#      x y z
#    x 3.758820 0.000000 0.002580 
#    y 0.000000 3.808590 0.000000 
#    z 0.002580 0.000000 4.129900 
# 
# 
# High freq. dielectric constant tensor:
#      x y z
#    x 1.808670 0.000000 0.007310 
#    y 0.000000 1.809610 0.000000 
#    z 0.007310 0.000000 1.819840 
# 
# From -- ./inp_files/120819.got.cif
#   From: 2010.06.25/outbox.cif.g09.slc.cpg/sg12_61_cif.got.tgz:120819.got - 2010.06.28 00:19:55.
