data_PCOD8112063
_publ_section_title
;
Structure prediction by ZEFSAII (Michael W. Deem and Ramdas Pophale) SiO2 
 PCOD8112063
Probable space group: C 2/M
;
_chemical_formula_sum "Si O2"
_cell_formula_units_Z 48
_cell_length_a 16.578599
_cell_length_b 14.625100
_cell_length_c 12.101687
_cell_angle_alpha 90.000000
_cell_angle_beta 126.582581
_cell_angle_gamma 90.000000
_cell_volume 2356.174386
_symmetry_space_group_name_H-M "C 2/M"
_symmetry_group_IT_number 12
_symmetry_cell_setting 'monoclinic'
loop_
_space_group_symop_operation_xyz
x,y,z
-x,y,-z
-x,-y,-z
x,-y,z
1/2+x,1/2+y,z
1/2-x,1/2+y,-z
1/2-x,1/2-y,-z
1/2+x,1/2-y,z
loop_
_atom_site_type_symbol
_atom_site_label
_atom_site_fract_x
_atom_site_fract_y
_atom_site_fract_z
Si Si1 0.366455 0.256048 0.112542
Si Si2 0.774638 0.606003 0.359445
Si Si3 0.387974 0.273676 0.382395
Si Si4 0.008431 0.393155 0.135448
Si Si5 0.890061 0.098492 0.951768
Si Si6 0.732155 0.105983 0.391303
O O1 0.380769 0.289350 0.247365
O O2 0.424391 0.161351 0.135846
O O3 0.250000 0.250000 0.000000
O O4 0.405849 0.333406 0.064374
O O5 0.805488 0.500000 0.371390
O O6 0.869130 0.667939 0.400758
O O7 0.681622 0.635202 0.205153
O O8 0.745071 0.626997 0.461846
O O9 0.500000 0.304186 0.500000
O O10 0.308259 0.336800 0.379749
O O11 0.986594 0.500000 0.136642
O O12 0.118191 0.365260 0.269314
O O13 0.000000 0.366585 0.000000
O O14 0.846729 0.000000 0.957014
O O15 0.000000 0.081546 0.000000
O O16 0.748776 0.000000 0.376601
#
# Coordination Sequence:
#
# PCOD8112063 Si02
#       6
#     8   8   8   8   8   8
#     4  12  24  39  62  94 132 163 196 255 317 365
#     4  10  22  43  66  88 121 165 213 256 298 363
#     4  12  26  39  61  98 130 163 200 253 324 373
#     4  10  22  41  67  93 121 166 215 253 299 366
#     4  10  23  41  65  91 118 165 213 251 301 364
#     4  10  23  44  67  91 121 165 214 256 301 366
#
# _framework density 20.372005999999999
#
# number of rings (size 3 to 8) (size 9 to 14) (size 15 to 20)
#    0.000    1.333    1.667    3.000    4.667    2.667 
#    0.000    0.000    0.000    0.000    0.000    0.000 
#    0.000    0.000    0.000    0.000    0.000    0.000 
#
# Total GULP energy -297608.092019 kJ/mol
# GULP energy per Si atom -12400.337167 kJ/mol
# Density = 2.032564 g / cm^3
# Si number density = 20.372006 Si / 1000 Ang^3
#
#
#
# Elastic Constant Matrix: (Units=GPa)
#
#
# Indices 1 2 3 4 5 6 
#
# 1 123.2893 66.8409 66.4602 0.0000 6.1805 0.0000
# 2 66.8409 100.3845 52.9869 0.0000 -6.2139 0.0000
# 3 66.4602 52.9869 149.5847 0.0000 -10.3866 0.0000
# 4 0.0000 0.0000 0.0000 -1.1759 0.0000 19.1255
# 5 6.1805 -6.2139 -10.3866 0.0000 43.9859 0.0000
# 6 0.0000 0.0000 0.0000 19.1255 0.0000 7.4986
#
#
#
# Elastic Compliance Matrix: (Units=1/GPa)
#
#
# Indices 1 2 3 4 5 6 
#
# 1 0.014842 -0.008004 -0.004049 0.000000 -0.004172 0.000000
# 2 -0.008004 0.016591 -0.002115 0.000000 0.002969 0.000000
# 3 -0.004049 -0.002115 0.009406 0.000000 0.002491 0.000000
# 4 0.000000 0.000000 0.000000 -0.020018 0.000000 0.051056
# 5 -0.004172 0.002969 0.002491 0.000000 0.024329 0.000000
# 6 0.000000 0.000000 0.000000 0.051056 0.000000 0.003139
#
#
# Mechanical properties :
#
#
# Convention : Reuss Voigt Hill
#
# Bulk Modulus (GPa) = 79.97108 82.87049 81.42079
# Shear Modulus (GPa) = 61.88778 22.52642 42.20710
#
# Velocity S-wave (km/s) = 5.51768 3.32889 4.55666
# Velocity P-wave (km/s) = 8.94056 7.45267 8.23031
#
# Compressibility (1/GPa) = 0.01250452
#
# Stress axis : x y z
#
# Youngs Moduli (GPa) = 67.37733 60.27397 106.31313
#
# Poissons Ratio (x) = 0.48240 0.43044
# Poissons Ratio (y) = 0.53926 0.22484
# Poissons Ratio (z) = 0.27280 0.12747
#
# Static dielectric constant tensor:
#      x y z
#    x 3.584380 0.000000 0.017640 
#    y 0.000000 3.920600 0.000000 
#    z 0.017640 0.000000 3.853000 
# 
# 
# High freq. dielectric constant tensor:
#      x y z
#    x 1.791870 0.000000 -0.000420 
#    y 0.000000 1.805280 0.000000 
#    z -0.000420 0.000000 1.815620 
# 
# From -- ./inp_files/143861.got.cif
#   From: 2010.06.25/outbox.cif.g09.slc.cpg/sg12_72_cif.got.tgz:143861.got - 2010.06.28 00:19:55.
