data_PCOD8112288
_publ_section_title
;
Structure prediction by ZEFSAII (Michael W. Deem and Ramdas Pophale) SiO2 
 PCOD8112288
Probable space group: C 2/M
;
_chemical_formula_sum "Si O2"
_cell_formula_units_Z 64
_cell_length_a 18.300641
_cell_length_b 8.701225
_cell_length_c 28.271366
_cell_angle_alpha 90.000000
_cell_angle_beta 135.755086
_cell_angle_gamma 90.000000
_cell_volume 3141.079610
_symmetry_space_group_name_H-M "C 2/M"
_symmetry_group_IT_number 12
_symmetry_cell_setting 'monoclinic'
loop_
_space_group_symop_operation_xyz
x,y,z
-x,y,-z
-x,-y,-z
x,-y,z
1/2+x,1/2+y,z
1/2-x,1/2+y,-z
1/2-x,1/2-y,-z
1/2+x,1/2-y,z
loop_
_atom_site_type_symbol
_atom_site_label
_atom_site_fract_x
_atom_site_fract_y
_atom_site_fract_z
Si Si1 0.247350 0.679826 0.549474
Si Si2 0.461861 0.668915 0.534610
Si Si3 0.039212 0.820237 0.307664
Si Si4 0.883826 0.821064 0.931158
Si Si5 0.603618 0.818186 0.680766
Si Si6 0.004252 0.820473 0.183883
Si Si7 0.217549 0.319768 0.935602
Si Si8 0.674560 0.819088 0.195076
O O1 0.250646 0.500000 0.548481
O O2 0.250000 0.750000 0.500000
O O3 0.140581 0.732032 0.523465
O O4 0.348074 0.741494 0.623834
O O5 0.500000 0.645780 0.500000
O O6 0.436973 0.500000 0.545149
O O7 0.542679 0.750830 0.607336
O O8 0.949424 0.730209 0.294390
O O9 0.040173 0.781237 0.253161
O O10 0.021486 0.000000 0.309106
O O11 0.807803 0.785639 0.939523
O O12 0.844163 0.726295 0.867868
O O13 0.883248 0.000000 0.917005
O O14 0.000000 0.767662 0.000000
O O15 0.723173 0.762151 0.735905
O O16 0.602187 0.000000 0.675553
O O17 0.885433 0.768111 0.127528
O O18 0.073998 0.728108 0.179011
O O19 0.013189 0.000000 0.175830
O O20 0.195577 0.500000 0.930288
O O21 0.250000 0.250000 0.000000
O O22 0.691643 0.000000 0.206049
#
# Coordination Sequence:
#
# PCOD8112288 Si02
#       8
#     8   8   8   8   8   8   8   8
#     4  11  22  39  64  94 125 163 210 261 315 378
#     4  11  25  43  63  91 127 165 209 263 319 378
#     4  10  23  42  65  92 126 164 209 261 316 375
#     4  10  22  42  68  98 133 172 213 258 309 370
#     4  12  25  42  66  92 124 167 211 259 317 381
#     4  11  24  43  65  93 128 169 213 263 316 373
#     4  11  23  40  66  99 133 171 213 261 312 370
#     4  12  26  43  65  94 130 168 211 263 317 377
#
# _framework density 20.375160999999999
#
# number of rings (size 3 to 8) (size 9 to 14) (size 15 to 20)
#    0.000    1.000    1.250    5.250    1.750    6.750 
#    0.000    0.000    0.000    0.000    0.000    0.000 
#    0.000    0.000    0.000    0.000    0.000    0.000 
#
# Total GULP energy -396876.694195 kJ/mol
# GULP energy per Si atom -12402.396694 kJ/mol
# Density = 2.032879 g / cm^3
# Si number density = 20.375161 Si / 1000 Ang^3
#
#
#
# Elastic Constant Matrix: (Units=GPa)
#
#
# Indices 1 2 3 4 5 6 
#
# 1 102.7935 25.0996 45.4831 0.0000 -3.7504 0.0000
# 2 25.0996 72.9284 43.3544 0.0000 -15.6928 0.0000
# 3 45.4831 43.3544 129.6566 0.0000 7.4239 0.0000
# 4 0.0000 0.0000 0.0000 31.4578 0.0000 7.6959
# 5 -3.7504 -15.6928 7.4239 0.0000 38.5682 0.0000
# 6 0.0000 0.0000 0.0000 7.6959 0.0000 20.2310
#
#
#
# Elastic Compliance Matrix: (Units=1/GPa)
#
#
# Indices 1 2 3 4 5 6 
#
# 1 0.011788 -0.001625 -0.003660 0.000000 0.001189 0.000000
# 2 -0.001625 0.020316 -0.006762 0.000000 0.009410 0.000000
# 3 -0.003660 -0.006762 0.011563 0.000000 -0.005333 0.000000
# 4 0.000000 0.000000 0.000000 0.035051 0.000000 -0.013333
# 5 0.001189 0.009410 -0.005333 0.000000 0.030899 0.000000
# 6 0.000000 0.000000 0.000000 -0.013333 0.000000 0.054501
#
#
# Mechanical properties :
#
#
# Convention : Reuss Voigt Hill
#
# Bulk Modulus (GPa) = 51.09138 59.25030 55.17084
# Shear Modulus (GPa) = 25.67580 30.81415 28.24498
#
# Velocity S-wave (km/s) = 3.55371 3.89310 3.72727
# Velocity P-wave (km/s) = 6.47829 7.02503 6.75719
#
# Compressibility (1/GPa) = 0.01957277
#
# Stress axis : x y z
#
# Youngs Moduli (GPa) = 84.83309 49.22198 86.48367
#
# Poissons Ratio (x) = 0.08001 0.31651
# Poissons Ratio (y) = 0.13789 0.58479
# Poissons Ratio (z) = 0.31047 0.33283
#
# Static dielectric constant tensor:
#      x y z
#    x 3.738830 0.000000 0.046970 
#    y 0.000000 3.964070 0.000000 
#    z 0.046970 0.000000 3.887150 
# 
# 
# High freq. dielectric constant tensor:
#      x y z
#    x 1.809680 0.000000 0.002100 
#    y 0.000000 1.805450 0.000000 
#    z 0.002100 0.000000 1.814970 
# 
# From -- ./inp_files/378505.got.cif
#   From: 2010.06.25/outbox.cif.g09.slc.cpg/sg12_190_cif.got.tgz:378505.got - 2010.06.28 00:19:55.
