data_PCOD8112671
_publ_section_title
;
Structure prediction by ZEFSAII (Michael W. Deem and Ramdas Pophale) SiO2 
 PCOD8112671
Probable space group: C 2/M
;
_chemical_formula_sum "Si O2"
_cell_formula_units_Z 48
_cell_length_a 20.439070
_cell_length_b 15.115627
_cell_length_c 10.099915
_cell_angle_alpha 90.000000
_cell_angle_beta 51.065693
_cell_angle_gamma 90.000000
_cell_volume 2427.226840
_symmetry_space_group_name_H-M "C 2/M"
_symmetry_group_IT_number 12
_symmetry_cell_setting 'monoclinic'
loop_
_space_group_symop_operation_xyz
x,y,z
-x,y,-z
-x,-y,-z
x,-y,z
1/2+x,1/2+y,z
1/2-x,1/2+y,-z
1/2-x,1/2-y,-z
1/2+x,1/2-y,z
loop_
_atom_site_type_symbol
_atom_site_label
_atom_site_fract_x
_atom_site_fract_y
_atom_site_fract_z
Si Si1 0.100129 0.000000 0.873462
Si Si2 0.809237 0.500000 0.974837
Si Si3 0.900979 0.500000 0.137482
Si Si4 0.860156 0.840399 0.363202
Si Si5 0.328375 0.806992 0.948199
Si Si6 0.473184 0.679092 0.680494
Si Si7 0.307860 0.165080 0.283605
Si Si8 0.878480 0.000000 0.846038
O O1 0.135278 0.914205 0.755485
O O2 0.134842 0.000000 0.978689
O O3 0.000000 0.000000 0.000000
O O4 0.832650 0.405739 0.873808
O O5 0.856064 0.500000 0.053729
O O6 0.709109 0.500000 0.119827
O O7 0.870271 0.587294 0.253416
O O8 0.000000 0.500000 0.000000
O O9 0.787730 0.863160 0.561278
O O10 0.837474 0.749874 0.323238
O O11 0.947955 0.830904 0.324546
O O12 0.414632 0.756722 0.810511
O O13 0.250000 0.750000 0.000000
O O14 0.315437 0.818757 0.119449
O O15 0.500000 0.707192 0.500000
O O16 0.427305 0.585624 0.734725
#
# Coordination Sequence:
#
# PCOD8112671 Si02
#       8
#     4   4   4   8   8   8   8   4
#     4  12  23  39  65 102 136 167 207 268 332 394
#     4  10  24  40  63  96 122 167 220 262 325 383
#     4  10  23  40  69  91 120 165 225 267 318 389
#     4  11  24  41  63  96 132 168 217 270 333 390
#     4  11  22  41  67  92 130 169 219 267 327 397
#     4  12  25  40  66  97 132 171 222 273 331 398
#     4  10  24  42  66  92 127 172 215 277 324 388
#     4  12  23  41  65 100 129 175 210 268 337 401
#
# _framework density 19.775653999999999
#
# number of rings (size 3 to 8) (size 9 to 14) (size 15 to 20)
#    0.000    1.000    3.333    2.750    7.000    0.000 
#    0.000    0.417    0.000    0.000    0.000    0.000 
#    0.000    0.000    0.000    0.000    0.000    0.000 
#
# Total GULP energy -297568.850995 kJ/mol
# GULP energy per Si atom -12398.702125 kJ/mol
# Density = 1.973064 g / cm^3
# Si number density = 19.775654 Si / 1000 Ang^3
#
#
#
# Elastic Constant Matrix: (Units=GPa)
#
#
# Indices 1 2 3 4 5 6 
#
# 1 94.6467 23.9706 41.1772 0.0000 -22.8487 0.0000
# 2 23.9706 151.9375 66.8152 0.0000 -20.2467 0.0000
# 3 41.1772 66.8152 140.3866 0.0000 -13.9104 0.0000
# 4 0.0000 0.0000 0.0000 311.5906 0.0000 168.0347
# 5 -22.8487 -20.2467 -13.9104 0.0000 45.0276 0.0000
# 6 0.0000 0.0000 0.0000 168.0347 0.0000 135.4824
#
#
#
# Elastic Compliance Matrix: (Units=1/GPa)
#
#
# Indices 1 2 3 4 5 6 
#
# 1 0.013426 0.000172 -0.003443 0.000000 0.005827 0.000000
# 2 0.000172 0.008632 -0.003884 0.000000 0.002769 0.000000
# 3 -0.003443 -0.003884 0.009940 0.000000 -0.000423 0.000000
# 4 0.000000 0.000000 0.000000 0.009692 0.000000 -0.012020
# 5 0.005827 0.002769 -0.000423 0.000000 0.026280 0.000000
# 6 0.000000 0.000000 0.000000 -0.012020 0.000000 0.022289
#
#
# Mechanical properties :
#
#
# Convention : Reuss Voigt Hill
#
# Bulk Modulus (GPa) = 56.53491 72.32187 64.42839
# Shear Modulus (GPa) = 45.26361 115.42063 80.34212
#
# Velocity S-wave (km/s) = 4.78939 7.64799 6.38083
# Velocity P-wave (km/s) = 7.69640 10.70698 9.32400
#
# Compressibility (1/GPa) = 0.01768818
#
# Stress axis : x y z
#
# Youngs Moduli (GPa) = 74.47965 115.85428 100.60619
#
# Poissons Ratio (x) = -0.01995 0.34636
# Poissons Ratio (y) = -0.01283 0.39078
# Poissons Ratio (z) = 0.25641 0.45001
#
# Static dielectric constant tensor:
#      x y z
#    x 3.260880 0.000000 -0.339860 
#    y 0.000000 5.030230 0.000000 
#    z -0.339860 0.000000 3.760010 
# 
# 
# High freq. dielectric constant tensor:
#      x y z
#    x 1.773750 0.000000 -0.012670 
#    y 0.000000 1.799570 0.000000 
#    z -0.012670 0.000000 1.767280 
# 
# From -- ./inp_files/167595.got.cif
#   From: 2010.06.25/outbox.cif.g09.slc.cpg/sg12_84_cif.got.tgz:167595.got - 2010.06.28 00:19:55.
