data_PCOD8112549
_publ_section_title
;
Structure prediction by ZEFSAII (Michael W. Deem and Ramdas Pophale) SiO2 
 PCOD8112549
Probable space group: C 2/M
;
_chemical_formula_sum "Si O2"
_cell_formula_units_Z 24
_cell_length_a 15.612338
_cell_length_b 15.194540
_cell_length_c 5.053169
_cell_angle_alpha 90.000000
_cell_angle_beta 75.666464
_cell_angle_gamma 90.000000
_cell_volume 1161.409246
_symmetry_space_group_name_H-M "C 2/M"
_symmetry_group_IT_number 12
_symmetry_cell_setting 'monoclinic'
loop_
_space_group_symop_operation_xyz
x,y,z
-x,y,-z
-x,-y,-z
x,-y,z
1/2+x,1/2+y,z
1/2-x,1/2+y,-z
1/2-x,1/2-y,-z
1/2+x,1/2-y,z
loop_
_atom_site_type_symbol
_atom_site_label
_atom_site_fract_x
_atom_site_fract_y
_atom_site_fract_z
Si Si1 0.000000 0.738817 0.000000
Si Si2 0.141977 0.000000 0.339621
Si Si3 0.920689 0.596744 0.755565
Si Si4 0.761793 0.500000 0.748831
Si Si5 0.000000 0.854986 0.500000
O O1 0.918566 0.673515 0.979510
O O2 0.029868 0.797682 0.729188
O O3 0.218956 0.000000 0.069725
O O4 0.082750 0.913580 0.348148
O O5 0.185250 0.000000 0.594680
O O6 0.940613 0.500000 0.868092
O O7 0.000000 0.624067 0.500000
O O8 0.825144 0.587484 0.680789
#
# Coordination Sequence:
#
# PCOD8112549 Si02
#       5
#     4   4   8   4   4
#     4  12  21  41  66 100 118 166 206 255 309 378
#     4  11  24  48  60  90 117 179 215 251 306 360
#     4   9  21  38  68  97 127 167 190 249 321 387
#     4  10  23  38  72  90 125 161 210 253 305 381
#     4  11  26  42  69  80 128 170 217 256 300 363
#
# _framework density 20.664549000000001
#
# number of rings (size 3 to 8) (size 9 to 14) (size 15 to 20)
#    1.000    0.667    1.667    2.500    4.667    2.667 
#    0.000   10.000    0.000    0.000    0.000    0.000 
#    0.000    0.000    0.000    0.000    0.000    0.000 
#
# Total GULP energy -148660.151469 kJ/mol
# GULP energy per Si atom -12388.345956 kJ/mol
# Density = 2.061752 g / cm^3
# Si number density = 20.664549 Si / 1000 Ang^3
#
#
#
# Elastic Constant Matrix: (Units=GPa)
#
#
# Indices 1 2 3 4 5 6 
#
# 1 98.8338 34.3878 21.9324 0.0000 1.2824 0.0000
# 2 34.3878 122.0311 43.5811 0.0000 6.6773 0.0000
# 3 21.9324 43.5811 92.3094 0.0000 0.3858 0.0000
# 4 0.0000 0.0000 0.0000 11.8093 0.0000 -5.1518
# 5 1.2824 6.6773 0.3858 0.0000 38.6199 0.0000
# 6 0.0000 0.0000 0.0000 -5.1518 0.0000 -2.6367
#
#
#
# Elastic Compliance Matrix: (Units=1/GPa)
#
#
# Indices 1 2 3 4 5 6 
#
# 1 0.011373 -0.002701 -0.001428 0.000000 0.000104 0.000000
# 2 -0.002701 0.010605 -0.004358 0.000000 -0.001700 0.000000
# 3 -0.001428 -0.004358 0.013227 0.000000 0.000669 0.000000
# 4 0.000000 0.000000 0.000000 0.045714 0.000000 -0.089319
# 5 0.000104 -0.001700 0.000669 0.000000 0.026177 0.000000
# 6 0.000000 0.000000 0.000000 -0.089319 0.000000 -0.204743
#
#
# Mechanical properties :
#
#
# Convention : Reuss Voigt Hill
#
# Bulk Modulus (GPa) = 54.84710 56.99746 55.92228
# Shear Modulus (GPa) = -67.02816 23.77668 -21.62574
#
# Velocity S-wave (km/s) = -5.70147 3.39573 -3.23850
# Velocity P-wave (km/s) = 4.09183 6.55872 3.62448
#
# Compressibility (1/GPa) = 0.01823250
#
# Stress axis : x y z
#
# Youngs Moduli (GPa) = 87.92650 94.29386 75.60248
#
# Poissons Ratio (x) = 0.25466 0.10793
# Poissons Ratio (y) = 0.23747 0.32948
# Poissons Ratio (z) = 0.12552 0.41094
#
# Static dielectric constant tensor:
#      x y z
#    x 3.602490 0.000000 0.107700 
#    y 0.000000 3.843710 0.000000 
#    z 0.107700 0.000000 3.601300 
# 
# 
# High freq. dielectric constant tensor:
#      x y z
#    x 1.790850 0.000000 0.011670 
#    y 0.000000 1.807820 0.000000 
#    z 0.011670 0.000000 1.806470 
# 
# From -- ./inp_files/9436.got.cif
#   From: 2010.06.25/outbox.cif.g09.slc.cpg/sg12_5_cif.got.tgz:9436.got - 2010.06.28 00:19:55.
