data_PCOD8112591
_publ_section_title
;
Structure prediction by ZEFSAII (Michael W. Deem and Ramdas Pophale) SiO2 
 PCOD8112591
Probable space group: C 2/M
;
_chemical_formula_sum "Si O2"
_cell_formula_units_Z 36
_cell_length_a 22.080822
_cell_length_b 12.061305
_cell_length_c 7.452869
_cell_angle_alpha 90.000000
_cell_angle_beta 109.726293
_cell_angle_gamma 90.000000
_cell_volume 1868.393514
_symmetry_space_group_name_H-M "C 2/M"
_symmetry_group_IT_number 12
_symmetry_cell_setting 'monoclinic'
loop_
_space_group_symop_operation_xyz
x,y,z
-x,y,-z
-x,-y,-z
x,-y,z
1/2+x,1/2+y,z
1/2-x,1/2+y,-z
1/2-x,1/2-y,-z
1/2+x,1/2-y,z
loop_
_atom_site_type_symbol
_atom_site_label
_atom_site_fract_x
_atom_site_fract_y
_atom_site_fract_z
Si Si1 0.368648 0.000000 0.411689
Si Si2 0.761963 0.500000 0.011961
Si Si3 0.631356 0.000000 0.174402
Si Si4 0.638759 0.622849 0.888759
Si Si5 0.073527 0.733426 0.117193
Si Si6 0.573526 0.766573 0.529861
O O1 0.347503 0.000000 0.597498
O O2 0.411752 0.106208 0.405918
O O3 0.304009 0.000000 0.232672
O O4 0.804003 0.500000 0.875326
O O5 0.716515 0.609625 0.966518
O O6 0.588253 0.106208 0.082418
O O7 0.606377 0.500000 0.856373
O O8 0.618653 0.687363 0.690461
O O9 0.618652 0.687359 0.046849
O O10 0.088571 0.759281 0.338572
O O11 0.000000 0.759083 0.000000
O O12 0.500000 0.740909 0.500000
#
# Coordination Sequence:
#
# PCOD8112591 Si02
#       6
#     4   4   4   8   8   8
#     4  10  23  39  66  96 125 158 205 269 314 370
#     4  10  24  44  62  88 132 172 214 238 310 374
#     4  10  23  39  66  96 125 158 205 269 314 370
#     4  10  25  43  60  92 124 177 211 250 298 374
#     4  11  22  40  64  96 126 160 206 262 322 364
#     4  11  22  40  64  96 126 160 206 262 322 364
#
# _framework density 19.267890999999999
#
# number of rings (size 3 to 8) (size 9 to 14) (size 15 to 20)
#    0.667    0.889    2.222    2.000    0.000    7.111 
#    0.000    4.444    0.000    0.000    0.000    0.000 
#    0.000    0.000    0.000    0.000    0.000    0.000 
#
# Total GULP energy -223229.339646 kJ/mol
# GULP energy per Si atom -12401.629980 kJ/mol
# Density = 1.922404 g / cm^3
# Si number density = 19.267891 Si / 1000 Ang^3
#
#
#
# Elastic Constant Matrix: (Units=GPa)
#
#
# Indices 1 2 3 4 5 6 
#
# 1 88.4794 4.7200 26.2479 0.0000 -10.1639 0.0000
# 2 4.7200 89.3435 35.9518 0.0000 -20.3692 0.0000
# 3 26.2479 35.9518 112.7650 0.0000 -5.6743 0.0000
# 4 0.0000 0.0000 0.0000 36.9424 0.0000 2.6289
# 5 -10.1639 -20.3692 -5.6743 0.0000 35.9782 0.0000
# 6 0.0000 0.0000 0.0000 2.6289 0.0000 40.9788
#
#
#
# Elastic Compliance Matrix: (Units=1/GPa)
#
#
# Indices 1 2 3 4 5 6 
#
# 1 0.012629 0.001526 -0.003229 0.000000 0.003923 0.000000
# 2 0.001526 0.014841 -0.004680 0.000000 0.008095 0.000000
# 3 -0.003229 -0.004680 0.011020 0.000000 -0.001824 0.000000
# 4 0.000000 0.000000 0.000000 0.027193 0.000000 -0.001744
# 5 0.003923 0.008095 -0.001824 0.000000 0.033198 0.000000
# 6 0.000000 0.000000 0.000000 -0.001744 0.000000 0.024515
#
#
# Mechanical properties :
#
#
# Convention : Reuss Voigt Hill
#
# Bulk Modulus (GPa) = 38.87157 47.15859 43.01508
# Shear Modulus (GPa) = 34.54579 37.69108 36.11844
#
# Velocity S-wave (km/s) = 4.23888 4.42765 4.33429
# Velocity P-wave (km/s) = 6.64647 7.11808 6.88632
#
# Compressibility (1/GPa) = 0.02572574
#
# Stress axis : x y z
#
# Youngs Moduli (GPa) = 79.18199 67.38182 90.74617
#
# Poissons Ratio (x) = -0.10285 0.29301
# Poissons Ratio (y) = -0.12087 0.42465
# Poissons Ratio (z) = 0.25567 0.31531
#
# Static dielectric constant tensor:
#      x y z
#    x 3.415530 0.000000 -0.114900 
#    y 0.000000 3.596100 0.000000 
#    z -0.114900 0.000000 3.591720 
# 
# 
# High freq. dielectric constant tensor:
#      x y z
#    x 1.749270 0.000000 -0.008090 
#    y 0.000000 1.753490 0.000000 
#    z -0.008090 0.000000 1.761670 
# 
# From -- ./inp_files/82953.got.cif
#   From: 2010.06.25/outbox.cif.g09.slc.cpg/sg12_42_cif.got.tgz:82953.got - 2010.06.28 00:19:55.
