data_PCOD8112452
_publ_section_title
;
Structure prediction by ZEFSAII (Michael W. Deem and Ramdas Pophale) SiO2 
 PCOD8112452
Probable space group: C 2/M
;
_chemical_formula_sum "Si O2"
_cell_formula_units_Z 56
_cell_length_a 20.002716
_cell_length_b 13.936372
_cell_length_c 9.429307
_cell_angle_alpha 90.000000
_cell_angle_beta 98.185581
_cell_angle_gamma 90.000000
_cell_volume 2601.783952
_symmetry_space_group_name_H-M "C 2/M"
_symmetry_group_IT_number 12
_symmetry_cell_setting 'monoclinic'
loop_
_space_group_symop_operation_xyz
x,y,z
-x,y,-z
-x,-y,-z
x,-y,z
1/2+x,1/2+y,z
1/2-x,1/2+y,-z
1/2-x,1/2-y,-z
1/2+x,1/2-y,z
loop_
_atom_site_type_symbol
_atom_site_label
_atom_site_fract_x
_atom_site_fract_y
_atom_site_fract_z
Si Si1 0.628053 0.112184 0.776876
Si Si2 0.360823 0.893011 0.700336
Si Si3 0.350556 0.397848 0.795275
Si Si4 0.180994 0.718878 0.050563
Si Si5 0.499731 0.605570 0.832324
Si Si6 0.728216 0.156342 0.574624
Si Si7 0.500789 0.788351 0.336590
O O1 0.680294 0.172903 0.696402
O O2 0.551396 0.124131 0.701064
O O3 0.647539 0.000000 0.781153
O O4 0.633826 0.155472 0.935654
O O5 0.312566 0.843414 0.803254
O O6 0.315324 0.907946 0.546499
O O7 0.425573 0.824124 0.693420
O O8 0.384239 0.000000 0.754123
O O9 0.336948 0.500000 0.867744
O O10 0.352316 0.319800 0.919927
O O11 0.423970 0.397881 0.746736
O O12 0.297386 0.388911 0.651476
O O13 0.250000 0.750000 0.000000
O O14 0.533847 0.500000 0.811776
O O15 0.530607 0.697016 0.759133
O O16 0.500000 0.625279 0.000000
O O17 0.750000 0.250000 0.500000
O O18 0.500000 0.759135 0.500000
#
# Coordination Sequence:
#
# PCOD8112452 Si02
#       7
#     8   8   8   8   8   8   8
#     4  12  26  43  67  99 139 180 221 277 343 407
#     4  12  25  43  67  99 138 180 226 277 334 405
#     4  11  22  40  69  95 126 174 221 273 340 401
#     4  12  24  43  66  97 133 173 223 280 336 400
#     4  10  22  44  71  96 129 177 227 280 340 399
#     4  12  22  42  66  95 134 177 223 276 337 402
#     4  12  25  42  68 101 139 180 226 278 337 403
#
# _framework density 21.523693000000002
#
# number of rings (size 3 to 8) (size 9 to 14) (size 15 to 20)
#    0.000    0.429    5.714    3.000    0.000    1.429 
#    0.000    1.429    0.000    0.000    0.000    0.000 
#    0.000    0.000    0.000    0.000    0.000    0.000 
#
# Total GULP energy -346994.843059 kJ/mol
# GULP energy per Si atom -12392.672966 kJ/mol
# Density = 2.147470 g / cm^3
# Si number density = 21.523693 Si / 1000 Ang^3
#
#
#
# Elastic Constant Matrix: (Units=GPa)
#
#
# Indices 1 2 3 4 5 6 
#
# 1 74.6082 13.0055 19.9168 0.0000 6.9339 0.0000
# 2 13.0055 158.6810 45.5989 0.0000 -15.5565 0.0000
# 3 19.9168 45.5989 107.9214 0.0000 0.2776 0.0000
# 4 0.0000 0.0000 0.0000 25.1883 0.0000 3.0352
# 5 6.9339 -15.5565 0.2776 0.0000 34.8214 0.0000
# 6 0.0000 0.0000 0.0000 3.0352 0.0000 22.2774
#
#
#
# Elastic Compliance Matrix: (Units=1/GPa)
#
#
# Indices 1 2 3 4 5 6 
#
# 1 0.014466 -0.000840 -0.002306 0.000000 -0.003238 0.000000
# 2 -0.000840 0.007604 -0.003067 0.000000 0.003589 0.000000
# 3 -0.002306 -0.003067 0.010990 0.000000 -0.000999 0.000000
# 4 0.000000 0.000000 0.000000 0.040364 0.000000 -0.005499
# 5 -0.003238 0.003589 -0.000999 0.000000 0.030974 0.000000
# 6 0.000000 0.000000 0.000000 -0.005499 0.000000 0.045638
#
#
# Mechanical properties :
#
#
# Convention : Reuss Voigt Hill
#
# Bulk Modulus (GPa) = 48.46575 55.36145 51.91360
# Shear Modulus (GPa) = 29.52623 33.97005 31.74814
#
# Velocity S-wave (km/s) = 3.70780 3.97705 3.84478
# Velocity P-wave (km/s) = 6.39505 6.84589 6.62431
#
# Compressibility (1/GPa) = 0.02063313
#
# Stress axis : x y z
#
# Youngs Moduli (GPa) = 69.12552 131.50971 90.99118
#
# Poissons Ratio (x) = 0.11051 0.20986
# Poissons Ratio (y) = 0.05809 0.27907
# Poissons Ratio (z) = 0.15943 0.40334
#
# Static dielectric constant tensor:
#      x y z
#    x 4.099210 0.000000 0.241030 
#    y 0.000000 4.231100 0.000000 
#    z 0.241030 0.000000 4.306000 
# 
# 
# High freq. dielectric constant tensor:
#      x y z
#    x 1.838290 0.000000 0.015060 
#    y 0.000000 1.859630 0.000000 
#    z 0.015060 0.000000 1.843310 
# 
# From -- ./inp_files/86356.got.cif
#   From: 2010.06.25/outbox.cif.g09.slc.cpg/sg12_44_cif.got.tgz:86356.got - 2010.06.28 00:19:55.
