data_PCOD8112322
_publ_section_title
;
Structure prediction by ZEFSAII (Michael W. Deem and Ramdas Pophale) SiO2 
 PCOD8112322
Probable space group: C 2/M
;
_chemical_formula_sum "Si O2"
_cell_formula_units_Z 32
_cell_length_a 10.073734
_cell_length_b 28.024236
_cell_length_c 5.333089
_cell_angle_alpha 90.000000
_cell_angle_beta 100.446665
_cell_angle_gamma 90.000000
_cell_volume 1480.621146
_symmetry_space_group_name_H-M "C 2/M"
_symmetry_group_IT_number 12
_symmetry_cell_setting 'monoclinic'
loop_
_space_group_symop_operation_xyz
x,y,z
-x,y,-z
-x,-y,-z
x,-y,z
1/2+x,1/2+y,z
1/2-x,1/2+y,-z
1/2-x,1/2-y,-z
1/2+x,1/2-y,z
loop_
_atom_site_type_symbol
_atom_site_label
_atom_site_fract_x
_atom_site_fract_y
_atom_site_fract_z
Si Si1 0.164544 0.253132 0.226338
Si Si2 0.076492 0.642634 0.269349
Si Si3 0.086097 0.000000 0.780084
Si Si4 0.500000 0.671800 0.000000
Si Si5 0.639210 0.602748 0.707454
O O1 0.250000 0.250000 0.500000
O O2 0.079669 0.301400 0.209102
O O3 0.066420 0.207498 0.224162
O O4 0.250000 0.250000 0.000000
O O5 0.225281 0.621154 0.377404
O O6 0.000000 0.631718 0.500000
O O7 0.000000 0.619056 0.000000
O O8 0.172301 0.048799 0.810326
O O9 0.000000 0.000000 0.500000
O O10 0.000000 0.000000 0.000000
O O11 0.382421 0.638218 0.067671
O O12 0.500000 0.604793 0.500000
#
# Coordination Sequence:
#
# PCOD8112322 Si02
#       5
#     8   8   4   4   8
#     4  12  25  41  61  94 135 180 227 273 329 400
#     4  12  27  45  66  99 144 184 226 279 344 412
#     4  10  22  42  72 106 134 168 229 299 346 400
#     4  12  24  39  70 100 132 181 236 282 332 406
#     4  11  25  45  73 102 136 179 235 288 348 406
#
# _framework density 21.612551
#
# number of rings (size 3 to 8) (size 9 to 14) (size 15 to 20)
#    0.000    0.500    5.000    3.000    3.500    0.000 
#    0.000    1.250    0.000    0.000    0.000    0.000 
#    0.000    0.000    0.000    0.000    0.000    0.000 
#
# Total GULP energy -198275.358351 kJ/mol
# GULP energy per Si atom -12392.209897 kJ/mol
# Density = 2.156336 g / cm^3
# Si number density = 21.612551 Si / 1000 Ang^3
#
#
#
# Elastic Constant Matrix: (Units=GPa)
#
#
# Indices 1 2 3 4 5 6 
#
# 1 144.9852 59.1810 63.5864 0.0000 -10.3116 0.0000
# 2 59.1810 174.1306 27.9576 0.0000 -6.1041 0.0000
# 3 63.5864 27.9576 156.1431 0.0000 -4.5760 0.0000
# 4 0.0000 0.0000 0.0000 13.4439 0.0000 1.9003
# 5 -10.3116 -6.1041 -4.5760 0.0000 50.3691 0.0000
# 6 0.0000 0.0000 0.0000 1.9003 0.0000 22.2456
#
#
#
# Elastic Compliance Matrix: (Units=1/GPa)
#
#
# Indices 1 2 3 4 5 6 
#
# 1 0.009559 -0.002660 -0.003377 0.000000 0.001328 0.000000
# 2 -0.002660 0.006672 -0.000104 0.000000 0.000255 0.000000
# 3 -0.003377 -0.000104 0.007799 0.000000 0.000004 0.000000
# 4 0.000000 0.000000 0.000000 0.075292 0.000000 -0.006432
# 5 0.001328 0.000255 0.000004 0.000000 0.020157 0.000000
# 6 0.000000 0.000000 0.000000 -0.006432 0.000000 0.045502
#
#
# Mechanical properties :
#
#
# Convention : Reuss Voigt Hill
#
# Bulk Modulus (GPa) = 85.12858 86.30100 85.71479
# Shear Modulus (GPa) = 27.59705 38.84732 33.22219
#
# Velocity S-wave (km/s) = 3.57725 4.24422 3.92493
# Velocity P-wave (km/s) = 7.51906 8.00222 7.76440
#
# Compressibility (1/GPa) = 0.01174694
#
# Stress axis : x y z
#
# Youngs Moduli (GPa) = 104.61741 149.87018 128.22908
#
# Poissons Ratio (x) = 0.39863 0.43308
# Poissons Ratio (y) = 0.27827 0.01334
# Poissons Ratio (z) = 0.35334 0.01560
#
# Static dielectric constant tensor:
#      x y z
#    x 4.109390 0.000000 0.099920 
#    y 0.000000 4.539760 0.000000 
#    z 0.099920 0.000000 3.950910 
# 
# 
# High freq. dielectric constant tensor:
#      x y z
#    x 1.841520 0.000000 0.000370 
#    y 0.000000 1.850780 0.000000 
#    z 0.000370 0.000000 1.857060 
# 
# From -- ./inp_files/3571.got.cif
#   From: 2010.06.25/outbox.cif.g09.slc.cpg/sg12_2_cif.got.tgz:3571.got - 2010.06.28 00:19:55.
