data_PCOD8112320
_publ_section_title
;
Structure prediction by ZEFSAII (Michael W. Deem and Ramdas Pophale) SiO2 
 PCOD8112320
Probable space group: C 2/M
;
_chemical_formula_sum "Si O2"
_cell_formula_units_Z 48
_cell_length_a 8.334540
_cell_length_b 14.132214
_cell_length_c 28.164625
_cell_angle_alpha 90.000000
_cell_angle_beta 141.637433
_cell_angle_gamma 90.000000
_cell_volume 2058.887057
_symmetry_space_group_name_H-M "C 2/M"
_symmetry_group_IT_number 12
_symmetry_cell_setting 'monoclinic'
loop_
_space_group_symop_operation_xyz
x,y,z
-x,y,-z
-x,-y,-z
x,-y,z
1/2+x,1/2+y,z
1/2-x,1/2+y,-z
1/2-x,1/2-y,-z
1/2+x,1/2-y,z
loop_
_atom_site_type_symbol
_atom_site_label
_atom_site_fract_x
_atom_site_fract_y
_atom_site_fract_z
Si Si1 0.443397 0.774291 0.845997
Si Si2 0.399270 0.609749 0.900193
Si Si3 0.030886 0.606911 0.953626
Si Si4 0.987313 0.806046 0.429843
Si Si5 0.813433 0.000000 0.517944
Si Si6 0.503844 0.690626 0.328358
Si Si7 0.760641 0.000000 0.618847
O O1 0.481707 0.664016 0.870053
O O2 0.676712 0.830151 0.874689
O O3 0.376156 0.829297 0.879835
O O4 0.198562 0.766805 0.754988
O O5 0.311017 0.500000 0.870119
O O6 0.666062 0.608816 0.992087
O O7 0.922174 0.500000 0.926940
O O8 0.000000 0.648221 0.000000
O O9 0.250000 0.750000 0.500000
O O10 0.880973 0.819825 0.351562
O O11 0.750971 0.754321 0.399951
O O12 0.025133 0.909332 0.461341
O O13 0.768743 0.000000 0.563984
O O14 0.530178 0.000000 0.428656
O O15 0.594944 0.591520 0.327079
#
# Coordination Sequence:
#
# PCOD8112320 Si02
#       7
#     8   8   8   8   4   8   4
#     4  12  24  43  68  99 140 181 228 287 357 409
#     4  11  25  45  71 101 137 184 237 284 341 419
#     4  10  22  42  71 104 138 182 234 287 344 414
#     4  11  21  41  64  91 128 169 221 273 325 402
#     4   9  18  36  64  87 120 167 213 264 324 388
#     4  11  24  39  64  97 127 169 219 274 337 402
#     4   9  18  36  61  92 119 162 216 265 318 399
#
# _framework density 23.313566000000002
#
# number of rings (size 3 to 8) (size 9 to 14) (size 15 to 20)
#    0.000    1.333    1.667    4.000    2.333    1.333 
#    4.500    3.333    3.667    0.000    0.000    0.000 
#    0.000    0.000    0.000    0.000    0.000    0.000 
#
# Total GULP energy -297396.570722 kJ/mol
# GULP energy per Si atom -12391.523780 kJ/mol
# Density = 2.326050 g / cm^3
# Si number density = 23.313566 Si / 1000 Ang^3
#
#
#
# Elastic Constant Matrix: (Units=GPa)
#
#
# Indices 1 2 3 4 5 6 
#
# 1 71.9271 25.3027 13.3975 0.0000 -2.4428 0.0000
# 2 25.3027 166.2126 20.8667 0.0000 0.0114 0.0000
# 3 13.3975 20.8667 99.0189 0.0000 -11.9959 0.0001
# 4 0.0000 0.0000 0.0000 27.7366 0.0001 2.4631
# 5 -2.4428 0.0114 -11.9959 0.0001 31.7317 0.0000
# 6 0.0000 0.0000 0.0001 2.4631 0.0000 31.6154
#
#
#
# Elastic Compliance Matrix: (Units=1/GPa)
#
#
# Indices 1 2 3 4 5 6 
#
# 1 0.014937 -0.002084 -0.001512 0.000000 0.000579 0.000000
# 2 -0.002084 0.006479 -0.001156 0.000000 -0.000600 0.000000
# 3 -0.001512 -0.001156 0.011039 0.000000 0.004057 0.000000
# 4 0.000000 0.000000 0.000000 0.036305 0.000000 -0.002828
# 5 0.000579 -0.000600 0.004057 0.000000 0.033093 0.000000
# 6 0.000000 0.000000 0.000000 -0.002828 0.000000 0.031851
#
#
# Mechanical properties :
#
#
# Convention : Reuss Voigt Hill
#
# Bulk Modulus (GPa) = 43.57062 50.69915 47.13488
# Shear Modulus (GPa) = 33.14393 36.72283 34.93338
#
# Velocity S-wave (km/s) = 3.77458 3.97315 3.87514
# Velocity P-wave (km/s) = 6.14216 6.54536 6.34696
#
# Compressibility (1/GPa) = 0.02295125
#
# Stress axis : x y z
#
# Youngs Moduli (GPa) = 66.94605 154.34873 90.59010
#
# Poissons Ratio (x) = 0.32169 0.13694
# Poissons Ratio (y) = 0.13953 0.10472
# Poissons Ratio (z) = 0.10120 0.17842
#
# Static dielectric constant tensor:
#      x y z
#    x 4.151960 0.000000 0.001970 
#    y 0.000000 4.545430 0.000000 
#    z 0.001970 0.000000 3.876500 
# 
# 
# High freq. dielectric constant tensor:
#      x y z
#    x 1.919810 0.000000 0.000780 
#    y 0.000000 1.933160 0.000000 
#    z 0.000780 0.000000 1.905730 
# 
# From -- ./inp_files/372421.got.cif
#   From: 2010.06.25/outbox.cif.g09.slc.cpg/sg12_187_cif.got.tgz:372421.got - 2010.06.28 00:19:55.
