data_PCOD8112820
_publ_section_title
;
Structure prediction by ZEFSAII (Michael W. Deem and Ramdas Pophale) SiO2 
 PCOD8112820
Probable space group: C 2/M
;
_chemical_formula_sum "Si O2"
_cell_formula_units_Z 44
_cell_length_a 9.213378
_cell_length_b 17.900246
_cell_length_c 16.994352
_cell_angle_alpha 90.000000
_cell_angle_beta 45.843789
_cell_angle_gamma 90.000000
_cell_volume 2010.805346
_symmetry_space_group_name_H-M "C 2/M"
_symmetry_group_IT_number 12
_symmetry_cell_setting 'monoclinic'
loop_
_space_group_symop_operation_xyz
x,y,z
-x,y,-z
-x,-y,-z
x,-y,z
1/2+x,1/2+y,z
1/2-x,1/2+y,-z
1/2-x,1/2-y,-z
1/2+x,1/2-y,z
loop_
_atom_site_type_symbol
_atom_site_label
_atom_site_fract_x
_atom_site_fract_y
_atom_site_fract_z
Si Si1 0.159096 0.159658 0.870736
Si Si2 0.612870 0.708405 0.160331
Si Si3 0.588184 0.000000 0.841758
Si Si4 0.707816 0.500000 0.875588
Si Si5 0.000000 0.256148 0.500000
Si Si6 0.593561 0.341455 0.613067
Si Si7 0.995171 0.000000 0.408252
Si Si8 0.500000 0.121854 0.000000
O O1 0.354382 0.205082 0.827542
O O2 0.223508 0.076051 0.817639
O O3 0.069056 0.206239 0.832594
O O4 0.000000 0.150325 0.000000
O O5 0.562024 0.659844 0.256103
O O6 0.815289 0.675218 0.042928
O O7 0.384036 0.000000 0.871198
O O8 0.584848 0.073305 0.896611
O O9 0.778016 0.000000 0.711858
O O10 0.500000 0.500000 0.000000
O O11 0.196332 0.307929 0.434579
O O12 0.990993 0.204311 0.580498
O O13 0.626582 0.427098 0.574831
O O14 0.000000 0.000000 0.500000
#
# Coordination Sequence:
#
# PCOD8112820 Si02
#       8
#     8   8   4   4   4   8   4   4
#     4  11  24  40  63  94 143 183 225 276 330 404
#     4  12  24  40  68 102 136 180 233 279 339 414
#     4  11  24  42  68 100 140 189 220 283 354 416
#     4  10  23  42  62  92 143 181 227 276 339 408
#     4  10  24  48  72  96 138 186 230 292 348 412
#     4  11  24  46  73 101 136 179 233 289 352 410
#     4  12  25  47  72 106 136 175 235 296 346 413
#     4  11  22  38  68 101 140 182 224 275 346 424
#
# _framework density 21.881779000000002
#
# number of rings (size 3 to 8) (size 9 to 14) (size 15 to 20)
#    0.000    0.909    3.636    3.818    2.545    3.273 
#    3.273    0.000    0.000    0.000    0.000    0.000 
#    0.000    0.000    0.000    0.000    0.000    0.000 
#
# Total GULP energy -272796.191692 kJ/mol
# GULP energy per Si atom -12399.826895 kJ/mol
# Density = 2.183198 g / cm^3
# Si number density = 21.881779 Si / 1000 Ang^3
#
#
#
# Elastic Constant Matrix: (Units=GPa)
#
#
# Indices 1 2 3 4 5 6 
#
# 1 142.2543 75.6019 26.0731 0.0005 2.4796 -0.0009
# 2 75.6019 198.8336 30.9371 0.0000 0.1067 -0.0002
# 3 26.0731 30.9371 90.2341 0.0011 13.1098 -0.0003
# 4 0.0005 0.0000 0.0011 14.5693 -0.0006 -1.5522
# 5 2.4796 0.1067 13.1098 -0.0006 28.1388 0.0003
# 6 -0.0009 -0.0002 -0.0003 -1.5522 0.0003 39.8426
#
#
#
# Elastic Compliance Matrix: (Units=1/GPa)
#
#
# Indices 1 2 3 4 5 6 
#
# 1 0.009000 -0.003189 -0.001495 0.000000 -0.000085 0.000000
# 2 -0.003189 0.006464 -0.001429 0.000000 0.000922 0.000000
# 3 -0.001495 -0.001429 0.012854 -0.000001 -0.005852 0.000000
# 4 0.000000 0.000000 -0.000001 0.068924 0.000002 0.002685
# 5 -0.000085 0.000922 -0.005852 0.000002 0.038268 0.000000
# 6 0.000000 0.000000 0.000000 0.002685 0.000000 0.025203
#
#
# Mechanical properties :
#
#
# Convention : Reuss Voigt Hill
#
# Bulk Modulus (GPa) = 62.14042 77.39400 69.76721
# Shear Modulus (GPa) = 28.04211 36.42414 32.23312
#
# Velocity S-wave (km/s) = 3.58373 4.08436 3.84221
# Velocity P-wave (km/s) = 6.75159 7.59530 7.18584
#
# Compressibility (1/GPa) = 0.01609259
#
# Stress axis : x y z
#
# Youngs Moduli (GPa) = 111.10881 154.70696 77.79598
#
# Poissons Ratio (x) = 0.49344 0.11629
# Poissons Ratio (y) = 0.35438 0.11113
# Poissons Ratio (z) = 0.16608 0.22100
#
# Static dielectric constant tensor:
#      x y z
#    x 3.919450 0.000000 0.080380 
#    y 0.000000 4.502880 0.000000 
#    z 0.080380 0.000000 3.818770 
# 
# 
# High freq. dielectric constant tensor:
#      x y z
#    x 1.863560 0.000000 0.003640 
#    y 0.000000 1.879300 0.000000 
#    z 0.003640 0.000000 1.843570 
# 
# From -- ./inp_files/256918.got.cif
#   From: 2010.06.25/outbox.cif.g09.slc.cpg/sg12_129_cif.got.tgz:256918.got - 2010.06.28 00:19:55.
