data_PCOD8112438
_publ_section_title
;
Structure prediction by ZEFSAII (Michael W. Deem and Ramdas Pophale) SiO2 
 PCOD8112438
Probable space group: C 2/M
;
_chemical_formula_sum "Si O2"
_cell_formula_units_Z 40
_cell_length_a 8.936666
_cell_length_b 13.166963
_cell_length_c 20.521719
_cell_angle_alpha 90.000000
_cell_angle_beta 126.122026
_cell_angle_gamma 90.000000
_cell_volume 1950.558625
_symmetry_space_group_name_H-M "C 2/M"
_symmetry_group_IT_number 12
_symmetry_cell_setting 'monoclinic'
loop_
_space_group_symop_operation_xyz
x,y,z
-x,y,-z
-x,-y,-z
x,-y,z
1/2+x,1/2+y,z
1/2-x,1/2+y,-z
1/2-x,1/2-y,-z
1/2+x,1/2-y,z
loop_
_atom_site_type_symbol
_atom_site_label
_atom_site_fract_x
_atom_site_fract_y
_atom_site_fract_z
Si Si1 0.391454 0.797664 0.788051
Si Si2 0.722310 0.881711 0.939373
Si Si3 0.018420 0.881572 0.111141
Si Si4 0.992562 0.750873 0.678446
Si Si5 0.131179 0.382692 0.595415
O O1 0.505125 0.856809 0.873772
O O2 0.431626 0.677073 0.809643
O O3 0.457926 0.822413 0.731909
O O4 0.173809 0.820941 0.737902
O O5 0.832548 0.844614 0.904125
O O6 0.754450 0.000000 0.952198
O O7 0.816836 0.842836 0.031469
O O8 0.026416 0.000000 0.129446
O O9 0.821472 0.826854 0.624129
O O10 0.026715 0.676507 0.626520
O O11 0.168965 0.500000 0.624962
O O12 0.000000 0.377736 0.500000
#
# Coordination Sequence:
#
# PCOD8112438 Si02
#       5
#     8   8   8   8   8
#     4  11  19  35  54  83 119 151 187 244 300 336
#     4   9  18  32  51  76 107 152 203 245 286 339
#     4   9  18  33  53  74 105 156 207 241 285 344
#     4  10  23  36  60  94 121 150 196 240 293 360
#     4  10  22  44  69  90 120 158 190 233 293 357
#
# _framework density 20.506945000000002
#
# number of rings (size 3 to 8) (size 9 to 14) (size 15 to 20)
#    0.000    2.200    2.000    2.400    0.000    4.800 
#    0.000    3.000    0.000   13.200    0.000    0.000 
#    0.000    0.000    0.000    0.000    0.000    0.000 
#
# Total GULP energy -247830.071044 kJ/mol
# GULP energy per Si atom -12391.503552 kJ/mol
# Density = 2.046027 g / cm^3
# Si number density = 20.506945 Si / 1000 Ang^3
#
#
#
# Elastic Constant Matrix: (Units=GPa)
#
#
# Indices 1 2 3 4 5 6 
#
# 1 103.3474 34.3476 42.8261 0.0000 12.6387 0.0000
# 2 34.3476 72.0263 33.0413 0.0000 3.6536 0.0000
# 3 42.8261 33.0413 95.9579 0.0000 18.5062 0.0000
# 4 0.0000 0.0000 0.0000 29.5525 0.0000 -0.1947
# 5 12.6387 3.6536 18.5062 0.0000 34.5502 0.0000
# 6 0.0000 0.0000 0.0000 -0.1947 0.0000 18.9959
#
#
#
# Elastic Compliance Matrix: (Units=1/GPa)
#
#
# Indices 1 2 3 4 5 6 
#
# 1 0.012986 -0.004296 -0.003890 0.000000 -0.002213 0.000000
# 2 -0.004296 0.017975 -0.004693 0.000000 0.002185 0.000000
# 3 -0.003890 -0.004693 0.014947 0.000000 -0.006087 0.000000
# 4 0.000000 0.000000 0.000000 0.033840 0.000000 0.000347
# 5 -0.002213 0.002185 -0.006087 0.000000 0.032782 0.000000
# 6 0.000000 0.000000 0.000000 0.000347 0.000000 0.052647
#
#
# Mechanical properties :
#
#
# Convention : Reuss Voigt Hill
#
# Bulk Modulus (GPa) = 49.62797 54.64018 52.13408
# Shear Modulus (GPa) = 25.29692 27.36083 26.32888
#
# Velocity S-wave (km/s) = 3.51604 3.65666 3.58704
# Velocity P-wave (km/s) = 6.38252 6.67314 6.52945
#
# Compressibility (1/GPa) = 0.02014993
#
# Stress axis : x y z
#
# Youngs Moduli (GPa) = 77.00326 55.63372 66.90225
#
# Poissons Ratio (x) = 0.23902 0.26024
# Poissons Ratio (y) = 0.33083 0.31398
# Poissons Ratio (z) = 0.29953 0.26110
#
# Static dielectric constant tensor:
#      x y z
#    x 3.698420 0.000000 0.095670 
#    y 0.000000 3.518900 0.000000 
#    z 0.095670 0.000000 3.907510 
# 
# 
# High freq. dielectric constant tensor:
#      x y z
#    x 1.790500 0.000000 0.009590 
#    y 0.000000 1.783670 0.000000 
#    z 0.009590 0.000000 1.819820 
# 
# From -- ./inp_files/194437.got.cif
#   From: 2010.06.25/outbox.cif.g09.slc.cpg/sg12_98_cif.got.tgz:194437.got - 2010.06.28 00:19:55.
