data_PCOD8112075
_publ_section_title
;
Structure prediction by ZEFSAII (Michael W. Deem and Ramdas Pophale) SiO2 
 PCOD8112075
Probable space group: C 2/M
;
_chemical_formula_sum "Si O2"
_cell_formula_units_Z 64
_cell_length_a 13.922932
_cell_length_b 17.101767
_cell_length_c 17.130437
_cell_angle_alpha 90.000000
_cell_angle_beta 134.166437
_cell_angle_gamma 90.000000
_cell_volume 2925.852221
_symmetry_space_group_name_H-M "C 2/M"
_symmetry_group_IT_number 12
_symmetry_cell_setting 'monoclinic'
loop_
_space_group_symop_operation_xyz
x,y,z
-x,y,-z
-x,-y,-z
x,-y,z
1/2+x,1/2+y,z
1/2-x,1/2+y,-z
1/2-x,1/2-y,-z
1/2+x,1/2-y,z
loop_
_atom_site_type_symbol
_atom_site_label
_atom_site_fract_x
_atom_site_fract_y
_atom_site_fract_z
Si Si1 0.287231 0.702034 0.943652
Si Si2 0.118879 0.811612 0.507570
Si Si3 0.109814 0.087580 0.356059
Si Si4 0.847516 0.642354 0.907331
Si Si5 0.113153 0.910383 0.887075
Si Si6 0.686795 0.911432 0.282891
Si Si7 0.437507 0.912304 0.239126
Si Si8 0.597992 0.134208 0.483266
O O1 0.348803 0.763103 0.916752
O O2 0.168466 0.656815 0.831805
O O3 0.250000 0.750000 0.000000
O O4 0.390217 0.636623 0.033022
O O5 0.071069 0.857087 0.404825
O O6 0.246484 0.854019 0.616543
O O7 0.149993 0.722726 0.501474
O O8 0.000000 0.813966 0.500000
O O9 0.266799 0.086148 0.423549
O O10 0.018723 0.118003 0.233298
O O11 0.064736 0.000000 0.352391
O O12 0.751258 0.603657 0.917428
O O13 0.788674 0.620317 0.789848
O O14 0.000000 0.610534 0.000000
O O15 0.103944 0.000000 0.904886
O O16 0.530017 0.910705 0.214532
O O17 0.744437 0.000000 0.322915
O O18 0.525150 0.896829 0.365467
O O19 0.373726 0.000000 0.209727
O O20 0.500000 0.122979 0.500000
#
# Coordination Sequence:
#
# PCOD8112075 Si02
#       8
#     8   8   8   8   8   8   8   8
#     4  10  23  40  65  91 129 169 214 271 326 392
#     4  11  24  38  61  96 134 175 217 270 336 403
#     4  11  23  42  67  97 138 178 220 277 338 405
#     4  11  24  40  64  99 133 174 221 278 336 404
#     4  10  22  41  67  96 132 177 221 269 334 400
#     4  11  23  39  64  96 132 169 216 273 335 403
#     4  11  24  44  70  97 129 173 226 279 335 396
#     4  11  26  43  69  99 132 179 232 281 332 397
#
# _framework density 21.873968000000001
#
# number of rings (size 3 to 8) (size 9 to 14) (size 15 to 20)
#    0.000    1.250    1.250    4.125    7.000    6.000 
#    0.000    0.000    0.000    0.750    0.000    0.000 
#    0.000    0.000    0.000    0.000    0.000    0.000 
#
# Total GULP energy -396769.034555 kJ/mol
# GULP energy per Si atom -12399.032330 kJ/mol
# Density = 2.182418 g / cm^3
# Si number density = 21.873968 Si / 1000 Ang^3
#
#
#
# Elastic Constant Matrix: (Units=GPa)
#
#
# Indices 1 2 3 4 5 6 
#
# 1 22.7242 5.6123 1.6997 0.0000 -3.4825 0.0000
# 2 5.6123 109.0343 35.6627 0.0000 -8.8441 0.0000
# 3 1.6997 35.6627 116.2714 0.0000 10.6548 0.0000
# 4 0.0000 0.0000 0.0000 46.6476 0.0000 -1.2594
# 5 -3.4825 -8.8441 10.6548 0.0000 29.1065 0.0000
# 6 0.0000 0.0000 0.0000 -1.2594 0.0000 38.5505
#
#
#
# Elastic Compliance Matrix: (Units=1/GPa)
#
#
# Indices 1 2 3 4 5 6 
#
# 1 0.045259 -0.001717 -0.000604 0.000000 0.005114 0.000000
# 2 -0.001717 0.010832 -0.003704 0.000000 0.004442 0.000000
# 3 -0.000604 -0.003704 0.010197 0.000000 -0.004931 0.000000
# 4 0.000000 0.000000 0.000000 0.021456 0.000000 0.000701
# 5 0.005114 0.004442 -0.004931 0.000000 0.038123 0.000000
# 6 0.000000 0.000000 0.000000 0.000701 0.000000 0.025963
#
#
# Mechanical properties :
#
#
# Convention : Reuss Voigt Hill
#
# Bulk Modulus (GPa) = 18.43731 37.10881 27.77306
# Shear Modulus (GPa) = 27.47862 36.53127 32.00495
#
# Velocity S-wave (km/s) = 3.54817 4.09109 3.82927
# Velocity P-wave (km/s) = 5.02327 6.27039 5.68115
#
# Compressibility (1/GPa) = 0.05423785
#
# Stress axis : x y z
#
# Youngs Moduli (GPa) = 22.09506 92.32188 98.06449
#
# Poissons Ratio (x) = 0.15855 0.05918
# Poissons Ratio (y) = 0.03795 0.36325
# Poissons Ratio (z) = 0.01333 0.34198
#
# Static dielectric constant tensor:
#      x y z
#    x 3.767910 0.000000 -0.105160 
#    y 0.000000 4.813360 0.000000 
#    z -0.105160 0.000000 4.009980 
# 
# 
# High freq. dielectric constant tensor:
#      x y z
#    x 1.843630 0.000000 -0.004120 
#    y 0.000000 1.878780 0.000000 
#    z -0.004120 0.000000 1.867010 
# 
# From -- ./inp_files/271770.got.cif
#   From: 2010.06.25/outbox.cif.g09.slc.cpg/sg12_136_cif.got.tgz:271770.got - 2010.06.28 00:19:55.
