data_PCOD8112729
_publ_section_title
;
Structure prediction by ZEFSAII (Michael W. Deem and Ramdas Pophale) SiO2 
 PCOD8112729
Probable space group: C 2/M
;
_chemical_formula_sum "Si O2"
_cell_formula_units_Z 48
_cell_length_a 25.459665
_cell_length_b 10.598719
_cell_length_c 13.261088
_cell_angle_alpha 90.000000
_cell_angle_beta 139.617303
_cell_angle_gamma 90.000000
_cell_volume 2318.389621
_symmetry_space_group_name_H-M "C 2/M"
_symmetry_group_IT_number 12
_symmetry_cell_setting 'monoclinic'
loop_
_space_group_symop_operation_xyz
x,y,z
-x,y,-z
-x,-y,-z
x,-y,z
1/2+x,1/2+y,z
1/2-x,1/2+y,-z
1/2-x,1/2-y,-z
1/2+x,1/2-y,z
loop_
_atom_site_type_symbol
_atom_site_label
_atom_site_fract_x
_atom_site_fract_y
_atom_site_fract_z
Si Si1 0.804138 0.640638 0.376696
Si Si2 0.365454 0.355793 0.786000
Si Si3 0.744141 0.218839 0.108145
Si Si4 0.005717 0.000000 0.672532
Si Si5 0.940686 0.773340 0.691199
Si Si6 0.413615 0.143976 0.012078
Si Si7 0.866864 0.000000 0.304671
O O1 0.838323 0.500000 0.431433
O O2 0.731327 0.661185 0.349678
O O3 0.767310 0.661519 0.210948
O O4 0.878245 0.730914 0.513627
O O5 0.389631 0.500000 0.854641
O O6 0.389944 0.334223 0.707171
O O7 0.408897 0.249374 0.917539
O O8 0.811425 0.119891 0.238031
O O9 0.750000 0.250000 0.000000
O O10 0.655120 0.166914 0.004186
O O11 0.001412 0.876872 0.735181
O O12 0.933910 0.000000 0.487875
O O13 0.093043 0.000000 0.747308
O O14 0.997534 0.657399 0.808571
O O15 0.405724 0.000000 0.958391
#
# Coordination Sequence:
#
# PCOD8112729 Si02
#       7
#     8   8   8   4   8   8   4
#     4  10  23  41  62  95 127 168 212 264 323 386
#     4  10  23  42  66  93 131 175 220 260 320 384
#     4  11  23  43  67  91 125 169 212 268 323 388
#     4  11  24  38  67  98 121 164 224 268 323 375
#     4  12  22  41  64  94 132 170 212 270 316 384
#     4  11  25  41  64  97 132 172 217 264 326 387
#     4  11  22  44  66  90 125 163 218 271 315 382
#
# _framework density 20.704025000000001
#
# number of rings (size 3 to 8) (size 9 to 14) (size 15 to 20)
#    0.000    1.167    3.333    2.500    2.333    2.667 
#    0.000    0.000    0.000    3.000    0.000    0.000 
#    0.000    0.000    0.000    0.000    0.000    0.000 
#
# Total GULP energy -297612.006037 kJ/mol
# GULP energy per Si atom -12400.500252 kJ/mol
# Density = 2.065690 g / cm^3
# Si number density = 20.704025 Si / 1000 Ang^3
#
#
#
# Elastic Constant Matrix: (Units=GPa)
#
#
# Indices 1 2 3 4 5 6 
#
# 1 101.0556 25.9031 18.2814 0.0000 -5.3212 0.0000
# 2 25.9031 121.7584 33.7909 0.0000 -3.3928 0.0000
# 3 18.2814 33.7909 81.3989 0.0000 2.9513 0.0000
# 4 0.0000 0.0000 0.0000 53.0173 0.0000 -22.2016
# 5 -5.3212 -3.3928 2.9513 0.0000 32.3351 0.0000
# 6 0.0000 0.0000 0.0000 -22.2016 0.0000 56.6909
#
#
#
# Elastic Compliance Matrix: (Units=1/GPa)
#
#
# Indices 1 2 3 4 5 6 
#
# 1 0.010754 -0.001753 -0.001751 0.000000 0.001745 0.000000
# 2 -0.001753 0.009626 -0.003640 0.000000 0.001054 0.000000
# 3 -0.001751 -0.003640 0.014261 0.000000 -0.001972 0.000000
# 4 0.000000 0.000000 0.000000 0.022562 0.000000 0.008836
# 5 0.001745 0.001054 -0.001972 0.000000 0.031504 0.000000
# 6 0.000000 0.000000 0.000000 0.008836 0.000000 0.021100
#
#
# Mechanical properties :
#
#
# Convention : Reuss Voigt Hill
#
# Bulk Modulus (GPa) = 49.13553 51.12930 50.13241
# Shear Modulus (GPa) = 38.20350 43.49115 40.84732
#
# Velocity S-wave (km/s) = 4.30026 4.58822 4.44657
# Velocity P-wave (km/s) = 6.95990 7.26759 7.11541
#
# Compressibility (1/GPa) = 0.02035187
#
# Stress axis : x y z
#
# Youngs Moduli (GPa) = 92.99255 103.88952 70.12116
#
# Poissons Ratio (x) = 0.18214 0.12275
# Poissons Ratio (y) = 0.16304 0.25526
# Poissons Ratio (z) = 0.16279 0.37819
#
# Static dielectric constant tensor:
#      x y z
#    x 3.860650 0.000000 0.137180 
#    y 0.000000 3.802780 0.000000 
#    z 0.137180 0.000000 3.557120 
# 
# 
# High freq. dielectric constant tensor:
#      x y z
#    x 1.818400 0.000000 0.010140 
#    y 0.000000 1.816500 0.000000 
#    z 0.010140 0.000000 1.807040 
# 
# From -- ./inp_files/244800.got.cif
#   From: 2010.06.25/outbox.cif.g09.slc.cpg/sg12_123_cif.got.tgz:244800.got - 2010.06.28 00:19:55.
