data_PCOD8112571
_publ_section_title
;
Structure prediction by ZEFSAII (Michael W. Deem and Ramdas Pophale) SiO2 
 PCOD8112571
Probable space group: C 2/M
;
_chemical_formula_sum "Si O2"
_cell_formula_units_Z 44
_cell_length_a 5.361994
_cell_length_b 23.885654
_cell_length_c 15.684689
_cell_angle_alpha 90.000000
_cell_angle_beta 111.013250
_cell_angle_gamma 90.000000
_cell_volume 1875.221372
_symmetry_space_group_name_H-M "C 2/M"
_symmetry_group_IT_number 12
_symmetry_cell_setting 'monoclinic'
loop_
_space_group_symop_operation_xyz
x,y,z
-x,y,-z
-x,-y,-z
x,-y,z
1/2+x,1/2+y,z
1/2-x,1/2+y,-z
1/2-x,1/2-y,-z
1/2+x,1/2-y,z
loop_
_atom_site_type_symbol
_atom_site_label
_atom_site_fract_x
_atom_site_fract_y
_atom_site_fract_z
Si Si1 0.355427 0.721754 0.185728
Si Si2 0.500000 0.794274 0.000000
Si Si3 0.337658 0.621657 0.737327
Si Si4 0.001265 0.500000 0.128030
Si Si5 0.721942 0.886671 0.918903
Si Si6 0.379643 0.782622 0.392494
Si Si7 0.113244 0.000000 0.239976
O O1 0.663086 0.744756 0.226980
O O2 0.382202 0.656440 0.216664
O O3 0.264076 0.736314 0.073899
O O4 0.453494 0.833512 0.076650
O O5 0.225439 0.615088 0.818169
O O6 0.137373 0.655553 0.651520
O O7 0.375454 0.558338 0.704155
O O8 0.320891 0.500000 0.162433
O O9 0.906310 0.444958 0.065599
O O10 0.858649 0.500000 0.203415
O O11 0.000000 0.879095 0.000000
O O12 0.500000 0.791968 0.500000
O O13 0.578199 0.742724 0.362507
#
# Coordination Sequence:
#
# PCOD8112571 Si02
#       7
#     8   4   8   4   8   8   4
#     4  12  25  39  59  83 119 166 212 261 318 380
#     4  12  24  39  56  84 128 167 222 276 330 384
#     4  11  23  45  66  95 132 174 218 272 335 385
#     4  10  23  39  60  84 122 175 235 271 315 366
#     4  11  23  40  57  88 127 176 224 275 318 383
#     4  10  23  45  75 107 134 167 217 270 324 395
#     4  10  24  42  63  96 127 169 218 276 321 395
#
# _framework density 23.463899000000001
#
# number of rings (size 3 to 8) (size 9 to 14) (size 15 to 20)
#    0.000    1.091    1.818    4.091    2.545    6.182 
#    0.000    0.455    0.000    0.000    0.000    8.909 
#    0.000    0.000    0.000    0.000    0.000    0.000 
#
# Total GULP energy -272680.257017 kJ/mol
# GULP energy per Si atom -12394.557137 kJ/mol
# Density = 2.341049 g / cm^3
# Si number density = 23.463899 Si / 1000 Ang^3
#
#
#
# Elastic Constant Matrix: (Units=GPa)
#
#
# Indices 1 2 3 4 5 6 
#
# 1 99.1227 43.3140 43.9597 0.0000 14.2622 0.0000
# 2 43.3140 194.9398 45.1894 0.0000 1.3785 0.0000
# 3 43.9597 45.1894 83.5848 0.0000 4.1747 0.0000
# 4 0.0000 0.0000 0.0000 23.6521 0.0000 11.6621
# 5 14.2622 1.3785 4.1747 0.0000 37.5303 0.0000
# 6 0.0000 0.0000 0.0000 11.6621 0.0000 -20.5978
#
#
#
# Elastic Compliance Matrix: (Units=1/GPa)
#
#
# Indices 1 2 3 4 5 6 
#
# 1 0.014328 -0.001667 -0.006401 0.000000 -0.004672 0.000000
# 2 -0.001667 0.006059 -0.002433 0.000000 0.000681 0.000000
# 3 -0.006401 -0.002433 0.016612 0.000000 0.000674 0.000000
# 4 0.000000 0.000000 0.000000 0.033052 0.000000 0.018714
# 5 -0.004672 0.000681 0.000674 0.000000 0.028320 0.000000
# 6 0.000000 0.000000 0.000000 0.018714 0.000000 -0.037954
#
#
# Mechanical properties :
#
#
# Convention : Reuss Voigt Hill
#
# Bulk Modulus (GPa) = 62.51072 71.39707 66.95389
# Shear Modulus (GPa) = 57.63465 24.46253 41.04859
#
# Velocity S-wave (km/s) = 4.96150 3.23237 4.18716
# Velocity P-wave (km/s) = 7.71498 6.66525 7.20925
#
# Compressibility (1/GPa) = 0.01599726
#
# Stress axis : x y z
#
# Youngs Moduli (GPa) = 69.79478 165.03313 60.19624
#
# Poissons Ratio (x) = 0.27505 0.38532
# Poissons Ratio (y) = 0.11632 0.14649
# Poissons Ratio (z) = 0.44676 0.40160
#
# Static dielectric constant tensor:
#      x y z
#    x 4.428610 0.000000 0.066110 
#    y 0.000000 5.104250 0.000000 
#    z 0.066110 0.000000 4.087310 
# 
# 
# High freq. dielectric constant tensor:
#      x y z
#    x 1.941830 0.000000 0.009930 
#    y 0.000000 1.946860 0.000000 
#    z 0.009930 0.000000 1.915700 
# 
# From -- ./inp_files/253270.got.cif
#   From: 2010.06.25/outbox.cif.g09.slc.cpg/sg12_127_cif.got.tgz:253270.got - 2010.06.28 00:19:55.
