data_PCOD8112242
_publ_section_title
;
Structure prediction by ZEFSAII (Michael W. Deem and Ramdas Pophale) SiO2 
 PCOD8112242
Probable space group: C 2/M
;
_chemical_formula_sum "Si O2"
_cell_formula_units_Z 36
_cell_length_a 9.481105
_cell_length_b 21.419778
_cell_length_c 10.785525
_cell_angle_alpha 90.000000
_cell_angle_beta 49.445074
_cell_angle_gamma 90.000000
_cell_volume 1664.197252
_symmetry_space_group_name_H-M "C 2/M"
_symmetry_group_IT_number 12
_symmetry_cell_setting 'monoclinic'
loop_
_space_group_symop_operation_xyz
x,y,z
-x,y,-z
-x,-y,-z
x,-y,z
1/2+x,1/2+y,z
1/2-x,1/2+y,-z
1/2-x,1/2-y,-z
1/2+x,1/2-y,z
loop_
_atom_site_type_symbol
_atom_site_label
_atom_site_fract_x
_atom_site_fract_y
_atom_site_fract_z
Si Si1 0.500000 0.162219 0.500000
Si Si2 0.665161 0.744578 0.785213
Si Si3 0.535254 0.134006 0.743470
Si Si4 0.647255 0.429172 0.309602
Si Si5 0.182937 0.171130 0.088359
O O1 0.337766 0.206422 0.638926
O O2 0.549525 0.118125 0.588770
O O3 0.636266 0.799664 0.703433
O O4 0.706732 0.774725 0.897862
O O5 0.486536 0.699437 0.892343
O O6 0.643852 0.081078 0.758122
O O7 0.323491 0.138689 0.911381
O O8 0.500000 0.413970 0.500000
O O9 0.629969 0.500000 0.271941
O O10 0.602944 0.382381 0.223312
#
# Coordination Sequence:
#
# PCOD8112242 Si02
#       5
#     4   8   8   8   8
#     4  12  24  34  59  86 135 168 206 252 306 378
#     4  11  22  38  56  92 126 167 203 254 308 370
#     4  11  24  37  58  92 124 167 205 253 306 367
#     4  10  22  42  67  92 120 158 211 262 306 368
#     4  11  24  38  64  91 130 163 209 252 312 369
#
# _framework density 21.63205
#
# number of rings (size 3 to 8) (size 9 to 14) (size 15 to 20)
#    0.000    1.111    2.222    5.333    9.333    1.778 
#    0.000    0.556    0.000    1.333    0.000    6.222 
#    0.000    0.000    0.000    0.000    0.000    0.000 
#
# Total GULP energy -223232.425492 kJ/mol
# GULP energy per Si atom -12401.801416 kJ/mol
# Density = 2.158281 g / cm^3
# Si number density = 21.632050 Si / 1000 Ang^3
#
#
#
# Elastic Constant Matrix: (Units=GPa)
#
#
# Indices 1 2 3 4 5 6 
#
# 1 108.9954 25.8726 38.8395 0.0000 5.8085 0.0000
# 2 25.8726 87.1430 37.1723 0.0000 -1.9741 0.0000
# 3 38.8395 37.1723 115.2900 0.0000 8.0539 0.0000
# 4 0.0000 0.0000 0.0000 27.5614 0.0000 -6.3825
# 5 5.8085 -1.9741 8.0539 0.0000 42.1527 0.0000
# 6 0.0000 0.0000 0.0000 -6.3825 0.0000 13.2729
#
#
#
# Elastic Compliance Matrix: (Units=1/GPa)
#
#
# Indices 1 2 3 4 5 6 
#
# 1 0.010733 -0.001968 -0.002910 0.000000 -0.001015 0.000000
# 2 -0.001968 0.013756 -0.003888 0.000000 0.001658 0.000000
# 3 -0.002910 -0.003888 0.011040 0.000000 -0.001890 0.000000
# 4 0.000000 0.000000 0.000000 0.040829 0.000000 0.019633
# 5 -0.001015 0.001658 -0.001890 0.000000 0.024302 0.000000
# 6 0.000000 0.000000 0.000000 0.019633 0.000000 0.084782
#
#
# Mechanical properties :
#
#
# Convention : Reuss Voigt Hill
#
# Bulk Modulus (GPa) = 55.56872 57.24416 56.40644
# Shear Modulus (GPa) = 23.92644 30.56700 27.24672
#
# Velocity S-wave (km/s) = 3.32936 3.76312 3.55287
# Velocity P-wave (km/s) = 6.36580 6.73807 6.55458
#
# Compressibility (1/GPa) = 0.01799574
#
# Stress axis : x y z
#
# Youngs Moduli (GPa) = 93.17020 72.69663 90.58086
#
# Poissons Ratio (x) = 0.14308 0.26362
# Poissons Ratio (y) = 0.18338 0.35218
# Poissons Ratio (z) = 0.27115 0.28264
#
# Static dielectric constant tensor:
#      x y z
#    x 4.203680 0.000000 0.069650 
#    y 0.000000 3.640520 0.000000 
#    z 0.069650 0.000000 4.205750 
# 
# 
# High freq. dielectric constant tensor:
#      x y z
#    x 1.854720 0.000000 -0.000970 
#    y 0.000000 1.809500 0.000000 
#    z -0.000970 0.000000 1.874580 
# 
# From -- ./inp_files/121619.got.cif
#   From: 2010.06.25/outbox.cif.g09.slc.cpg/sg12_61_cif.got.tgz:121619.got - 2010.06.28 00:19:55.
