data_PCOD8112036
_publ_section_title
;
Structure prediction by ZEFSAII (Michael W. Deem and Ramdas Pophale) SiO2 
 PCOD8112036
Probable space group: C 2/M
;
_chemical_formula_sum "Si O2"
_cell_formula_units_Z 48
_cell_length_a 19.603222
_cell_length_b 27.507939
_cell_length_c 8.601327
_cell_angle_alpha 90.000000
_cell_angle_beta 150.589843
_cell_angle_gamma 90.000000
_cell_volume 2277.633947
_symmetry_space_group_name_H-M "C 2/M"
_symmetry_group_IT_number 12
_symmetry_cell_setting 'monoclinic'
loop_
_space_group_symop_operation_xyz
x,y,z
-x,y,-z
-x,-y,-z
x,-y,z
1/2+x,1/2+y,z
1/2-x,1/2+y,-z
1/2-x,1/2-y,-z
1/2+x,1/2-y,z
loop_
_atom_site_type_symbol
_atom_site_label
_atom_site_fract_x
_atom_site_fract_y
_atom_site_fract_z
Si Si1 0.031617 0.055904 0.882871
Si Si2 0.784128 0.605976 0.243243
Si Si3 0.332209 0.798560 0.841991
Si Si4 0.025388 0.444319 0.876748
Si Si5 0.845721 0.704951 0.506882
Si Si6 0.774343 0.102291 0.230463
O O1 0.933285 0.091199 0.587263
O O2 0.016811 0.000000 0.799587
O O3 0.000000 0.061875 0.000000
O O4 0.187024 0.074665 0.164247
O O5 0.940213 0.588000 0.585593
O O6 0.777548 0.663131 0.266321
O O7 0.743171 0.595278 0.986676
O O8 0.236330 0.753530 0.700271
O O9 0.322164 0.809092 0.639203
O O10 0.271476 0.844064 0.812966
O O11 0.491165 0.788032 0.206601
O O12 0.979435 0.500000 0.774193
O O13 0.000000 0.424124 0.000000
O O14 0.185602 0.437802 0.148760
#
# Coordination Sequence:
#
# PCOD8112036 Si02
#       6
#     8   8   8   8   8   8
#     4  11  25  45  68  93 126 173 223 266 314 381
#     4  12  25  41  64  97 134 168 207 265 329 382
#     4  10  22  41  66  95 127 168 217 264 314 379
#     4  11  23  41  66  93 124 169 219 262 310 377
#     4  10  22  41  66  95 127 168 217 264 314 379
#     4  12  25  41  64  97 134 168 207 265 329 382
#
# _framework density 21.074501999999999
#
# number of rings (size 3 to 8) (size 9 to 14) (size 15 to 20)
#    0.000    1.000    1.667    5.000    2.333    7.333 
#    0.000    0.000    0.000    0.000    0.000    0.000 
#    0.000    0.000    0.000    0.000    0.000    0.000 
#
# Total GULP energy -297781.221390 kJ/mol
# GULP energy per Si atom -12407.550891 kJ/mol
# Density = 2.102654 g / cm^3
# Si number density = 21.074502 Si / 1000 Ang^3
#
#
#
# Elastic Constant Matrix: (Units=GPa)
#
#
# Indices 1 2 3 4 5 6 
#
# 1 68.6804 35.8791 22.1890 0.0000 0.4704 0.0000
# 2 35.8791 116.6660 38.2094 0.0000 1.7434 0.0000
# 3 22.1890 38.2094 83.1996 0.0000 -4.0835 0.0000
# 4 0.0000 0.0000 0.0000 40.8053 0.0000 11.3712
# 5 0.4704 1.7434 -4.0835 0.0000 34.3096 0.0000
# 6 0.0000 0.0000 0.0000 11.3712 0.0000 12.0876
#
#
#
# Elastic Compliance Matrix: (Units=1/GPa)
#
#
# Indices 1 2 3 4 5 6 
#
# 1 0.017827 -0.004608 -0.002654 0.000000 -0.000326 0.000000
# 2 -0.004608 0.011319 -0.004018 0.000000 -0.000990 0.000000
# 3 -0.002654 -0.004018 0.014670 0.000000 0.001987 0.000000
# 4 0.000000 0.000000 0.000000 0.033214 0.000000 -0.031245
# 5 -0.000326 -0.000990 0.001987 0.000000 0.029438 0.000000
# 6 0.000000 0.000000 0.000000 -0.031245 0.000000 0.112123
#
#
# Mechanical properties :
#
#
# Convention : Reuss Voigt Hill
#
# Bulk Modulus (GPa) = 47.04624 51.23344 49.13984
# Shear Modulus (GPa) = 20.14197 28.92507 24.53352
#
# Velocity S-wave (km/s) = 3.09488 3.70877 3.41564
# Velocity P-wave (km/s) = 5.92817 6.53478 6.23885
#
# Compressibility (1/GPa) = 0.02125568
#
# Stress axis : x y z
#
# Youngs Moduli (GPa) = 56.09349 88.34319 68.16689
#
# Poissons Ratio (x) = 0.40713 0.18092
# Poissons Ratio (y) = 0.25851 0.27390
# Poissons Ratio (z) = 0.14887 0.35496
#
# Static dielectric constant tensor:
#      x y z
#    x 3.770510 0.000000 0.132880 
#    y 0.000000 3.769670 0.000000 
#    z 0.132880 0.000000 3.843440 
# 
# 
# High freq. dielectric constant tensor:
#      x y z
#    x 1.826650 0.000000 0.007500 
#    y 0.000000 1.833430 0.000000 
#    z 0.007500 0.000000 1.832350 
# 
# From -- ./inp_files/91276.got.cif
#   From: 2010.06.25/outbox.cif.g09.slc.cpg/sg12_46_cif.got.tgz:91276.got - 2010.06.28 00:19:55.
