data_PCOD8112768
_publ_section_title
;
Structure prediction by ZEFSAII (Michael W. Deem and Ramdas Pophale) SiO2 
 PCOD8112768
Probable space group: C 2/M
;
_chemical_formula_sum "Si O2"
_cell_formula_units_Z 56
_cell_length_a 17.700955
_cell_length_b 17.378224
_cell_length_c 9.171365
_cell_angle_alpha 90.000000
_cell_angle_beta 67.265488
_cell_angle_gamma 90.000000
_cell_volume 2602.021328
_symmetry_space_group_name_H-M "C 2/M"
_symmetry_group_IT_number 12
_symmetry_cell_setting 'monoclinic'
loop_
_space_group_symop_operation_xyz
x,y,z
-x,y,-z
-x,-y,-z
x,-y,z
1/2+x,1/2+y,z
1/2-x,1/2+y,-z
1/2-x,1/2-y,-z
1/2+x,1/2-y,z
loop_
_atom_site_type_symbol
_atom_site_label
_atom_site_fract_x
_atom_site_fract_y
_atom_site_fract_z
Si Si1 0.995697 0.089204 0.674900
Si Si2 0.406714 0.084420 0.615349
Si Si3 0.801288 0.278744 0.664243
Si Si4 0.090571 0.696945 0.911712
Si Si5 0.813138 0.412155 0.977084
Si Si6 0.654508 0.317103 0.091339
Si Si7 0.638184 0.301956 0.648774
O O1 0.074352 0.127914 0.693737
O O2 0.000000 0.102265 0.500000
O O3 0.911424 0.126456 0.788655
O O4 0.996936 0.000000 0.717596
O O5 0.500000 0.094302 0.500000
O O6 0.360831 0.152893 0.569868
O O7 0.386180 0.093256 0.803234
O O8 0.375793 0.000000 0.587175
O O9 0.812346 0.247338 0.819662
O O10 0.710788 0.314189 0.712617
O O11 0.821375 0.208598 0.540119
O O12 0.095009 0.723602 0.739381
O O13 0.154777 0.628896 0.899205
O O14 0.109374 0.772053 0.996194
O O15 0.000000 0.664226 0.000000
O O16 0.791134 0.500000 0.031296
O O17 0.731300 0.369102 0.980467
#
# Coordination Sequence:
#
# PCOD8112768 Si02
#       7
#     8   8   8   8   8   8   8
#     4  11  24  42  67  99 135 176 219 269 335 401
#     4  10  23  41  65  96 127 170 223 273 331 393
#     4  11  23  40  70  93 130 173 226 269 328 391
#     4  12  24  39  66  97 131 170 224 272 327 395
#     4  11  24  43  67  96 132 175 222 278 335 394
#     4  12  22  43  70  98 130 178 224 271 331 401
#     4  11  24  42  61 102 130 169 220 273 326 389
#
# _framework density 21.521730999999999
#
# number of rings (size 3 to 8) (size 9 to 14) (size 15 to 20)
#    0.000    0.857    5.714    1.714    4.000    0.857 
#    0.000    2.857    0.000    0.000    0.000    0.000 
#    0.000    0.000    0.000    0.000    0.000    0.000 
#
# Total GULP energy -347066.270672 kJ/mol
# GULP energy per Si atom -12395.223953 kJ/mol
# Density = 2.147275 g / cm^3
# Si number density = 21.521731 Si / 1000 Ang^3
#
#
#
# Elastic Constant Matrix: (Units=GPa)
#
#
# Indices 1 2 3 4 5 6 
#
# 1 114.2075 55.5127 19.9805 0.0000 -18.2621 0.0000
# 2 55.5127 124.4859 21.1978 0.0000 -12.1057 0.0000
# 3 19.9805 21.1978 70.0906 0.0000 -12.1933 0.0000
# 4 0.0000 0.0000 0.0000 11.0869 0.0000 2.7442
# 5 -18.2621 -12.1057 -12.1933 0.0000 36.4150 0.0000
# 6 0.0000 0.0000 0.0000 2.7442 0.0000 28.5473
#
#
#
# Elastic Compliance Matrix: (Units=1/GPa)
#
#
# Indices 1 2 3 4 5 6 
#
# 1 0.011902 -0.004703 -0.001279 0.000000 0.003977 0.000000
# 2 -0.004703 0.010478 -0.001734 0.000000 0.000544 0.000000
# 3 -0.001279 -0.001734 0.015869 0.000000 0.004096 0.000000
# 4 0.000000 0.000000 0.000000 0.092395 0.000000 -0.008882
# 5 0.003977 0.000544 0.004096 0.000000 0.031008 0.000000
# 6 0.000000 0.000000 0.000000 -0.008882 0.000000 0.035883
#
#
# Mechanical properties :
#
#
# Convention : Reuss Voigt Hill
#
# Bulk Modulus (GPa) = 43.82444 55.79621 49.81033
# Shear Modulus (GPa) = 22.66840 29.34938 26.00889
#
# Velocity S-wave (km/s) = 3.24895 3.69685 3.48011
# Velocity P-wave (km/s) = 5.87208 6.64861 6.27237
#
# Compressibility (1/GPa) = 0.02281832
#
# Stress axis : x y z
#
# Youngs Moduli (GPa) = 84.02290 95.43478 63.01755
#
# Poissons Ratio (x) = 0.44881 0.08057
# Poissons Ratio (y) = 0.39515 0.10925
# Poissons Ratio (z) = 0.10743 0.16545
#
# Static dielectric constant tensor:
#      x y z
#    x 3.907920 0.000000 -0.221170 
#    y 0.000000 3.970400 0.000000 
#    z -0.221170 0.000000 4.154970 
# 
# 
# High freq. dielectric constant tensor:
#      x y z
#    x 1.846270 0.000000 -0.018600 
#    y 0.000000 1.839800 0.000000 
#    z -0.018600 0.000000 1.853140 
# 
# From -- ./inp_files/75830.got.cif
#   From: 2010.06.25/outbox.cif.g09.slc.cpg/sg12_38_cif.got.tgz:75830.got - 2010.06.28 00:19:55.
