data_PCOD8112963
_publ_section_title
;
Structure prediction by ZEFSAII (Michael W. Deem and Ramdas Pophale) SiO2 
 PCOD8112963
Probable space group: C 2/M
;
_chemical_formula_sum "Si O2"
_cell_formula_units_Z 40
_cell_length_a 12.531087
_cell_length_b 16.488643
_cell_length_c 9.833124
_cell_angle_alpha 90.000000
_cell_angle_beta 57.331652
_cell_angle_gamma 90.000000
_cell_volume 1710.325583
_symmetry_space_group_name_H-M "C 2/M"
_symmetry_group_IT_number 12
_symmetry_cell_setting 'monoclinic'
loop_
_space_group_symop_operation_xyz
x,y,z
-x,y,-z
-x,-y,-z
x,-y,z
1/2+x,1/2+y,z
1/2-x,1/2+y,-z
1/2-x,1/2-y,-z
1/2+x,1/2-y,z
loop_
_atom_site_type_symbol
_atom_site_label
_atom_site_fract_x
_atom_site_fract_y
_atom_site_fract_z
Si Si1 0.626712 0.198480 0.054538
Si Si2 0.509754 0.906932 0.644273
Si Si3 0.499735 0.640200 0.849462
Si Si4 0.290605 0.594375 0.775976
Si Si5 0.220185 0.843671 0.498291
O O1 0.595690 0.141308 0.201447
O O2 0.512740 0.262680 0.115731
O O3 0.750000 0.250000 0.000000
O O4 0.657243 0.140253 0.904213
O O5 0.500000 0.871862 0.500000
O O6 0.652218 0.895822 0.598213
O O7 0.470118 0.000000 0.679436
O O8 0.387538 0.604009 0.834800
O O9 0.631999 0.624029 0.681405
O O10 0.500000 0.598673 0.000000
O O11 0.263888 0.500000 0.767820
O O12 0.346778 0.637638 0.601432
O O13 0.250000 0.750000 0.500000
#
# Coordination Sequence:
#
# PCOD8112963 Si02
#       5
#     8   8   8   8   8
#     4  10  23  42  71 100 139 181 234 286 354 420
#     4  11  26  44  69 103 142 182 234 298 356 416
#     4  11  25  44  72 107 136 185 241 291 349 423
#     4  11  26  46  71 104 145 184 230 296 361 422
#     4  12  25  43  73 101 140 189 235 288 350 425
#
# _framework density 23.387359
#
# number of rings (size 3 to 8) (size 9 to 14) (size 15 to 20)
#    0.000    1.000    2.000    3.000   11.200    2.800 
#    0.000    2.000    0.000    0.000    0.000    0.000 
#    0.000    0.000    0.000    0.000    0.000    0.000 
#
# Total GULP energy -247970.820708 kJ/mol
# GULP energy per Si atom -12398.541035 kJ/mol
# Density = 2.333413 g / cm^3
# Si number density = 23.387359 Si / 1000 Ang^3
#
#
#
# Elastic Constant Matrix: (Units=GPa)
#
#
# Indices 1 2 3 4 5 6 
#
# 1 67.0779 15.8045 50.9185 0.0000 10.0013 0.0000
# 2 15.8045 122.8114 57.8726 0.0000 -0.7463 0.0000
# 3 50.9185 57.8726 212.9477 0.0000 3.0045 0.0000
# 4 0.0000 0.0000 0.0000 38.3430 0.0000 4.3779
# 5 10.0013 -0.7463 3.0045 0.0000 50.1237 0.0000
# 6 0.0000 0.0000 0.0000 4.3779 0.0000 15.8728
#
#
#
# Elastic Compliance Matrix: (Units=1/GPa)
#
#
# Indices 1 2 3 4 5 6 
#
# 1 0.018820 -0.000397 -0.004343 0.000000 -0.003501 0.000000
# 2 -0.000397 0.009351 -0.002452 0.000000 0.000365 0.000000
# 3 -0.004343 -0.002452 0.006394 0.000000 0.000447 0.000000
# 4 0.000000 0.000000 0.000000 0.026928 0.000000 -0.007427
# 5 -0.003501 0.000365 0.000447 0.000000 0.020628 0.000000
# 6 0.000000 0.000000 0.000000 -0.007427 0.000000 0.065049
#
#
# Mechanical properties :
#
#
# Convention : Reuss Voigt Hill
#
# Bulk Modulus (GPa) = 49.54623 72.44758 60.99690
# Shear Modulus (GPa) = 29.71210 39.41732 34.56471
#
# Velocity S-wave (km/s) = 3.56818 4.10983 3.84855
# Velocity P-wave (km/s) = 6.18118 7.31884 6.77393
#
# Compressibility (1/GPa) = 0.02018317
#
# Stress axis : x y z
#
# Youngs Moduli (GPa) = 53.13440 106.93893 156.38621
#
# Poissons Ratio (x) = 0.04242 0.67918
# Poissons Ratio (y) = 0.02108 0.38340
# Poissons Ratio (z) = 0.23076 0.26218
#
# Static dielectric constant tensor:
#      x y z
#    x 4.126340 0.000000 -0.006680 
#    y 0.000000 4.384180 0.000000 
#    z -0.006680 0.000000 4.677360 
# 
# 
# High freq. dielectric constant tensor:
#      x y z
#    x 1.915250 0.000000 0.003510 
#    y 0.000000 1.924260 0.000000 
#    z 0.003510 0.000000 1.947540 
# 
# From -- ./inp_files/60856.got.cif
#   From: 2010.06.25/outbox.cif.g09.slc.cpg/sg12_31_cif.got.tgz:60856.got - 2010.06.28 00:19:55.
