data_PCOD8112960
_publ_section_title
;
Structure prediction by ZEFSAII (Michael W. Deem and Ramdas Pophale) SiO2 
 PCOD8112960
Probable space group: C 2/M
;
_chemical_formula_sum "Si O2"
_cell_formula_units_Z 52
_cell_length_a 16.878832
_cell_length_b 8.431190
_cell_length_c 21.396767
_cell_angle_alpha 90.000000
_cell_angle_beta 54.430221
_cell_angle_gamma 90.000000
_cell_volume 2476.781525
_symmetry_space_group_name_H-M "C 2/M"
_symmetry_group_IT_number 12
_symmetry_cell_setting 'monoclinic'
loop_
_space_group_symop_operation_xyz
x,y,z
-x,y,-z
-x,-y,-z
x,-y,z
1/2+x,1/2+y,z
1/2-x,1/2+y,-z
1/2-x,1/2-y,-z
1/2+x,1/2-y,z
loop_
_atom_site_type_symbol
_atom_site_label
_atom_site_fract_x
_atom_site_fract_y
_atom_site_fract_z
Si Si1 0.574295 0.814364 0.016136
Si Si2 0.938880 0.323216 0.839337
Si Si3 0.725693 0.500000 0.433318
Si Si4 0.760804 0.182825 0.855292
Si Si5 0.587862 0.500000 0.606513
Si Si6 0.868547 0.250059 0.314966
Si Si7 0.388010 0.500000 0.633460
Si Si8 0.720997 0.176079 0.279941
O O1 0.555832 0.744640 0.093952
O O2 0.551964 0.000000 0.029701
O O3 0.500000 0.736642 0.000000
O O4 0.684944 0.777884 0.945205
O O5 0.893719 0.500000 0.863792
O O6 0.870102 0.213929 0.828700
O O7 0.045790 0.340832 0.760250
O O8 0.689068 0.500000 0.521460
O O9 0.793564 0.352120 0.388994
O O10 0.631004 0.500000 0.431820
O O11 0.734046 0.295582 0.809274
O O12 0.752423 0.000000 0.837771
O O13 0.579715 0.646807 0.656331
O O14 0.501378 0.500000 0.596294
O O15 0.806709 0.158437 0.291083
O O16 0.345405 0.332753 0.679061
O O17 0.667841 0.000000 0.305161
#
# Coordination Sequence:
#
# PCOD8112960 Si02
#       8
#     8   8   4   8   4   8   4   8
#     4   9  19  36  58  85 122 168 221 270 325 384
#     4  11  22  38  61  90 126 170 220 271 324 384
#     4  10  23  44  68  94 126 171 212 262 333 406
#     4  11  22  36  60  91 127 172 218 272 326 379
#     4  12  23  42  66  97 131 163 211 275 333 382
#     4  11  23  40  66  93 126 166 216 267 323 392
#     4  10  23  42  70  97 132 174 214 267 329 394
#     4  11  22  41  65  95 132 174 221 266 323 388
#
# _framework density 20.994990000000001
#
# number of rings (size 3 to 8) (size 9 to 14) (size 15 to 20)
#    0.000    1.385    2.308    3.462    1.077    1.231 
#    1.385    0.769    0.000    5.077    0.000    0.000 
#    0.000    0.000    0.000    0.000    0.000    0.000 
#
# Total GULP energy -322203.845964 kJ/mol
# GULP energy per Si atom -12392.455614 kJ/mol
# Density = 2.094720 g / cm^3
# Si number density = 20.994990 Si / 1000 Ang^3
#
#
#
# Elastic Constant Matrix: (Units=GPa)
#
#
# Indices 1 2 3 4 5 6 
#
# 1 96.7032 23.7349 32.6713 0.0001 -3.1097 0.0002
# 2 23.7349 106.9048 30.6454 0.0001 1.7217 0.0006
# 3 32.6713 30.6454 113.8240 0.0000 4.1891 0.0001
# 4 0.0001 0.0001 0.0000 -49.8885 0.0000 23.6377
# 5 -3.1097 1.7217 4.1891 0.0000 32.1078 0.0000
# 6 0.0002 0.0006 0.0001 23.6377 0.0000 19.3755
#
#
#
# Elastic Compliance Matrix: (Units=1/GPa)
#
#
# Indices 1 2 3 4 5 6 
#
# 1 0.011840 -0.001803 -0.002973 0.000000 0.001631 0.000000
# 2 -0.001803 0.010412 -0.002270 0.000000 -0.000437 0.000000
# 3 -0.002973 -0.002270 0.010306 0.000000 -0.001511 0.000000
# 4 0.000000 0.000000 0.000000 -0.012702 0.000000 0.015496
# 5 0.001631 -0.000437 -0.001511 0.000000 0.031524 0.000000
# 6 0.000000 0.000000 0.000000 0.015496 0.000000 0.032706
#
#
# Mechanical properties :
#
#
# Convention : Reuss Voigt Hill
#
# Bulk Modulus (GPa) = 54.15211 54.61502 54.38356
# Shear Modulus (GPa) = 47.92370 15.67766 31.80068
#
# Velocity S-wave (km/s) = 4.78287 2.73561 3.89611
# Velocity P-wave (km/s) = 7.50666 6.00399 6.79698
#
# Compressibility (1/GPa) = 0.01846650
#
# Stress axis : x y z
#
# Youngs Moduli (GPa) = 84.45686 96.04255 97.03444
#
# Poissons Ratio (x) = 0.17314 0.28851
# Poissons Ratio (y) = 0.15225 0.22025
# Poissons Ratio (z) = 0.25111 0.21799
#
# Static dielectric constant tensor:
#      x y z
#    x 3.773440 0.000000 0.229080 
#    y 0.000000 3.175970 0.000000 
#    z 0.229080 0.000000 3.726090 
# 
# 
# High freq. dielectric constant tensor:
#      x y z
#    x 1.824580 0.000000 0.014380 
#    y 0.000000 1.809680 0.000000 
#    z 0.014380 0.000000 1.822990 
# 
# From -- ./inp_files/314709.got.cif
#   From: 2010.06.25/outbox.cif.g09.slc.cpg/sg12_158_cif.got.tgz:314709.got - 2010.06.28 00:19:55.
