data_PCOD8112076
_publ_section_title
;
Structure prediction by ZEFSAII (Michael W. Deem and Ramdas Pophale) SiO2 
 PCOD8112076
Probable space group: C 2/M
;
_chemical_formula_sum "Si O2"
_cell_formula_units_Z 64
_cell_length_a 8.825263
_cell_length_b 23.956632
_cell_length_c 15.182271
_cell_angle_alpha 90.000000
_cell_angle_beta 90.808769
_cell_angle_gamma 90.000000
_cell_volume 3209.570273
_symmetry_space_group_name_H-M "C 2/M"
_symmetry_group_IT_number 12
_symmetry_cell_setting 'monoclinic'
loop_
_space_group_symop_operation_xyz
x,y,z
-x,y,-z
-x,-y,-z
x,-y,z
1/2+x,1/2+y,z
1/2-x,1/2+y,-z
1/2-x,1/2-y,-z
1/2+x,1/2-y,z
loop_
_atom_site_type_symbol
_atom_site_label
_atom_site_fract_x
_atom_site_fract_y
_atom_site_fract_z
Si Si1 0.931309 0.937944 0.592613
Si Si2 0.577936 0.131160 0.250798
Si Si3 0.076126 0.064408 0.093024
Si Si4 0.567941 0.630460 0.750018
Si Si5 0.818005 0.718932 0.419498
Si Si6 0.601505 0.096225 0.579616
Si Si7 0.070598 0.564243 0.905702
Si Si8 0.054317 0.756003 0.300190
O O1 0.748632 0.942194 0.592622
O O2 0.000000 0.918284 0.500000
O O3 0.983743 0.893461 0.664344
O O4 0.992298 0.000000 0.615999
O O5 0.755173 0.118490 0.259344
O O6 0.494706 0.101292 0.331696
O O7 0.513210 0.105092 0.161611
O O8 0.551884 0.197843 0.246659
O O9 0.252673 0.079416 0.090411
O O10 0.993095 0.101824 0.163437
O O11 0.051180 0.000000 0.118248
O O12 0.000000 0.078710 0.000000
O O13 0.531257 0.696430 0.756751
O O14 0.750000 0.750000 0.500000
O O15 0.836868 0.655949 0.450988
O O16 0.722152 0.723573 0.327542
O O17 0.977993 0.746316 0.395357
O O18 0.500000 0.070754 0.500000
O O19 0.045207 0.500000 0.876818
O O20 0.000000 0.575478 0.000000
#
# Coordination Sequence:
#
# PCOD8112076 Si02
#       8
#     8   8   8   8   8   8   8   8
#     4  11  25  41  59  85 121 166 213 260 314 376
#     4  11  24  40  61  94 128 163 205 258 315 363
#     4  10  22  41  67  97 124 155 204 257 307 368
#     4  12  23  40  64  87 125 167 206 257 310 373
#     4  11  21  36  57  87 115 158 211 263 307 359
#     4  11  23  39  59  87 123 163 213 259 306 373
#     4  10  22  42  70  99 126 160 203 254 310 371
#     4  11  23  37  57  89 124 161 206 258 313 371
#
# _framework density 19.940363999999999
#
# number of rings (size 3 to 8) (size 9 to 14) (size 15 to 20)
#    0.000    1.125    2.500    4.500    3.500    3.750 
#    0.000    0.625    0.000    3.000    0.000    0.000 
#    0.000    0.000    0.000    0.000    0.000    0.000 
#
# Total GULP energy -396890.786438 kJ/mol
# GULP energy per Si atom -12402.837076 kJ/mol
# Density = 1.989498 g / cm^3
# Si number density = 19.940364 Si / 1000 Ang^3
#
#
#
# Elastic Constant Matrix: (Units=GPa)
#
#
# Indices 1 2 3 4 5 6 
#
# 1 133.7640 35.5674 49.2972 0.0000 1.5955 0.0000
# 2 35.5674 87.8700 50.7051 0.0000 -1.6405 0.0000
# 3 49.2972 50.7051 104.4860 0.0000 -1.7621 0.0000
# 4 0.0000 0.0000 0.0000 26.4746 0.0000 -0.2464
# 5 1.5955 -1.6405 -1.7621 0.0000 43.5247 0.0000
# 6 0.0000 0.0000 0.0000 -0.2464 0.0000 30.1280
#
#
#
# Elastic Compliance Matrix: (Units=1/GPa)
#
#
# Indices 1 2 3 4 5 6 
#
# 1 0.009241 -0.001708 -0.003541 0.000000 -0.000546 0.000000
# 2 -0.001708 0.016126 -0.007013 0.000000 0.000386 0.000000
# 3 -0.003541 -0.007013 0.014652 0.000000 0.000459 0.000000
# 4 0.000000 0.000000 0.000000 0.037775 0.000000 0.000309
# 5 -0.000546 0.000386 0.000459 0.000000 0.023029 0.000000
# 6 0.000000 0.000000 0.000000 0.000309 0.000000 0.033194
#
#
# Mechanical properties :
#
#
# Convention : Reuss Voigt Hill
#
# Bulk Modulus (GPa) = 64.53212 66.36217 65.44714
# Shear Modulus (GPa) = 30.54253 32.72882 31.63567
#
# Velocity S-wave (km/s) = 3.91793 4.05573 3.98743
# Velocity P-wave (km/s) = 7.27322 7.43536 7.35474
#
# Compressibility (1/GPa) = 0.01549616
#
# Stress axis : x y z
#
# Youngs Moduli (GPa) = 108.20984 62.01181 68.24856
#
# Poissons Ratio (x) = 0.10590 0.24164
# Poissons Ratio (y) = 0.18480 0.47865
# Poissons Ratio (z) = 0.38313 0.43491
#
# Static dielectric constant tensor:
#      x y z
#    x 3.983490 0.000000 0.015630 
#    y 0.000000 3.639330 0.000000 
#    z 0.015630 0.000000 3.470380 
# 
# 
# High freq. dielectric constant tensor:
#      x y z
#    x 1.802790 0.000000 -0.002970 
#    y 0.000000 1.777410 0.000000 
#    z -0.002970 0.000000 1.764210 
# 
# From -- ./inp_files/198889.got.cif
#   From: 2010.06.25/outbox.cif.g09.slc.cpg/sg12_100_cif.got.tgz:198889.got - 2010.06.28 00:19:55.
