data_PCOD8112128
_publ_section_title
;
Structure prediction by ZEFSAII (Michael W. Deem and Ramdas Pophale) SiO2 
 PCOD8112128
Probable space group: C 2/M
;
_chemical_formula_sum "Si O2"
_cell_formula_units_Z 44
_cell_length_a 8.055821
_cell_length_b 31.084326
_cell_length_c 9.154731
_cell_angle_alpha 90.000000
_cell_angle_beta 115.110013
_cell_angle_gamma 90.000000
_cell_volume 2075.786772
_symmetry_space_group_name_H-M "C 2/M"
_symmetry_group_IT_number 12
_symmetry_cell_setting 'monoclinic'
loop_
_space_group_symop_operation_xyz
x,y,z
-x,y,-z
-x,-y,-z
x,-y,z
1/2+x,1/2+y,z
1/2-x,1/2+y,-z
1/2-x,1/2-y,-z
1/2+x,1/2-y,z
loop_
_atom_site_type_symbol
_atom_site_label
_atom_site_fract_x
_atom_site_fract_y
_atom_site_fract_z
Si Si1 0.962482 0.302298 0.317978
Si Si2 0.500000 0.596017 0.500000
Si Si3 0.686399 0.770088 0.160834
Si Si4 0.715705 0.950610 0.603624
Si Si5 0.901331 0.146428 0.181802
Si Si6 0.752699 0.379182 0.163428
O O1 0.787028 0.275457 0.196088
O O2 0.939507 0.352489 0.262868
O O3 0.000000 0.297060 0.500000
O O4 0.144565 0.284315 0.310116
O O5 0.659610 0.567797 0.482258
O O6 0.397731 0.625427 0.341419
O O7 0.822611 0.805679 0.146053
O O8 0.500000 0.767824 0.000000
O O9 0.500000 0.944781 0.500000
O O10 0.753565 0.926706 0.770794
O O11 0.770641 0.000000 0.644522
O O12 0.106261 0.149889 0.197160
O O13 0.786000 0.116688 0.024148
#
# Coordination Sequence:
#
# PCOD8112128 Si02
#       6
#     8   4   8   8   8   8
#     4  12  26  39  61  89 125 169 214 265 315 380
#     4  10  23  40  68  96 134 162 216 268 317 392
#     4  12  25  41  60  90 125 171 216 264 318 376
#     4  10  22  42  69  97 129 167 210 265 327 388
#     4  10  23  39  62  91 122 170 205 264 313 380
#     4  10  22  42  62  89 126 165 213 258 321 381
#
# _framework density 21.196784000000001
#
# number of rings (size 3 to 8) (size 9 to 14) (size 15 to 20)
#    0.000    1.273    1.818    3.000   11.455    0.000 
#    0.000    8.182    0.000    2.182    0.000    0.000 
#    0.000    0.000    0.000    0.000    0.000    0.000 
#
# Total GULP energy -272725.291519 kJ/mol
# GULP energy per Si atom -12396.604160 kJ/mol
# Density = 2.114854 g / cm^3
# Si number density = 21.196784 Si / 1000 Ang^3
#
#
#
# Elastic Constant Matrix: (Units=GPa)
#
#
# Indices 1 2 3 4 5 6 
#
# 1 64.4362 21.5080 24.4968 0.0000 -1.3441 0.0000
# 2 21.5080 114.2766 58.3045 0.0000 3.7260 0.0000
# 3 24.4968 58.3045 143.4920 0.0000 -16.9160 0.0000
# 4 0.0000 0.0000 0.0000 30.5845 0.0000 -4.0961
# 5 -1.3441 3.7260 -16.9160 0.0000 33.4013 0.0000
# 6 0.0000 0.0000 0.0000 -4.0961 0.0000 33.1482
#
#
#
# Elastic Compliance Matrix: (Units=1/GPa)
#
#
# Indices 1 2 3 4 5 6 
#
# 1 0.017013 -0.002157 -0.002041 0.000000 -0.000108 0.000000
# 2 -0.002157 0.011767 -0.004868 0.000000 -0.003865 0.000000
# 3 -0.002041 -0.004868 0.009944 0.000000 0.005497 0.000000
# 4 0.000000 0.000000 0.000000 0.033247 0.000000 0.004108
# 5 -0.000108 -0.003865 0.005497 0.000000 0.033150 0.000000
# 6 0.000000 0.000000 0.000000 0.004108 0.000000 0.030675
#
#
# Mechanical properties :
#
#
# Convention : Reuss Voigt Hill
#
# Bulk Modulus (GPa) = 48.56645 58.98037 53.77341
# Shear Modulus (GPa) = 31.09635 33.95315 32.52475
#
# Velocity S-wave (km/s) = 3.83434 4.00660 3.92142
# Velocity P-wave (km/s) = 6.52417 7.02064 6.77695
#
# Compressibility (1/GPa) = 0.02059035
#
# Stress axis : x y z
#
# Youngs Moduli (GPa) = 58.77919 84.98589 100.56745
#
# Poissons Ratio (x) = 0.18334 0.20521
# Poissons Ratio (y) = 0.12681 0.48961
# Poissons Ratio (z) = 0.11994 0.41375
#
# Static dielectric constant tensor:
#      x y z
#    x 4.123390 0.000000 -0.148840 
#    y 0.000000 3.732180 0.000000 
#    z -0.148840 0.000000 3.964450 
# 
# 
# High freq. dielectric constant tensor:
#      x y z
#    x 1.841500 0.000000 -0.008610 
#    y 0.000000 1.817490 0.000000 
#    z -0.008610 0.000000 1.838300 
# 
# From -- ./inp_files/41823.got.cif
#   From: 2010.06.25/outbox.cif.g09.slc.cpg/sg12_21_cif.got.tgz:41823.got - 2010.06.28 00:19:55.
