data_PCOD8112761
_publ_section_title
;
Structure prediction by ZEFSAII (Michael W. Deem and Ramdas Pophale) SiO2 
 PCOD8112761
Probable space group: C 2/M
;
_chemical_formula_sum "Si O2"
_cell_formula_units_Z 56
_cell_length_a 17.613635
_cell_length_b 15.655196
_cell_length_c 11.451324
_cell_angle_alpha 90.000000
_cell_angle_beta 121.716793
_cell_angle_gamma 90.000000
_cell_volume 2686.072406
_symmetry_space_group_name_H-M "C 2/M"
_symmetry_group_IT_number 12
_symmetry_cell_setting 'monoclinic'
loop_
_space_group_symop_operation_xyz
x,y,z
-x,y,-z
-x,-y,-z
x,-y,z
1/2+x,1/2+y,z
1/2-x,1/2+y,-z
1/2-x,1/2-y,-z
1/2+x,1/2-y,z
loop_
_atom_site_type_symbol
_atom_site_label
_atom_site_fract_x
_atom_site_fract_y
_atom_site_fract_z
Si Si1 0.894050 0.824818 0.919287
Si Si2 0.754586 0.597571 0.068689
Si Si3 0.370587 0.221626 0.304676
Si Si4 0.708686 0.157058 0.155077
Si Si5 0.154287 0.901445 0.362114
Si Si6 0.335747 0.093797 0.641051
Si Si7 0.062712 0.740069 0.387156
O O1 0.845418 0.862930 0.995799
O O2 0.872209 0.724648 0.900762
O O3 0.848260 0.874005 0.774534
O O4 0.000000 0.840301 0.000000
O O5 0.749656 0.500000 0.097096
O O6 0.822596 0.638377 0.216003
O O7 0.792765 0.609801 0.969794
O O8 0.305118 0.301167 0.246038
O O9 0.456276 0.242691 0.295339
O O10 0.400051 0.205432 0.460743
O O11 0.697596 0.091002 0.251970
O O12 0.254501 0.889154 0.487511
O O13 0.092440 0.836848 0.385277
O O14 0.122234 0.000000 0.352484
O O15 0.405419 0.171255 0.683193
O O16 0.377961 0.000000 0.649062
#
# Coordination Sequence:
#
# PCOD8112761 Si02
#       7
#     8   8   8   8   8   8   8
#     4  11  24  41  66  92 123 166 218 256 311 372
#     4  11  25  42  61  91 130 167 211 260 311 375
#     4  10  23  41  65  89 123 170 210 251 323 372
#     4  11  22  41  64  89 127 171 207 256 313 374
#     4  11  23  39  64  95 127 161 206 265 318 366
#     4  11  22  39  66  98 125 163 210 257 317 376
#     4  11  22  41  66  94 126 164 208 263 312 379
#
# _framework density 20.848285000000001
#
# number of rings (size 3 to 8) (size 9 to 14) (size 15 to 20)
#    0.000    1.143    2.857    4.714    4.000    3.429 
#    0.000    3.571    0.000    2.571    0.000    0.000 
#    0.000    0.000    0.000    0.000    0.000    0.000 
#
# Total GULP energy -347177.315718 kJ/mol
# GULP energy per Si atom -12399.189847 kJ/mol
# Density = 2.080083 g / cm^3
# Si number density = 20.848285 Si / 1000 Ang^3
#
#
#
# Elastic Constant Matrix: (Units=GPa)
#
#
# Indices 1 2 3 4 5 6 
#
# 1 108.4475 35.5276 26.3002 0.0000 -0.5292 0.0000
# 2 35.5276 107.5501 5.0442 0.0000 4.6957 0.0000
# 3 26.3002 5.0442 67.6168 0.0000 -13.8825 0.0000
# 4 0.0000 0.0000 0.0000 22.0507 0.0000 -11.5149
# 5 -0.5292 4.6957 -13.8825 0.0000 27.2640 0.0000
# 6 0.0000 0.0000 0.0000 -11.5149 0.0000 13.9495
#
#
#
# Elastic Compliance Matrix: (Units=1/GPa)
#
#
# Indices 1 2 3 4 5 6 
#
# 1 0.011453 -0.003509 -0.004493 0.000000 -0.001461 0.000000
# 2 -0.003509 0.010524 0.000216 0.000000 -0.001771 0.000000
# 3 -0.004493 0.000216 0.018421 0.000000 0.009255 0.000000
# 4 0.000000 0.000000 0.000000 0.079710 0.000000 0.065799
# 5 -0.001461 -0.001771 0.009255 0.000000 0.041668 0.000000
# 6 0.000000 0.000000 0.000000 0.065799 0.000000 0.126002
#
#
# Mechanical properties :
#
#
# Convention : Reuss Voigt Hill
#
# Bulk Modulus (GPa) = 40.27897 46.37316 43.32606
# Shear Modulus (GPa) = 16.04492 27.10234 21.57363
#
# Velocity S-wave (km/s) = 2.77718 3.60943 3.22031
# Velocity P-wave (km/s) = 5.44478 6.29779 5.88675
#
# Compressibility (1/GPa) = 0.02482685
#
# Stress axis : x y z
#
# Youngs Moduli (GPa) = 87.31305 95.01860 54.28614
#
# Poissons Ratio (x) = 0.33340 0.24391
# Poissons Ratio (y) = 0.30637 -0.01173
# Poissons Ratio (z) = 0.39230 -0.02054
#
# Static dielectric constant tensor:
#      x y z
#    x 3.884960 0.000000 -0.161760 
#    y 0.000000 3.694630 0.000000 
#    z -0.161760 0.000000 3.847880 
# 
# 
# High freq. dielectric constant tensor:
#      x y z
#    x 1.819640 0.000000 -0.013160 
#    y 0.000000 1.813670 0.000000 
#    z -0.013160 0.000000 1.818020 
# 
# From -- ./inp_files/156705.got.cif
#   From: 2010.06.25/outbox.cif.g09.slc.cpg/sg12_79_cif.got.tgz:156705.got - 2010.06.28 00:19:55.
