data_PCOD8112430
_publ_section_title
;
Structure prediction by ZEFSAII (Michael W. Deem and Ramdas Pophale) SiO2 
 PCOD8112430
Probable space group: C 2/M
;
_chemical_formula_sum "Si O2"
_cell_formula_units_Z 56
_cell_length_a 11.124517
_cell_length_b 19.964613
_cell_length_c 12.086661
_cell_angle_alpha 90.000000
_cell_angle_beta 60.809835
_cell_angle_gamma 90.000000
_cell_volume 2343.503110
_symmetry_space_group_name_H-M "C 2/M"
_symmetry_group_IT_number 12
_symmetry_cell_setting 'monoclinic'
loop_
_space_group_symop_operation_xyz
x,y,z
-x,y,-z
-x,-y,-z
x,-y,z
1/2+x,1/2+y,z
1/2-x,1/2+y,-z
1/2-x,1/2-y,-z
1/2+x,1/2-y,z
loop_
_atom_site_type_symbol
_atom_site_label
_atom_site_fract_x
_atom_site_fract_y
_atom_site_fract_z
Si Si1 0.718136 0.700968 0.801657
Si Si2 0.290815 0.000000 0.517461
Si Si3 0.319514 0.107200 0.920756
Si Si4 0.411856 0.000000 0.706709
Si Si5 0.985387 0.735883 0.383884
Si Si6 0.882232 0.125949 0.361163
Si Si7 0.400813 0.830417 0.210563
Si Si8 0.684984 0.574300 0.203719
O O1 0.713347 0.663031 0.921594
O O2 0.861640 0.741945 0.732696
O O3 0.701477 0.647640 0.710079
O O4 0.603477 0.758191 0.847747
O O5 0.340020 0.000000 0.621286
O O6 0.421705 0.000000 0.376785
O O7 0.200781 0.932466 0.536600
O O8 0.461294 0.138213 0.901828
O O9 0.361593 0.063705 0.796599
O O10 0.248660 0.068942 0.052302
O O11 0.000000 0.705163 0.500000
O O12 0.907045 0.807664 0.425269
O O13 0.903256 0.683029 0.342813
O O14 0.029187 0.097101 0.259724
O O15 0.269880 0.876864 0.245166
O O16 0.691432 0.500000 0.253071
#
# Coordination Sequence:
#
# PCOD8112430 Si02
#       8
#     8   4   8   4   8   8   8   8
#     4  10  22  44  66 103 142 183 241 294 346 417
#     4  11  24  45  73 100 154 189 233 308 337 420
#     4  11  24  44  71 104 140 190 252 287 344 419
#     4  11  24  45  71 105 138 198 249 284 348 414
#     4  10  23  45  75  98 138 187 240 294 346 430
#     4  11  23  44  68 108 144 184 238 286 369 413
#     4  10  24  44  68 103 135 185 236 289 360 413
#     4  12  25  45  73  99 148 191 230 297 352 431
#
# _framework density 23.895852000000001
#
# number of rings (size 3 to 8) (size 9 to 14) (size 15 to 20)
#    0.000    1.286    4.286    0.429    1.000    7.429 
#    5.143    1.786    0.000    0.429    0.000    0.000 
#    0.000    0.000    0.000    0.000    0.000    0.000 
#
# Total GULP energy -347166.114076 kJ/mol
# GULP energy per Si atom -12398.789788 kJ/mol
# Density = 2.384146 g / cm^3
# Si number density = 23.895852 Si / 1000 Ang^3
#
#
#
# Elastic Constant Matrix: (Units=GPa)
#
#
# Indices 1 2 3 4 5 6 
#
# 1 114.6365 44.8200 31.1414 0.0000 8.3562 0.0000
# 2 44.8200 117.6858 22.8742 0.0000 5.4268 0.0000
# 3 31.1414 22.8742 78.7672 0.0000 3.3982 0.0000
# 4 0.0000 0.0000 0.0000 18.1648 0.0000 -8.3921
# 5 8.3562 5.4268 3.3982 0.0000 34.5211 0.0000
# 6 0.0000 0.0000 0.0000 -8.3921 0.0000 39.1833
#
#
#
# Elastic Compliance Matrix: (Units=1/GPa)
#
#
# Indices 1 2 3 4 5 6 
#
# 1 0.011125 -0.003512 -0.003300 0.000000 -0.001816 0.000000
# 2 -0.003512 0.010161 -0.001537 0.000000 -0.000596 0.000000
# 3 -0.003300 -0.001537 0.014463 0.000000 -0.000383 0.000000
# 4 0.000000 0.000000 0.000000 0.061097 0.000000 0.013086
# 5 -0.001816 -0.000596 -0.000383 0.000000 0.029539 0.000000
# 6 0.000000 0.000000 0.000000 0.013086 0.000000 0.028324
#
#
# Mechanical properties :
#
#
# Convention : Reuss Voigt Hill
#
# Bulk Modulus (GPa) = 52.48822 56.52895 54.50859
# Shear Modulus (GPa) = 28.12838 32.52410 30.32624
#
# Velocity S-wave (km/s) = 3.43465 3.69328 3.56631
# Velocity P-wave (km/s) = 6.14346 6.47262 6.31019
#
# Compressibility (1/GPa) = 0.01905189
#
# Stress axis : x y z
#
# Youngs Moduli (GPa) = 89.88657 98.41764 69.14098
#
# Poissons Ratio (x) = 0.34562 0.22818
# Poissons Ratio (y) = 0.31566 0.10624
# Poissons Ratio (z) = 0.29665 0.15123
#
# Static dielectric constant tensor:
#      x y z
#    x 4.509230 0.000000 0.094210 
#    y 0.000000 4.922160 0.000000 
#    z 0.094210 0.000000 3.846780 
# 
# 
# High freq. dielectric constant tensor:
#      x y z
#    x 1.962540 0.000000 0.006790 
#    y 0.000000 1.959440 0.000000 
#    z 0.006790 0.000000 1.923610 
# 
# From -- ./inp_files/133896.got.cif
#   From: 2010.06.25/outbox.cif.g09.slc.cpg/sg12_67_cif.got.tgz:133896.got - 2010.06.28 00:19:55.
