data_PCOD8112436
_publ_section_title
;
Structure prediction by ZEFSAII (Michael W. Deem and Ramdas Pophale) SiO2 
 PCOD8112436
Probable space group: C 2/M
;
_chemical_formula_sum "Si O2"
_cell_formula_units_Z 44
_cell_length_a 17.933300
_cell_length_b 12.993928
_cell_length_c 11.186358
_cell_angle_alpha 90.000000
_cell_angle_beta 123.264085
_cell_angle_gamma 90.000000
_cell_volume 2179.587336
_symmetry_space_group_name_H-M "C 2/M"
_symmetry_group_IT_number 12
_symmetry_cell_setting 'monoclinic'
loop_
_space_group_symop_operation_xyz
x,y,z
-x,y,-z
-x,-y,-z
x,-y,z
1/2+x,1/2+y,z
1/2-x,1/2+y,-z
1/2-x,1/2-y,-z
1/2+x,1/2-y,z
loop_
_atom_site_type_symbol
_atom_site_label
_atom_site_fract_x
_atom_site_fract_y
_atom_site_fract_z
Si Si1 0.102989 0.116937 0.102182
Si Si2 0.121322 0.500000 0.237444
Si Si3 0.049932 0.500000 0.768302
Si Si4 0.325763 0.329771 0.089102
Si Si5 0.510502 0.219233 0.645421
Si Si6 0.661129 0.774696 0.351873
Si Si7 0.789122 0.500000 0.926970
O O1 0.153000 0.200841 0.228728
O O2 0.111316 0.000000 0.161394
O O3 0.146932 0.116563 0.010434
O O4 0.000000 0.150238 0.000000
O O5 0.165980 0.396027 0.326755
O O6 0.136532 0.500000 0.109815
O O7 0.016107 0.500000 0.174782
O O8 0.031629 0.598352 0.670192
O O9 0.152660 0.500000 0.900161
O O10 0.410962 0.282389 0.226090
O O11 0.278947 0.406014 0.140796
O O12 0.250000 0.250000 0.000000
O O13 0.500000 0.253094 0.500000
O O14 0.421304 0.249982 0.635352
O O15 0.750000 0.750000 0.500000
#
# Coordination Sequence:
#
# PCOD8112436 Si02
#       7
#     8   4   4   8   8   8   4
#     4  11  24  46  71  95 134 181 231 277 330 407
#     4  10  25  43  66 101 135 178 232 277 344 397
#     4  10  22  44  68  98 133 175 221 282 333 404
#     4  12  24  42  67 101 134 173 220 275 336 396
#     4  11  25  44  66 100 138 174 220 277 342 397
#     4  11  26  44  70  98 136 184 227 278 337 408
#     4  12  23  39  68 104 132 169 224 276 336 391
#
# _framework density 20.187308999999999
#
# number of rings (size 3 to 8) (size 9 to 14) (size 15 to 20)
#    0.000    0.909    4.545    1.636    6.364    0.000 
#    0.000    0.455    0.000    0.000    0.000    0.000 
#    0.000    0.000    0.000    0.000    0.000    0.000 
#
# Total GULP energy -272787.068576 kJ/mol
# GULP energy per Si atom -12399.412208 kJ/mol
# Density = 2.014136 g / cm^3
# Si number density = 20.187309 Si / 1000 Ang^3
#
#
#
# Elastic Constant Matrix: (Units=GPa)
#
#
# Indices 1 2 3 4 5 6 
#
# 1 97.7522 32.9096 52.4398 0.0000 7.8058 0.0000
# 2 32.9096 137.0483 58.1865 0.0000 13.3627 0.0000
# 3 52.4398 58.1865 131.3753 0.0000 15.6749 0.0000
# 4 0.0000 0.0000 0.0000 -0.8253 0.0000 -15.6561
# 5 7.8058 13.3627 15.6749 0.0000 45.4333 0.0000
# 6 0.0000 0.0000 0.0000 -15.6561 0.0000 26.4596
#
#
#
# Elastic Compliance Matrix: (Units=1/GPa)
#
#
# Indices 1 2 3 4 5 6 
#
# 1 0.013166 -0.001128 -0.004719 0.000000 -0.000302 0.000000
# 2 -0.001128 0.009160 -0.003450 0.000000 -0.001310 0.000000
# 3 -0.004719 -0.003450 0.011270 0.000000 -0.002063 0.000000
# 4 0.000000 0.000000 0.000000 -0.099118 0.000000 -0.058648
# 5 -0.000302 -0.001310 -0.002063 0.000000 0.023159 0.000000
# 6 0.000000 0.000000 0.000000 -0.058648 0.000000 0.003092
#
#
# Mechanical properties :
#
#
# Convention : Reuss Voigt Hill
#
# Bulk Modulus (GPa) = 66.66922 72.58307 69.62615
# Shear Modulus (GPa) = -318.98366 29.05619 -144.96373
#
# Velocity S-wave (km/s) = -12.58392 3.79797 -8.48323
# Velocity P-wave (km/s) = 13.34328 7.43408 7.83509
#
# Compressibility (1/GPa) = 0.01499943
#
# Stress axis : x y z
#
# Youngs Moduli (GPa) = 75.95492 109.16641 88.73180
#
# Poissons Ratio (x) = 0.12318 0.41877
# Poissons Ratio (y) = 0.08570 0.30617
# Poissons Ratio (z) = 0.35847 0.37667
#
# Static dielectric constant tensor:
#      x y z
#    x 3.915450 0.000000 -0.047300 
#    y 0.000000 3.804280 0.000000 
#    z -0.047300 0.000000 3.409620 
# 
# 
# High freq. dielectric constant tensor:
#      x y z
#    x 1.807700 0.000000 0.005090 
#    y 0.000000 1.801580 0.000000 
#    z 0.005090 0.000000 1.775310 
# 
# From -- ./inp_files/154438.got.cif
#   From: 2010.06.25/outbox.cif.g09.slc.cpg/sg12_78_cif.got.tgz:154438.got - 2010.06.28 00:19:55.
