data_PCOD8112174
_publ_section_title
;
Structure prediction by ZEFSAII (Michael W. Deem and Ramdas Pophale) SiO2 
 PCOD8112174
Probable space group: C 2/M
;
_chemical_formula_sum "Si O2"
_cell_formula_units_Z 56
_cell_length_a 19.062961
_cell_length_b 8.920134
_cell_length_c 16.801291
_cell_angle_alpha 90.000000
_cell_angle_beta 72.511098
_cell_angle_gamma 90.000000
_cell_volume 2724.898989
_symmetry_space_group_name_H-M "C 2/M"
_symmetry_group_IT_number 12
_symmetry_cell_setting 'monoclinic'
loop_
_space_group_symop_operation_xyz
x,y,z
-x,y,-z
-x,-y,-z
x,-y,z
1/2+x,1/2+y,z
1/2-x,1/2+y,-z
1/2-x,1/2-y,-z
1/2+x,1/2-y,z
loop_
_atom_site_type_symbol
_atom_site_label
_atom_site_fract_x
_atom_site_fract_y
_atom_site_fract_z
Si Si1 0.918311 0.326519 0.500115
Si Si2 0.206120 0.174248 0.357073
Si Si3 0.619965 0.823197 0.924323
Si Si4 0.033884 0.824169 0.824237
Si Si5 0.628847 0.828627 0.660953
Si Si6 0.262636 0.826398 0.813333
Si Si7 0.110568 0.673268 0.107890
O O1 0.902251 0.500000 0.525949
O O2 0.859373 0.222785 0.563285
O O3 0.910299 0.295774 0.409235
O O4 0.000000 0.280476 0.500000
O O5 0.284096 0.206060 0.373759
O O6 0.197940 0.270550 0.279802
O O7 0.197336 0.000000 0.339188
O O8 0.549858 0.751414 0.904494
O O9 0.690612 0.771201 0.851141
O O10 0.613434 0.000000 0.921531
O O11 0.623903 0.767745 0.013795
O O12 0.093231 0.778792 0.738222
O O13 0.952987 0.768241 0.827010
O O14 0.035288 0.000000 0.833768
O O15 0.615511 0.000000 0.691949
O O16 0.314993 0.799006 0.870193
O O17 0.240867 0.000000 0.812154
O O18 0.087135 0.500000 0.117177
#
# Coordination Sequence:
#
# PCOD8112174 Si02
#       7
#     8   8   8   8   8   8   8
#     4  10  23  42  66  95 125 161 203 254 310 368
#     4  11  23  40  64  92 125 167 207 252 305 367
#     4  11  22  41  65  90 123 165 211 260 316 372
#     4  12  25  39  62  94 126 165 212 260 308 368
#     4  10  22  42  65  89 124 168 208 250 309 371
#     4  11  23  40  64  93 125 165 211 259 310 370
#     4  10  24  42  62  88 125 169 209 259 320 372
#
# _framework density 20.551221000000002
#
# number of rings (size 3 to 8) (size 9 to 14) (size 15 to 20)
#    0.000    1.286    1.429    3.857    2.000    5.429 
#    0.000    0.000    0.000    0.000    0.000    0.000 
#    0.000    0.000    0.000    0.000    0.000    0.000 
#
# Total GULP energy -347386.111566 kJ/mol
# GULP energy per Si atom -12406.646842 kJ/mol
# Density = 2.050445 g / cm^3
# Si number density = 20.551221 Si / 1000 Ang^3
#
#
#
# Elastic Constant Matrix: (Units=GPa)
#
#
# Indices 1 2 3 4 5 6 
#
# 1 85.1615 39.3663 28.6542 0.0000 5.3157 0.0000
# 2 39.3663 86.5922 27.3266 0.0000 2.2455 0.0000
# 3 28.6542 27.3266 73.9159 0.0000 10.1076 0.0000
# 4 0.0000 0.0000 0.0000 33.0249 0.0000 -4.5425
# 5 5.3157 2.2455 10.1076 0.0000 36.0624 0.0000
# 6 0.0000 0.0000 0.0000 -4.5425 0.0000 27.9830
#
#
#
# Elastic Compliance Matrix: (Units=1/GPa)
#
#
# Indices 1 2 3 4 5 6 
#
# 1 0.015843 -0.005977 -0.003810 0.000000 -0.000895 0.000000
# 2 -0.005977 0.015340 -0.003477 0.000000 0.000900 0.000000
# 3 -0.003810 -0.003477 0.016830 0.000000 -0.003939 0.000000
# 4 0.000000 0.000000 0.000000 0.030972 0.000000 0.005028
# 5 -0.000895 0.000900 -0.003939 0.000000 0.028910 0.000000
# 6 0.000000 0.000000 0.000000 0.005028 0.000000 0.036552
#
#
# Mechanical properties :
#
#
# Convention : Reuss Voigt Hill
#
# Bulk Modulus (GPa) = 46.54410 48.48489 47.51449
# Shear Modulus (GPa) = 28.06861 29.43557 28.75209
#
# Velocity S-wave (km/s) = 3.69967 3.78868 3.74444
# Velocity P-wave (km/s) = 6.39899 6.54082 6.47029
#
# Compressibility (1/GPa) = 0.02148500
#
# Stress axis : x y z
#
# Youngs Moduli (GPa) = 63.11930 65.19067 59.41837
#
# Poissons Ratio (x) = 0.38965 0.22636
# Poissons Ratio (y) = 0.37727 0.20660
# Poissons Ratio (z) = 0.24046 0.22667
#
# Static dielectric constant tensor:
#      x y z
#    x 3.897540 0.000000 0.161490 
#    y 0.000000 3.658660 0.000000 
#    z 0.161490 0.000000 3.720990 
# 
# 
# High freq. dielectric constant tensor:
#      x y z
#    x 1.816250 0.000000 0.003670 
#    y 0.000000 1.802210 0.000000 
#    z 0.003670 0.000000 1.807940 
# 
# From -- ./inp_files/275096.got.cif
#   From: 2010.06.25/outbox.cif.g09.slc.cpg/sg12_138_cif.got.tgz:275096.got - 2010.06.28 00:19:55.
