data_PCOD8112752
_publ_section_title
;
Structure prediction by ZEFSAII (Michael W. Deem and Ramdas Pophale) SiO2 
 PCOD8112752
Probable space group: C 2/M
;
_chemical_formula_sum "Si O2"
_cell_formula_units_Z 64
_cell_length_a 28.897905
_cell_length_b 8.460478
_cell_length_c 18.319202
_cell_angle_alpha 90.000000
_cell_angle_beta 43.196153
_cell_angle_gamma 90.000000
_cell_volume 3065.773710
_symmetry_space_group_name_H-M "C 2/M"
_symmetry_group_IT_number 12
_symmetry_cell_setting 'monoclinic'
loop_
_space_group_symop_operation_xyz
x,y,z
-x,y,-z
-x,-y,-z
x,-y,z
1/2+x,1/2+y,z
1/2-x,1/2+y,-z
1/2-x,1/2-y,-z
1/2+x,1/2-y,z
loop_
_atom_site_type_symbol
_atom_site_label
_atom_site_fract_x
_atom_site_fract_y
_atom_site_fract_z
Si Si1 0.194837 0.185285 0.353429
Si Si2 0.959294 0.187552 0.260808
Si Si3 0.313931 0.686808 0.469876
Si Si4 0.534654 0.312678 0.032219
Si Si5 0.924612 0.684022 0.605827
Si Si6 0.187822 0.184218 0.873436
Si Si7 0.069270 0.183312 0.244756
Si Si8 0.689675 0.816738 0.023431
O O1 0.185187 0.243562 0.447401
O O2 0.128287 0.221620 0.382696
O O3 0.260198 0.279797 0.250821
O O4 0.209453 0.000000 0.332349
O O5 0.882626 0.252143 0.353123
O O6 0.997627 0.260575 0.146256
O O7 0.997378 0.233860 0.292482
O O8 0.960047 0.000000 0.252934
O O9 0.312772 0.500000 0.467561
O O10 0.250000 0.750000 0.500000
O O11 0.527018 0.500000 0.042700
O O12 0.500000 0.241177 0.000000
O O13 0.612696 0.262822 0.937626
O O14 0.914911 0.500000 0.600555
O O15 0.912360 0.715034 0.705412
O O16 0.000000 0.742741 0.500000
O O17 0.190709 0.000000 0.890494
O O18 0.209891 0.289020 0.916653
O O19 0.123285 0.216820 0.119185
O O20 0.070428 0.000000 0.265374
O O21 0.677664 0.000000 0.053612
O O22 0.750000 0.750000 0.000000
#
# Coordination Sequence:
#
# PCOD8112752 Si02
#       8
#     8   8   8   8   8   8   8   8
#     4  11  24  42  61  89 127 166 208 253 306 371
#     4   9  18  36  61  89 121 157 203 251 299 361
#     4  10  23  41  64  91 122 161 207 255 305 362
#     4   9  18  33  59  93 121 152 201 255 302 358
#     4  11  24  41  62  91 124 160 206 259 313 369
#     4  11  22  39  63  92 124 162 207 254 307 367
#     4  11  21  38  63  90 121 159 204 251 302 366
#     4  12  24  39  59  86 123 163 202 249 304 362
#
# _framework density 20.875644000000001
#
# number of rings (size 3 to 8) (size 9 to 14) (size 15 to 20)
#    0.000    1.500    1.250    4.125    1.750    3.000 
#    0.000    1.250    0.000    1.500    0.000    0.000 
#    0.000    0.000    0.000    0.000    0.000    0.000 
#
# Total GULP energy -396893.673271 kJ/mol
# GULP energy per Si atom -12402.927290 kJ/mol
# Density = 2.082813 g / cm^3
# Si number density = 20.875644 Si / 1000 Ang^3
#
#
#
# Elastic Constant Matrix: (Units=GPa)
#
#
# Indices 1 2 3 4 5 6 
#
# 1 164.4577 25.5086 68.7980 0.0210 -6.0651 0.0105
# 2 25.5086 42.1253 15.4045 0.0251 -3.0222 0.0042
# 3 68.7980 15.4045 141.5299 0.0178 -11.4778 0.0001
# 4 0.0210 0.0251 0.0178 27.8056 -0.0195 -0.8608
# 5 -6.0651 -3.0222 -11.4778 -0.0195 42.9323 0.0004
# 6 0.0105 0.0042 0.0001 -0.8608 0.0004 25.6489
#
#
#
# Elastic Compliance Matrix: (Units=1/GPa)
#
#
# Indices 1 2 3 4 5 6 
#
# 1 0.008131 -0.003625 -0.003563 -0.000001 -0.000059 -0.000003
# 2 -0.003625 0.026385 -0.001023 -0.000020 0.001072 -0.000004
# 3 -0.003563 -0.001023 0.009059 -0.000001 0.001846 0.000002
# 4 -0.000001 -0.000020 -0.000001 0.036001 0.000015 0.001208
# 5 -0.000059 0.001072 0.001846 0.000015 0.023853 0.000000
# 6 -0.000003 -0.000004 0.000002 0.001208 0.000000 0.039029
#
#
# Mechanical properties :
#
#
# Convention : Reuss Voigt Hill
#
# Bulk Modulus (GPa) = 36.82795 63.05945 49.94370
# Shear Modulus (GPa) = 29.77432 35.17081 32.47256
#
# Velocity S-wave (km/s) = 3.78070 4.10906 3.94829
# Velocity P-wave (km/s) = 6.06120 7.26534 6.69042
#
# Compressibility (1/GPa) = 0.02715329
#
# Stress axis : x y z
#
# Youngs Moduli (GPa) = 122.98425 37.90069 110.39265
#
# Poissons Ratio (x) = 0.13739 0.39330
# Poissons Ratio (y) = 0.44583 0.11290
# Poissons Ratio (z) = 0.43817 0.03876
#
# Static dielectric constant tensor:
#      x y z
#    x 3.990580 0.000390 -0.161930 
#    y 0.000390 3.183160 -0.000310 
#    z -0.161930 -0.000310 4.011410 
# 
# 
# High freq. dielectric constant tensor:
#      x y z
#    x 1.829320 0.000000 -0.003130 
#    y 0.000000 1.792030 0.000010 
#    z -0.003130 0.000010 1.830560 
# 
# From -- ./inp_files/295535.got.cif
#   From: 2010.06.25/outbox.cif.g09.slc.cpg/sg12_148_cif.got.tgz:295535.got - 2010.06.28 00:19:55.
