data_PCOD8112744
_publ_section_title
;
Structure prediction by ZEFSAII (Michael W. Deem and Ramdas Pophale) SiO2 
 PCOD8112744
Probable space group: C 2/M
;
_chemical_formula_sum "Si O2"
_cell_formula_units_Z 56
_cell_length_a 25.013093
_cell_length_b 8.672954
_cell_length_c 14.578882
_cell_angle_alpha 90.000000
_cell_angle_beta 59.209134
_cell_angle_gamma 90.000000
_cell_volume 2716.894748
_symmetry_space_group_name_H-M "C 2/M"
_symmetry_group_IT_number 12
_symmetry_cell_setting 'monoclinic'
loop_
_space_group_symop_operation_xyz
x,y,z
-x,y,-z
-x,-y,-z
x,-y,z
1/2+x,1/2+y,z
1/2-x,1/2+y,-z
1/2-x,1/2-y,-z
1/2+x,1/2-y,z
loop_
_atom_site_type_symbol
_atom_site_label
_atom_site_fract_x
_atom_site_fract_y
_atom_site_fract_z
Si Si1 0.180529 0.179901 0.804356
Si Si2 0.947267 0.323339 0.121625
Si Si3 0.732671 0.319645 0.419120
Si Si4 0.741372 0.682515 0.107266
Si Si5 0.897291 0.180558 0.710443
Si Si6 0.602182 0.181514 0.480984
Si Si7 0.505180 0.818384 0.720486
O O1 0.107415 0.211264 0.862378
O O2 0.212533 0.279587 0.697819
O O3 0.205679 0.235727 0.879775
O O4 0.194435 0.000000 0.778337
O O5 0.923759 0.500000 0.148223
O O6 0.972167 0.268506 0.198793
O O7 0.000000 0.305401 0.000000
O O8 0.726656 0.500000 0.434787
O O9 0.750000 0.250000 0.500000
O O10 0.668583 0.256515 0.437614
O O11 0.751681 0.500000 0.098342
O O12 0.673630 0.726812 0.205698
O O13 0.750000 0.750000 0.000000
O O14 0.921976 0.267011 0.597655
O O15 0.940113 0.233323 0.757632
O O16 0.903617 0.000000 0.688736
O O17 0.555511 0.237746 0.601266
O O18 0.609623 0.000000 0.477566
O O19 0.493673 0.000000 0.724911
#
# Coordination Sequence:
#
# PCOD8112744 Si02
#       7
#     8   8   8   8   8   8   8
#     4  12  25  43  68  98 132 172 215 269 327 384
#     4  10  23  44  68  95 128 172 219 268 327 385
#     4  12  24  40  64  95 131 171 216 267 324 387
#     4  11  25  44  67  97 131 171 217 272 327 388
#     4  11  24  41  64  95 130 169 213 266 324 383
#     4  11  22  39  63  93 129 170 215 263 322 388
#     4  10  23  41  63  93 129 170 216 266 321 386
#
# _framework density 20.611767
#
# number of rings (size 3 to 8) (size 9 to 14) (size 15 to 20)
#    0.000    1.000    1.429    5.143    2.000    6.571 
#    0.000    0.000    0.000    0.000    0.000    0.000 
#    0.000    0.000    0.000    0.000    0.000    0.000 
#
# Total GULP energy -347401.162607 kJ/mol
# GULP energy per Si atom -12407.184379 kJ/mol
# Density = 2.056485 g / cm^3
# Si number density = 20.611767 Si / 1000 Ang^3
#
#
#
# Elastic Constant Matrix: (Units=GPa)
#
#
# Indices 1 2 3 4 5 6 
#
# 1 142.0846 43.1099 55.6725 0.0000 12.6382 0.0000
# 2 43.1099 45.9108 27.1271 -0.0001 -3.9870 -0.0001
# 3 55.6725 27.1271 109.6724 0.0000 25.8660 0.0000
# 4 0.0000 -0.0001 0.0000 29.3095 0.0000 -0.2015
# 5 12.6382 -3.9870 25.8660 0.0000 35.1253 0.0000
# 6 0.0000 -0.0001 0.0000 -0.2015 0.0000 37.4563
#
#
#
# Elastic Compliance Matrix: (Units=1/GPa)
#
#
# Indices 1 2 3 4 5 6 
#
# 1 0.011130 -0.009147 -0.002660 0.000000 -0.003084 0.000000
# 2 -0.009147 0.035698 -0.007162 0.000000 0.012617 0.000000
# 3 -0.002660 -0.007162 0.014771 0.000000 -0.010733 0.000000
# 4 0.000000 0.000000 0.000000 0.034120 0.000000 0.000184
# 5 -0.003084 0.012617 -0.010733 0.000000 0.038915 0.000000
# 6 0.000000 0.000000 0.000000 0.000184 0.000000 0.026699
#
#
# Mechanical properties :
#
#
# Convention : Reuss Voigt Hill
#
# Bulk Modulus (GPa) = 42.26418 61.05409 51.65914
# Shear Modulus (GPa) = 24.13604 31.82876 27.98240
#
# Velocity S-wave (km/s) = 3.42568 3.93390 3.68855
# Velocity P-wave (km/s) = 6.01634 7.09361 6.57707
#
# Compressibility (1/GPa) = 0.02366070
#
# Stress axis : x y z
#
# Youngs Moduli (GPa) = 89.84761 28.01270 67.69865
#
# Poissons Ratio (x) = 0.25623 0.18008
# Poissons Ratio (y) = 0.82184 0.48488
# Poissons Ratio (z) = 0.23899 0.20063
#
# Static dielectric constant tensor:
#      x y z
#    x 3.893180 0.000000 0.067060 
#    y 0.000000 3.626020 0.000000 
#    z 0.067060 0.000000 3.846520 
# 
# 
# High freq. dielectric constant tensor:
#      x y z
#    x 1.822390 0.000000 0.005540 
#    y 0.000000 1.810220 0.000000 
#    z 0.005540 0.000000 1.816030 
# 
# From -- ./inp_files/238228.got.cif
#   From: 2010.06.25/outbox.cif.g09.slc.cpg/sg12_120_cif.got.tgz:238228.got - 2010.06.28 00:19:55.
