data_PCOD8112098
_publ_section_title
;
Structure prediction by ZEFSAII (Michael W. Deem and Ramdas Pophale) SiO2 
 PCOD8112098
Probable space group: C 2/M
;
_chemical_formula_sum "Si O2"
_cell_formula_units_Z 48
_cell_length_a 9.513810
_cell_length_b 27.351491
_cell_length_c 13.948871
_cell_angle_alpha 90.000000
_cell_angle_beta 142.675903
_cell_angle_gamma 90.000000
_cell_volume 2200.789520
_symmetry_space_group_name_H-M "C 2/M"
_symmetry_group_IT_number 12
_symmetry_cell_setting 'monoclinic'
loop_
_space_group_symop_operation_xyz
x,y,z
-x,y,-z
-x,-y,-z
x,-y,z
1/2+x,1/2+y,z
1/2-x,1/2+y,-z
1/2-x,1/2-y,-z
1/2+x,1/2-y,z
loop_
_atom_site_type_symbol
_atom_site_label
_atom_site_fract_x
_atom_site_fract_y
_atom_site_fract_z
Si Si1 0.283058 0.404252 0.324301
Si Si2 0.129956 0.500000 0.172904
Si Si3 0.037500 0.347708 0.348062
Si Si4 0.398055 0.597264 0.838435
Si Si5 0.737686 0.244373 0.880748
Si Si6 0.504001 0.342877 0.284738
Si Si7 0.584621 0.500000 0.838496
O O1 0.500000 0.423741 0.500000
O O2 0.155745 0.361742 0.312556
O O3 0.358459 0.383597 0.262286
O O4 0.113777 0.450337 0.224390
O O5 0.397804 0.500000 0.267803
O O6 0.869292 0.500000 0.988564
O O7 0.232203 0.337378 0.534187
O O8 0.876989 0.392134 0.301128
O O9 0.893546 0.300239 0.241126
O O10 0.501266 0.640978 0.829554
O O11 0.457729 0.546141 0.818220
O O12 0.500000 0.598296 0.000000
O O13 0.622804 0.291733 0.770964
O O14 0.750000 0.250000 0.000000
O O15 0.000000 0.237658 0.000000
#
# Coordination Sequence:
#
# PCOD8112098 Si02
#       7
#     8   4   8   8   8   8   4
#     4  10  22  41  68  94 126 169 221 267 323 393
#     4  11  21  42  65  97 127 170 220 268 326 388
#     4  11  24  43  67  99 134 175 215 275 335 390
#     4  12  24  43  65  97 135 172 222 275 334 391
#     4  12  25  42  66  99 133 173 221 270 326 392
#     4  11  24  44  68  94 133 177 223 269 329 394
#     4  11  25  40  66  94 130 176 217 270 332 397
#
# _framework density 21.810355999999999
#
# number of rings (size 3 to 8) (size 9 to 14) (size 15 to 20)
#    0.000    0.833    1.667    6.000    0.000    2.000 
#    0.000    7.500    0.000    0.000    0.000    0.000 
#    0.000    0.000    0.000    0.000    0.000    0.000 
#
# Total GULP energy -297336.362827 kJ/mol
# GULP energy per Si atom -12389.015118 kJ/mol
# Density = 2.176071 g / cm^3
# Si number density = 21.810356 Si / 1000 Ang^3
#
#
#
# Elastic Constant Matrix: (Units=GPa)
#
#
# Indices 1 2 3 4 5 6 
#
# 1 -426.6255 -83.8502 -438.0060 0.0000 -222.5248 0.0000
# 2 -83.8502 105.4556 -29.1903 0.0000 -37.3791 0.0000
# 3 -438.0060 -29.1903 -337.8567 0.0000 -186.7826 0.0000
# 4 0.0000 0.0000 0.0000 38.1014 0.0000 15.7062
# 5 -222.5248 -37.3791 -186.7826 0.0000 -54.8048 0.0000
# 6 0.0000 0.0000 0.0000 15.7062 0.0000 19.3161
#
#
#
# Elastic Compliance Matrix: (Units=1/GPa)
#
#
# Indices 1 2 3 4 5 6 
#
# 1 0.008397 0.003183 -0.010053 0.000000 -0.002005 0.000000
# 2 0.003183 0.011342 -0.007143 0.000000 0.003683 0.000000
# 3 -0.010053 -0.007143 0.016477 0.000000 -0.010469 0.000000
# 4 0.000000 0.000000 0.000000 0.039478 0.000000 -0.032100
# 5 -0.002005 0.003683 -0.010469 0.000000 0.023063 0.000000
# 6 0.000000 0.000000 0.000000 -0.032100 0.000000 0.077872
#
#
# Mechanical properties :
#
#
# Convention : Reuss Voigt Hill
#
# Bulk Modulus (GPa) = 122.06517 -195.67996 -36.80739
# Shear Modulus (GPa) = 24.10979 -6.67615 8.71682
#
# Velocity S-wave (km/s) = 3.32841 -1.75147 2.00133
# Velocity P-wave (km/s) = 8.41779 9.69556 3.40181
#
# Compressibility (1/GPa) = 0.00819234
#
# Stress axis : x y z
#
# Youngs Moduli (GPa) = 119.08860 88.16799 60.68927
#
# Poissons Ratio (x) = -0.28067 0.61009
# Poissons Ratio (y) = -0.37910 0.43349
# Poissons Ratio (z) = 1.19715 0.62977
#
# Static dielectric constant tensor:
#      x y z
#    x 4.121650 0.000000 0.071050 
#    y 0.000000 4.048520 0.000000 
#    z 0.071050 0.000000 3.995280 
# 
# 
# High freq. dielectric constant tensor:
#      x y z
#    x 1.875820 0.000000 0.000430 
#    y 0.000000 1.863700 0.000000 
#    z 0.000430 0.000000 1.860730 
# 
# From -- ./inp_files/200263.got.cif
#   From: 2010.06.25/outbox.cif.g09.slc.cpg/sg12_101_cif.got.tgz:200263.got - 2010.06.28 00:19:55.
