data_PCOD8112802
_publ_section_title
;
Structure prediction by ZEFSAII (Michael W. Deem and Ramdas Pophale) SiO2 
 PCOD8112802
Probable space group: C 2/M
;
_chemical_formula_sum "Si O2"
_cell_formula_units_Z 48
_cell_length_a 9.842467
_cell_length_b 9.394620
_cell_length_c 25.786694
_cell_angle_alpha 90.000000
_cell_angle_beta 83.140713
_cell_angle_gamma 90.000000
_cell_volume 2367.332134
_symmetry_space_group_name_H-M "C 2/M"
_symmetry_group_IT_number 12
_symmetry_cell_setting 'monoclinic'
loop_
_space_group_symop_operation_xyz
x,y,z
-x,y,-z
-x,-y,-z
x,-y,z
1/2+x,1/2+y,z
1/2-x,1/2+y,-z
1/2-x,1/2-y,-z
1/2+x,1/2-y,z
loop_
_atom_site_type_symbol
_atom_site_label
_atom_site_fract_x
_atom_site_fract_y
_atom_site_fract_z
Si Si1 0.262223 0.725222 0.375543
Si Si2 0.851838 0.664521 0.031719
Si Si3 0.349031 0.500000 0.568820
Si Si4 0.414060 0.163786 0.805955
Si Si5 0.121277 0.834575 0.864120
Si Si6 0.328468 0.500000 0.453913
Si Si7 0.523528 0.159309 0.312846
O O1 0.268517 0.636697 0.428054
O O2 0.413596 0.737796 0.344623
O O3 0.165475 0.653592 0.337472
O O4 0.196960 0.871626 0.394138
O O5 0.804279 0.500000 0.040623
O O6 0.851297 0.744337 0.086063
O O7 0.750000 0.750000 0.000000
O O8 0.000000 0.669717 0.000000
O O9 0.275916 0.500000 0.515718
O O10 0.509525 0.500000 0.554293
O O11 0.252122 0.179630 0.821062
O O12 0.490730 0.268253 0.841613
O O13 0.447151 0.214372 0.746310
O O14 0.459357 0.000000 0.813847
O O15 0.091879 0.000000 0.879185
O O16 0.462923 0.000000 0.313994
#
# Coordination Sequence:
#
# PCOD8112802 Si02
#       7
#     8   8   4   8   8   4   8
#     4  12  22  42  63  91 119 163 199 254 307 370
#     4  11  24  41  64  94 128 170 209 257 309 364
#     4  11  24  41  61  95 123 159 205 249 307 373
#     4  10  23  42  61  88 122 165 200 257 308 365
#     4  11  23  41  63  93 127 160 211 256 308 367
#     4  11  24  41  63  89 129 159 197 257 309 362
#     4  11  23  40  64  89 123 156 207 250 309 367
#
# _framework density 20.275988999999999
#
# number of rings (size 3 to 8) (size 9 to 14) (size 15 to 20)
#    0.000    1.000    3.333    3.500    0.000    6.667 
#    3.000    0.833    0.000    0.000    0.000    0.000 
#    0.000    0.000    0.000    0.000    0.000    0.000 
#
# Total GULP energy -297676.978058 kJ/mol
# GULP energy per Si atom -12403.207419 kJ/mol
# Density = 2.022984 g / cm^3
# Si number density = 20.275989 Si / 1000 Ang^3
#
#
#
# Elastic Constant Matrix: (Units=GPa)
#
#
# Indices 1 2 3 4 5 6 
#
# 1 82.9189 19.9207 9.3107 0.0000 9.7199 0.0000
# 2 19.9207 113.7880 26.4320 0.0000 5.0540 0.0000
# 3 9.3107 26.4320 94.4270 0.0000 11.7905 0.0000
# 4 0.0000 0.0000 0.0000 259.3688 0.0000 -150.6868
# 5 9.7199 5.0540 11.7905 0.0000 39.0476 0.0000
# 6 0.0000 0.0000 0.0000 -150.6868 0.0000 139.9327
#
#
#
# Elastic Compliance Matrix: (Units=1/GPa)
#
#
# Indices 1 2 3 4 5 6 
#
# 1 0.012926 -0.002057 -0.000343 0.000000 -0.002848 0.000000
# 2 -0.002057 0.009734 -0.002524 0.000000 0.000014 0.000000
# 3 -0.000343 -0.002524 0.011721 0.000000 -0.003127 0.000000
# 4 0.000000 0.000000 0.000000 0.010299 0.000000 0.011090
# 5 -0.002848 0.000014 -0.003127 0.000000 0.027261 0.000000
# 6 0.000000 0.000000 0.000000 0.011090 0.000000 0.019089
#
#
# Mechanical properties :
#
#
# Convention : Reuss Voigt Hill
#
# Bulk Modulus (GPa) = 40.75992 44.71785 42.73889
# Shear Modulus (GPa) = 45.84846 103.36786 74.60816
#
# Velocity S-wave (km/s) = 4.76039 7.14780 6.07258
# Velocity P-wave (km/s) = 7.09657 9.49863 8.38407
#
# Compressibility (1/GPa) = 0.02453390
#
# Stress axis : x y z
#
# Youngs Moduli (GPa) = 77.36058 102.73317 85.31755
#
# Poissons Ratio (x) = 0.21130 0.02928
# Poissons Ratio (y) = 0.15911 0.21531
# Poissons Ratio (z) = 0.02655 0.25927
#
# Static dielectric constant tensor:
#      x y z
#    x 3.717960 0.000000 0.067260 
#    y 0.000000 3.782980 0.000000 
#    z 0.067260 0.000000 3.915590 
# 
# 
# High freq. dielectric constant tensor:
#      x y z
#    x 1.796250 0.000000 0.002940 
#    y 0.000000 1.801230 0.000000 
#    z 0.002940 0.000000 1.805610 
# 
# From -- ./inp_files/334793.got.cif
#   From: 2010.06.25/outbox.cif.g09.slc.cpg/sg12_168_cif.got.tgz:334793.got - 2010.06.28 00:19:55.
