data_PCOD8112722
_publ_section_title
;
Structure prediction by ZEFSAII (Michael W. Deem and Ramdas Pophale) SiO2 
 PCOD8112722
Probable space group: C 2/M
;
_chemical_formula_sum "Si O2"
_cell_formula_units_Z 64
_cell_length_a 11.747041
_cell_length_b 27.824177
_cell_length_c 13.927894
_cell_angle_alpha 90.000000
_cell_angle_beta 140.091577
_cell_angle_gamma 90.000000
_cell_volume 2920.620784
_symmetry_space_group_name_H-M "C 2/M"
_symmetry_group_IT_number 12
_symmetry_cell_setting 'monoclinic'
loop_
_space_group_symop_operation_xyz
x,y,z
-x,y,-z
-x,-y,-z
x,-y,z
1/2+x,1/2+y,z
1/2-x,1/2+y,-z
1/2-x,1/2-y,-z
1/2+x,1/2-y,z
loop_
_atom_site_type_symbol
_atom_site_label
_atom_site_fract_x
_atom_site_fract_y
_atom_site_fract_z
Si Si1 0.331770 0.801144 0.066245
Si Si2 0.721522 0.199609 0.278954
Si Si3 0.640200 0.804169 0.688276
Si Si4 0.603454 0.555977 0.329294
Si Si5 0.990679 0.553445 0.608488
Si Si6 0.096807 0.853893 0.772694
Si Si7 0.668984 0.395726 0.177398
Si Si8 0.257301 0.806255 0.492576
O O1 0.513540 0.798617 0.123965
O O2 0.354711 0.807848 0.193339
O O3 0.250000 0.750000 0.000000
O O4 0.212682 0.843505 0.942885
O O5 0.808530 0.252491 0.322353
O O6 0.808912 0.163021 0.262116
O O7 0.745166 0.175276 0.399097
O O8 0.780967 0.844047 0.743369
O O9 0.429215 0.817233 0.533631
O O10 0.558520 0.500000 0.316923
O O11 0.789198 0.570761 0.503284
O O12 0.443918 0.589234 0.265500
O O13 0.619525 0.565610 0.226121
O O14 0.018639 0.500000 0.667031
O O15 0.000000 0.553885 0.500000
O O16 0.147307 0.586153 0.755906
O O17 0.912835 0.826076 0.671997
O O18 0.500000 0.390523 0.000000
O O19 0.250000 0.750000 0.500000
#
# Coordination Sequence:
#
# PCOD8112722 Si02
#       8
#     8   8   8   8   8   8   8   8
#     4  11  23  40  58  86 126 170 207 247 304 378
#     4  11  24  40  60  85 125 169 204 251 310 375
#     4  11  24  37  57  86 131 168 207 245 307 382
#     4  10  23  41  62  89 123 164 215 264 315 371
#     4   8  16  35  54  74 110 156 199 250 313 365
#     4  12  22  39  64  89 123 166 209 261 308 364
#     4  11  22  33  56  92 125 163 207 259 312 376
#     4  11  23  41  57  90 125 163 205 259 310 366
#
# _framework density 21.913148
#
# number of rings (size 3 to 8) (size 9 to 14) (size 15 to 20)
#    0.000    1.375    2.500    4.125    5.250    1.000 
#    0.000    0.000    0.000    3.000    0.000    3.500 
#    0.000    0.000    0.000    0.000    0.000    0.000 
#
# Total GULP energy -396579.171175 kJ/mol
# GULP energy per Si atom -12393.099099 kJ/mol
# Density = 2.186327 g / cm^3
# Si number density = 21.913148 Si / 1000 Ang^3
#
#
#
# Elastic Constant Matrix: (Units=GPa)
#
#
# Indices 1 2 3 4 5 6 
#
# 1 102.6299 35.1039 34.6736 0.0000 21.3856 0.0000
# 2 35.1039 105.7443 34.8268 0.0000 24.1150 0.0000
# 3 34.6736 34.8268 114.7419 0.0000 42.2710 0.0000
# 4 0.0000 0.0000 0.0000 29.5599 0.0000 10.1407
# 5 21.3856 24.1150 42.2710 0.0000 28.4812 0.0000
# 6 0.0000 0.0000 0.0000 10.1407 0.0000 29.8157
#
#
#
# Elastic Compliance Matrix: (Units=1/GPa)
#
#
# Indices 1 2 3 4 5 6 
#
# 1 0.012048 -0.002408 -0.000724 0.000000 -0.005933 0.000000
# 2 -0.002408 0.012204 0.000362 0.000000 -0.009062 0.000000
# 3 -0.000724 0.000362 0.019277 0.000000 -0.028373 0.000000
# 4 0.000000 0.000000 0.000000 0.038298 0.000000 -0.013026
# 5 -0.005933 -0.009062 -0.028373 0.000000 0.089348 0.000000
# 6 0.000000 0.000000 0.000000 -0.013026 0.000000 0.037970
#
#
# Mechanical properties :
#
#
# Convention : Reuss Voigt Hill
#
# Bulk Modulus (GPa) = 26.32419 59.14717 42.73568
# Shear Modulus (GPa) = 21.99269 32.13883 27.06576
#
# Velocity S-wave (km/s) = 3.17145 3.83384 3.51827
# Velocity P-wave (km/s) = 5.04478 6.82993 6.00407
#
# Compressibility (1/GPa) = 0.03798787
#
# Stress axis : x y z
#
# Youngs Moduli (GPa) = 82.99856 81.94347 51.87605
#
# Poissons Ratio (x) = 0.19733 0.03757
# Poissons Ratio (y) = 0.19988 -0.01878
# Poissons Ratio (z) = 0.06012 -0.02967
#
# Static dielectric constant tensor:
#      x y z
#    x 3.583570 0.000000 0.436930 
#    y 0.000000 3.870660 0.000000 
#    z 0.436930 0.000000 4.573600 
# 
# 
# High freq. dielectric constant tensor:
#      x y z
#    x 1.852860 0.000000 0.014020 
#    y 0.000000 1.844360 0.000000 
#    z 0.014020 0.000000 1.874570 
# 
# From -- ./inp_files/209890.got.cif
#   From: 2010.06.25/outbox.cif.g09.slc.cpg/sg12_105_cif.got.tgz:209890.got - 2010.06.28 00:19:55.
