data_PCOD8112374
_publ_section_title
;
Structure prediction by ZEFSAII (Michael W. Deem and Ramdas Pophale) SiO2 
 PCOD8112374
Probable space group: C 2/M
;
_chemical_formula_sum "Si O2"
_cell_formula_units_Z 64
_cell_length_a 16.580382
_cell_length_b 17.715084
_cell_length_c 18.201961
_cell_angle_alpha 90.000000
_cell_angle_beta 144.641519
_cell_angle_gamma 90.000000
_cell_volume 3093.870725
_symmetry_space_group_name_H-M "C 2/M"
_symmetry_group_IT_number 12
_symmetry_cell_setting 'monoclinic'
loop_
_space_group_symop_operation_xyz
x,y,z
-x,y,-z
-x,-y,-z
x,-y,z
1/2+x,1/2+y,z
1/2-x,1/2+y,-z
1/2-x,1/2-y,-z
1/2+x,1/2-y,z
loop_
_atom_site_type_symbol
_atom_site_label
_atom_site_fract_x
_atom_site_fract_y
_atom_site_fract_z
Si Si1 0.599266 0.912443 0.140496
Si Si2 0.160925 0.088027 0.452446
Si Si3 0.854176 0.584809 0.216980
Si Si4 0.629527 0.804353 0.640413
Si Si5 0.583680 0.364699 0.635576
Si Si6 0.545965 0.414942 0.953916
Si Si7 0.375771 0.679781 0.715779
Si Si8 0.919241 0.656015 0.719451
O O1 0.761910 0.898700 0.244979
O O2 0.546714 0.866011 0.171760
O O3 0.575365 0.000000 0.139388
O O4 0.500000 0.885642 0.000000
O O5 0.184245 0.122577 0.389178
O O6 0.262126 0.129951 0.584961
O O7 0.001784 0.101679 0.359230
O O8 0.197177 0.000000 0.476643
O O9 0.892383 0.500000 0.270005
O O10 0.826337 0.634154 0.267963
O O11 0.977654 0.616119 0.259780
O O12 0.711533 0.585637 0.065553
O O13 0.500000 0.838363 0.500000
O O14 0.589282 0.725480 0.648320
O O15 0.753834 0.789376 0.676705
O O16 0.500000 0.389128 0.500000
O O17 0.486287 0.500000 0.899810
O O18 0.491134 0.361520 0.849529
O O19 0.500000 0.384533 0.000000
O O20 0.438819 0.754139 0.723864
#
# Coordination Sequence:
#
# PCOD8112374 Si02
#       8
#     8   8   8   8   8   8   8   8
#     4  11  24  41  65  96 133 176 223 275 329 396
#     4  12  25  41  68  99 133 174 223 275 329 395
#     4  11  24  41  66  93 130 179 216 265 334 404
#     4  11  22  40  64  96 131 168 220 272 327 390
#     4  11  22  43  67  95 129 179 225 270 330 396
#     4  10  22  43  67  93 129 174 222 266 325 399
#     4  12  24  41  67  98 130 171 217 280 327 386
#     4  12  24  43  64  97 138 172 216 274 341 397
#
# _framework density 20.686062
#
# number of rings (size 3 to 8) (size 9 to 14) (size 15 to 20)
#    0.000    0.750    3.750    4.500    0.000    4.250 
#    0.000    1.250    0.000    0.000    0.000    0.000 
#    0.000    0.000    0.000    0.000    0.000    0.000 
#
# Total GULP energy -397005.044582 kJ/mol
# GULP energy per Si atom -12406.407643 kJ/mol
# Density = 2.063898 g / cm^3
# Si number density = 20.686062 Si / 1000 Ang^3
#
#
#
# Elastic Constant Matrix: (Units=GPa)
#
#
# Indices 1 2 3 4 5 6 
#
# 1 72.5041 21.2634 18.1526 0.0026 0.3328 0.0003
# 2 21.2634 129.4872 43.5751 0.0020 -18.5376 0.0007
# 3 18.1526 43.5751 112.0336 0.0092 -7.5501 0.0013
# 4 0.0026 0.0020 0.0092 -35.2907 0.0024 -1.7363
# 5 0.3328 -18.5376 -7.5501 0.0024 36.5576 0.0007
# 6 0.0003 0.0007 0.0013 -1.7363 0.0007 27.9986
#
#
#
# Elastic Compliance Matrix: (Units=1/GPa)
#
#
# Indices 1 2 3 4 5 6 
#
# 1 0.014836 -0.002086 -0.001696 0.000000 -0.001543 0.000000
# 2 -0.002086 0.009746 -0.003162 0.000000 0.004308 0.000000
# 3 -0.001696 -0.003162 0.010469 0.000002 0.000574 0.000000
# 4 0.000000 0.000000 0.000002 -0.028250 0.000002 -0.001752
# 5 -0.001543 0.004308 0.000574 0.000002 0.029671 -0.000001
# 6 0.000000 0.000000 0.000000 -0.001752 -0.000001 0.035607
#
#
# Mechanical properties :
#
#
# Convention : Reuss Voigt Hill
#
# Bulk Modulus (GPa) = 47.25567 53.33413 50.29490
# Shear Modulus (GPa) = 53.74912 21.25534 37.50223
#
# Velocity S-wave (km/s) = 5.10291 3.20897 4.26246
# Velocity P-wave (km/s) = 7.59035 6.29036 6.97072
#
# Compressibility (1/GPa) = 0.02116148
#
# Stress axis : x y z
#
# Youngs Moduli (GPa) = 67.40363 102.60257 95.51588
#
# Poissons Ratio (x) = 0.21406 0.16203
# Poissons Ratio (y) = 0.14063 0.30206
# Poissons Ratio (z) = 0.11434 0.32447
#
# Static dielectric constant tensor:
#      x y z
#    x 3.692620 0.000000 0.038570 
#    y 0.000000 3.791290 0.000000 
#    z 0.038570 0.000000 3.802090 
# 
# 
# High freq. dielectric constant tensor:
#      x y z
#    x 1.811600 0.000000 0.004910 
#    y 0.000000 1.820640 0.000000 
#    z 0.004910 0.000000 1.809760 
# 
# From -- ./inp_files/271762.got.cif
#   From: 2010.06.25/outbox.cif.g09.slc.cpg/sg12_136_cif.got.tgz:271762.got - 2010.06.28 00:19:55.
