data_PCOD8112796
_publ_section_title
;
Structure prediction by ZEFSAII (Michael W. Deem and Ramdas Pophale) SiO2 
 PCOD8112796
Probable space group: C 2/M
;
_chemical_formula_sum "Si O2"
_cell_formula_units_Z 48
_cell_length_a 21.273022
_cell_length_b 13.351384
_cell_length_c 10.848710
_cell_angle_alpha 90.000000
_cell_angle_beta 48.747150
_cell_angle_gamma 90.000000
_cell_volume 2316.540763
_symmetry_space_group_name_H-M "C 2/M"
_symmetry_group_IT_number 12
_symmetry_cell_setting 'monoclinic'
loop_
_space_group_symop_operation_xyz
x,y,z
-x,y,-z
-x,-y,-z
x,-y,z
1/2+x,1/2+y,z
1/2-x,1/2+y,-z
1/2-x,1/2-y,-z
1/2+x,1/2-y,z
loop_
_atom_site_type_symbol
_atom_site_label
_atom_site_fract_x
_atom_site_fract_y
_atom_site_fract_z
Si Si1 0.117441 0.384989 0.112083
Si Si2 0.914030 0.884069 0.274083
Si Si3 0.534299 0.713487 0.321606
Si Si4 0.409099 0.209210 0.108734
Si Si5 0.699409 0.613286 0.160337
Si Si6 0.252527 0.613954 0.636789
O O1 0.090452 0.500000 0.120031
O O2 0.049893 0.334264 0.291949
O O3 0.118387 0.310075 0.994414
O O4 0.214368 0.381984 0.031180
O O5 0.919656 0.826031 0.136091
O O6 0.818471 0.875915 0.442141
O O7 0.973636 0.829209 0.295431
O O8 0.940483 0.000000 0.222958
O O9 0.500000 0.684622 0.500000
O O10 0.626811 0.669411 0.181050
O O11 0.335715 0.163974 0.290670
O O12 0.500000 0.155785 0.000000
O O13 0.668448 0.500000 0.215553
O O14 0.711119 0.660328 0.282789
O O15 0.229509 0.500000 0.697094
#
# Coordination Sequence:
#
# PCOD8112796 Si02
#       6
#     8   8   8   8   8   8
#     4  10  23  42  61  85 116 154 199 246 290 340
#     4  11  23  39  58  89 125 153 191 239 293 348
#     4  12  22  37  62  90 118 155 192 236 293 354
#     4  11  21  39  61  86 115 153 199 240 290 339
#     4   9  18  35  61  88 116 152 193 236 286 347
#     4   9  19  36  61  88 117 153 193 241 286 343
#
# _framework density 20.720552000000001
#
# number of rings (size 3 to 8) (size 9 to 14) (size 15 to 20)
#    0.000    1.667    3.333    3.000    0.000    2.667 
#    0.000    0.000    0.000    4.000    0.000    0.000 
#    0.000    0.000    0.000    0.000    0.000    0.000 
#
# Total GULP energy -297320.830853 kJ/mol
# GULP energy per Si atom -12388.367952 kJ/mol
# Density = 2.067339 g / cm^3
# Si number density = 20.720552 Si / 1000 Ang^3
#
#
#
# Elastic Constant Matrix: (Units=GPa)
#
#
# Indices 1 2 3 4 5 6 
#
# 1 82.8379 55.3580 32.1458 0.0000 -23.0760 0.0000
# 2 55.3580 121.3004 43.4751 0.0000 -10.0792 0.0000
# 3 32.1458 43.4751 49.0841 0.0000 -21.1807 0.0000
# 4 0.0000 0.0000 0.0000 32.8242 0.0000 -2.3704
# 5 -23.0760 -10.0792 -21.1807 0.0000 32.2185 0.0000
# 6 0.0000 0.0000 0.0000 -2.3704 0.0000 23.1944
#
#
#
# Elastic Compliance Matrix: (Units=1/GPa)
#
#
# Indices 1 2 3 4 5 6 
#
# 1 0.021490 -0.008201 -0.001781 0.000000 0.011656 0.000000
# 2 -0.008201 0.015704 -0.012499 0.000000 -0.009178 0.000000
# 3 -0.001781 -0.012499 0.042401 0.000000 0.022689 0.000000
# 4 0.000000 0.000000 0.000000 0.030692 0.000000 0.003137
# 5 0.011656 -0.009178 0.022689 0.000000 0.051431 0.000000
# 6 0.000000 0.000000 0.000000 0.003137 0.000000 0.043434
#
#
# Mechanical properties :
#
#
# Convention : Reuss Voigt Hill
#
# Bulk Modulus (GPa) = 28.87367 57.24225 43.05796
# Shear Modulus (GPa) = 19.10904 25.79698 22.45301
#
# Velocity S-wave (km/s) = 3.04011 3.53228 3.29540
# Velocity P-wave (km/s) = 5.12719 6.65746 5.94180
#
# Compressibility (1/GPa) = 0.03463363
#
# Stress axis : x y z
#
# Youngs Moduli (GPa) = 46.53347 63.67994 23.58456
#
# Poissons Ratio (x) = 0.52221 0.04200
# Poissons Ratio (y) = 0.38160 0.29478
# Poissons Ratio (z) = 0.08288 0.79591
#
# Static dielectric constant tensor:
#      x y z
#    x 3.685290 0.000000 -0.367740 
#    y 0.000000 3.837630 0.000000 
#    z -0.367740 0.000000 3.958760 
# 
# 
# High freq. dielectric constant tensor:
#      x y z
#    x 1.797440 0.000000 -0.028640 
#    y 0.000000 1.802420 0.000000 
#    z -0.028640 0.000000 1.810110 
# 
# From -- ./inp_files/164697.got.cif
#   From: 2010.06.25/outbox.cif.g09.slc.cpg/sg12_83_cif.got.tgz:164697.got - 2010.06.28 00:19:55.
