data_PCOD8112278
_publ_section_title
;
Structure prediction by ZEFSAII (Michael W. Deem and Ramdas Pophale) SiO2 
 PCOD8112278
Probable space group: C 2/M
;
_chemical_formula_sum "Si O2"
_cell_formula_units_Z 48
_cell_length_a 9.040554
_cell_length_b 18.278165
_cell_length_c 28.630420
_cell_angle_alpha 90.000000
_cell_angle_beta 150.142737
_cell_angle_gamma 90.000000
_cell_volume 2355.298749
_symmetry_space_group_name_H-M "C 2/M"
_symmetry_group_IT_number 12
_symmetry_cell_setting 'monoclinic'
loop_
_space_group_symop_operation_xyz
x,y,z
-x,y,-z
-x,-y,-z
x,-y,z
1/2+x,1/2+y,z
1/2-x,1/2+y,-z
1/2-x,1/2-y,-z
1/2+x,1/2-y,z
loop_
_atom_site_type_symbol
_atom_site_label
_atom_site_fract_x
_atom_site_fract_y
_atom_site_fract_z
Si Si1 0.842685 0.913203 0.596178
Si Si2 0.247311 0.332499 0.745158
Si Si3 0.666982 0.581047 0.925517
Si Si4 0.251314 0.821595 0.031682
Si Si5 0.394028 0.319346 0.250122
Si Si6 0.157239 0.086103 0.588629
O O1 0.500000 0.887938 0.500000
O O2 0.007063 0.880361 0.686016
O O3 0.006251 0.883183 0.594476
O O4 0.866955 0.000000 0.607601
O O5 0.509258 0.358943 0.850367
O O6 0.371716 0.319232 0.727745
O O7 0.097837 0.259155 0.723249
O O8 0.002526 0.395530 0.679399
O O9 0.519660 0.500000 0.882272
O O10 0.658974 0.607459 0.976688
O O11 0.000000 0.576415 0.000000
O O12 0.564896 0.837421 0.142055
O O13 0.250000 0.750000 0.000000
O O14 0.000000 0.807017 0.000000
O O15 0.000000 0.120912 0.500000
O O16 0.116839 0.000000 0.577345
#
# Coordination Sequence:
#
# PCOD8112278 Si02
#       6
#     8   8   8   8   8   8
#     4  10  23  44  68  98 135 169 213 272 330 389
#     4  12  24  41  64  95 128 169 215 271 320 387
#     4  11  24  43  65  94 130 170 216 267 325 385
#     4  12  24  42  67  93 132 176 220 268 322 384
#     4  12  25  40  67  96 128 173 220 266 330 385
#     4  10  22  42  68  95 128 171 212 261 325 390
#
# _framework density 20.379580000000001
#
# number of rings (size 3 to 8) (size 9 to 14) (size 15 to 20)
#    0.000    0.833    3.333    4.000    2.333    4.333 
#    0.000    3.333    0.000    0.000    0.000    0.000 
#    0.000    0.000    0.000    0.000    0.000    0.000 
#
# Total GULP energy -297698.380874 kJ/mol
# GULP energy per Si atom -12404.099203 kJ/mol
# Density = 2.033320 g / cm^3
# Si number density = 20.379580 Si / 1000 Ang^3
#
#
#
# Elastic Constant Matrix: (Units=GPa)
#
#
# Indices 1 2 3 4 5 6 
#
# 1 196.5291 46.2096 66.2214 0.0056 0.6706 0.0017
# 2 46.2096 68.6348 29.3922 0.0061 -6.6626 0.0011
# 3 66.2214 29.3922 123.8322 0.0092 -8.8487 -0.0090
# 4 0.0056 0.0061 0.0092 32.2045 0.0046 -0.2563
# 5 0.6706 -6.6626 -8.8487 0.0046 39.6303 -0.0020
# 6 0.0017 0.0011 -0.0090 -0.2563 -0.0020 37.1919
#
#
#
# Elastic Compliance Matrix: (Units=1/GPa)
#
#
# Indices 1 2 3 4 5 6 
#
# 1 0.006919 -0.003523 -0.002962 0.000000 -0.001371 -0.000001
# 2 -0.003523 0.018154 -0.002238 -0.000003 0.002612 -0.000001
# 3 -0.002962 -0.002238 0.010332 -0.000002 0.001981 0.000003
# 4 0.000000 -0.000003 -0.000002 0.031053 -0.000005 0.000214
# 5 -0.001371 0.002612 0.001981 -0.000005 0.026138 0.000002
# 6 -0.000001 -0.000001 0.000003 0.000214 0.000002 0.026889
#
#
# Mechanical properties :
#
#
# Convention : Reuss Voigt Hill
#
# Bulk Modulus (GPa) = 55.68299 74.73805 65.21052
# Shear Modulus (GPa) = 34.98488 38.28355 36.63422
#
# Velocity S-wave (km/s) = 4.14776 4.33890 4.24440
# Velocity P-wave (km/s) = 7.09371 7.86473 7.48915
#
# Compressibility (1/GPa) = 0.01795881
#
# Stress axis : x y z
#
# Youngs Moduli (GPa) = 144.51996 55.08427 96.78476
#
# Poissons Ratio (x) = 0.19408 0.28667
# Poissons Ratio (y) = 0.50918 0.21662
# Poissons Ratio (z) = 0.42807 0.12329
#
# Static dielectric constant tensor:
#      x y z
#    x 4.099120 -0.000010 -0.105470 
#    y -0.000010 3.789590 -0.000010 
#    z -0.105470 -0.000010 3.768380 
# 
# 
# High freq. dielectric constant tensor:
#      x y z
#    x 1.814270 0.000000 -0.002480 
#    y 0.000000 1.794000 0.000000 
#    z -0.002480 0.000000 1.805550 
# 
# From -- ./inp_files/356967.got.cif
#   From: 2010.06.25/outbox.cif.g09.slc.cpg/sg12_179_cif.got.tgz:356967.got - 2010.06.28 00:19:55.
