data_PCOD8112658
_publ_section_title
;
Structure prediction by ZEFSAII (Michael W. Deem and Ramdas Pophale) SiO2 
 PCOD8112658
Probable space group: C 2/M
;
_chemical_formula_sum "Si O2"
_cell_formula_units_Z 36
_cell_length_a 8.152450
_cell_length_b 18.441858
_cell_length_c 10.891304
_cell_angle_alpha 90.000000
_cell_angle_beta 76.519149
_cell_angle_gamma 90.000000
_cell_volume 1592.351842
_symmetry_space_group_name_H-M "C 2/M"
_symmetry_group_IT_number 12
_symmetry_cell_setting 'monoclinic'
loop_
_space_group_symop_operation_xyz
x,y,z
-x,y,-z
-x,-y,-z
x,-y,z
1/2+x,1/2+y,z
1/2-x,1/2+y,-z
1/2-x,1/2-y,-z
1/2+x,1/2-y,z
loop_
_atom_site_type_symbol
_atom_site_label
_atom_site_fract_x
_atom_site_fract_y
_atom_site_fract_z
Si Si1 0.377918 0.300275 0.775181
Si Si2 0.785308 0.150548 0.164916
Si Si3 0.194571 0.581941 0.935488
Si Si4 0.317108 0.915505 0.569600
Si Si5 0.000000 0.160080 0.500000
O O1 0.321968 0.223294 0.836563
O O2 0.528609 0.326369 0.833032
O O3 0.235965 0.363310 0.815603
O O4 0.430586 0.290497 0.623454
O O5 0.704787 0.100171 0.283097
O O6 0.796428 0.104985 0.038763
O O7 0.245688 0.500000 0.888182
O O8 0.000000 0.587342 0.000000
O O9 0.500000 0.882367 0.500000
O O10 0.159728 0.885535 0.518920
O O11 0.317583 0.000000 0.544188
#
# Coordination Sequence:
#
# PCOD8112658 Si02
#       5
#     8   8   8   8   4
#     4  11  25  42  68  97 132 176 216 273 328 391
#     4  11  24  42  66  95 132 169 222 269 329 392
#     4  11  25  44  68  96 129 172 219 273 331 393
#     4  10  23  40  65  95 132 177 219 273 328 392
#     4  10  25  42  66  98 135 178 220 276 327 400
#
# _framework density 22.608067999999999
#
# number of rings (size 3 to 8) (size 9 to 14) (size 15 to 20)
#    0.000    1.333    0.000    3.667    7.778    8.000 
#    0.000    0.000    0.000    0.000    0.000    0.000 
#    0.000    0.000    0.000    0.000    0.000    0.000 
#
# Total GULP energy -223212.712304 kJ/mol
# GULP energy per Si atom -12400.706239 kJ/mol
# Density = 2.255661 g / cm^3
# Si number density = 22.608068 Si / 1000 Ang^3
#
#
#
# Elastic Constant Matrix: (Units=GPa)
#
#
# Indices 1 2 3 4 5 6 
#
# 1 81.9471 14.1785 20.2487 0.0000 -11.6357 0.0000
# 2 14.1785 54.8586 1.4154 0.0000 -5.8592 0.0000
# 3 20.2487 1.4154 75.5727 0.0000 1.7592 0.0000
# 4 0.0000 0.0000 0.0000 48.9148 0.0000 1.8858
# 5 -11.6357 -5.8592 1.7592 0.0000 31.4136 0.0000
# 6 0.0000 0.0000 0.0000 1.8858 0.0000 21.4048
#
#
#
# Elastic Compliance Matrix: (Units=1/GPa)
#
#
# Indices 1 2 3 4 5 6 
#
# 1 0.014414 -0.003092 -0.003920 0.000000 0.004982 0.000000
# 2 -0.003092 0.019276 0.000411 0.000000 0.002427 0.000000
# 3 -0.003920 0.000411 0.014326 0.000000 -0.002178 0.000000
# 4 0.000000 0.000000 0.000000 0.020513 0.000000 -0.001807
# 5 0.004982 0.002427 -0.002178 0.000000 0.034253 0.000000
# 6 0.000000 0.000000 0.000000 -0.001807 0.000000 0.046878
#
#
# Mechanical properties :
#
#
# Convention : Reuss Voigt Hill
#
# Bulk Modulus (GPa) = 28.72443 31.56262 30.14353
# Shear Modulus (GPa) = 28.65865 32.11571 30.38718
#
# Velocity S-wave (km/s) = 3.56424 3.77310 3.67015
# Velocity P-wave (km/s) = 5.44714 5.74219 5.59661
#
# Compressibility (1/GPa) = 0.03481357
#
# Stress axis : x y z
#
# Youngs Moduli (GPa) = 69.37700 51.87670 69.80501
#
# Poissons Ratio (x) = 0.16041 0.27364
# Poissons Ratio (y) = 0.21452 -0.02869
# Poissons Ratio (z) = 0.27196 -0.02132
#
# Static dielectric constant tensor:
#      x y z
#    x 4.308250 0.000000 -0.200130 
#    y 0.000000 4.351630 0.000000 
#    z -0.200130 0.000000 4.236910 
# 
# 
# High freq. dielectric constant tensor:
#      x y z
#    x 1.908010 0.000000 -0.009520 
#    y 0.000000 1.890820 0.000000 
#    z -0.009520 0.000000 1.898170 
# 
# From -- ./inp_files/118740.got.cif
#   From: 2010.06.25/outbox.cif.g09.slc.cpg/sg12_60_cif.got.tgz:118740.got - 2010.06.28 00:19:55.
