data_PCOD8112201
_publ_section_title
;
Structure prediction by ZEFSAII (Michael W. Deem and Ramdas Pophale) SiO2 
 PCOD8112201
Probable space group: C 2/M
;
_chemical_formula_sum "Si O2"
_cell_formula_units_Z 48
_cell_length_a 18.437132
_cell_length_b 14.178225
_cell_length_c 15.989623
_cell_angle_alpha 90.000000
_cell_angle_beta 33.848605
_cell_angle_gamma 90.000000
_cell_volume 2328.139098
_symmetry_space_group_name_H-M "C 2/M"
_symmetry_group_IT_number 12
_symmetry_cell_setting 'monoclinic'
loop_
_space_group_symop_operation_xyz
x,y,z
-x,y,-z
-x,-y,-z
x,-y,z
1/2+x,1/2+y,z
1/2-x,1/2+y,-z
1/2-x,1/2-y,-z
1/2+x,1/2-y,z
loop_
_atom_site_type_symbol
_atom_site_label
_atom_site_fract_x
_atom_site_fract_y
_atom_site_fract_z
Si Si1 0.751240 0.889637 0.062263
Si Si2 0.999899 0.388866 0.595746
Si Si3 0.333248 0.891725 0.042907
Si Si4 0.735420 0.766489 0.417799
Si Si5 0.648014 0.391106 0.375974
Si Si6 0.009271 0.215215 0.085838
O O1 0.629754 0.852011 0.233516
O O2 0.769994 0.000000 0.057825
O O3 0.730329 0.864837 0.985090
O O4 0.880641 0.839709 0.969354
O O5 0.011266 0.500000 0.594204
O O6 0.125709 0.345114 0.516984
O O7 0.000000 0.355560 0.500000
O O8 0.227086 0.871093 0.215592
O O9 0.381073 0.000000 0.997731
O O10 0.459645 0.827314 0.938765
O O11 0.750000 0.750000 0.500000
O O12 0.702015 0.671122 0.399960
O O13 0.870737 0.809339 0.257115
O O14 0.500000 0.362160 0.500000
O O15 0.659052 0.500000 0.392877
O O16 0.000000 0.179946 0.000000
#
# Coordination Sequence:
#
# PCOD8112201 Si02
#       6
#     8   8   8   8   8   8
#     4  10  23  42  67  93 119 164 219 260 303 367
#     4  10  22  43  67  88 119 168 214 253 303 368
#     4  10  22  42  66  90 122 165 213 258 303 368
#     4  12  26  39  61  96 132 163 198 254 318 374
#     4  10  23  42  66  92 123 167 212 255 306 369
#     4  12  24  39  61  95 130 164 200 255 321 370
#
# _framework density 20.617325000000001
#
# number of rings (size 3 to 8) (size 9 to 14) (size 15 to 20)
#    0.000    1.333    1.667    3.000    4.667    2.667 
#    0.000    0.000    0.000    0.000    0.000    0.000 
#    0.000    0.000    0.000    0.000    0.000    0.000 
#
# Total GULP energy -297715.918067 kJ/mol
# GULP energy per Si atom -12404.829919 kJ/mol
# Density = 2.057040 g / cm^3
# Si number density = 20.617325 Si / 1000 Ang^3
#
#
#
# Elastic Constant Matrix: (Units=GPa)
#
#
# Indices 1 2 3 4 5 6 
#
# 1 146.1220 38.0395 56.8910 0.0000 14.1131 0.0000
# 2 38.0395 42.7536 31.3117 0.0000 -4.5426 0.0000
# 3 56.8910 31.3117 130.2002 -0.0001 -6.6540 0.0001
# 4 0.0000 0.0000 -0.0001 23.8430 0.0000 1.4860
# 5 14.1131 -4.5426 -6.6540 0.0000 43.7007 0.0000
# 6 0.0000 0.0000 0.0001 1.4860 0.0000 17.2901
#
#
#
# Elastic Compliance Matrix: (Units=1/GPa)
#
#
# Indices 1 2 3 4 5 6 
#
# 1 0.010417 -0.007588 -0.002962 0.000000 -0.004604 0.000000
# 2 -0.007588 0.034079 -0.004610 0.000000 0.005291 0.000000
# 3 -0.002962 -0.004610 0.010187 0.000000 0.002029 0.000000
# 4 0.000000 0.000000 0.000000 0.042167 0.000000 -0.003624
# 5 -0.004604 0.005291 0.002029 0.000000 0.025229 0.000000
# 6 0.000000 0.000000 0.000000 -0.003624 0.000000 0.058148
#
#
# Mechanical properties :
#
#
# Convention : Reuss Voigt Hill
#
# Bulk Modulus (GPa) = 41.04485 63.50668 52.27577
# Shear Modulus (GPa) = 22.86572 29.82233 26.34402
#
# Velocity S-wave (km/s) = 3.33386 3.80737 3.57846
# Velocity P-wave (km/s) = 5.89666 7.08503 6.51798
#
# Compressibility (1/GPa) = 0.02436359
#
# Stress axis : x y z
#
# Youngs Moduli (GPa) = 95.99775 29.34320 98.16408
#
# Poissons Ratio (x) = 0.22266 0.29077
# Poissons Ratio (y) = 0.72844 0.45251
# Poissons Ratio (z) = 0.28436 0.13526
#
# Static dielectric constant tensor:
#      x y z
#    x 3.792770 0.000000 0.127570 
#    y 0.000000 3.786120 0.000000 
#    z 0.127570 0.000000 3.912780 
# 
# 
# High freq. dielectric constant tensor:
#      x y z
#    x 1.818230 0.000000 0.005330 
#    y 0.000000 1.810590 0.000000 
#    z 0.005330 0.000000 1.818700 
# 
# From -- ./inp_files/278037.got.cif
#   From: 2010.06.25/outbox.cif.g09.slc.cpg/sg12_140_cif.got.tgz:278037.got - 2010.06.28 00:19:55.
