data_PCOD8112305
_publ_section_title
;
Structure prediction by ZEFSAII (Michael W. Deem and Ramdas Pophale) SiO2 
 PCOD8112305
Probable space group: C 2/M
;
_chemical_formula_sum "Si O2"
_cell_formula_units_Z 64
_cell_length_a 14.761166
_cell_length_b 17.980621
_cell_length_c 18.349953
_cell_angle_alpha 90.000000
_cell_angle_beta 37.524656
_cell_angle_gamma 90.000000
_cell_volume 2966.544624
_symmetry_space_group_name_H-M "C 2/M"
_symmetry_group_IT_number 12
_symmetry_cell_setting 'monoclinic'
loop_
_space_group_symop_operation_xyz
x,y,z
-x,y,-z
-x,-y,-z
x,-y,z
1/2+x,1/2+y,z
1/2-x,1/2+y,-z
1/2-x,1/2-y,-z
1/2+x,1/2-y,z
loop_
_atom_site_type_symbol
_atom_site_label
_atom_site_fract_x
_atom_site_fract_y
_atom_site_fract_z
Si Si1 0.581083 0.913201 0.766741
Si Si2 0.639024 0.584487 0.866405
Si Si3 0.371269 0.083505 0.524580
Si Si4 0.447173 0.141638 0.715505
Si Si5 0.119043 0.700900 0.861746
Si Si6 0.392385 0.666411 0.248040
Si Si7 0.554001 0.690829 0.285291
Si Si8 0.896967 0.913961 0.497854
O O1 0.449854 0.882807 0.798389
O O2 0.570263 0.874467 0.852135
O O3 0.732030 0.892421 0.627738
O O4 0.565341 0.000000 0.791973
O O5 0.680667 0.500000 0.858169
O O6 0.777773 0.636643 0.796490
O O7 0.592560 0.592987 0.811695
O O8 0.500000 0.614067 0.000000
O O9 0.500000 0.098579 0.500000
O O10 0.442711 0.087753 0.398869
O O11 0.252109 0.149607 0.610052
O O12 0.304782 0.000000 0.576119
O O13 0.501609 0.225347 0.666849
O O14 0.129350 0.763846 0.792532
O O15 0.274830 0.683248 0.801662
O O16 0.000000 0.722217 0.000000
O O17 0.533747 0.674735 0.211390
O O18 0.447911 0.635342 0.397385
O O19 0.000000 0.895342 0.500000
O O20 0.909464 0.000000 0.466249
#
# Coordination Sequence:
#
# PCOD8112305 Si02
#       8
#     8   8   8   8   8   8   8   8
#     4  11  24  45  71  98 134 179 227 278 338 405
#     4  11  24  44  69  96 134 183 231 281 338 401
#     4  11  22  39  67 102 141 179 216 273 345 412
#     4  12  24  41  68 103 139 179 222 280 338 411
#     4  12  27  47  68  97 134 180 229 282 337 395
#     4  12  25  43  66  98 137 177 221 280 340 407
#     4  12  26  41  71 102 135 179 226 276 342 410
#     4  10  22  42  69  99 140 183 219 270 339 407
#
# _framework density 21.573920999999999
#
# number of rings (size 3 to 8) (size 9 to 14) (size 15 to 20)
#    0.000    0.625    5.000    2.625    1.750    5.250 
#    0.000    0.000    0.000    0.000    0.000    0.000 
#    0.000    0.000    0.000    0.000    0.000    0.000 
#
# Total GULP energy -396815.003009 kJ/mol
# GULP energy per Si atom -12400.468844 kJ/mol
# Density = 2.152482 g / cm^3
# Si number density = 21.573921 Si / 1000 Ang^3
#
#
#
# Elastic Constant Matrix: (Units=GPa)
#
#
# Indices 1 2 3 4 5 6 
#
# 1 142.9481 40.0925 43.1556 -0.0001 23.5046 0.0005
# 2 40.0925 113.9900 40.0304 0.0002 7.2833 -0.0013
# 3 43.1556 40.0304 92.3325 0.0035 5.6509 -0.0027
# 4 -0.0001 0.0002 0.0035 45.7435 -0.0006 13.2126
# 5 23.5046 7.2833 5.6509 -0.0006 14.8328 0.0010
# 6 0.0005 -0.0013 -0.0027 13.2126 0.0010 37.5423
#
#
#
# Elastic Compliance Matrix: (Units=1/GPa)
#
#
# Indices 1 2 3 4 5 6 
#
# 1 0.011045 -0.001676 -0.003496 0.000000 -0.015347 0.000000
# 2 -0.001676 0.010778 -0.003817 0.000000 -0.001182 0.000000
# 3 -0.003496 -0.003817 0.013992 -0.000001 0.002084 0.000001
# 4 0.000000 0.000000 -0.000001 0.024335 0.000002 -0.008564
# 5 -0.015347 -0.001182 0.002084 0.000002 0.091523 -0.000003
# 6 0.000000 0.000000 0.000001 -0.008564 -0.000003 0.029651
#
#
# Mechanical properties :
#
#
# Convention : Reuss Voigt Hill
#
# Bulk Modulus (GPa) = 56.06748 66.20306 61.13527
# Shear Modulus (GPa) = 24.36083 34.68989 29.52536
#
# Velocity S-wave (km/s) = 3.36397 4.01428 3.70343
# Velocity P-wave (km/s) = 6.41353 7.22767 6.83274
#
# Compressibility (1/GPa) = 0.01783565
#
# Stress axis : x y z
#
# Youngs Moduli (GPa) = 90.54229 92.77951 71.47021
#
# Poissons Ratio (x) = 0.15552 0.24987
# Poissons Ratio (y) = 0.15177 0.27281
# Poissons Ratio (z) = 0.31655 0.35414
#
# Static dielectric constant tensor:
#      x y z
#    x 4.416020 0.000000 0.127000 
#    y 0.000000 3.915870 0.000000 
#    z 0.127000 0.000000 3.745790 
# 
# 
# High freq. dielectric constant tensor:
#      x y z
#    x 1.864410 0.000000 0.007150 
#    y 0.000000 1.856870 0.000000 
#    z 0.007150 0.000000 1.826960 
# 
# From -- ./inp_files/271715.got.cif
#   From: 2010.06.25/outbox.cif.g09.slc.cpg/sg12_136_cif.got.tgz:271715.got - 2010.06.28 00:19:55.
