data_PCOD8112406
_publ_section_title
;
Structure prediction by ZEFSAII (Michael W. Deem and Ramdas Pophale) SiO2 
 PCOD8112406
Probable space group: C 2/M
;
_chemical_formula_sum "Si O2"
_cell_formula_units_Z 32
_cell_length_a 14.018947
_cell_length_b 18.595108
_cell_length_c 9.234114
_cell_angle_alpha 90.000000
_cell_angle_beta 141.069705
_cell_angle_gamma 90.000000
_cell_volume 1512.613104
_symmetry_space_group_name_H-M "C 2/M"
_symmetry_group_IT_number 12
_symmetry_cell_setting 'monoclinic'
loop_
_space_group_symop_operation_xyz
x,y,z
-x,y,-z
-x,-y,-z
x,-y,z
1/2+x,1/2+y,z
1/2-x,1/2+y,-z
1/2-x,1/2-y,-z
1/2+x,1/2-y,z
loop_
_atom_site_type_symbol
_atom_site_label
_atom_site_fract_x
_atom_site_fract_y
_atom_site_fract_z
Si Si1 0.824135 0.000000 0.772763
Si Si2 0.930440 0.373972 0.065070
Si Si3 0.116981 0.500000 0.771797
Si Si4 0.665391 0.715264 0.623780
Si Si5 0.262151 0.846378 0.452493
O O1 0.778871 0.000000 0.886832
O O2 0.761657 0.929689 0.615894
O O3 0.000000 0.000000 0.000000
O O4 0.893154 0.431832 0.140286
O O5 0.067737 0.327061 0.291297
O O6 0.778192 0.328203 0.862177
O O7 0.000000 0.408949 0.000000
O O8 0.000000 0.500000 0.500000
O O9 0.500000 0.722277 0.500000
O O10 0.748720 0.793058 0.698585
O O11 0.647857 0.674307 0.448036
#
# Coordination Sequence:
#
# PCOD8112406 Si02
#       5
#     4   8   4   8   8
#     4  12  28  42  67  96 136 171 220 290 328 393
#     4  10  22  43  69  96 134 181 220 273 331 402
#     4  12  23  42  70  99 129 180 226 269 338 403
#     4  10  24  41  70  99 134 177 224 274 326 400
#     4  10  23  46  64  99 135 175 222 276 336 389
#
# _framework density 21.155442000000001
#
# number of rings (size 3 to 8) (size 9 to 14) (size 15 to 20)
#    0.000    1.500    2.500    0.375    7.000    9.000 
#    0.000    1.250    0.000    0.000    0.000    0.000 
#    0.000    0.000    0.000    0.000    0.000    0.000 
#
# Total GULP energy -198247.829155 kJ/mol
# GULP energy per Si atom -12390.489322 kJ/mol
# Density = 2.110729 g / cm^3
# Si number density = 21.155442 Si / 1000 Ang^3
#
#
#
# Elastic Constant Matrix: (Units=GPa)
#
#
# Indices 1 2 3 4 5 6 
#
# 1 160.7062 66.9523 50.9923 0.0000 1.8565 0.0000
# 2 66.9523 162.4047 55.3409 0.0000 -15.5561 0.0000
# 3 50.9923 55.3409 112.9296 0.0000 4.8084 0.0000
# 4 0.0000 0.0000 0.0000 44.2533 0.0000 -21.4779
# 5 1.8565 -15.5561 4.8084 0.0000 34.4738 0.0000
# 6 0.0000 0.0000 0.0000 -21.4779 0.0000 41.6496
#
#
#
# Elastic Compliance Matrix: (Units=1/GPa)
#
#
# Indices 1 2 3 4 5 6 
#
# 1 0.008077 -0.002681 -0.002277 0.000000 -0.001327 0.000000
# 2 -0.002681 0.008831 -0.003313 0.000000 0.004592 0.000000
# 3 -0.002277 -0.003313 0.011634 0.000000 -0.002995 0.000000
# 4 0.000000 0.000000 0.000000 0.030141 0.000000 0.015543
# 5 -0.001327 0.004592 -0.002995 0.000000 0.031569 0.000000
# 6 0.000000 0.000000 0.000000 0.015543 0.000000 0.032025
#
#
# Mechanical properties :
#
#
# Convention : Reuss Voigt Hill
#
# Bulk Modulus (GPa) = 83.32333 86.95682 85.14008
# Shear Modulus (GPa) = 35.00934 41.59236 38.30085
#
# Velocity S-wave (km/s) = 4.07241 4.43881 4.25955
# Velocity P-wave (km/s) = 7.84758 8.21363 8.03269
#
# Compressibility (1/GPa) = 0.01200144
#
# Stress axis : x y z
#
# Youngs Moduli (GPa) = 123.80326 113.23204 85.95487
#
# Poissons Ratio (x) = 0.30360 0.19570
# Poissons Ratio (y) = 0.33194 0.28474
# Poissons Ratio (z) = 0.28188 0.37510
#
# Static dielectric constant tensor:
#      x y z
#    x 5.157730 0.000000 -0.573100 
#    y 0.000000 3.715230 0.000000 
#    z -0.573100 0.000000 4.107100 
# 
# 
# High freq. dielectric constant tensor:
#      x y z
#    x 1.848130 0.000000 -0.005350 
#    y 0.000000 1.830770 0.000000 
#    z -0.005350 0.000000 1.821880 
# 
# From -- ./inp_files/63104.got.cif
#   From: 2010.06.25/outbox.cif.g09.slc.cpg/sg12_32_cif.got.tgz:63104.got - 2010.06.28 00:19:55.
