data_PCOD8112495
_publ_section_title
;
Structure prediction by ZEFSAII (Michael W. Deem and Ramdas Pophale) SiO2 
 PCOD8112495
Probable space group: C 2/M
;
_chemical_formula_sum "Si O2"
_cell_formula_units_Z 56
_cell_length_a 31.126823
_cell_length_b 18.517710
_cell_length_c 9.178076
_cell_angle_alpha 90.000000
_cell_angle_beta 35.186381
_cell_angle_gamma 90.000000
_cell_volume 3048.426087
_symmetry_space_group_name_H-M "C 2/M"
_symmetry_group_IT_number 12
_symmetry_cell_setting 'monoclinic'
loop_
_space_group_symop_operation_xyz
x,y,z
-x,y,-z
-x,-y,-z
x,-y,z
1/2+x,1/2+y,z
1/2-x,1/2+y,-z
1/2-x,1/2-y,-z
1/2+x,1/2-y,z
loop_
_atom_site_type_symbol
_atom_site_label
_atom_site_fract_x
_atom_site_fract_y
_atom_site_fract_z
Si Si1 0.586430 0.583999 0.768435
Si Si2 0.554011 0.914444 0.048139
Si Si3 0.752595 0.329109 0.820397
Si Si4 0.687038 0.917994 0.858063
Si Si5 0.705074 0.327783 0.268425
Si Si6 0.103503 0.414812 0.597119
Si Si7 0.693032 0.418798 0.726119
O O1 0.599457 0.500000 0.690301
O O2 0.630432 0.633557 0.531776
O O3 0.617266 0.598257 0.846321
O O4 0.500000 0.605293 0.000000
O O5 0.467311 0.892369 0.308480
O O6 0.560574 0.000000 0.019822
O O7 0.604991 0.887341 0.041570
O O8 0.586763 0.884583 0.805298
O O9 0.785840 0.251134 0.684495
O O10 0.821697 0.379956 0.670483
O O11 0.702365 0.361513 0.829903
O O12 0.699873 0.322399 0.108136
O O13 0.720708 0.871967 0.895339
O O14 0.737714 0.912139 0.574281
O O15 0.682096 0.000000 0.927467
O O16 0.115059 0.500000 0.564819
O O17 0.689888 0.500000 0.800190
#
# Coordination Sequence:
#
# PCOD8112495 Si02
#       7
#     8   8   8   8   8   8   8
#     4   9  19  39  61  80 102 129 173 230 276 315
#     4   8  14  27  48  76 103 124 158 206 248 288
#     4  11  21  35  49  74 111 140 175 210 249 316
#     4   9  16  31  52  75 100 131 173 214 253 303
#     4  10  23  36  49  73 108 143 170 212 266 308
#     4   9  16  28  49  75 103 133 163 206 248 287
#     4   9  17  31  56  81  98 129 176 219 260 311
#
# _framework density 18.370135999999999
#
# number of rings (size 3 to 8) (size 9 to 14) (size 15 to 20)
#    0.000    2.714    1.429    2.571    0.000    4.571 
#    2.571    1.429    0.000    8.571    0.000    0.000 
#    0.000    0.000    0.000    0.000    0.000    0.000 
#
# Total GULP energy -347058.281476 kJ/mol
# GULP energy per Si atom -12394.938624 kJ/mol
# Density = 1.832832 g / cm^3
# Si number density = 18.370136 Si / 1000 Ang^3
#
#
#
# Elastic Constant Matrix: (Units=GPa)
#
#
# Indices 1 2 3 4 5 6 
#
# 1 107.1953 42.1785 42.6437 0.0000 -24.1896 0.0000
# 2 42.1785 85.6834 36.8430 0.0000 -2.6590 0.0000
# 3 42.6437 36.8430 63.9758 0.0000 -13.5492 0.0000
# 4 0.0000 0.0000 0.0000 12.6550 0.0000 2.9244
# 5 -24.1896 -2.6590 -13.5492 0.0000 34.1787 0.0000
# 6 0.0000 0.0000 0.0000 2.9244 0.0000 17.4484
#
#
#
# Elastic Compliance Matrix: (Units=1/GPa)
#
#
# Indices 1 2 3 4 5 6 
#
# 1 0.015367 -0.004858 -0.005701 0.000000 0.008238 0.000000
# 2 -0.004858 0.017254 -0.007797 0.000000 -0.005186 0.000000
# 3 -0.005701 -0.007797 0.025040 0.000000 0.005285 0.000000
# 4 0.000000 0.000000 0.000000 0.082204 0.000000 -0.013777
# 5 0.008238 -0.005186 0.005285 0.000000 0.036780 0.000000
# 6 0.000000 0.000000 0.000000 -0.013777 0.000000 0.059621
#
#
# Mechanical properties :
#
#
# Convention : Reuss Voigt Hill
#
# Bulk Modulus (GPa) = 47.73164 55.57613 51.65388
# Shear Modulus (GPa) = 17.85974 21.86905 19.86440
#
# Velocity S-wave (km/s) = 3.12142 3.45406 3.29194
# Velocity P-wave (km/s) = 6.24746 6.79901 6.52906
#
# Compressibility (1/GPa) = 0.02095046
#
# Stress axis : x y z
#
# Youngs Moduli (GPa) = 65.07469 57.95883 39.93566
#
# Poissons Ratio (x) = 0.28154 0.22767
# Poissons Ratio (y) = 0.31610 0.31137
# Poissons Ratio (z) = 0.37098 0.45189
#
# Static dielectric constant tensor:
#      x y z
#    x 3.652440 0.000000 -0.252260 
#    y 0.000000 3.240550 0.000000 
#    z -0.252260 0.000000 3.086810 
# 
# 
# High freq. dielectric constant tensor:
#      x y z
#    x 1.717680 0.000000 -0.013960 
#    y 0.000000 1.693180 0.000000 
#    z -0.013960 0.000000 1.682160 
# 
# From -- ./inp_files/112604.got.cif
#   From: 2010.06.25/outbox.cif.g09.slc.cpg/sg12_57_cif.got.tgz:112604.got - 2010.06.28 00:19:55.
