data_PCOD8112913
_publ_section_title
;
Structure prediction by ZEFSAII (Michael W. Deem and Ramdas Pophale) SiO2 
 PCOD8112913
Probable space group: C 2/M
;
_chemical_formula_sum "Si O2"
_cell_formula_units_Z 28
_cell_length_a 15.871321
_cell_length_b 17.143196
_cell_length_c 9.943943
_cell_angle_alpha 90.000000
_cell_angle_beta 28.056343
_cell_angle_gamma 90.000000
_cell_volume 1272.550536
_symmetry_space_group_name_H-M "C 2/M"
_symmetry_group_IT_number 12
_symmetry_cell_setting 'monoclinic'
loop_
_space_group_symop_operation_xyz
x,y,z
-x,y,-z
-x,-y,-z
x,-y,z
1/2+x,1/2+y,z
1/2-x,1/2+y,-z
1/2-x,1/2-y,-z
1/2+x,1/2-y,z
loop_
_atom_site_type_symbol
_atom_site_label
_atom_site_fract_x
_atom_site_fract_y
_atom_site_fract_z
Si Si1 0.500000 0.694705 0.000000
Si Si2 0.352141 0.843898 0.108912
Si Si3 0.864260 0.590211 0.806516
Si Si4 0.542111 0.410030 0.701698
O O1 0.648644 0.750213 0.862825
O O2 0.599505 0.640050 0.751317
O O3 0.158724 0.881570 0.410669
O O4 0.500000 0.883254 0.000000
O O5 0.404557 0.858935 0.881311
O O6 0.895822 0.500000 0.798437
O O7 0.000000 0.618227 0.500000
O O8 0.664311 0.604946 0.037992
O O9 0.581528 0.500000 0.677079
#
# Coordination Sequence:
#
# PCOD8112913 Si02
#       4
#     4   8   8   8
#     4  10  25  42  65 100 138 170 218 272 331 390
#     4  10  24  42  68  98 133 172 217 271 331 388
#     4  10  23  42  66 100 135 172 220 274 330 388
#     4  11  23  42  70  97 132 175 222 270 324 393
#
# _framework density 22.003056000000001
#
# number of rings (size 3 to 8) (size 9 to 14) (size 15 to 20)
#    0.857    0.857    0.000    3.000    4.000    5.714 
#    0.000    0.000    0.000    0.000    0.000    0.000 
#    0.000    0.000    0.000    0.000    0.000    0.000 
#
# Total GULP energy -173620.798203 kJ/mol
# GULP energy per Si atom -12401.485586 kJ/mol
# Density = 2.195298 g / cm^3
# Si number density = 22.003056 Si / 1000 Ang^3
#
#
#
# Elastic Constant Matrix: (Units=GPa)
#
#
# Indices 1 2 3 4 5 6 
#
# 1 100.5676 70.5247 63.2720 0.0027 38.9684 0.0015
# 2 70.5247 141.0843 61.3147 0.0019 15.3968 -0.0054
# 3 63.2720 61.3147 172.0080 0.0012 18.8361 -0.0017
# 4 0.0027 0.0019 0.0012 23.0111 -0.0029 3.8427
# 5 38.9684 15.3968 18.8361 -0.0029 39.3124 0.0004
# 6 0.0015 -0.0054 -0.0017 3.8427 0.0004 23.1871
#
#
#
# Elastic Compliance Matrix: (Units=1/GPa)
#
#
# Indices 1 2 3 4 5 6 
#
# 1 0.027981 -0.009669 -0.004457 -0.000004 -0.021814 -0.000003
# 2 -0.009669 0.011874 -0.001283 0.000000 0.005549 0.000003
# 3 -0.004457 -0.001283 0.007780 0.000000 0.001193 0.000000
# 4 -0.000004 0.000000 0.000000 0.044694 0.000008 -0.007407
# 5 -0.021814 0.005549 0.001193 0.000008 0.044315 0.000001
# 6 -0.000003 0.000003 0.000000 -0.007407 0.000001 0.044355
#
#
# Mechanical properties :
#
#
# Convention : Reuss Voigt Hill
#
# Bulk Modulus (GPa) = 59.47129 89.32030 74.39580
# Shear Modulus (GPa) = 22.99660 31.67201 27.33431
#
# Velocity S-wave (km/s) = 3.23639 3.79811 3.52845
# Velocity P-wave (km/s) = 6.40726 7.74059 7.10527
#
# Compressibility (1/GPa) = 0.01681484
#
# Stress axis : x y z
#
# Youngs Moduli (GPa) = 35.73854 84.22029 128.53428
#
# Poissons Ratio (x) = 0.81436 0.57289
# Poissons Ratio (y) = 0.34557 0.16496
# Poissons Ratio (z) = 0.15929 0.10809
#
# Static dielectric constant tensor:
#      x y z
#    x 3.721870 0.000000 0.096300 
#    y 0.000000 3.903580 0.000000 
#    z 0.096300 0.000000 3.880280 
# 
# 
# High freq. dielectric constant tensor:
#      x y z
#    x 1.855820 0.000000 0.011180 
#    y 0.000000 1.864870 0.000000 
#    z 0.011180 0.000000 1.870720 
# 
# From -- ./inp_files/60667.got.cif
#   From: 2010.06.25/outbox.cif.g09.slc.cpg/sg12_31_cif.got.tgz:60667.got - 2010.06.28 00:19:55.
