data_PCOD8112182
_publ_section_title
;
Structure prediction by ZEFSAII (Michael W. Deem and Ramdas Pophale) SiO2 
 PCOD8112182
Probable space group: C 2/M
;
_chemical_formula_sum "Si O2"
_cell_formula_units_Z 32
_cell_length_a 23.496823
_cell_length_b 10.502579
_cell_length_c 19.533531
_cell_angle_alpha 90.000000
_cell_angle_beta 163.375067
_cell_angle_gamma 90.000000
_cell_volume 1379.151141
_symmetry_space_group_name_H-M "C 2/M"
_symmetry_group_IT_number 12
_symmetry_cell_setting 'monoclinic'
loop_
_space_group_symop_operation_xyz
x,y,z
-x,y,-z
-x,-y,-z
x,-y,z
1/2+x,1/2+y,z
1/2-x,1/2+y,-z
1/2-x,1/2-y,-z
1/2+x,1/2-y,z
loop_
_atom_site_type_symbol
_atom_site_label
_atom_site_fract_x
_atom_site_fract_y
_atom_site_fract_z
Si Si1 0.351537 0.637916 0.658327
Si Si2 0.207155 0.643848 0.639524
Si Si3 0.767688 0.137386 0.227792
Si Si4 0.759773 0.285938 0.090289
O O1 0.247191 0.500000 0.524841
O O2 0.250000 0.750000 0.500000
O O3 0.331678 0.673315 0.715016
O O4 0.580160 0.618014 0.899369
O O5 0.248747 0.500000 0.714297
O O6 0.292683 0.744965 0.792730
O O7 0.971429 0.654202 0.353791
O O8 0.713388 0.165099 0.085950
O O9 0.000000 0.120634 0.500000
O O10 0.669261 0.000000 0.134917
O O11 0.750000 0.250000 0.000000
#
# Coordination Sequence:
#
# PCOD8112182 Si02
#       4
#     8   8   8   8
#     4  11  24  41  63  96 128 166 214 264 317 378
#     4  10  22  42  65  92 127 166 211 261 316 379
#     4   9  21  40  64  94 126 165 211 261 316 376
#     4  11  22  40  66  95 127 166 212 261 322 372
#
# _framework density 23.202677999999999
#
# number of rings (size 3 to 8) (size 9 to 14) (size 15 to 20)
#    0.000    1.750    2.500    0.750    0.000   10.500 
#    0.000    3.750    0.000    0.000    0.000    0.000 
#    0.000    0.000    0.000    0.000    0.000    0.000 
#
# Total GULP energy -198240.701059 kJ/mol
# GULP energy per Si atom -12390.043816 kJ/mol
# Density = 2.314987 g / cm^3
# Si number density = 23.202678 Si / 1000 Ang^3
#
#
#
# Elastic Constant Matrix: (Units=GPa)
#
#
# Indices 1 2 3 4 5 6 
#
# 1 183.9966 97.7993 42.6091 -0.0243 -14.4297 -0.0006
# 2 97.7993 210.9842 28.9991 -0.1517 -42.6965 -0.0046
# 3 42.6091 28.9991 73.5529 -0.1188 -5.9972 -0.0049
# 4 -0.0243 -0.1517 -0.1188-1328.7895 -0.0877 -122.4419
# 5 -14.4297 -42.6965 -5.9972 -0.0877 47.6947 -0.0025
# 6 -0.0006 -0.0046 -0.0049 -122.4419 -0.0025 24.9853
#
#
#
# Elastic Compliance Matrix: (Units=1/GPa)
#
#
# Indices 1 2 3 4 5 6 
#
# 1 0.007957 -0.003453 -0.003338 0.000001 -0.001103 0.000001
# 2 -0.003453 0.007555 -0.000518 -0.000001 0.005654 -0.000003
# 3 -0.003338 -0.000518 0.015775 -0.000001 0.000510 -0.000002
# 4 0.000001 -0.000001 -0.000001 -0.000518 -0.000002 -0.002541
# 5 -0.001103 0.005654 0.000510 -0.000002 0.025759 -0.000005
# 6 0.000001 -0.000003 -0.000002 -0.002541 -0.000005 0.027573
#
#
# Mechanical properties :
#
#
# Convention : Reuss Voigt Hill
#
# Bulk Modulus (GPa) = 59.98638 89.70542 74.84590
# Shear Modulus (GPa) = 47.95097 -231.28016 -91.66460
#
# Velocity S-wave (km/s) = 4.55093 -9.99473 -6.29220
# Velocity P-wave (km/s) = 7.31601 9.71840 4.52345
#
# Compressibility (1/GPa) = 0.01667045
#
# Stress axis : x y z
#
# Youngs Moduli (GPa) = 125.68317 132.35427 63.39138
#
# Poissons Ratio (x) = 0.45697 0.21160
# Poissons Ratio (y) = 0.43394 0.03282
# Poissons Ratio (z) = 0.41952 0.06852
#
# Static dielectric constant tensor:
#      x y z
#    x 4.392640 -0.000020 0.172160 
#    y -0.000020 4.517300 -0.000020 
#    z 0.172160 -0.000020 4.247500 
# 
# 
# High freq. dielectric constant tensor:
#      x y z
#    x 1.924630 0.000000 0.004870 
#    y 0.000000 1.922410 0.000000 
#    z 0.004870 0.000000 1.909880 
# 
# From -- ./inp_files/276238.got.cif
#   From: 2010.06.25/outbox.cif.g09.slc.cpg/sg12_139_cif.got.tgz:276238.got - 2010.06.28 00:19:55.
