data_PCOD8112270
_publ_section_title
;
Structure prediction by ZEFSAII (Michael W. Deem and Ramdas Pophale) SiO2 
 PCOD8112270
Probable space group: C 2/M
;
_chemical_formula_sum "Si O2"
_cell_formula_units_Z 44
_cell_length_a 7.865451
_cell_length_b 23.901365
_cell_length_c 15.744780
_cell_angle_alpha 90.000000
_cell_angle_beta 137.735421
_cell_angle_gamma 90.000000
_cell_volume 1990.722952
_symmetry_space_group_name_H-M "C 2/M"
_symmetry_group_IT_number 12
_symmetry_cell_setting 'monoclinic'
loop_
_space_group_symop_operation_xyz
x,y,z
-x,y,-z
-x,-y,-z
x,-y,z
1/2+x,1/2+y,z
1/2-x,1/2+y,-z
1/2-x,1/2-y,-z
1/2+x,1/2-y,z
loop_
_atom_site_type_symbol
_atom_site_label
_atom_site_fract_x
_atom_site_fract_y
_atom_site_fract_z
Si Si1 0.714850 0.375855 0.520482
Si Si2 0.500000 0.356228 0.000000
Si Si3 0.629305 0.500000 0.277996
Si Si4 0.013483 0.306543 0.746765
Si Si5 0.322181 0.000000 0.539579
Si Si6 0.920820 0.817452 0.277329
Si Si7 0.710521 0.599787 0.908653
O O1 0.500000 0.348507 0.500000
O O2 0.706208 0.442517 0.531704
O O3 0.649460 0.355466 0.400925
O O4 0.973434 0.348990 0.652123
O O5 0.700256 0.315246 0.117861
O O6 0.358852 0.395480 0.017200
O O7 0.756866 0.500000 0.416898
O O8 0.462859 0.553970 0.200045
O O9 0.887518 0.500000 0.319376
O O10 0.972818 0.244338 0.697008
O O11 0.827269 0.319255 0.755792
O O12 0.842239 0.841348 0.156763
O O13 0.000000 0.581613 0.000000
#
# Coordination Sequence:
#
# PCOD8112270 Si02
#       7
#     8   4   4   8   4   8   8
#     4  10  22  42  68 101 136 178 229 284 341 400
#     4  12  26  43  70 102 138 181 230 272 340 416
#     4  11  25  43  68  99 131 179 226 285 343 402
#     4  11  24  41  65 103 138 184 226 280 340 405
#     4  11  21  42  68 100 132 172 230 281 343 404
#     4  11  23  43  68  97 140 180 230 285 336 400
#     4  12  25  47  70  99 141 180 228 281 337 408
#
# _framework density 22.102523000000001
#
# number of rings (size 3 to 8) (size 9 to 14) (size 15 to 20)
#    0.000    0.909    3.636    3.273    1.273    1.818 
#    0.000    0.909    0.000    0.000    0.000    0.000 
#    0.000    0.000    0.000    0.000    0.000    0.000 
#
# Total GULP energy -272742.275889 kJ/mol
# GULP energy per Si atom -12397.376177 kJ/mol
# Density = 2.205222 g / cm^3
# Si number density = 22.102523 Si / 1000 Ang^3
#
#
#
# Elastic Constant Matrix: (Units=GPa)
#
#
# Indices 1 2 3 4 5 6 
#
# 1 105.3788 23.3419 42.6291 0.0003 -0.8847 0.0000
# 2 23.3419 139.3868 57.9520 0.0007 7.5969 0.0000
# 3 42.6291 57.9520 146.4485 0.0035 10.8213 0.0002
# 4 0.0003 0.0007 0.0035 94.9974 0.0006 2.2843
# 5 -0.8847 7.5969 10.8213 0.0006 24.6005 0.0000
# 6 0.0000 0.0000 0.0002 2.2843 0.0000 26.8684
#
#
#
# Elastic Compliance Matrix: (Units=1/GPa)
#
#
# Indices 1 2 3 4 5 6 
#
# 1 0.010886 -0.000660 -0.003051 0.000000 0.001937 0.000000
# 2 -0.000660 0.008661 -0.003138 0.000000 -0.001318 0.000000
# 3 -0.003051 -0.003138 0.009193 0.000000 -0.003185 0.000000
# 4 0.000000 0.000000 0.000000 0.010548 0.000000 -0.000897
# 5 0.001937 -0.001318 -0.003185 0.000000 0.042527 0.000000
# 6 0.000000 0.000000 0.000000 -0.000897 0.000000 0.037295
#
#
# Mechanical properties :
#
#
# Convention : Reuss Voigt Hill
#
# Bulk Modulus (GPa) = 66.47469 71.00669 68.74069
# Shear Modulus (GPa) = 36.27843 47.11265 41.69554
#
# Velocity S-wave (km/s) = 4.05578 4.62188 4.34805
# Velocity P-wave (km/s) = 7.21619 7.78962 7.50838
#
# Compressibility (1/GPa) = 0.01504332
#
# Stress axis : x y z
#
# Youngs Moduli (GPa) = 91.85948 115.45642 108.77411
#
# Poissons Ratio (x) = 0.07623 0.33184
# Poissons Ratio (y) = 0.06065 0.34131
# Poissons Ratio (z) = 0.28024 0.36228
#
# Static dielectric constant tensor:
#      x y z
#    x 3.919640 0.000000 0.038380 
#    y 0.000000 3.813620 0.000000 
#    z 0.038380 0.000000 4.182940 
# 
# 
# High freq. dielectric constant tensor:
#      x y z
#    x 1.864650 0.000000 0.004960 
#    y 0.000000 1.868400 0.000000 
#    z 0.004960 0.000000 1.885150 
# 
# From -- ./inp_files/259321.got.cif
#   From: 2010.06.25/outbox.cif.g09.slc.cpg/sg12_130_cif.got.tgz:259321.got - 2010.06.28 00:19:55.
