data_PCOD8112738
_publ_section_title
;
Structure prediction by ZEFSAII (Michael W. Deem and Ramdas Pophale) SiO2 
 PCOD8112738
Probable space group: C 2/M
;
_chemical_formula_sum "Si O2"
_cell_formula_units_Z 48
_cell_length_a 13.881381
_cell_length_b 14.416789
_cell_length_c 17.223891
_cell_angle_alpha 90.000000
_cell_angle_beta 139.422759
_cell_angle_gamma 90.000000
_cell_volume 2242.133520
_symmetry_space_group_name_H-M "C 2/M"
_symmetry_group_IT_number 12
_symmetry_cell_setting 'monoclinic'
loop_
_space_group_symop_operation_xyz
x,y,z
-x,y,-z
-x,-y,-z
x,-y,z
1/2+x,1/2+y,z
1/2-x,1/2+y,-z
1/2-x,1/2-y,-z
1/2+x,1/2-y,z
loop_
_atom_site_type_symbol
_atom_site_label
_atom_site_fract_x
_atom_site_fract_y
_atom_site_fract_z
Si Si1 0.332421 0.110966 0.257800
Si Si2 0.633809 0.178694 0.893849
Si Si3 0.073259 0.740709 0.466875
Si Si4 0.646981 0.896722 0.057658
Si Si5 0.032984 0.104675 0.707953
Si Si6 0.363387 0.310811 0.726820
O O1 0.312218 0.140591 0.156044
O O2 0.490167 0.148864 0.384198
O O3 0.202155 0.157196 0.230366
O O4 0.329390 0.000000 0.264708
O O5 0.468603 0.220822 0.794978
O O6 0.750000 0.250000 0.000000
O O7 0.636501 0.095887 0.957989
O O8 0.240877 0.714456 0.587326
O O9 0.000000 0.778015 0.500000
O O10 0.063697 0.827708 0.403825
O O11 0.800855 0.850868 0.182657
O O12 0.649816 0.000000 0.093731
O O13 0.500000 0.843637 0.000000
O O14 0.959706 0.105170 0.749028
O O15 0.033497 0.000000 0.675792
#
# Coordination Sequence:
#
# PCOD8112738 Si02
#       6
#     8   8   8   8   8   8
#     4  11  25  45  69 100 136 177 222 272 335 400
#     4  12  24  41  67  92 133 172 218 269 332 389
#     4  10  23  42  65  96 134 172 220 275 330 401
#     4  10  23  41  63  91 127 169 217 267 327 396
#     4  11  22  42  66  96 132 172 223 277 335 396
#     4  11  24  42  67  97 132 172 223 274 333 394
#
# _framework density 21.408180000000002
#
# number of rings (size 3 to 8) (size 9 to 14) (size 15 to 20)
#    0.000    1.167    3.333    1.500    7.000    4.000 
#    0.000    1.667    0.000    0.000    0.000    0.000 
#    0.000    0.000    0.000    0.000    0.000    0.000 
#
# Total GULP energy -297391.811233 kJ/mol
# GULP energy per Si atom -12391.325468 kJ/mol
# Density = 2.135945 g / cm^3
# Si number density = 21.408180 Si / 1000 Ang^3
#
#
#
# Elastic Constant Matrix: (Units=GPa)
#
#
# Indices 1 2 3 4 5 6 
#
# 1 139.8601 36.8334 58.4031 0.0000 -1.7929 0.0000
# 2 36.8334 92.7614 24.6558 0.0000 -2.4768 0.0000
# 3 58.4031 24.6558 100.2078 0.0000 6.2654 0.0000
# 4 0.0000 0.0000 0.0000 16.7222 0.0000 -4.4528
# 5 -1.7929 -2.4768 6.2654 0.0000 44.3450 0.0000
# 6 0.0000 0.0000 0.0000 -4.4528 0.0000 30.7768
#
#
#
# Elastic Compliance Matrix: (Units=1/GPa)
#
#
# Indices 1 2 3 4 5 6 
#
# 1 0.010044 -0.002556 -0.005288 0.000000 0.001011 0.000000
# 2 -0.002556 0.012234 -0.001571 0.000000 0.000802 0.000000
# 3 -0.005288 -0.001571 0.013587 0.000000 -0.002221 0.000000
# 4 0.000000 0.000000 0.000000 0.062197 0.000000 0.008999
# 5 0.001011 0.000802 -0.002221 0.000000 0.022950 0.000000
# 6 0.000000 0.000000 0.000000 0.008999 0.000000 0.033794
#
#
# Mechanical properties :
#
#
# Convention : Reuss Voigt Hill
#
# Bulk Modulus (GPa) = 58.70113 63.62375 61.16244
# Shear Modulus (GPa) = 27.88401 32.56462 30.22431
#
# Velocity S-wave (km/s) = 3.61292 3.90440 3.76148
# Velocity P-wave (km/s) = 6.69953 7.07882 6.89178
#
# Compressibility (1/GPa) = 0.01703545
#
# Stress axis : x y z
#
# Youngs Moduli (GPa) = 99.55809 81.73882 73.60081
#
# Poissons Ratio (x) = 0.20891 0.38923
# Poissons Ratio (y) = 0.25445 0.11561
# Poissons Ratio (z) = 0.52650 0.12839
#
# Static dielectric constant tensor:
#      x y z
#    x 4.306190 0.000000 0.005310 
#    y 0.000000 3.658800 0.000000 
#    z 0.005310 0.000000 4.165190 
# 
# 
# High freq. dielectric constant tensor:
#      x y z
#    x 1.859880 0.000000 0.004150 
#    y 0.000000 1.823600 0.000000 
#    z 0.004150 0.000000 1.845130 
# 
# From -- ./inp_files/270445.got.cif
#   From: 2010.06.25/outbox.cif.g09.slc.cpg/sg12_136_cif.got.tgz:270445.got - 2010.06.28 00:19:55.
