data_PCOD8112543
_publ_section_title
;
Structure prediction by ZEFSAII (Michael W. Deem and Ramdas Pophale) SiO2 
 PCOD8112543
Probable space group: C 2/M
;
_chemical_formula_sum "Si O2"
_cell_formula_units_Z 52
_cell_length_a 12.835703
_cell_length_b 20.933162
_cell_length_c 11.947476
_cell_angle_alpha 90.000000
_cell_angle_beta 133.277302
_cell_angle_gamma 90.000000
_cell_volume 2337.160410
_symmetry_space_group_name_H-M "C 2/M"
_symmetry_group_IT_number 12
_symmetry_cell_setting 'monoclinic'
loop_
_space_group_symop_operation_xyz
x,y,z
-x,y,-z
-x,-y,-z
x,-y,z
1/2+x,1/2+y,z
1/2-x,1/2+y,-z
1/2-x,1/2-y,-z
1/2+x,1/2-y,z
loop_
_atom_site_type_symbol
_atom_site_label
_atom_site_fract_x
_atom_site_fract_y
_atom_site_fract_z
Si Si1 0.208542 0.431086 0.194080
Si Si2 0.507068 0.319139 0.131313
Si Si3 0.199525 0.865259 0.457513
Si Si4 0.167343 0.500000 0.758089
Si Si5 0.225379 0.389350 0.959272
Si Si6 0.828364 0.500000 0.502683
Si Si7 0.000000 0.892687 0.500000
Si Si8 0.442313 0.823631 0.771643
O O1 0.142132 0.500000 0.180418
O O2 0.375077 0.433639 0.350935
O O3 0.121409 0.373153 0.184663
O O4 0.195707 0.426490 0.051634
O O5 0.643402 0.350844 0.292467
O O6 0.529812 0.243570 0.149468
O O7 0.500000 0.343672 0.000000
O O8 0.360834 0.343231 0.079603
O O9 0.254929 0.938464 0.505834
O O10 0.073434 0.851205 0.454924
O O11 0.331380 0.818491 0.586130
O O12 0.243026 0.438694 0.869993
O O13 0.200701 0.500000 0.651233
O O14 0.996748 0.500000 0.654379
O O15 0.091102 0.345578 0.829002
#
# Coordination Sequence:
#
# PCOD8112543 Si02
#       8
#     8   8   8   4   8   4   4   8
#     4  11  23  39  69 104 139 175 231 296 356 408
#     4  12  26  47  67  99 146 188 237 285 343 423
#     4  11  24  45  73 101 140 184 231 295 353 418
#     4  11  24  43  67 105 133 184 235 282 355 428
#     4  12  23  43  69 102 137 182 225 297 351 410
#     4  11  24  44  72  99 142 179 234 293 352 422
#     4  10  23  38  66 104 138 172 225 288 360 409
#     4  11  26  43  70 101 136 188 237 285 354 416
#
# _framework density 22.249222
#
# number of rings (size 3 to 8) (size 9 to 14) (size 15 to 20)
#    0.000    0.769    3.846    3.462    6.462    1.231 
#    0.000    1.538    0.000    0.000    0.000    0.000 
#    0.000    0.000    0.000    0.000    0.000    0.000 
#
# Total GULP energy -322375.825728 kJ/mol
# GULP energy per Si atom -12399.070220 kJ/mol
# Density = 2.219858 g / cm^3
# Si number density = 22.249222 Si / 1000 Ang^3
#
#
#
# Elastic Constant Matrix: (Units=GPa)
#
#
# Indices 1 2 3 4 5 6 
#
# 1 55.6464 23.8617 33.0477 0.0000 12.9546 0.0000
# 2 23.8617 111.8305 32.3282 0.0000 14.2633 0.0000
# 3 33.0477 32.3282 150.5018 0.0000 2.4483 0.0000
# 4 0.0000 0.0000 0.0000 26.7838 0.0000 -2.7833
# 5 12.9546 14.2633 2.4483 0.0000 37.8291 0.0000
# 6 0.0000 0.0000 0.0000 -2.7833 0.0000 21.4512
#
#
#
# Elastic Compliance Matrix: (Units=1/GPa)
#
#
# Indices 1 2 3 4 5 6 
#
# 1 0.023360 -0.002864 -0.004406 0.000000 -0.006635 0.000000
# 2 -0.002864 0.010362 -0.001551 0.000000 -0.002826 0.000000
# 3 -0.004406 -0.001551 0.007919 0.000000 0.001581 0.000000
# 4 0.000000 0.000000 0.000000 0.037846 0.000000 0.004911
# 5 -0.006635 -0.002826 0.001581 0.000000 0.029670 0.000000
# 6 0.000000 0.000000 0.000000 0.004911 0.000000 0.047254
#
#
# Mechanical properties :
#
#
# Convention : Reuss Voigt Hill
#
# Bulk Modulus (GPa) = 41.66934 55.16154 48.41544
# Shear Modulus (GPa) = 27.46422 32.46223 29.96323
#
# Velocity S-wave (km/s) = 3.51720 3.82387 3.67373
# Velocity P-wave (km/s) = 5.93830 6.65900 6.30895
#
# Compressibility (1/GPa) = 0.02399846
#
# Stress axis : x y z
#
# Youngs Moduli (GPa) = 42.80767 96.50624 126.27235
#
# Poissons Ratio (x) = 0.27644 0.55639
# Poissons Ratio (y) = 0.12262 0.19583
# Poissons Ratio (z) = 0.18862 0.14966
#
# Static dielectric constant tensor:
#      x y z
#    x 3.842890 0.000000 0.117340 
#    y 0.000000 3.794050 0.000000 
#    z 0.117340 0.000000 4.438050 
# 
# 
# High freq. dielectric constant tensor:
#      x y z
#    x 1.863580 0.000000 0.002080 
#    y 0.000000 1.864370 0.000000 
#    z 0.002080 0.000000 1.907700 
# 
# From -- ./inp_files/136054.got.cif
#   From: 2010.06.25/outbox.cif.g09.slc.cpg/sg12_69_cif.got.tgz:136054.got - 2010.06.28 00:19:55.
