data_PCOD8112224
_publ_section_title
;
Structure prediction by ZEFSAII (Michael W. Deem and Ramdas Pophale) SiO2 
 PCOD8112224
Probable space group: C 2/M
;
_chemical_formula_sum "Si O2"
_cell_formula_units_Z 48
_cell_length_a 27.095884
_cell_length_b 8.391215
_cell_length_c 16.759313
_cell_angle_alpha 90.000000
_cell_angle_beta 36.453474
_cell_angle_gamma 90.000000
_cell_volume 2264.096762
_symmetry_space_group_name_H-M "C 2/M"
_symmetry_group_IT_number 12
_symmetry_cell_setting 'monoclinic'
loop_
_space_group_symop_operation_xyz
x,y,z
-x,y,-z
-x,-y,-z
x,-y,z
1/2+x,1/2+y,z
1/2-x,1/2+y,-z
1/2-x,1/2-y,-z
1/2+x,1/2-y,z
loop_
_atom_site_type_symbol
_atom_site_label
_atom_site_fract_x
_atom_site_fract_y
_atom_site_fract_z
Si Si1 0.593614 0.684467 0.897842
Si Si2 0.623894 0.182835 0.478048
Si Si3 0.847265 0.683792 0.016322
Si Si4 0.451629 0.315817 0.741496
Si Si5 0.770638 0.684939 0.386764
Si Si6 0.657664 0.312509 0.265944
O O1 0.600618 0.500000 0.912966
O O2 0.649144 0.719644 0.748249
O O3 0.500000 0.733229 0.000000
O O4 0.625954 0.793072 0.927529
O O5 0.535433 0.213934 0.633854
O O6 0.693442 0.292199 0.427888
O O7 0.617831 0.222151 0.392511
O O8 0.649027 0.000000 0.458384
O O9 0.857313 0.500000 0.979053
O O10 0.904307 0.791089 0.885888
O O11 0.752491 0.740531 0.129450
O O12 0.475372 0.500000 0.700934
O O13 0.393174 0.258224 0.745418
O O14 0.793037 0.500000 0.362455
O O15 0.750000 0.750000 0.500000
O O16 0.651034 0.500000 0.290409
#
# Coordination Sequence:
#
# PCOD8112224 Si02
#       6
#     8   8   8   8   8   8
#     4  11  25  45  69  98 132 170 214 262 320 385
#     4  12  25  42  66  96 131 171 218 268 323 385
#     4  11  23  41  66  96 132 171 218 268 322 384
#     4  11  24  41  64  94 133 175 219 268 322 382
#     4  12  26  46  71  98 131 168 214 266 323 384
#     4  10  22  42  66  94 129 173 217 268 327 382
#
# _framework density 21.200507000000002
#
# number of rings (size 3 to 8) (size 9 to 14) (size 15 to 20)
#    0.000    0.833    1.667    5.500    2.333    5.333 
#    0.000    0.000    0.000    0.000    0.000    0.000 
#    0.000    0.000    0.000    0.000    0.000    0.000 
#
# Total GULP energy -297844.251705 kJ/mol
# GULP energy per Si atom -12410.177154 kJ/mol
# Density = 2.115225 g / cm^3
# Si number density = 21.200507 Si / 1000 Ang^3
#
#
#
# Elastic Constant Matrix: (Units=GPa)
#
#
# Indices 1 2 3 4 5 6 
#
# 1 92.5548 17.0515 42.5310 0.0030 -9.4133 -0.0016
# 2 17.0515 56.6047 12.8095 0.0125 -5.9615 -0.0044
# 3 42.5310 12.8095 142.4531 0.0006 -6.5896 0.0012
# 4 0.0030 0.0125 0.0006 36.0756 0.0014 -0.2655
# 5 -9.4133 -5.9615 -6.5896 0.0014 44.9743 -0.0020
# 6 -0.0016 -0.0044 0.0012 -0.2655 -0.0020 29.8580
#
#
#
# Elastic Compliance Matrix: (Units=1/GPa)
#
#
# Indices 1 2 3 4 5 6 
#
# 1 0.013186 -0.002967 -0.003585 0.000000 0.001841 0.000001
# 2 -0.002967 0.018913 -0.000733 -0.000006 0.001779 0.000003
# 3 -0.003585 -0.000733 0.008172 0.000000 0.000350 -0.000001
# 4 0.000000 -0.000006 0.000000 0.027721 -0.000002 0.000246
# 5 0.001841 0.001779 0.000350 -0.000002 0.022907 0.000002
# 6 0.000001 0.000003 -0.000001 0.000246 0.000002 0.033494
#
#
# Mechanical properties :
#
#
# Convention : Reuss Voigt Hill
#
# Bulk Modulus (GPa) = 38.90669 48.48851 43.69760
# Shear Modulus (GPa) = 33.89151 36.79631 35.34391
#
# Velocity S-wave (km/s) = 4.00261 4.17061 4.08747
# Velocity P-wave (km/s) = 6.30498 6.79066 6.55232
#
# Compressibility (1/GPa) = 0.02570252
#
# Stress axis : x y z
#
# Youngs Moduli (GPa) = 75.84076 52.87311 122.36635
#
# Poissons Ratio (x) = 0.15687 0.43865
# Poissons Ratio (y) = 0.22501 0.08965
# Poissons Ratio (z) = 0.27187 0.03874
#
# Static dielectric constant tensor:
#      x y z
#    x 3.735760 -0.000040 -0.439890 
#    y -0.000040 3.758870 -0.000050 
#    z -0.439890 -0.000050 2.678200 
# 
# 
# High freq. dielectric constant tensor:
#      x y z
#    x 1.836490 0.000000 -0.002620 
#    y 0.000000 1.833760 0.000000 
#    z -0.002620 0.000000 1.846670 
# 
# From -- ./inp_files/244621.got.cif
#   From: 2010.06.25/outbox.cif.g09.slc.cpg/sg12_123_cif.got.tgz:244621.got - 2010.06.28 00:19:55.
