data_PCOD8112933
_publ_section_title
;
Structure prediction by ZEFSAII (Michael W. Deem and Ramdas Pophale) SiO2 
 PCOD8112933
Probable space group: C 2/M
;
_chemical_formula_sum "Si O2"
_cell_formula_units_Z 32
_cell_length_a 18.910330
_cell_length_b 14.552665
_cell_length_c 11.834315
_cell_angle_alpha 90.000000
_cell_angle_beta 26.495054
_cell_angle_gamma 90.000000
_cell_volume 1452.904272
_symmetry_space_group_name_H-M "C 2/M"
_symmetry_group_IT_number 12
_symmetry_cell_setting 'monoclinic'
loop_
_space_group_symop_operation_xyz
x,y,z
-x,y,-z
-x,-y,-z
x,-y,z
1/2+x,1/2+y,z
1/2-x,1/2+y,-z
1/2-x,1/2-y,-z
1/2+x,1/2-y,z
loop_
_atom_site_type_symbol
_atom_site_label
_atom_site_fract_x
_atom_site_fract_y
_atom_site_fract_z
Si Si1 0.835656 0.607857 0.673894
Si Si2 0.367046 0.394770 0.835407
Si Si3 0.678252 0.266526 0.727298
Si Si4 0.725608 0.605427 0.272300
O O1 0.822237 0.500000 0.663369
O O2 0.807730 0.665515 0.599693
O O3 0.000000 0.631264 0.500000
O O4 0.702941 0.646311 0.949947
O O5 0.314657 0.500000 0.903760
O O6 0.287995 0.352886 0.835103
O O7 0.553902 0.385262 0.574340
O O8 0.750000 0.250000 0.500000
O O9 0.660677 0.168942 0.816677
O O10 0.500000 0.308945 0.000000
O O11 0.785563 0.500000 0.189861
#
# Coordination Sequence:
#
# PCOD8112933 Si02
#       4
#     8   8   8   8
#     4  10  23  42  67  93 122 165 219 269 309 366
#     4   8  16  35  64  94 115 154 212 262 314 357
#     4  12  28  43  60  96 132 173 211 251 326 386
#     4   9  19  37  63  92 125 161 204 259 316 375
#
# _framework density 22.024851999999999
#
# number of rings (size 3 to 8) (size 9 to 14) (size 15 to 20)
#    0.000    2.250    0.000    3.000    7.000    3.000 
#    0.000    0.000    0.000    0.000    0.000    0.000 
#    0.000    0.000    0.000    0.000    0.000    0.000 
#
# Total GULP energy -198260.716702 kJ/mol
# GULP energy per Si atom -12391.294794 kJ/mol
# Density = 2.197472 g / cm^3
# Si number density = 22.024852 Si / 1000 Ang^3
#
#
#
# Elastic Constant Matrix: (Units=GPa)
#
#
# Indices 1 2 3 4 5 6 
#
# 1 126.6478 50.9089 45.5947 -0.0002 9.0165 0.0001
# 2 50.9089 86.0726 10.9446 -0.0001 -7.1216 0.0001
# 3 45.5947 10.9446 78.8628 -0.0001 16.1251 0.0001
# 4 -0.0002 -0.0001 -0.0001 20.0862 0.0001 0.9520
# 5 9.0165 -7.1216 16.1251 0.0001 37.5643 -0.0001
# 6 0.0001 0.0001 0.0001 0.9520 -0.0001 36.6692
#
#
#
# Elastic Compliance Matrix: (Units=1/GPa)
#
#
# Indices 1 2 3 4 5 6 
#
# 1 0.013134 -0.007128 -0.006230 0.000000 -0.001829 0.000000
# 2 -0.007128 0.016063 0.001007 0.000000 0.004324 0.000000
# 3 -0.006230 0.001007 0.017318 0.000000 -0.005747 0.000000
# 4 0.000000 0.000000 0.000000 0.049847 0.000000 -0.001294
# 5 -0.001829 0.004324 -0.005747 0.000000 0.030347 0.000000
# 6 0.000000 0.000000 0.000000 -0.001294 0.000000 0.027304
#
#
# Mechanical properties :
#
#
# Convention : Reuss Voigt Hill
#
# Bulk Modulus (GPa) = 45.84117 56.27550 51.05834
# Shear Modulus (GPa) = 26.88370 31.13960 29.01165
#
# Velocity S-wave (km/s) = 3.49751 3.76418 3.63329
# Velocity P-wave (km/s) = 6.09661 6.67072 6.39012
#
# Compressibility (1/GPa) = 0.02181445
#
# Stress axis : x y z
#
# Youngs Moduli (GPa) = 76.13674 62.25303 57.74428
#
# Poissons Ratio (x) = 0.44371 0.35977
# Poissons Ratio (y) = 0.54267 -0.05818
# Poissons Ratio (z) = 0.47436 -0.06272
#
# Static dielectric constant tensor:
#      x y z
#    x 4.003930 0.000000 0.373700 
#    y 0.000000 3.827680 0.000000 
#    z 0.373700 0.000000 4.416700 
# 
# 
# High freq. dielectric constant tensor:
#      x y z
#    x 1.863430 0.000000 0.010580 
#    y 0.000000 1.858010 0.000000 
#    z 0.010580 0.000000 1.863350 
# 
# From -- ./inp_files/45222.got.cif
#   From: 2010.06.25/outbox.cif.g09.slc.cpg/sg12_23_cif.got.tgz:45222.got - 2010.06.28 00:19:55.
