data_PCOD8112554
_publ_section_title
;
Structure prediction by ZEFSAII (Michael W. Deem and Ramdas Pophale) SiO2 
 PCOD8112554
Probable space group: C 2/M
;
_chemical_formula_sum "Si O2"
_cell_formula_units_Z 40
_cell_length_a 25.224292
_cell_length_b 8.875077
_cell_length_c 9.172048
_cell_angle_alpha 90.000000
_cell_angle_beta 89.550720
_cell_angle_gamma 90.000000
_cell_volume 2053.260639
_symmetry_space_group_name_H-M "C 2/M"
_symmetry_group_IT_number 12
_symmetry_cell_setting 'monoclinic'
loop_
_space_group_symop_operation_xyz
x,y,z
-x,y,-z
-x,-y,-z
x,-y,z
1/2+x,1/2+y,z
1/2-x,1/2+y,-z
1/2-x,1/2-y,-z
1/2+x,1/2-y,z
loop_
_atom_site_type_symbol
_atom_site_label
_atom_site_fract_x
_atom_site_fract_y
_atom_site_fract_z
Si Si1 0.744881 0.320980 0.657586
Si Si2 0.058082 0.175017 0.673589
Si Si3 0.150162 0.322327 0.830885
Si Si4 0.936457 0.174021 0.660386
Si Si5 0.655166 0.177578 0.161439
O O1 0.744846 0.500000 0.644175
O O2 0.750000 0.250000 0.500000
O O3 0.690460 0.267384 0.728924
O O4 0.793627 0.260317 0.754204
O O5 0.091073 0.280298 0.781307
O O6 0.072858 0.217796 0.507540
O O7 0.996595 0.209176 0.704978
O O8 0.070706 0.000000 0.702698
O O9 0.159596 0.500000 0.815260
O O10 0.157868 0.264632 0.995644
O O11 0.898646 0.269813 0.762986
O O12 0.923217 0.000000 0.684771
O O13 0.654980 0.000000 0.163999
#
# Coordination Sequence:
#
# PCOD8112554 Si02
#       5
#     8   8   8   8   8
#     4  11  23  40  61  84 110 144 184 228 275 328
#     4   9  19  37  58  83 112 145 186 231 275 324
#     4  11  23  38  56  82 114 148 184 226 274 327
#     4   9  19  36  59  83 110 145 187 230 274 325
#     4  10  23  39  55  80 115 148 182 225 277 330
#
# _framework density 19.481210000000001
#
# number of rings (size 3 to 8) (size 9 to 14) (size 15 to 20)
#    0.000    2.000    0.000    4.200    0.000    8.800 
#    0.000    6.000    0.000    0.000    0.000    0.000 
#    0.000    0.000    0.000    0.000    0.000    0.000 
#
# Total GULP energy -248079.298822 kJ/mol
# GULP energy per Si atom -12403.964941 kJ/mol
# Density = 1.943687 g / cm^3
# Si number density = 19.481210 Si / 1000 Ang^3
#
#
#
# Elastic Constant Matrix: (Units=GPa)
#
#
# Indices 1 2 3 4 5 6 
#
# 1 98.5608 24.4311 50.3948 0.0000 16.6275 0.0000
# 2 24.4311 38.0464 32.7994 0.0000 9.5534 0.0000
# 3 50.3948 32.7994 115.8366 0.0000 25.6608 0.0000
# 4 0.0000 0.0000 0.0000 34.0614 0.0000 -2.8875
# 5 16.6275 9.5534 25.6608 0.0000 31.5665 0.0000
# 6 0.0000 0.0000 0.0000 -2.8875 0.0000 38.3627
#
#
#
# Elastic Compliance Matrix: (Units=1/GPa)
#
#
# Indices 1 2 3 4 5 6 
#
# 1 0.013850 -0.004694 -0.004140 0.000000 -0.002509 0.000000
# 2 -0.004694 0.036609 -0.007826 0.000000 -0.002245 0.000000
# 3 -0.004140 -0.007826 0.014199 0.000000 -0.006993 0.000000
# 4 0.000000 0.000000 0.000000 0.029547 0.000000 0.002224
# 5 -0.002509 -0.002245 -0.006993 0.000000 0.039365 0.000000
# 6 0.000000 0.000000 0.000000 0.002224 0.000000 0.026234
#
#
# Mechanical properties :
#
#
# Convention : Reuss Voigt Hill
#
# Bulk Modulus (GPa) = 31.91218 51.96602 41.93910
# Shear Modulus (GPa) = 24.56133 30.45269 27.50701
#
# Velocity S-wave (km/s) = 3.55458 3.95800 3.76170
# Velocity P-wave (km/s) = 5.76744 6.90076 6.35940
#
# Compressibility (1/GPa) = 0.03133600
#
# Stress axis : x y z
#
# Youngs Moduli (GPa) = 72.20270 27.31592 70.42540
#
# Poissons Ratio (x) = 0.12822 0.29159
# Poissons Ratio (y) = 0.33893 0.55118
# Poissons Ratio (z) = 0.29895 0.21378
#
# Static dielectric constant tensor:
#      x y z
#    x 3.650500 0.000000 0.163980 
#    y 0.000000 3.409930 0.000000 
#    z 0.163980 0.000000 3.781490 
# 
# 
# High freq. dielectric constant tensor:
#      x y z
#    x 1.772360 0.000000 0.003880 
#    y 0.000000 1.752550 0.000000 
#    z 0.003880 0.000000 1.766220 
# 
# From -- ./inp_files/92773.got.cif
#   From: 2010.06.25/outbox.cif.g09.slc.cpg/sg12_47_cif.got.tgz:92773.got - 2010.06.28 00:19:55.
