data_PCOD8112839
_publ_section_title
;
Structure prediction by ZEFSAII (Michael W. Deem and Ramdas Pophale) SiO2 
 PCOD8112839
Probable space group: C 2/M
;
_chemical_formula_sum "Si O2"
_cell_formula_units_Z 56
_cell_length_a 14.484278
_cell_length_b 21.256370
_cell_length_c 9.006691
_cell_angle_alpha 90.000000
_cell_angle_beta 70.964131
_cell_angle_gamma 90.000000
_cell_volume 2621.365442
_symmetry_space_group_name_H-M "C 2/M"
_symmetry_group_IT_number 12
_symmetry_cell_setting 'monoclinic'
loop_
_space_group_symop_operation_xyz
x,y,z
-x,y,-z
-x,-y,-z
x,-y,z
1/2+x,1/2+y,z
1/2-x,1/2+y,-z
1/2-x,1/2-y,-z
1/2+x,1/2-y,z
loop_
_atom_site_type_symbol
_atom_site_label
_atom_site_fract_x
_atom_site_fract_y
_atom_site_fract_z
Si Si1 0.593963 0.573685 0.866934
Si Si2 0.393335 0.105955 0.582184
Si Si3 0.273581 0.932194 0.398771
Si Si4 0.859075 0.728133 0.411647
Si Si5 0.293761 0.924715 0.921691
Si Si6 0.606247 0.139724 0.869233
Si Si7 0.589224 0.362346 0.553468
O O1 0.584940 0.500000 0.851592
O O2 0.687262 0.592093 0.916130
O O3 0.596810 0.600976 0.702007
O O4 0.500000 0.601663 0.000000
O O5 0.500000 0.077234 0.500000
O O6 0.306644 0.064408 0.553849
O O7 0.388728 0.176459 0.517779
O O8 0.375323 0.101533 0.766479
O O9 0.375846 0.914014 0.264534
O O10 0.190631 0.879250 0.414068
O O11 0.233738 0.000000 0.367817
O O12 0.750000 0.750000 0.500000
O O13 0.875125 0.705099 0.231057
O O14 0.926237 0.788842 0.404720
O O15 0.305763 0.000000 0.948506
O O16 0.310490 0.880015 0.055660
O O17 0.500000 0.137647 0.000000
O O18 0.500000 0.386813 0.500000
#
# Coordination Sequence:
#
# PCOD8112839 Si02
#       7
#     8   8   8   8   8   8   8
#     4  10  23  42  63  94 136 174 221 284 343 399
#     4  11  22  39  66  97 133 178 222 274 338 404
#     4  11  23  42  67  99 138 180 231 283 337 407
#     4  11  22  46  68  92 136 179 229 287 333 402
#     4  11  22  40  64  97 140 176 216 276 341 404
#     4  11  25  42  68 101 139 174 223 281 340 405
#     4  12  25  43  71  98 131 179 239 287 340 406
#
# _framework density 21.362912999999999
#
# number of rings (size 3 to 8) (size 9 to 14) (size 15 to 20)
#    0.000    1.000    4.286    3.429    2.000    5.143 
#    0.000    2.857    0.000    0.000    0.000    0.000 
#    0.000    0.000    0.000    0.000    0.000    0.000 
#
# Total GULP energy -346942.487135 kJ/mol
# GULP energy per Si atom -12390.803112 kJ/mol
# Density = 2.131429 g / cm^3
# Si number density = 21.362913 Si / 1000 Ang^3
#
#
#
# Elastic Constant Matrix: (Units=GPa)
#
#
# Indices 1 2 3 4 5 6 
#
# 1 120.4742 48.7454 38.7835 0.0000 -3.0492 0.0000
# 2 48.7454 100.3430 41.5011 0.0000 2.1846 0.0000
# 3 38.7835 41.5011 103.2910 0.0000 -8.5145 0.0000
# 4 0.0000 0.0000 0.0000 30.9655 0.0000 0.2484
# 5 -3.0492 2.1846 -8.5145 0.0000 37.4144 0.0000
# 6 0.0000 0.0000 0.0000 0.2484 0.0000 11.4362
#
#
#
# Elastic Compliance Matrix: (Units=1/GPa)
#
#
# Indices 1 2 3 4 5 6 
#
# 1 0.010793 -0.004319 -0.002266 0.000000 0.000616 0.000000
# 2 -0.004319 0.013804 -0.004097 0.000000 -0.002090 0.000000
# 3 -0.002266 -0.004097 0.012416 0.000000 0.002880 0.000000
# 4 0.000000 0.000000 0.000000 0.032300 0.000000 -0.000702
# 5 0.000616 -0.002090 0.002880 0.000000 0.027555 0.000000
# 6 0.000000 0.000000 0.000000 -0.000702 0.000000 0.087457
#
#
# Mechanical properties :
#
#
# Convention : Reuss Voigt Hill
#
# Bulk Modulus (GPa) = 63.90547 64.68537 64.29542
# Shear Modulus (GPa) = 23.70718 28.96842 26.33780
#
# Velocity S-wave (km/s) = 3.33488 3.68641 3.51504
# Velocity P-wave (km/s) = 6.69386 6.96164 6.82906
#
# Compressibility (1/GPa) = 0.01564811
#
# Stress axis : x y z
#
# Youngs Moduli (GPa) = 92.64916 72.44269 80.54228
#
# Poissons Ratio (x) = 0.31290 0.18254
# Poissons Ratio (y) = 0.40018 0.32997
# Poissons Ratio (z) = 0.20998 0.29678
#
# Static dielectric constant tensor:
#      x y z
#    x 3.984010 0.000000 -0.058520 
#    y 0.000000 3.978950 0.000000 
#    z -0.058520 0.000000 4.068510 
# 
# 
# High freq. dielectric constant tensor:
#      x y z
#    x 1.843850 0.000000 -0.002760 
#    y 0.000000 1.827510 0.000000 
#    z -0.002760 0.000000 1.847110 
# 
# From -- ./inp_files/65321.got.cif
#   From: 2010.06.25/outbox.cif.g09.slc.cpg/sg12_33_cif.got.tgz:65321.got - 2010.06.28 00:19:55.
