data_PCOD8112126
_publ_section_title
;
Structure prediction by ZEFSAII (Michael W. Deem and Ramdas Pophale) SiO2 
 PCOD8112126
Probable space group: C 2/M
;
_chemical_formula_sum "Si O2"
_cell_formula_units_Z 48
_cell_length_a 11.775917
_cell_length_b 21.439513
_cell_length_c 13.934270
_cell_angle_alpha 90.000000
_cell_angle_beta 41.510056
_cell_angle_gamma 90.000000
_cell_volume 2331.549202
_symmetry_space_group_name_H-M "C 2/M"
_symmetry_group_IT_number 12
_symmetry_cell_setting 'monoclinic'
loop_
_space_group_symop_operation_xyz
x,y,z
-x,y,-z
-x,-y,-z
x,-y,z
1/2+x,1/2+y,z
1/2-x,1/2+y,-z
1/2-x,1/2-y,-z
1/2+x,1/2-y,z
loop_
_atom_site_type_symbol
_atom_site_label
_atom_site_fract_x
_atom_site_fract_y
_atom_site_fract_z
Si Si1 0.178885 0.624559 0.575834
Si Si2 0.412148 0.215041 0.656190
Si Si3 0.548402 0.658777 0.270235
Si Si4 0.342819 0.500000 0.171203
Si Si5 0.818387 0.069831 0.667277
Si Si6 0.919399 0.134067 0.155975
Si Si7 0.467034 0.000000 0.408853
O O1 0.350797 0.655249 0.426702
O O2 0.190683 0.611039 0.682413
O O3 0.025158 0.671585 0.653304
O O4 0.146054 0.559319 0.544832
O O5 0.500000 0.232879 0.500000
O O6 0.371398 0.277152 0.741681
O O7 0.238556 0.180591 0.739283
O O8 0.660612 0.602319 0.242768
O O9 0.557999 0.655136 0.148327
O O10 0.357317 0.563839 0.223414
O O11 0.155021 0.500000 0.238262
O O12 0.500000 0.500000 0.000000
O O13 0.000000 0.066891 0.500000
O O14 0.744992 0.000000 0.728627
O O15 0.000000 0.136113 0.000000
O O16 0.500000 0.000000 0.500000
#
# Coordination Sequence:
#
# PCOD8112126 Si02
#       7
#     8   8   8   4   8   8   4
#     4  11  20  35  58  94 126 155 203 258 312 365
#     4  12  23  40  64  93 125 162 208 256 314 368
#     4  11  24  37  63  87 128 166 203 254 314 377
#     4  10  22  42  61  89 123 161 208 256 308 358
#     4   9  19  34  53  87 124 159 196 250 314 369
#     4  11  25  43  64  92 123 164 212 260 311 371
#     4  12  20  32  60  99 125 157 204 263 313 359
#
# _framework density 20.587171000000001
#
# number of rings (size 3 to 8) (size 9 to 14) (size 15 to 20)
#    0.000    1.167    4.167    3.500    4.667    0.667 
#    0.000    0.000    0.000    0.000    0.000    3.500 
#    0.000    0.000    0.000    0.000    0.000    0.000 
#
# Total GULP energy -297591.616851 kJ/mol
# GULP energy per Si atom -12399.650702 kJ/mol
# Density = 2.054031 g / cm^3
# Si number density = 20.587171 Si / 1000 Ang^3
#
#
#
# Elastic Constant Matrix: (Units=GPa)
#
#
# Indices 1 2 3 4 5 6 
#
# 1 151.7660 46.3327 22.7747 -0.0003 33.7041 -0.0009
# 2 46.3327 129.4343 11.2516 -0.0001 18.7116 -0.0009
# 3 22.7747 11.2516 45.8335 0.0002 15.5435 0.0002
# 4 -0.0003 -0.0001 0.0002 2.4694 0.0002 -10.8560
# 5 33.7041 18.7116 15.5435 0.0002 29.8573 0.0002
# 6 -0.0009 -0.0009 0.0002 -10.8560 0.0002 -9.7027
#
#
#
# Elastic Compliance Matrix: (Units=1/GPa)
#
#
# Indices 1 2 3 4 5 6 
#
# 1 0.009287 -0.001973 -0.001208 0.000000 -0.008618 0.000000
# 2 -0.001973 0.008919 -0.000084 0.000000 -0.003319 0.000000
# 3 -0.001208 -0.000084 0.026667 0.000000 -0.012467 0.000000
# 4 0.000000 0.000000 0.000000 0.068419 0.000001 -0.076552
# 5 -0.008618 -0.003319 -0.012467 0.000001 0.051791 0.000001
# 6 0.000000 0.000000 0.000000 -0.076552 0.000001 -0.017413
#
#
# Mechanical properties :
#
#
# Convention : Reuss Voigt Hill
#
# Bulk Modulus (GPa) = 26.08016 54.19463 40.13740
# Shear Modulus (GPa) = 29.94383 20.96980 25.45681
#
# Velocity S-wave (km/s) = 3.81791 3.19499 3.52026
# Velocity P-wave (km/s) = 5.66842 6.32394 6.00513
#
# Compressibility (1/GPa) = 0.03834332
#
# Stress axis : x y z
#
# Youngs Moduli (GPa) = 107.68213 112.11563 37.50019
#
# Poissons Ratio (x) = 0.22126 0.04528
# Poissons Ratio (y) = 0.21251 0.00313
# Poissons Ratio (z) = 0.13003 0.00937
#
# Static dielectric constant tensor:
#      x y z
#    x 4.212130 0.000000 -0.022550 
#    y 0.000000 3.958840 0.000000 
#    z -0.022550 0.000000 3.534420 
# 
# 
# High freq. dielectric constant tensor:
#      x y z
#    x 1.821190 0.000000 0.002440 
#    y 0.000000 1.824720 0.000000 
#    z 0.002440 0.000000 1.749830 
# 
# From -- ./inp_files/207962.got.cif
#   From: 2010.06.25/outbox.cif.g09.slc.cpg/sg12_104_cif.got.tgz:207962.got - 2010.06.28 00:19:55.
