data_PCOD8112265
_publ_section_title
;
Structure prediction by ZEFSAII (Michael W. Deem and Ramdas Pophale) SiO2 
 PCOD8112265
Probable space group: C 2/M
;
_chemical_formula_sum "Si O2"
_cell_formula_units_Z 44
_cell_length_a 15.910828
_cell_length_b 15.269385
_cell_length_c 19.373750
_cell_angle_alpha 90.000000
_cell_angle_beta 154.335716
_cell_angle_gamma 90.000000
_cell_volume 2038.513056
_symmetry_space_group_name_H-M "C 2/M"
_symmetry_group_IT_number 12
_symmetry_cell_setting 'monoclinic'
loop_
_space_group_symop_operation_xyz
x,y,z
-x,y,-z
-x,-y,-z
x,-y,z
1/2+x,1/2+y,z
1/2-x,1/2+y,-z
1/2-x,1/2-y,-z
1/2+x,1/2-y,z
loop_
_atom_site_type_symbol
_atom_site_label
_atom_site_fract_x
_atom_site_fract_y
_atom_site_fract_z
Si Si1 0.924937 0.096331 0.520303
Si Si2 0.323894 0.500000 0.963816
Si Si3 0.739102 0.000000 0.751339
Si Si4 0.334688 0.656075 0.077332
Si Si5 0.795731 0.398626 0.874128
Si Si6 0.734883 0.739175 0.407264
Si Si7 0.000000 0.642912 0.500000
O O1 0.733740 0.158841 0.381052
O O2 0.000000 0.083777 0.500000
O O3 0.102920 0.140929 0.695321
O O4 0.866515 0.000000 0.506846
O O5 0.534323 0.500000 0.088364
O O6 0.296034 0.588945 0.986648
O O7 0.182351 0.500000 0.791516
O O8 0.664396 0.085519 0.657355
O O9 0.222863 0.614201 0.058486
O O10 0.560569 0.674288 0.258933
O O11 0.250000 0.750000 0.000000
O O12 0.800819 0.500000 0.857150
O O13 0.000000 0.354900 0.000000
O O14 0.750000 0.750000 0.500000
O O15 0.919901 0.700260 0.504165
#
# Coordination Sequence:
#
# PCOD8112265 Si02
#       7
#     8   4   4   8   8   8   4
#     4  10  22  42  67  97 133 176 229 286 345 408
#     4  11  24  50  71  98 144 181 239 290 345 423
#     4  10  24  46  76 102 133 190 232 283 353 410
#     4  12  27  45  68 103 140 182 232 288 348 416
#     4  10  22  43  69  94 133 185 226 280 350 410
#     4  12  25  44  70 103 139 181 234 286 349 415
#     4  11  24  46  75 104 140 180 237 290 348 419
#
# _framework density 21.58436
#
# number of rings (size 3 to 8) (size 9 to 14) (size 15 to 20)
#    0.000    1.091    5.455    0.000    5.091    0.000 
#    8.182    0.000    0.000    0.000    0.000    0.000 
#    0.000    0.000    0.000    0.000    0.000    0.000 
#
# Total GULP energy -272590.154664 kJ/mol
# GULP energy per Si atom -12390.461576 kJ/mol
# Density = 2.153523 g / cm^3
# Si number density = 21.584360 Si / 1000 Ang^3
#
#
#
# Elastic Constant Matrix: (Units=GPa)
#
#
# Indices 1 2 3 4 5 6 
#
# 1 144.0797 43.6980 30.2755 -0.0001 -14.1388 -0.0007
# 2 43.6980 119.4953 21.1062 0.0423 -6.8741 -0.0611
# 3 30.2755 21.1062 51.8044 -0.0083 -16.9666 -0.0309
# 4 -0.0001 0.0423 -0.0083 28.5380 -0.0033 -13.9969
# 5 -14.1388 -6.8741 -16.9666 -0.0033 40.8977 -0.0033
# 6 -0.0007 -0.0611 -0.0309 -13.9969 -0.0033 5.8513
#
#
#
# Elastic Compliance Matrix: (Units=1/GPa)
#
#
# Indices 1 2 3 4 5 6 
#
# 1 0.008546 -0.002417 -0.003674 0.000106 0.001024 0.000211
# 2 -0.002417 0.009701 -0.002638 -0.000158 -0.000300 -0.000292
# 3 -0.003674 -0.002638 0.025417 -0.000386 0.008831 -0.000811
# 4 0.000106 -0.000158 -0.000386 -0.202253 -0.000206 -0.483815
# 5 0.001024 -0.000300 0.008831 -0.000206 0.028418 -0.000432
# 6 0.000211 -0.000292 -0.000811 -0.483815 -0.000432 -0.986443
#
#
# Mechanical properties :
#
#
# Convention : Reuss Voigt Hill
#
# Bulk Modulus (GPa) = 38.16015 56.17097 47.16556
# Shear Modulus (GPa) = -4.58539 29.74404 12.57932
#
# Velocity S-wave (km/s) = -1.45912 3.71622 2.41674
# Velocity P-wave (km/s) = 3.85736 6.67039 5.44855
#
# Compressibility (1/GPa) = 0.02620535
#
# Stress axis : x y z
#
# Youngs Moduli (GPa) = 117.00952 103.08066 39.34361
#
# Poissons Ratio (x) = 0.24918 0.14456
# Poissons Ratio (y) = 0.28285 0.10379
# Poissons Ratio (z) = 0.42992 0.27193
#
# Static dielectric constant tensor:
#      x y z
#    x 8.775140 0.038950 1.496790 
#    y 0.038950 4.159190 0.010400 
#    z 1.496790 0.010400 4.828010 
# 
# 
# High freq. dielectric constant tensor:
#      x y z
#    x 1.860950 0.000000 -0.007290 
#    y 0.000000 1.852460 -0.000010 
#    z -0.007290 -0.000010 1.837520 
# 
# From -- ./inp_files/98018.got.cif
#   From: 2010.06.25/outbox.cif.g09.slc.cpg/sg12_50_cif.got.tgz:98018.got - 2010.06.28 00:19:55.
