data_PCOD8112310
_publ_section_title
;
Structure prediction by ZEFSAII (Michael W. Deem and Ramdas Pophale) SiO2 
 PCOD8112310
Probable space group: C 2/M
;
_chemical_formula_sum "Si O2"
_cell_formula_units_Z 56
_cell_length_a 17.436032
_cell_length_b 18.246897
_cell_length_c 8.753516
_cell_angle_alpha 90.000000
_cell_angle_beta 60.941668
_cell_angle_gamma 90.000000
_cell_volume 2434.406423
_symmetry_space_group_name_H-M "C 2/M"
_symmetry_group_IT_number 12
_symmetry_cell_setting 'monoclinic'
loop_
_space_group_symop_operation_xyz
x,y,z
-x,y,-z
-x,-y,-z
x,-y,z
1/2+x,1/2+y,z
1/2-x,1/2+y,-z
1/2-x,1/2-y,-z
1/2+x,1/2-y,z
loop_
_atom_site_type_symbol
_atom_site_label
_atom_site_fract_x
_atom_site_fract_y
_atom_site_fract_z
Si Si1 0.231659 0.865685 0.694036
Si Si2 0.130798 0.000000 0.856913
Si Si3 0.279133 0.417406 0.639275
Si Si4 0.001503 0.000000 0.254959
Si Si5 0.414980 0.913191 0.480629
Si Si6 0.589522 0.725398 0.980878
Si Si7 0.569613 0.649334 0.318585
Si Si8 0.913613 0.385089 0.140037
O O1 0.188405 0.929510 0.834895
O O2 0.221260 0.877608 0.523480
O O3 0.334634 0.868903 0.638138
O O4 0.178544 0.794393 0.800669
O O5 0.098367 0.000000 0.710998
O O6 0.055461 0.000000 0.049975
O O7 0.317073 0.500000 0.596022
O O8 0.337505 0.367839 0.693431
O O9 0.179513 0.423726 0.799842
O O10 0.019553 0.073549 0.329883
O O11 0.500000 0.902641 0.500000
O O12 0.428556 0.873585 0.305978
O O13 0.391423 0.000000 0.480979
O O14 0.583886 0.811809 0.964865
O O15 0.500000 0.687970 0.000000
O O16 0.592694 0.701606 0.154454
O O17 0.500000 0.689906 0.500000
O O18 0.000000 0.430976 0.000000
#
# Coordination Sequence:
#
# PCOD8112310 Si02
#       8
#     8   4   8   4   8   8   8   8
#     4  11  20  38  64  95 132 173 212 260 325 392
#     4  11  18  32  59  90 128 176 208 251 323 389
#     4  11  23  39  63  95 130 167 217 270 328 384
#     4  11  21  32  56  94 134 171 209 258 325 387
#     4  10  22  42  70 104 133 164 216 275 329 381
#     4  11  24  43  64  90 130 175 222 263 318 397
#     4  12  24  38  60  98 136 170 211 268 325 389
#     4  10  24  46  65  89 127 178 223 268 323 384
#
# _framework density 23.003553
#
# number of rings (size 3 to 8) (size 9 to 14) (size 15 to 20)
#    0.000    1.143    3.571    4.071    0.000    5.143 
#    0.000    8.571    0.000    0.000    0.000    0.000 
#    0.000    0.000    0.000    0.000    0.000    0.000 
#
# Total GULP energy -346987.643642 kJ/mol
# GULP energy per Si atom -12392.415844 kJ/mol
# Density = 2.295120 g / cm^3
# Si number density = 23.003553 Si / 1000 Ang^3
#
#
#
# Elastic Constant Matrix: (Units=GPa)
#
#
# Indices 1 2 3 4 5 6 
#
# 1 142.7356 13.3888 58.4123 0.0000 -7.7895 0.0000
# 2 13.3888 60.3942 29.8797 0.0000 10.1010 0.0000
# 3 58.4123 29.8797 130.0466 0.0000 -13.2132 0.0000
# 4 0.0000 0.0000 0.0000 29.7756 0.0000 -0.0261
# 5 -7.7895 10.1010 -13.2132 0.0000 42.2855 0.0000
# 6 0.0000 0.0000 0.0000 -0.0261 0.0000 25.4297
#
#
#
# Elastic Compliance Matrix: (Units=1/GPa)
#
#
# Indices 1 2 3 4 5 6 
#
# 1 0.008590 -0.000098 -0.003793 0.000000 0.000421 0.000000
# 2 -0.000098 0.020279 -0.005277 0.000000 -0.006511 0.000000
# 3 -0.003793 -0.005277 0.011012 0.000000 0.004003 0.000000
# 4 0.000000 0.000000 0.000000 0.033585 0.000000 0.000034
# 5 0.000421 -0.006511 0.004003 0.000000 0.026532 0.000000
# 6 0.000000 0.000000 0.000000 0.000034 0.000000 0.039324
#
#
# Mechanical properties :
#
#
# Convention : Reuss Voigt Hill
#
# Bulk Modulus (GPa) = 46.41280 59.61534 53.01407
# Shear Modulus (GPa) = 30.33210 34.93120 32.63165
#
# Velocity S-wave (km/s) = 3.63517 3.90104 3.77045
# Velocity P-wave (km/s) = 6.15138 6.80167 6.48468
#
# Compressibility (1/GPa) = 0.02154578
#
# Stress axis : x y z
#
# Youngs Moduli (GPa) = 116.40842 49.31125 90.80599
#
# Poissons Ratio (x) = 0.00484 0.34445
# Poissons Ratio (y) = 0.01142 0.47918
# Poissons Ratio (z) = 0.44157 0.26021
#
# Static dielectric constant tensor:
#      x y z
#    x 4.428230 0.000000 -0.317730 
#    y 0.000000 3.825440 0.000000 
#    z -0.317730 0.000000 4.338240 
# 
# 
# High freq. dielectric constant tensor:
#      x y z
#    x 1.915770 0.000000 -0.020760 
#    y 0.000000 1.882510 0.000000 
#    z -0.020760 0.000000 1.923450 
# 
# From -- ./inp_files/77413.got.cif
#   From: 2010.06.25/outbox.cif.g09.slc.cpg/sg12_39_cif.got.tgz:77413.got - 2010.06.28 00:19:55.
