data_PCOD8112590
_publ_section_title
;
Structure prediction by ZEFSAII (Michael W. Deem and Ramdas Pophale) SiO2 
 PCOD8112590
Probable space group: C 2/M
;
_chemical_formula_sum "Si O2"
_cell_formula_units_Z 64
_cell_length_a 25.945413
_cell_length_b 16.631407
_cell_length_c 12.448161
_cell_angle_alpha 90.000000
_cell_angle_beta 37.171602
_cell_angle_gamma 90.000000
_cell_volume 3245.477122
_symmetry_space_group_name_H-M "C 2/M"
_symmetry_group_IT_number 12
_symmetry_cell_setting 'monoclinic'
loop_
_space_group_symop_operation_xyz
x,y,z
-x,y,-z
-x,-y,-z
x,-y,z
1/2+x,1/2+y,z
1/2-x,1/2+y,-z
1/2-x,1/2-y,-z
1/2+x,1/2-y,z
loop_
_atom_site_type_symbol
_atom_site_label
_atom_site_fract_x
_atom_site_fract_y
_atom_site_fract_z
Si Si1 0.863049 0.216036 0.369708
Si Si2 0.663148 0.341317 0.983339
Si Si3 0.063977 0.732957 0.303084
Si Si4 0.496062 0.408777 0.878675
Si Si5 0.062175 0.642982 0.630625
Si Si6 0.810284 0.279128 0.239470
Si Si7 0.055450 0.588498 0.004465
Si Si8 0.160035 0.590328 0.263888
O O1 0.877477 0.305351 0.391626
O O2 0.857554 0.223603 0.249664
O O3 0.775298 0.184221 0.567168
O O4 0.934940 0.152554 0.284881
O O5 0.707849 0.272878 0.836589
O O6 0.738053 0.400408 0.897071
O O7 0.623764 0.303560 0.157941
O O8 0.594900 0.388218 0.023322
O O9 0.119056 0.657246 0.254690
O O10 0.000000 0.767843 0.500000
O O11 0.005356 0.705300 0.303927
O O12 0.519699 0.500000 0.807287
O O13 0.500000 0.399383 0.000000
O O14 0.118069 0.596301 0.451081
O O15 0.007024 0.579704 0.789855
O O16 0.866112 0.353136 0.104809
O O17 0.090474 0.500000 0.917139
O O18 0.000000 0.625553 0.000000
O O19 0.141391 0.500000 0.250596
#
# Coordination Sequence:
#
# PCOD8112590 Si02
#       8
#     8   8   8   8   8   8   8   8
#     4  11  21  38  60  91 125 157 204 239 290 360
#     4  12  21  41  65  89 121 162 205 245 303 363
#     4  10  23  39  66  87 110 158 208 257 299 362
#     4  11  23  38  62  94 126 162 202 244 293 354
#     4  11  20  38  63  87 118 160 197 244 303 364
#     4  11  22  36  62  88 119 166 201 236 291 368
#     4  11  22  35  55  86 124 159 196 242 298 363
#     4  11  25  42  60  92 123 151 203 265 312 346
#
# _framework density 19.719750999999999
#
# number of rings (size 3 to 8) (size 9 to 14) (size 15 to 20)
#    0.000    1.000    6.250    1.125    0.000    3.250 
#    0.000    0.000    0.000    3.000    0.000    0.000 
#    0.000    0.000    0.000    0.000    0.000    0.000 
#
# Total GULP energy -396778.148227 kJ/mol
# GULP energy per Si atom -12399.317132 kJ/mol
# Density = 1.967487 g / cm^3
# Si number density = 19.719751 Si / 1000 Ang^3
#
#
#
# Elastic Constant Matrix: (Units=GPa)
#
#
# Indices 1 2 3 4 5 6 
#
# 1 58.0061 11.3890 28.7933 0.0000 -3.1666 0.0000
# 2 11.3890 86.7720 37.5707 0.0000 -5.3405 0.0000
# 3 28.7933 37.5707 103.0357 0.0000 -4.0859 0.0000
# 4 0.0000 0.0000 0.0000 20.5883 0.0000 -2.3111
# 5 -3.1666 -5.3405 -4.0859 0.0000 34.2898 0.0000
# 6 0.0000 0.0000 0.0000 -2.3111 0.0000 20.7100
#
#
#
# Elastic Compliance Matrix: (Units=1/GPa)
#
#
# Indices 1 2 3 4 5 6 
#
# 1 0.020067 -0.000183 -0.005495 0.000000 0.001170 0.000000
# 2 -0.000183 0.013769 -0.004908 0.000000 0.001543 0.000000
# 3 -0.005495 -0.004908 0.013042 0.000000 0.000282 0.000000
# 4 0.000000 0.000000 0.000000 0.049187 0.000000 0.005489
# 5 0.001170 0.001543 0.000282 0.000000 0.029545 0.000000
# 6 0.000000 0.000000 0.000000 0.005489 0.000000 0.048898
#
#
# Mechanical properties :
#
#
# Convention : Reuss Voigt Hill
#
# Bulk Modulus (GPa) = 38.90170 44.81330 41.85750
# Shear Modulus (GPa) = 24.48004 26.45500 25.46752
#
# Velocity S-wave (km/s) = 3.52717 3.66669 3.59761
# Velocity P-wave (km/s) = 6.02976 6.37970 6.20720
#
# Compressibility (1/GPa) = 0.02570582
#
# Stress axis : x y z
#
# Youngs Moduli (GPa) = 49.83367 72.62906 76.67665
#
# Poissons Ratio (x) = 0.01327 0.42131
# Poissons Ratio (y) = 0.00911 0.37635
# Poissons Ratio (z) = 0.27382 0.35649
#
# Static dielectric constant tensor:
#      x y z
#    x 3.589240 0.000000 0.069270 
#    y 0.000000 3.360880 0.000000 
#    z 0.069270 0.000000 3.830400 
# 
# 
# High freq. dielectric constant tensor:
#      x y z
#    x 1.768170 0.000000 -0.003670 
#    y 0.000000 1.753990 0.000000 
#    z -0.003670 0.000000 1.773210 
# 
# From -- ./inp_files/183767.got.cif
#   From: 2010.06.25/outbox.cif.g09.slc.cpg/sg12_92_cif.got.tgz:183767.got - 2010.06.28 00:19:55.
