data_PCOD8112119
_publ_section_title
;
Structure prediction by ZEFSAII (Michael W. Deem and Ramdas Pophale) SiO2 
 PCOD8112119
Probable space group: C 2/M
;
_chemical_formula_sum "Si O2"
_cell_formula_units_Z 48
_cell_length_a 13.952153
_cell_length_b 26.699869
_cell_length_c 11.725849
_cell_angle_alpha 90.000000
_cell_angle_beta 31.515832
_cell_angle_gamma 90.000000
_cell_volume 2283.365992
_symmetry_space_group_name_H-M "C 2/M"
_symmetry_group_IT_number 12
_symmetry_cell_setting 'monoclinic'
loop_
_space_group_symop_operation_xyz
x,y,z
-x,y,-z
-x,-y,-z
x,-y,z
1/2+x,1/2+y,z
1/2-x,1/2+y,-z
1/2-x,1/2-y,-z
1/2+x,1/2-y,z
loop_
_atom_site_type_symbol
_atom_site_label
_atom_site_fract_x
_atom_site_fract_y
_atom_site_fract_z
Si Si1 0.801322 0.806626 0.431796
Si Si2 0.215425 0.086998 0.278803
Si Si3 0.510159 0.943654 0.812244
Si Si4 0.812077 0.781971 0.044238
Si Si5 0.203387 0.803484 0.307271
Si Si6 0.511414 0.866298 0.363572
O O1 0.750000 0.750000 0.500000
O O2 0.776062 0.825707 0.586130
O O3 0.673624 0.836492 0.475973
O O4 0.999953 0.810122 0.173551
O O5 0.310935 0.078900 0.305330
O O6 0.236685 0.144197 0.207083
O O7 0.000000 0.071688 0.500000
O O8 0.329635 0.053442 0.074955
O O9 0.457319 0.910608 0.756857
O O10 0.555753 0.000000 0.726089
O O11 0.830929 0.742113 0.132046
O O12 0.672609 0.826155 0.207222
O O13 0.750000 0.750000 0.000000
O O14 0.000000 0.781523 0.500000
O O15 0.500000 0.891216 0.500000
#
# Coordination Sequence:
#
# PCOD8112119 Si02
#       6
#     8   8   8   8   8   8
#     4  12  24  39  63  92 130 176 218 263 321 385
#     4  10  22  41  71 102 137 161 208 279 345 402
#     4  11  25  44  69 100 127 170 225 277 338 390
#     4  12  23  40  62  93 135 175 215 259 319 396
#     4  11  21  37  62  97 132 174 212 254 330 398
#     4  12  27  46  62  92 133 177 228 273 317 389
#
# _framework density 21.021597
#
# number of rings (size 3 to 8) (size 9 to 14) (size 15 to 20)
#    0.000    0.667    5.000    3.500    2.333    4.333 
#    0.000    0.000    0.000    0.000    0.000    4.667 
#    0.000    0.000    0.000    0.000    0.000    0.000 
#
# Total GULP energy -297430.405551 kJ/mol
# GULP energy per Si atom -12392.933565 kJ/mol
# Density = 2.097375 g / cm^3
# Si number density = 21.021597 Si / 1000 Ang^3
#
#
#
# Elastic Constant Matrix: (Units=GPa)
#
#
# Indices 1 2 3 4 5 6 
#
# 1 119.4740 33.0133 57.6932 -0.0002 7.9909 -0.0001
# 2 33.0133 115.8403 29.5129 -0.0017 4.1786 0.0017
# 3 57.6932 29.5129 112.1212 -0.0137 -10.3465 0.0134
# 4 -0.0002 -0.0017 -0.0137 97.3470 0.0018 -81.8242
# 5 7.9909 4.1786 -10.3465 0.0018 39.0101 -0.0015
# 6 -0.0001 0.0017 0.0134 -81.8242 -0.0015 106.9291
#
#
#
# Elastic Compliance Matrix: (Units=1/GPa)
#
#
# Indices 1 2 3 4 5 6 
#
# 1 0.012062 -0.001740 -0.006109 0.000000 -0.003905 0.000000
# 2 -0.001740 0.009613 -0.001739 0.000000 -0.001135 0.000000
# 3 -0.006109 -0.001739 0.012970 0.000001 0.004878 -0.000001
# 4 0.000000 0.000000 0.000001 0.028791 0.000000 0.022031
# 5 -0.003905 -0.001135 0.004878 0.000000 0.027849 0.000000
# 6 0.000000 0.000000 -0.000001 0.022031 0.000000 0.026211
#
#
# Mechanical properties :
#
#
# Convention : Reuss Voigt Hill
#
# Bulk Modulus (GPa) = 64.65113 65.31936 64.98524
# Shear Modulus (GPa) = 35.25379 63.80497 49.52938
#
# Velocity S-wave (km/s) = 4.09959 5.51525 4.85925
# Velocity P-wave (km/s) = 7.29591 8.46742 7.90340
#
# Compressibility (1/GPa) = 0.01546763
#
# Stress axis : x y z
#
# Youngs Moduli (GPa) = 82.90507 104.02971 77.09940
#
# Poissons Ratio (x) = 0.18105 0.47099
# Poissons Ratio (y) = 0.14428 0.13411
# Poissons Ratio (z) = 0.50645 0.18095
#
# Static dielectric constant tensor:
#      x y z
#    x 4.069340 0.000010 -0.052500 
#    y 0.000010 4.421120 0.000030 
#    z -0.052500 0.000030 3.798180 
# 
# 
# High freq. dielectric constant tensor:
#      x y z
#    x 1.825780 0.000000 -0.004340 
#    y 0.000000 1.808580 0.000000 
#    z -0.004340 0.000000 1.825180 
# 
# From -- ./inp_files/150196.got.cif
#   From: 2010.06.25/outbox.cif.g09.slc.cpg/sg12_76_cif.got.tgz:150196.got - 2010.06.28 00:19:55.
