data_PCOD8112697
_publ_section_title
;
Structure prediction by ZEFSAII (Michael W. Deem and Ramdas Pophale) SiO2 
 PCOD8112697
Probable space group: C 2/M
;
_chemical_formula_sum "Si O2"
_cell_formula_units_Z 48
_cell_length_a 24.902322
_cell_length_b 8.842164
_cell_length_c 20.232160
_cell_angle_alpha 90.000000
_cell_angle_beta 145.005455
_cell_angle_gamma 90.000000
_cell_volume 2554.894110
_symmetry_space_group_name_H-M "C 2/M"
_symmetry_group_IT_number 12
_symmetry_cell_setting 'monoclinic'
loop_
_space_group_symop_operation_xyz
x,y,z
-x,y,-z
-x,-y,-z
x,-y,z
1/2+x,1/2+y,z
1/2-x,1/2+y,-z
1/2-x,1/2-y,-z
1/2+x,1/2-y,z
loop_
_atom_site_type_symbol
_atom_site_label
_atom_site_fract_x
_atom_site_fract_y
_atom_site_fract_z
Si Si1 0.204387 0.673641 0.017304
Si Si2 0.314284 0.324109 0.620253
Si Si3 0.999164 0.674122 0.766511
Si Si4 0.502429 0.677717 0.628234
Si Si5 0.181194 0.328385 0.604536
Si Si6 0.817562 0.325238 0.244144
O O1 0.235668 0.500000 0.048416
O O2 0.239941 0.749462 0.120033
O O3 0.250000 0.750000 0.000000
O O4 0.092593 0.690861 0.903891
O O5 0.325600 0.500000 0.614646
O O6 0.250000 0.250000 0.500000
O O7 0.415370 0.246447 0.723775
O O8 0.269663 0.296887 0.646994
O O9 0.975785 0.500000 0.727223
O O10 0.013548 0.760455 0.712851
O O11 0.517118 0.500000 0.644111
O O12 0.401323 0.714608 0.496932
O O13 0.580904 0.750830 0.661125
O O14 0.144370 0.500000 0.557680
O O15 0.215142 0.301807 0.713486
O O16 0.825727 0.500000 0.232660
#
# Coordination Sequence:
#
# PCOD8112697 Si02
#       6
#     8   8   8   8   8   8
#     4  11  23  39  62  88 118 157 199 246 297 353
#     4  11  22  38  62  89 118 156 201 246 293 352
#     4  11  23  39  60  88 121 155 196 246 299 353
#     4  12  23  35  59  91 122 156 196 246 299 357
#     4  10  23  41  60  85 122 162 198 240 301 359
#     4  11  23  40  61  86 121 162 198 244 299 356
#
# _framework density 18.787472000000001
#
# number of rings (size 3 to 8) (size 9 to 14) (size 15 to 20)
#    0.000    1.000    3.333    4.000    0.000    6.000 
#    0.000    0.833    0.000    5.000    0.000    0.000 
#    0.000    0.000    0.000    0.000    0.000    0.000 
#
# Total GULP energy -297749.598074 kJ/mol
# GULP energy per Si atom -12406.233253 kJ/mol
# Density = 1.874471 g / cm^3
# Si number density = 18.787472 Si / 1000 Ang^3
#
#
#
# Elastic Constant Matrix: (Units=GPa)
#
#
# Indices 1 2 3 4 5 6 
#
# 1 125.3878 57.8758 33.3006 0.0000 1.0559 0.0000
# 2 57.8758 150.5280 49.0534 0.0000 2.7083 0.0000
# 3 33.3006 49.0534 58.7000 0.0000 3.3583 0.0000
# 4 0.0000 0.0000 0.0000 34.9367 0.0000 3.4127
# 5 1.0559 2.7083 3.3583 0.0000 33.0468 0.0000
# 6 0.0000 0.0000 0.0000 3.4127 0.0000 29.1560
#
#
#
# Elastic Compliance Matrix: (Units=1/GPa)
#
#
# Indices 1 2 3 4 5 6 
#
# 1 0.010180 -0.002792 -0.003456 0.000000 0.000255 0.000000
# 2 -0.002792 0.009895 -0.006683 0.000000 -0.000043 0.000000
# 3 -0.003456 -0.006683 0.024687 0.000000 -0.001851 0.000000
# 4 0.000000 0.000000 0.000000 0.028954 0.000000 -0.003389
# 5 0.000255 -0.000043 -0.001851 0.000000 0.030444 0.000000
# 6 0.000000 0.000000 0.000000 -0.003389 0.000000 0.034695
#
#
# Mechanical properties :
#
#
# Convention : Reuss Voigt Hill
#
# Bulk Modulus (GPa) = 52.91092 68.34170 60.62631
# Shear Modulus (GPa) = 29.23685 32.38697 30.81191
#
# Velocity S-wave (km/s) = 3.94914 4.15644 4.05411
# Velocity P-wave (km/s) = 7.00130 7.71297 7.36574
#
# Compressibility (1/GPa) = 0.01889969
#
# Stress axis : x y z
#
# Youngs Moduli (GPa) = 98.23303 101.05737 40.50747
#
# Poissons Ratio (x) = 0.28218 0.14000
# Poissons Ratio (y) = 0.27430 0.27070
# Poissons Ratio (z) = 0.33951 0.67533
#
# Static dielectric constant tensor:
#      x y z
#    x 3.536740 0.000000 0.049540 
#    y 0.000000 3.685340 0.000000 
#    z 0.049540 0.000000 3.462120 
# 
# 
# High freq. dielectric constant tensor:
#      x y z
#    x 1.730530 0.000000 0.002100 
#    y 0.000000 1.748200 0.000000 
#    z 0.002100 0.000000 1.727020 
# 
# From -- ./inp_files/179749.got.cif
#   From: 2010.06.25/outbox.cif.g09.slc.cpg/sg12_90_cif.got.tgz:179749.got - 2010.06.28 00:19:55.
