data_PCOD8112604
_publ_section_title
;
Structure prediction by ZEFSAII (Michael W. Deem and Ramdas Pophale) SiO2 
 PCOD8112604
Probable space group: C 2/M
;
_chemical_formula_sum "Si O2"
_cell_formula_units_Z 56
_cell_length_a 29.756495
_cell_length_b 8.797226
_cell_length_c 12.400002
_cell_angle_alpha 90.000000
_cell_angle_beta 74.560323
_cell_angle_gamma 90.000000
_cell_volume 3128.861505
_symmetry_space_group_name_H-M "C 2/M"
_symmetry_group_IT_number 12
_symmetry_cell_setting 'monoclinic'
loop_
_space_group_symop_operation_xyz
x,y,z
-x,y,-z
-x,-y,-z
x,-y,z
1/2+x,1/2+y,z
1/2-x,1/2+y,-z
1/2-x,1/2-y,-z
1/2+x,1/2-y,z
loop_
_atom_site_type_symbol
_atom_site_label
_atom_site_fract_x
_atom_site_fract_y
_atom_site_fract_z
Si Si1 0.190661 0.675419 0.361193
Si Si2 0.945465 0.675589 0.413627
Si Si3 0.297105 0.821872 0.014253
Si Si4 0.138740 0.177960 0.196798
Si Si5 0.295714 0.326494 0.239842
Si Si6 0.644809 0.676008 0.592704
Si Si7 0.949207 0.675526 0.662117
O O1 0.177742 0.500000 0.348041
O O2 0.167423 0.775542 0.283745
O O3 0.245739 0.703505 0.325646
O O4 0.172064 0.722462 0.489378
O O5 0.938131 0.500000 0.387994
O O6 0.909627 0.778901 0.369842
O O7 0.936027 0.700679 0.546021
O O8 0.997745 0.727419 0.350068
O O9 0.304188 0.784554 0.134771
O O10 0.293360 0.000000 0.999495
O O11 0.250000 0.750000 0.000000
O O12 0.341309 0.760473 0.920907
O O13 0.084597 0.223070 0.243188
O O14 0.143263 0.000000 0.176555
O O15 0.299282 0.500000 0.196810
O O16 0.334899 0.289051 0.302684
O O17 0.650742 0.500000 0.558019
O O18 0.942719 0.500000 0.697258
#
# Coordination Sequence:
#
# PCOD8112604 Si02
#       7
#     8   8   8   8   8   8   8
#     4  11  21  35  55  78 112 154 189 224 271 328
#     4   9  18  33  55  80 111 148 184 224 275 332
#     4  12  24  39  60  82 108 146 189 233 276 323
#     4  12  23  35  56  85 115 145 181 229 282 329
#     4  10  23  40  56  78 112 152 190 230 274 328
#     4  11  22  35  54  83 117 149 185 229 278 329
#     4   9  18  34  55  81 111 146 184 226 276 330
#
# _framework density 17.897884000000001
#
# number of rings (size 3 to 8) (size 9 to 14) (size 15 to 20)
#    0.000    1.429    2.857    4.714    0.000    2.286 
#    0.000    1.429    0.000    0.857    0.000    6.000 
#    0.000    0.000    0.000    0.000    0.000    0.000 
#
# Total GULP energy -347335.247962 kJ/mol
# GULP energy per Si atom -12404.830284 kJ/mol
# Density = 1.785715 g / cm^3
# Si number density = 17.897884 Si / 1000 Ang^3
#
#
#
# Elastic Constant Matrix: (Units=GPa)
#
#
# Indices 1 2 3 4 5 6 
#
# 1 116.8757 48.4909 50.9793 0.0000 -6.0089 0.0000
# 2 48.4909 109.4805 51.3140 0.0000 -6.5459 0.0000
# 3 50.9793 51.3140 84.6845 0.0000 -5.5252 0.0000
# 4 0.0000 0.0000 0.0000 30.3240 0.0000 -2.2337
# 5 -6.0089 -6.5459 -5.5252 0.0000 26.3195 0.0000
# 6 0.0000 0.0000 0.0000 -2.2337 0.0000 30.6978
#
#
#
# Elastic Compliance Matrix: (Units=1/GPa)
#
#
# Indices 1 2 3 4 5 6 
#
# 1 0.012182 -0.002698 -0.005639 0.000000 0.000927 0.000000
# 2 -0.002698 0.013419 -0.006418 0.000000 0.001374 0.000000
# 3 -0.005639 -0.006418 0.019166 0.000000 0.001140 0.000000
# 4 0.000000 0.000000 0.000000 0.033155 0.000000 0.002412
# 5 0.000927 0.001374 0.001140 0.000000 0.038787 0.000000
# 6 0.000000 0.000000 0.000000 0.002412 0.000000 0.032751
#
#
# Mechanical properties :
#
#
# Convention : Reuss Voigt Hill
#
# Bulk Modulus (GPa) = 65.53150 68.06767 66.79959
# Shear Modulus (GPa) = 27.16576 28.15200 27.65888
#
# Velocity S-wave (km/s) = 3.90015 3.97031 3.93539
# Velocity P-wave (km/s) = 7.54819 7.68970 7.61927
#
# Compressibility (1/GPa) = 0.01525984
#
# Stress axis : x y z
#
# Youngs Moduli (GPa) = 82.08530 74.52161 52.17554
#
# Poissons Ratio (x) = 0.20102 0.29420
# Poissons Ratio (y) = 0.22143 0.33484
# Poissons Ratio (z) = 0.46286 0.47825
#
# Static dielectric constant tensor:
#      x y z
#    x 3.404440 0.000000 -0.142620 
#    y 0.000000 3.335810 0.000000 
#    z -0.142620 0.000000 3.237240 
# 
# 
# High freq. dielectric constant tensor:
#      x y z
#    x 1.694620 0.000000 -0.013020 
#    y 0.000000 1.699030 0.000000 
#    z -0.013020 0.000000 1.675300 
# 
# From -- ./inp_files/186388.got.cif
#   From: 2010.06.25/outbox.cif.g09.slc.cpg/sg12_94_cif.got.tgz:186388.got - 2010.06.28 00:19:55.
