data_PCOD8112676
_publ_section_title
;
Structure prediction by ZEFSAII (Michael W. Deem and Ramdas Pophale) SiO2 
 PCOD8112676
Probable space group: C 2/M
;
_chemical_formula_sum "Si O2"
_cell_formula_units_Z 40
_cell_length_a 12.450268
_cell_length_b 26.627568
_cell_length_c 5.326912
_cell_angle_alpha 90.000000
_cell_angle_beta 92.949493
_cell_angle_gamma 90.000000
_cell_volume 1763.640346
_symmetry_space_group_name_H-M "C 2/M"
_symmetry_group_IT_number 12
_symmetry_cell_setting 'monoclinic'
loop_
_space_group_symop_operation_xyz
x,y,z
-x,y,-z
-x,-y,-z
x,-y,z
1/2+x,1/2+y,z
1/2-x,1/2+y,-z
1/2-x,1/2-y,-z
1/2+x,1/2-y,z
loop_
_atom_site_type_symbol
_atom_site_label
_atom_site_fract_x
_atom_site_fract_y
_atom_site_fract_z
Si Si1 0.500000 0.612490 0.000000
Si Si2 0.500000 0.855843 0.500000
Si Si3 0.830514 0.815372 0.130191
Si Si4 0.194978 0.604171 0.309414
Si Si5 0.307533 0.213059 0.311650
Si Si6 0.206063 0.940888 0.182083
O O1 0.434368 0.649330 0.177582
O O2 0.582725 0.578263 0.166926
O O3 0.435267 0.891402 0.690273
O O4 0.590845 0.821562 0.628980
O O5 0.744542 0.838002 0.328050
O O6 0.859603 0.756781 0.142189
O O7 0.777015 0.822537 0.846896
O O8 0.237739 0.572574 0.549461
O O9 0.228882 0.580402 0.049622
O O10 0.250000 0.250000 0.500000
O O11 0.204312 0.000000 0.154639
#
# Coordination Sequence:
#
# PCOD8112676 Si02
#       6
#     4   4   8   8   8   8
#     4  10  23  40  72  98 138 180 226 280 357 412
#     4  12  24  42  71  94 136 186 231 270 348 388
#     4  10  24  41  60 100 142 182 227 275 335 394
#     4  11  25  45  70 100 139 178 229 283 341 418
#     4  11  24  41  62  97 142 184 232 277 317 402
#     4  11  25  48  72 103 136 173 227 296 356 420
#
# _framework density 22.680361999999999
#
# number of rings (size 3 to 8) (size 9 to 14) (size 15 to 20)
#    0.000    1.200    2.000    3.300    2.800    6.400 
#    0.000    8.000    0.000    0.000    0.000    0.000 
#    0.000    0.000    0.000    0.000    0.000    0.000 
#
# Total GULP energy -247767.389623 kJ/mol
# GULP energy per Si atom -12388.369481 kJ/mol
# Density = 2.262874 g / cm^3
# Si number density = 22.680362 Si / 1000 Ang^3
#
#
#
# Elastic Constant Matrix: (Units=GPa)
#
#
# Indices 1 2 3 4 5 6 
#
# 1 178.4219 55.6045 56.4914 0.0000 -0.4890 0.0000
# 2 55.6045 118.3377 30.4601 0.0000 3.3018 0.0000
# 3 56.4914 30.4601 109.3809 0.0000 -0.7321 0.0000
# 4 0.0000 0.0000 0.0000 32.2846 0.0000 7.0550
# 5 -0.4890 3.3018 -0.7321 0.0000 24.3895 0.0000
# 6 0.0000 0.0000 0.0000 7.0550 0.0000 27.2651
#
#
#
# Elastic Compliance Matrix: (Units=1/GPa)
#
#
# Indices 1 2 3 4 5 6 
#
# 1 0.007424 -0.002708 -0.003077 0.000000 0.000423 0.000000
# 2 -0.002708 0.010133 -0.001433 0.000000 -0.001469 0.000000
# 3 -0.003077 -0.001433 0.011134 0.000000 0.000466 0.000000
# 4 0.000000 0.000000 0.000000 0.032831 0.000000 -0.008495
# 5 0.000423 -0.001469 0.000466 0.000000 0.041223 0.000000
# 6 0.000000 0.000000 0.000000 -0.008495 0.000000 0.038875
#
#
# Mechanical properties :
#
#
# Convention : Reuss Voigt Hill
#
# Bulk Modulus (GPa) = 70.15594 76.80582 73.48088
# Shear Modulus (GPa) = 31.09309 34.36015 32.72662
#
# Velocity S-wave (km/s) = 3.70662 3.89649 3.80274
# Velocity P-wave (km/s) = 7.02270 7.36081 7.19374
#
# Compressibility (1/GPa) = 0.01425396
#
# Stress axis : x y z
#
# Youngs Moduli (GPa) = 134.69497 98.69016 89.81622
#
# Poissons Ratio (x) = 0.26727 0.27639
# Poissons Ratio (y) = 0.36478 0.12870
# Poissons Ratio (z) = 0.41450 0.14141
#
# Static dielectric constant tensor:
#      x y z
#    x 4.426460 0.000000 -0.209810 
#    y 0.000000 4.897880 0.000000 
#    z -0.209810 0.000000 4.200750 
# 
# 
# High freq. dielectric constant tensor:
#      x y z
#    x 1.898200 0.000000 -0.010510 
#    y 0.000000 1.912650 0.000000 
#    z -0.010510 0.000000 1.888700 
# 
# From -- ./inp_files/8565.got.cif
#   From: 2010.06.25/outbox.cif.g09.slc.cpg/sg12_5_cif.got.tgz:8565.got - 2010.06.28 00:19:55.
