data_PCOD8112205
_publ_section_title
;
Structure prediction by ZEFSAII (Michael W. Deem and Ramdas Pophale) SiO2 
 PCOD8112205
Probable space group: C 2/M
;
_chemical_formula_sum "Si O2"
_cell_formula_units_Z 64
_cell_length_a 9.479332
_cell_length_b 13.940445
_cell_length_c 26.642324
_cell_angle_alpha 90.000000
_cell_angle_beta 121.931482
_cell_angle_gamma 90.000000
_cell_volume 2987.934407
_symmetry_space_group_name_H-M "C 2/M"
_symmetry_group_IT_number 12
_symmetry_cell_setting 'monoclinic'
loop_
_space_group_symop_operation_xyz
x,y,z
-x,y,-z
-x,-y,-z
x,-y,z
1/2+x,1/2+y,z
1/2-x,1/2+y,-z
1/2-x,1/2-y,-z
1/2+x,1/2-y,z
loop_
_atom_site_type_symbol
_atom_site_label
_atom_site_fract_x
_atom_site_fract_y
_atom_site_fract_z
Si Si1 0.682670 0.768793 0.041724
Si Si2 0.054022 0.887400 0.849605
Si Si3 0.554022 0.887400 0.349605
Si Si4 0.235812 0.887763 0.130708
Si Si5 0.920522 0.114052 0.257989
Si Si6 0.920522 0.614052 0.757989
Si Si7 0.317330 0.268793 0.458276
Si Si8 0.735812 0.112237 0.630708
O O1 0.791343 0.846009 0.091140
O O2 0.674302 0.668820 0.070416
O O3 0.500000 0.812467 0.000000
O O4 0.750000 0.750000 0.000000
O O5 0.053618 0.843775 0.793204
O O6 0.879979 0.861984 0.843464
O O7 0.081707 0.000000 0.852580
O O8 0.553618 0.843775 0.293204
O O9 0.708656 0.846009 0.408860
O O10 0.379979 0.861984 0.343464
O O11 0.581707 0.000000 0.352580
O O12 0.423867 0.854820 0.178421
O O13 0.225097 0.000000 0.115923
O O14 0.750000 0.154454 0.250000
O O15 0.076133 0.145179 0.321580
O O16 0.914516 0.000000 0.253619
O O17 0.914516 0.500000 0.753619
O O18 0.500000 0.312467 0.500000
O O19 0.250000 0.250000 0.500000
O O20 0.325698 0.168820 0.429584
O O21 0.725097 0.000000 0.615923
#
# Coordination Sequence:
#
# PCOD8112205 Si02
#       8
#     8   8   8   8   8   8   8   8
#     4  12  26  43  61  90 126 162 211 258 296 359
#     4  10  22  42  66  91 123 163 203 250 309 366
#     4  10  22  42  66  91 123 163 203 250 309 366
#     4  10  22  42  67  90 122 165 203 249 308 368
#     4   9  19  36  63  98 125 151 199 256 310 365
#     4   9  19  36  63  98 125 151 199 256 310 365
#     4  12  26  43  61  90 126 162 211 258 296 359
#     4  10  22  42  67  90 122 165 203 249 308 368
#
# _framework density 21.419478000000002
#
# number of rings (size 3 to 8) (size 9 to 14) (size 15 to 20)
#    0.000    1.750    2.500    0.750    3.500    6.000 
#    0.000    0.000    0.000    0.000    0.000    0.000 
#    0.000    0.000    0.000    0.000    0.000    0.000 
#
# Total GULP energy -396915.420596 kJ/mol
# GULP energy per Si atom -12403.606894 kJ/mol
# Density = 2.137073 g / cm^3
# Si number density = 21.419478 Si / 1000 Ang^3
#
#
#
# Elastic Constant Matrix: (Units=GPa)
#
#
# Indices 1 2 3 4 5 6 
#
# 1 157.3099 28.6029 55.7073 0.0000 1.6551 0.0000
# 2 28.6029 30.1890 15.8328 0.0000 -3.1051 0.0000
# 3 55.7073 15.8328 118.2105 0.0000 5.9506 0.0000
# 4 0.0000 0.0000 0.0000 39.7174 0.0000 -0.6235
# 5 1.6551 -3.1051 5.9506 0.0000 57.6113 0.0000
# 6 0.0000 0.0000 0.0000 -0.6235 0.0000 25.2733
#
#
#
# Elastic Compliance Matrix: (Units=1/GPa)
#
#
# Indices 1 2 3 4 5 6 
#
# 1 0.008690 -0.006583 -0.003200 0.000000 -0.000274 0.000000
# 2 -0.006583 0.040955 -0.002517 0.000000 0.002656 0.000000
# 3 -0.003200 -0.002517 0.010360 0.000000 -0.001114 0.000000
# 4 0.000000 0.000000 0.000000 0.025188 0.000000 0.000621
# 5 -0.000274 0.002656 -0.001114 0.000000 0.017624 0.000000
# 6 0.000000 0.000000 0.000000 0.000621 0.000000 0.039583
#
#
# Mechanical properties :
#
#
# Convention : Reuss Voigt Hill
#
# Bulk Modulus (GPa) = 28.24360 56.22172 42.23266
# Shear Modulus (GPa) = 27.96398 38.22482 33.09440
#
# Velocity S-wave (km/s) = 3.61715 4.22901 3.93499
# Velocity P-wave (km/s) = 5.53711 7.08174 6.35651
#
# Compressibility (1/GPa) = 0.03540625
#
# Stress axis : x y z
#
# Youngs Moduli (GPa) = 115.07686 24.41681 96.52091
#
# Poissons Ratio (x) = 0.16075 0.30883
# Poissons Ratio (y) = 0.75760 0.24291
# Poissons Ratio (z) = 0.36820 0.06145
#
# Static dielectric constant tensor:
#      x y z
#    x 4.143400 0.000000 -0.051190 
#    y 0.000000 3.681630 0.000000 
#    z -0.051190 0.000000 3.494010 
# 
# 
# High freq. dielectric constant tensor:
#      x y z
#    x 1.855420 0.000000 0.002300 
#    y 0.000000 1.835860 0.000000 
#    z 0.002300 0.000000 1.846970 
# 
# From -- ./inp_files/372540.got.cif
#   From: 2010.06.25/outbox.cif.g09.slc.cpg/sg12_187_cif.got.tgz:372540.got - 2010.06.28 00:19:55.
