data_PCOD8112178
_publ_section_title
;
Structure prediction by ZEFSAII (Michael W. Deem and Ramdas Pophale) SiO2 
 PCOD8112178
Probable space group: C 2/M
;
_chemical_formula_sum "Si O2"
_cell_formula_units_Z 56
_cell_length_a 19.687135
_cell_length_b 8.801560
_cell_length_c 25.861576
_cell_angle_alpha 90.000000
_cell_angle_beta 140.902271
_cell_angle_gamma 90.000000
_cell_volume 2826.065022
_symmetry_space_group_name_H-M "C 2/M"
_symmetry_group_IT_number 12
_symmetry_cell_setting 'monoclinic'
loop_
_space_group_symop_operation_xyz
x,y,z
-x,y,-z
-x,-y,-z
x,-y,z
1/2+x,1/2+y,z
1/2-x,1/2+y,-z
1/2-x,1/2-y,-z
1/2+x,1/2-y,z
loop_
_atom_site_type_symbol
_atom_site_label
_atom_site_fract_x
_atom_site_fract_y
_atom_site_fract_z
Si Si1 0.989925 0.820584 0.242172
Si Si2 0.666269 0.821393 0.490132
Si Si3 0.133622 0.178140 0.932457
Si Si4 0.788446 0.678215 0.648453
Si Si5 0.734348 0.821863 0.246327
Si Si6 0.566418 0.178198 0.689021
Si Si7 0.530017 0.322725 0.076372
O O1 0.932498 0.763770 0.156124
O O2 0.917975 0.768820 0.248127
O O3 0.103714 0.737603 0.315020
O O4 0.007756 0.000000 0.252687
O O5 0.750000 0.750000 0.500000
O O6 0.687652 0.756581 0.560274
O O7 0.545410 0.775493 0.403784
O O8 0.682946 0.000000 0.499843
O O9 0.069772 0.227028 0.946387
O O10 0.149645 0.000000 0.939483
O O11 0.250000 0.250000 0.000000
O O12 0.780293 0.500000 0.635034
O O13 0.790411 0.723712 0.709453
O O14 0.838893 0.727714 0.292823
O O15 0.634165 0.774943 0.151803
O O16 0.756389 0.000000 0.252936
O O17 0.573555 0.000000 0.704622
O O18 0.557046 0.500000 0.100361
O O19 0.500000 0.285198 0.000000
#
# Coordination Sequence:
#
# PCOD8112178 Si02
#       7
#     8   8   8   8   8   8   8
#     4  11  22  39  64  92 124 164 210 258 308 367
#     4  11  23  39  63  94 126 163 208 261 313 367
#     4  10  23  40  61  93 127 162 205 254 310 367
#     4  11  23  40  64  92 124 166 209 254 312 371
#     4  11  25  43  64  92 126 166 210 257 311 371
#     4  11  25  42  63  92 126 164 208 257 313 373
#     4  10  22  42  65  91 124 165 208 253 311 373
#
# _framework density 19.815536999999999
#
# number of rings (size 3 to 8) (size 9 to 14) (size 15 to 20)
#    0.000    1.286    2.857    2.143    2.000    6.000 
#    0.000    2.857    0.000    0.000    0.000    0.000 
#    0.000    0.000    0.000    0.000    0.000    0.000 
#
# Total GULP energy -347382.377638 kJ/mol
# GULP energy per Si atom -12406.513487 kJ/mol
# Density = 1.977044 g / cm^3
# Si number density = 19.815537 Si / 1000 Ang^3
#
#
#
# Elastic Constant Matrix: (Units=GPa)
#
#
# Indices 1 2 3 4 5 6 
#
# 1 85.2534 33.1038 53.0482 0.0000 6.2515 0.0000
# 2 33.1038 62.2653 48.3972 0.0000 -2.0780 0.0002
# 3 53.0482 48.3972 129.6625 0.0000 -2.8116 0.0000
# 4 0.0000 0.0000 0.0000 37.3708 0.0000 1.9908
# 5 6.2515 -2.0780 -2.8116 0.0000 38.7581 0.0000
# 6 0.0000 0.0002 0.0000 1.9908 0.0000 33.3275
#
#
#
# Elastic Compliance Matrix: (Units=1/GPa)
#
#
# Indices 1 2 3 4 5 6 
#
# 1 0.017239 -0.005268 -0.005161 0.000000 -0.003437 0.000000
# 2 -0.005268 0.024248 -0.006859 0.000000 0.001652 0.000000
# 3 -0.005161 -0.006859 0.012414 0.000000 0.001365 0.000000
# 4 0.000000 0.000000 0.000000 0.026844 0.000000 -0.001604
# 5 -0.003437 0.001652 0.001365 0.000000 0.026543 0.000000
# 6 0.000000 0.000000 0.000000 -0.001604 0.000000 0.030101
#
#
# Mechanical properties :
#
#
# Convention : Reuss Voigt Hill
#
# Bulk Modulus (GPa) = 51.75156 60.69772 56.22464
# Shear Modulus (GPa) = 28.02568 31.40008 29.71288
#
# Velocity S-wave (km/s) = 3.76484 3.98505 3.87651
# Velocity P-wave (km/s) = 6.71357 7.20222 6.96218
#
# Compressibility (1/GPa) = 0.01932309
#
# Stress axis : x y z
#
# Youngs Moduli (GPa) = 58.00852 41.24029 80.55608
#
# Poissons Ratio (x) = 0.21727 0.41574
# Poissons Ratio (y) = 0.30561 0.55257
# Poissons Ratio (z) = 0.29938 0.28289
#
# Static dielectric constant tensor:
#      x y z
#    x 3.697550 0.000000 -0.128670 
#    y 0.000000 3.596790 0.000000 
#    z -0.128670 0.000000 3.704340 
# 
# 
# High freq. dielectric constant tensor:
#      x y z
#    x 1.779210 0.000000 -0.007480 
#    y 0.000000 1.777370 0.000000 
#    z -0.007480 0.000000 1.783320 
# 
# From -- ./inp_files/363130.got.cif
#   From: 2010.06.25/outbox.cif.g09.slc.cpg/sg12_182_cif.got.tgz:363130.got - 2010.06.28 00:19:55.
