data_PCOD8112093
_publ_section_title
;
Structure prediction by ZEFSAII (Michael W. Deem and Ramdas Pophale) SiO2 
 PCOD8112093
Probable space group: C 2/M
;
_chemical_formula_sum "Si O2"
_cell_formula_units_Z 64
_cell_length_a 17.381920
_cell_length_b 13.649283
_cell_length_c 15.092053
_cell_angle_alpha 90.000000
_cell_angle_beta 50.834175
_cell_angle_gamma 90.000000
_cell_volume 2776.116208
_symmetry_space_group_name_H-M "C 2/M"
_symmetry_group_IT_number 12
_symmetry_cell_setting 'monoclinic'
loop_
_space_group_symop_operation_xyz
x,y,z
-x,y,-z
-x,-y,-z
x,-y,z
1/2+x,1/2+y,z
1/2-x,1/2+y,-z
1/2-x,1/2-y,-z
1/2+x,1/2-y,z
loop_
_atom_site_type_symbol
_atom_site_label
_atom_site_fract_x
_atom_site_fract_y
_atom_site_fract_z
Si Si1 0.099849 0.607281 0.322312
Si Si2 0.721554 0.386555 0.253739
Si Si3 0.144896 0.885457 0.621377
Si Si4 0.810472 0.384989 0.370138
Si Si5 0.534203 0.889187 0.180013
Si Si6 0.675472 0.385740 0.801293
Si Si7 0.483031 0.695768 0.608091
Si Si8 0.898079 0.707764 0.034856
O O1 0.066301 0.500000 0.382077
O O2 0.106138 0.605341 0.211536
O O3 0.207618 0.634461 0.281569
O O4 0.017013 0.686949 0.408954
O O5 0.697069 0.500000 0.277371
O O6 0.750557 0.341784 0.329118
O O7 0.626704 0.333476 0.280244
O O8 0.812310 0.367198 0.122726
O O9 0.252261 0.854232 0.502425
O O10 0.139437 0.855162 0.728555
O O11 0.060024 0.832177 0.627454
O O12 0.127783 0.000000 0.622392
O O13 0.811740 0.500000 0.359148
O O14 0.924315 0.348589 0.287903
O O15 0.526415 0.000000 0.144068
O O16 0.585961 0.805849 0.081737
O O17 0.651250 0.500000 0.838954
O O18 0.621878 0.318694 0.914977
O O19 0.500000 0.643457 0.500000
O O20 0.000000 0.666737 0.000000
#
# Coordination Sequence:
#
# PCOD8112093 Si02
#       8
#     8   8   8   8   8   8   8   8
#     4  10  24  47  68  93 135 180 233 288 337 402
#     4  11  22  39  62  99 144 177 217 278 348 410
#     4  10  22  41  71 103 141 186 225 277 341 415
#     4   9  18  36  63 100 138 175 218 269 339 407
#     4  10  22  41  68 103 137 175 225 286 350 408
#     4  10  24  48  70  96 138 187 237 281 336 410
#     4  12  24  40  67 107 140 179 229 283 345 410
#     4  12  24  40  70 101 133 176 230 283 343 406
#
# _framework density 23.053791
#
# number of rings (size 3 to 8) (size 9 to 14) (size 15 to 20)
#    0.000    1.500    3.750    0.750    1.750    3.000 
#    0.000    4.375    0.000    0.000    0.000    0.000 
#    0.000    0.000    0.000    0.000    0.000    0.000 
#
# Total GULP energy -396599.553181 kJ/mol
# GULP energy per Si atom -12393.736037 kJ/mol
# Density = 2.300132 g / cm^3
# Si number density = 23.053791 Si / 1000 Ang^3
#
#
#
# Elastic Constant Matrix: (Units=GPa)
#
#
# Indices 1 2 3 4 5 6 
#
# 1 126.2490 57.5938 45.0676 0.0000 6.9952 0.0000
# 2 57.5938 107.8473 47.4068 0.0000 -0.3104 0.0000
# 3 45.0676 47.4068 102.1586 0.0000 -7.4331 0.0000
# 4 0.0000 0.0000 0.0000 16.7085 0.0000 3.8347
# 5 6.9952 -0.3104 -7.4331 0.0000 23.5623 0.0000
# 6 0.0000 0.0000 0.0000 3.8347 0.0000 26.3884
#
#
#
# Elastic Compliance Matrix: (Units=1/GPa)
#
#
# Indices 1 2 3 4 5 6 
#
# 1 0.011466 -0.004736 -0.003186 0.000000 -0.004472 0.000000
# 2 -0.004736 0.013663 -0.004233 0.000000 0.000251 0.000000
# 3 -0.003186 -0.004233 0.013534 0.000000 0.005160 0.000000
# 4 0.000000 0.000000 0.000000 0.061915 0.000000 -0.008997
# 5 -0.004472 0.000251 0.005160 0.000000 0.045399 0.000000
# 6 0.000000 0.000000 0.000000 -0.008997 0.000000 0.039203
#
#
# Mechanical properties :
#
#
# Convention : Reuss Voigt Hill
#
# Bulk Modulus (GPa) = 69.66852 70.71015 70.18934
# Shear Modulus (GPa) = 23.33462 25.74428 24.53945
#
# Velocity S-wave (km/s) = 3.18493 3.34534 3.26612
# Velocity P-wave (km/s) = 6.61896 6.75723 6.68845
#
# Compressibility (1/GPa) = 0.01435369
#
# Stress axis : x y z
#
# Youngs Moduli (GPa) = 87.21125 73.19176 73.88830
#
# Poissons Ratio (x) = 0.34662 0.23542
# Poissons Ratio (y) = 0.41301 0.31275
# Poissons Ratio (z) = 0.27787 0.30981
#
# Static dielectric constant tensor:
#      x y z
#    x 4.144000 0.000000 0.032860 
#    y 0.000000 4.291270 0.000000 
#    z 0.032860 0.000000 4.087300 
# 
# 
# High freq. dielectric constant tensor:
#      x y z
#    x 1.913750 0.000000 -0.000790 
#    y 0.000000 1.921500 0.000000 
#    z -0.000790 0.000000 1.893910 
# 
# From -- ./inp_files/225678.got.cif
#   From: 2010.06.25/outbox.cif.g09.slc.cpg/sg12_113_cif.got.tgz:225678.got - 2010.06.28 00:19:55.
