data_PCOD8112206
_publ_section_title
;
Structure prediction by ZEFSAII (Michael W. Deem and Ramdas Pophale) SiO2 
 PCOD8112206
Probable space group: C 2/M
;
_chemical_formula_sum "Si O2"
_cell_formula_units_Z 56
_cell_length_a 27.159959
_cell_length_b 8.788386
_cell_length_c 12.532010
_cell_angle_alpha 90.000000
_cell_angle_beta 112.760005
_cell_angle_gamma 90.000000
_cell_volume 2758.371349
_symmetry_space_group_name_H-M "C 2/M"
_symmetry_group_IT_number 12
_symmetry_cell_setting 'monoclinic'
loop_
_space_group_symop_operation_xyz
x,y,z
-x,y,-z
-x,-y,-z
x,-y,z
1/2+x,1/2+y,z
1/2-x,1/2+y,-z
1/2-x,1/2-y,-z
1/2+x,1/2-y,z
loop_
_atom_site_type_symbol
_atom_site_label
_atom_site_fract_x
_atom_site_fract_y
_atom_site_fract_z
Si Si1 0.611025 0.679820 0.727531
Si Si2 0.508916 0.321622 0.321116
Si Si3 0.194621 0.826011 0.425208
Si Si4 0.960727 0.674668 0.870495
Si Si5 0.146511 0.173655 0.160812
Si Si6 0.693396 0.678999 0.975845
Si Si7 0.108758 0.679766 0.503896
O O1 0.614474 0.500000 0.715036
O O2 0.551149 0.731660 0.705856
O O3 0.649808 0.737446 0.853981
O O4 0.629935 0.759918 0.634801
O O5 0.516567 0.500000 0.346771
O O6 0.522691 0.284131 0.211217
O O7 0.548191 0.235050 0.434878
O O8 0.250000 0.750000 0.500000
O O9 0.188131 0.814422 0.292608
O O10 0.145586 0.741864 0.440195
O O11 0.194942 0.000000 0.464182
O O12 0.962819 0.500000 0.833621
O O13 0.901894 0.713058 0.860296
O O14 0.000000 0.706868 0.000000
O O15 0.125622 0.000000 0.130719
O O16 0.175639 0.230178 0.078585
O O17 0.699186 0.500000 0.973126
O O18 0.750000 0.750000 0.000000
O O19 0.111289 0.500000 0.504348
#
# Coordination Sequence:
#
# PCOD8112206 Si02
#       7
#     8   8   8   8   8   8   8
#     4  10  23  42  64  91 126 168 214 260 312 378
#     4  11  22  40  65  92 125 166 212 259 315 381
#     4  11  24  42  66  96 129 166 211 260 315 375
#     4  11  23  37  59  93 130 165 208 258 311 371
#     4  10  22  42  66  91 124 165 211 256 309 376
#     4  10  23  43  65  93 124 161 210 260 311 370
#     4  12  25  41  64  95 131 166 209 261 317 378
#
# _framework density 20.301833999999999
#
# number of rings (size 3 to 8) (size 9 to 14) (size 15 to 20)
#    0.000    1.286    1.429    3.857    2.000    6.857 
#    0.000    0.000    0.000    0.000    0.000    0.000 
#    0.000    0.000    0.000    0.000    0.000    0.000 
#
# Total GULP energy -347389.153235 kJ/mol
# GULP energy per Si atom -12406.755473 kJ/mol
# Density = 2.025563 g / cm^3
# Si number density = 20.301834 Si / 1000 Ang^3
#
#
#
# Elastic Constant Matrix: (Units=GPa)
#
#
# Indices 1 2 3 4 5 6 
#
# 1 106.1281 34.1983 58.4517 0.0000 5.4747 0.0000
# 2 34.1983 72.8719 46.8827 0.0000 6.6618 0.0000
# 3 58.4517 46.8827 145.4251 0.0000 -2.8990 0.0000
# 4 0.0000 0.0000 0.0000 26.8825 0.0000 1.8422
# 5 5.4747 6.6618 -2.8990 0.0000 41.8647 0.0000
# 6 0.0000 0.0000 0.0000 1.8422 0.0000 35.8022
#
#
#
# Elastic Compliance Matrix: (Units=1/GPa)
#
#
# Indices 1 2 3 4 5 6 
#
# 1 0.012816 -0.003216 -0.004143 0.000000 -0.001451 0.000000
# 2 -0.003216 0.018545 -0.004743 0.000000 -0.002859 0.000000
# 3 -0.004143 -0.004743 0.010111 0.000000 0.001997 0.000000
# 4 0.000000 0.000000 0.000000 0.037331 0.000000 -0.001921
# 5 -0.001451 -0.002859 0.001997 0.000000 0.024669 0.000000
# 6 0.000000 0.000000 0.000000 -0.001921 0.000000 0.028030
#
#
# Mechanical properties :
#
#
# Convention : Reuss Voigt Hill
#
# Bulk Modulus (GPa) = 57.91518 67.05450 62.48484
# Shear Modulus (GPa) = 30.96727 33.23605 32.10166
#
# Velocity S-wave (km/s) = 3.90980 4.05049 3.98077
# Velocity P-wave (km/s) = 6.99793 7.41457 7.20926
#
# Compressibility (1/GPa) = 0.01726663
#
# Stress axis : x y z
#
# Youngs Moduli (GPa) = 78.02922 53.92378 98.90687
#
# Poissons Ratio (x) = 0.17342 0.40979
# Poissons Ratio (y) = 0.25095 0.46910
# Poissons Ratio (z) = 0.32329 0.25575
#
# Static dielectric constant tensor:
#      x y z
#    x 3.590370 0.000000 0.113840 
#    y 0.000000 3.666850 0.000000 
#    z 0.113840 0.000000 3.863130 
# 
# 
# High freq. dielectric constant tensor:
#      x y z
#    x 1.797150 0.000000 -0.000950 
#    y 0.000000 1.792240 0.000000 
#    z -0.000950 0.000000 1.811680 
# 
# From -- ./inp_files/180778.got.cif
#   From: 2010.06.25/outbox.cif.g09.slc.cpg/sg12_91_cif.got.tgz:180778.got - 2010.06.28 00:19:55.
