data_PCOD8112622
_publ_section_title
;
Structure prediction by ZEFSAII (Michael W. Deem and Ramdas Pophale) SiO2 
 PCOD8112622
Probable space group: C 2/M
;
_chemical_formula_sum "Si O2"
_cell_formula_units_Z 40
_cell_length_a 13.678417
_cell_length_b 14.753908
_cell_length_c 15.049677
_cell_angle_alpha 90.000000
_cell_angle_beta 139.938560
_cell_angle_gamma 90.000000
_cell_volume 1954.753461
_symmetry_space_group_name_H-M "C 2/M"
_symmetry_group_IT_number 12
_symmetry_cell_setting 'monoclinic'
loop_
_space_group_symop_operation_xyz
x,y,z
-x,y,-z
-x,-y,-z
x,-y,z
1/2+x,1/2+y,z
1/2-x,1/2+y,-z
1/2-x,1/2-y,-z
1/2+x,1/2-y,z
loop_
_atom_site_type_symbol
_atom_site_label
_atom_site_fract_x
_atom_site_fract_y
_atom_site_fract_z
Si Si1 0.827581 0.500000 0.908204
Si Si2 0.650685 0.834613 0.547436
Si Si3 0.835515 0.000000 0.757964
Si Si4 0.350161 0.160959 0.656428
Si Si5 0.178337 0.349873 0.953901
Si Si6 0.323423 0.500000 0.382992
Si Si7 0.338433 0.500000 0.968921
O O1 0.726436 0.500000 0.752251
O O2 0.787316 0.407383 0.933110
O O3 0.000000 0.500000 0.000000
O O4 0.500000 0.812210 0.500000
O O5 0.743992 0.914701 0.658082
O O6 0.600729 0.855516 0.411701
O O7 0.769274 0.754052 0.623097
O O8 0.861017 0.000000 0.880493
O O9 0.015880 0.000000 0.860804
O O10 0.497881 0.156903 0.820199
O O11 0.231025 0.085622 0.600181
O O12 0.243972 0.408321 0.918873
O O13 0.250000 0.250000 0.000000
O O14 0.500000 0.500000 0.500000
#
# Coordination Sequence:
#
# PCOD8112622 Si02
#       7
#     4   8   4   8   8   4   4
#     4  11  23  45  66  94 133 169 226 269 316 409
#     4  11  24  41  64  92 128 168 212 262 327 390
#     4  11  22  40  62  88 127 163 203 259 318 378
#     4  11  24  42  63  96 131 164 221 272 314 400
#     4  11  23  42  68  93 128 172 213 269 332 378
#     4  12  25  43  69  96 131 179 215 271 336 385
#     4  10  23  40  61  95 124 159 219 260 310 397
#
# _framework density 20.462938000000001
#
# number of rings (size 3 to 8) (size 9 to 14) (size 15 to 20)
#    0.000    1.000    2.000    4.500    0.000    9.600 
#    3.600    0.000    0.000    0.000    0.000    0.000 
#    0.000    0.000    0.000    0.000    0.000    0.000 
#
# Total GULP energy -247909.374350 kJ/mol
# GULP energy per Si atom -12395.468717 kJ/mol
# Density = 2.041636 g / cm^3
# Si number density = 20.462938 Si / 1000 Ang^3
#
#
#
# Elastic Constant Matrix: (Units=GPa)
#
#
# Indices 1 2 3 4 5 6 
#
# 1 125.8966 41.9143 50.9046 0.0000 -0.6350 0.0002
# 2 41.9143 122.2355 25.4612 0.0000 -5.2781 0.0001
# 3 50.9046 25.4612 95.8590 -0.0001 5.0255 0.0002
# 4 0.0000 0.0000 -0.0001 16.0102 -0.0001 7.7148
# 5 -0.6350 -5.2781 5.0255 -0.0001 44.0221 0.0002
# 6 0.0002 0.0001 0.0002 7.7148 0.0002 219.1686
#
#
#
# Elastic Compliance Matrix: (Units=1/GPa)
#
#
# Indices 1 2 3 4 5 6 
#
# 1 0.010891 -0.002654 -0.005101 0.000000 0.000421 0.000000
# 2 -0.002654 0.009382 -0.001147 0.000000 0.001218 0.000000
# 3 -0.005101 -0.001147 0.013537 0.000000 -0.001756 0.000000
# 4 0.000000 0.000000 0.000000 0.063538 0.000000 -0.002237
# 5 0.000421 0.001218 -0.001756 0.000000 0.023068 0.000000
# 6 0.000000 0.000000 0.000000 -0.002237 0.000000 0.004641
#
#
# Mechanical properties :
#
#
# Convention : Reuss Voigt Hill
#
# Bulk Modulus (GPa) = 62.46750 64.50570 63.48660
# Shear Modulus (GPa) = 33.73885 70.88758 52.31322
#
# Velocity S-wave (km/s) = 4.06492 5.89213 5.06166
# Velocity P-wave (km/s) = 7.25430 8.82503 8.07793
#
# Compressibility (1/GPa) = 0.01600833
#
# Stress axis : x y z
#
# Youngs Moduli (GPa) = 91.81789 106.58318 73.86995
#
# Poissons Ratio (x) = 0.28286 0.37679
# Poissons Ratio (y) = 0.24367 0.08470
# Poissons Ratio (z) = 0.46834 0.12221
#
# Static dielectric constant tensor:
#      x y z
#    x 3.983380 0.000000 0.031780 
#    y 0.000000 4.467320 0.000000 
#    z 0.031780 0.000000 3.774190 
# 
# 
# High freq. dielectric constant tensor:
#      x y z
#    x 1.818030 0.000000 0.005350 
#    y 0.000000 1.811810 0.000000 
#    z 0.005350 0.000000 1.809630 
# 
# From -- ./inp_files/215119.got.cif
#   From: 2010.06.25/outbox.cif.g09.slc.cpg/sg12_108_cif.got.tgz:215119.got - 2010.06.28 00:19:55.
