data_PCOD8112510
_publ_section_title
;
Structure prediction by ZEFSAII (Michael W. Deem and Ramdas Pophale) SiO2 
 PCOD8112510
Probable space group: C 2/M
;
_chemical_formula_sum "Si O2"
_cell_formula_units_Z 44
_cell_length_a 10.452130
_cell_length_b 22.586159
_cell_length_c 14.697072
_cell_angle_alpha 90.000000
_cell_angle_beta 139.571928
_cell_angle_gamma 90.000000
_cell_volume 2250.003826
_symmetry_space_group_name_H-M "C 2/M"
_symmetry_group_IT_number 12
_symmetry_cell_setting 'monoclinic'
loop_
_space_group_symop_operation_xyz
x,y,z
-x,y,-z
-x,-y,-z
x,-y,z
1/2+x,1/2+y,z
1/2-x,1/2+y,-z
1/2-x,1/2-y,-z
1/2+x,1/2-y,z
loop_
_atom_site_type_symbol
_atom_site_label
_atom_site_fract_x
_atom_site_fract_y
_atom_site_fract_z
Si Si1 0.401732 0.698932 0.830745
Si Si2 0.632418 0.000000 0.660296
Si Si3 0.810248 0.703200 0.458993
Si Si4 0.435470 0.500000 0.071103
Si Si5 0.041540 0.378568 0.699695
Si Si6 0.000000 0.307566 0.000000
Si Si7 0.774027 0.376194 0.021200
O O1 0.379664 0.697587 0.709080
O O2 0.219670 0.663189 0.769448
O O3 0.605247 0.667468 0.969295
O O4 0.401227 0.765839 0.869408
O O5 0.500000 0.000000 0.500000
O O6 0.583191 0.945136 0.696422
O O7 0.864236 0.000000 0.760253
O O8 0.750000 0.750000 0.500000
O O9 0.000000 0.721448 0.500000
O O10 0.850371 0.643376 0.539735
O O11 0.310201 0.442533 0.031307
O O12 0.500000 0.500000 0.000000
O O13 0.036970 0.375230 0.807436
O O14 0.159213 0.351281 0.040189
#
# Coordination Sequence:
#
# PCOD8112510 Si02
#       7
#     8   4   8   4   8   4   8
#     4  11  21  38  59  88 123 158 206 245 307 364
#     4  12  22  38  64  96 116 148 204 258 313 351
#     4  10  23  37  57  87 123 161 200 251 306 368
#     4  12  22  43  68  89 117 158 204 266 301 360
#     4  11  21  39  61  91 121 157 203 258 303 365
#     4  12  26  35  62  93 128 168 198 256 306 380
#     4  12  23  40  63  90 124 160 210 252 312 366
#
# _framework density 19.555522
#
# number of rings (size 3 to 8) (size 9 to 14) (size 15 to 20)
#    0.000    0.727    5.455    3.273    5.091    0.364 
#    0.000    0.000    0.000    0.000    0.000    1.909 
#    0.000    0.000    0.000    0.000    0.000    0.000 
#
# Total GULP energy -272653.578308 kJ/mol
# GULP energy per Si atom -12393.344469 kJ/mol
# Density = 1.951101 g / cm^3
# Si number density = 19.555522 Si / 1000 Ang^3
#
#
#
# Elastic Constant Matrix: (Units=GPa)
#
#
# Indices 1 2 3 4 5 6 
#
# 1 52.0384 54.4020 12.1292 0.0000 -3.9859 0.0000
# 2 54.4020 158.0377 45.4699 0.0000 -6.6950 0.0000
# 3 12.1292 45.4699 152.9364 0.0000 -21.6009 0.0000
# 4 0.0000 0.0000 0.0000 29.1961 0.0000 3.7885
# 5 -3.9859 -6.6950 -21.6009 0.0000 15.1908 0.0000
# 6 0.0000 0.0000 0.0000 3.7885 0.0000 29.6122
#
#
#
# Elastic Compliance Matrix: (Units=1/GPa)
#
#
# Indices 1 2 3 4 5 6 
#
# 1 0.030458 -0.010695 0.001536 0.000000 0.005462 0.000000
# 2 -0.010695 0.010675 -0.002575 0.000000 -0.001762 0.000000
# 3 0.001536 -0.002575 0.008858 0.000000 0.011864 0.000000
# 4 0.000000 0.000000 0.000000 0.034829 0.000000 -0.004456
# 5 0.005462 -0.001762 0.011864 0.000000 0.083356 0.000000
# 6 0.000000 0.000000 0.000000 -0.004456 0.000000 0.034340
#
#
# Mechanical properties :
#
#
# Convention : Reuss Voigt Hill
#
# Bulk Modulus (GPa) = 37.70298 65.22388 51.46343
# Shear Modulus (GPa) = 21.29239 31.53390 26.41314
#
# Velocity S-wave (km/s) = 3.30330 4.01999 3.67914
# Velocity P-wave (km/s) = 5.81987 7.41436 6.66497
#
# Compressibility (1/GPa) = 0.02652310
#
# Stress axis : x y z
#
# Youngs Moduli (GPa) = 32.83220 93.67395 112.89191
#
# Poissons Ratio (x) = 1.00185 -0.17336
# Poissons Ratio (y) = 0.35114 0.29065
# Poissons Ratio (z) = -0.05042 0.24117
#
# Static dielectric constant tensor:
#      x y z
#    x 3.274260 0.000000 -0.148410 
#    y 0.000000 3.520050 0.000000 
#    z -0.148410 0.000000 4.335360 
# 
# 
# High freq. dielectric constant tensor:
#      x y z
#    x 1.723930 0.000000 -0.017660 
#    y 0.000000 1.767560 0.000000 
#    z -0.017660 0.000000 1.783950 
# 
# From -- ./inp_files/207827.got.cif
#   From: 2010.06.25/outbox.cif.g09.slc.cpg/sg12_104_cif.got.tgz:207827.got - 2010.06.28 00:19:55.
