data_PCOD8112289
_publ_section_title
;
Structure prediction by ZEFSAII (Michael W. Deem and Ramdas Pophale) SiO2 
 PCOD8112289
Probable space group: C 2/M
;
_chemical_formula_sum "Si O2"
_cell_formula_units_Z 44
_cell_length_a 22.074373
_cell_length_b 15.006099
_cell_length_c 16.656634
_cell_angle_alpha 90.000000
_cell_angle_beta 21.504504
_cell_angle_gamma 90.000000
_cell_volume 2022.579115
_symmetry_space_group_name_H-M "C 2/M"
_symmetry_group_IT_number 12
_symmetry_cell_setting 'monoclinic'
loop_
_space_group_symop_operation_xyz
x,y,z
-x,y,-z
-x,-y,-z
x,-y,z
1/2+x,1/2+y,z
1/2-x,1/2+y,-z
1/2-x,1/2-y,-z
1/2+x,1/2-y,z
loop_
_atom_site_type_symbol
_atom_site_label
_atom_site_fract_x
_atom_site_fract_y
_atom_site_fract_z
Si Si1 0.338059 0.183298 0.648310
Si Si2 0.059290 0.500000 0.518730
Si Si3 0.197064 0.000000 0.264531
Si Si4 0.465399 0.599804 0.951754
Si Si5 0.307207 0.847912 0.245419
Si Si6 0.728906 0.857476 0.530590
Si Si7 0.034641 0.500000 0.196468
O O1 0.500000 0.203273 0.500000
O O2 0.341574 0.092149 0.591137
O O3 0.307339 0.261286 0.623362
O O4 0.178235 0.167684 0.903660
O O5 0.000000 0.500000 0.500000
O O6 0.925789 0.500000 0.756192
O O7 0.258078 0.914252 0.236163
O O8 0.000000 0.000000 0.500000
O O9 0.287683 0.000000 0.066484
O O10 0.392766 0.500000 0.041696
O O11 0.620340 0.600919 0.702998
O O12 0.500000 0.631740 0.000000
O O13 0.263388 0.887342 0.386044
O O14 0.500000 0.823867 0.000000
O O15 0.750000 0.750000 0.500000
O O16 0.564000 0.907525 0.701827
#
# Coordination Sequence:
#
# PCOD8112289 Si02
#       7
#     8   4   4   8   8   8   4
#     4  11  23  43  66  97 143 182 219 281 357 417
#     4  10  22  42  68  98 144 178 217 273 355 428
#     4  12  28  50  71 100 141 188 234 290 345 412
#     4  11  22  38  64  96 132 174 224 283 339 409
#     4  12  24  47  72  98 133 182 240 289 338 403
#     4  12  24  40  71 103 132 175 235 292 340 398
#     4  12  23  45  72 103 136 181 234 288 347 410
#
# _framework density 21.754401999999999
#
# number of rings (size 3 to 8) (size 9 to 14) (size 15 to 20)
#    0.000    0.545    3.636    6.273    0.000    0.000 
#    6.545    0.909    0.000    0.000    0.000    0.000 
#    0.000    0.000    0.000    0.000    0.000    0.000 
#
# Total GULP energy -272565.438881 kJ/mol
# GULP energy per Si atom -12389.338131 kJ/mol
# Density = 2.170489 g / cm^3
# Si number density = 21.754402 Si / 1000 Ang^3
#
#
#
# Elastic Constant Matrix: (Units=GPa)
#
#
# Indices 1 2 3 4 5 6 
#
# 1 128.6153 35.8288 77.1173 0.0028 16.3100 -0.0039
# 2 35.8288 124.5243 22.0893 0.0024 -6.4152 -0.0042
# 3 77.1173 22.0893 161.1305 0.0006 6.2963 -0.0051
# 4 0.0028 0.0024 0.0006 28.7624 -0.0023 -2.8127
# 5 16.3100 -6.4152 6.2963 -0.0023 48.8206 0.0037
# 6 -0.0039 -0.0042 -0.0051 -2.8127 0.0037 31.9035
#
#
#
# Elastic Compliance Matrix: (Units=1/GPa)
#
#
# Indices 1 2 3 4 5 6 
#
# 1 0.012210 -0.002763 -0.005318 -0.000001 -0.003756 0.000001
# 2 -0.002763 0.008931 0.000016 0.000000 0.002095 0.000001
# 3 -0.005318 0.000016 0.008724 0.000000 0.000654 0.000001
# 4 -0.000001 0.000000 0.000000 0.035070 0.000002 0.003092
# 5 -0.003756 0.002095 0.000654 0.000002 0.021929 -0.000002
# 6 0.000001 0.000001 0.000001 0.003092 -0.000002 0.031617
#
#
# Mechanical properties :
#
#
# Convention : Reuss Voigt Hill
#
# Bulk Modulus (GPa) = 72.81101 76.03787 74.42444
# Shear Modulus (GPa) = 35.92251 40.51293 38.21772
#
# Velocity S-wave (km/s) = 4.06800 4.32010 4.19594
# Velocity P-wave (km/s) = 7.45701 7.74036 7.60000
#
# Compressibility (1/GPa) = 0.01373419
#
# Stress axis : x y z
#
# Youngs Moduli (GPa) = 81.90026 111.97426 114.63134
#
# Poissons Ratio (x) = 0.30941 0.60962
# Poissons Ratio (y) = 0.22631 -0.00187
# Poissons Ratio (z) = 0.43555 -0.00183
#
# Static dielectric constant tensor:
#      x y z
#    x 3.899580 0.000020 0.160310 
#    y 0.000020 4.065880 0.000020 
#    z 0.160310 0.000020 4.428800 
# 
# 
# High freq. dielectric constant tensor:
#      x y z
#    x 1.838990 0.000000 0.008620 
#    y 0.000000 1.875240 0.000000 
#    z 0.008620 0.000000 1.859010 
# 
# From -- ./inp_files/290029.got.cif
#   From: 2010.06.25/outbox.cif.g09.slc.cpg/sg12_146_cif.got.tgz:290029.got - 2010.06.28 00:19:55.
