data_PCOD8112203
_publ_section_title
;
Structure prediction by ZEFSAII (Michael W. Deem and Ramdas Pophale) SiO2 
 PCOD8112203
Probable space group: C 2/M
;
_chemical_formula_sum "Si O2"
_cell_formula_units_Z 48
_cell_length_a 19.588344
_cell_length_b 8.495714
_cell_length_c 26.131573
_cell_angle_alpha 90.000000
_cell_angle_beta 147.191412
_cell_angle_gamma 90.000000
_cell_volume 2356.294500
_symmetry_space_group_name_H-M "C 2/M"
_symmetry_group_IT_number 12
_symmetry_cell_setting 'monoclinic'
loop_
_space_group_symop_operation_xyz
x,y,z
-x,y,-z
-x,-y,-z
x,-y,z
1/2+x,1/2+y,z
1/2-x,1/2+y,-z
1/2-x,1/2-y,-z
1/2+x,1/2-y,z
loop_
_atom_site_type_symbol
_atom_site_label
_atom_site_fract_x
_atom_site_fract_y
_atom_site_fract_z
Si Si1 0.322357 0.317272 0.913902
Si Si2 0.611759 0.683711 0.421016
Si Si3 0.866875 0.817321 0.738298
Si Si4 0.437000 0.181817 0.888351
Si Si5 0.454824 0.816547 0.231560
Si Si6 0.896664 0.316421 0.476819
O O1 0.323658 0.500000 0.900171
O O2 0.339131 0.221062 0.871928
O O3 0.191796 0.269753 0.858342
O O4 0.434537 0.280552 0.024120
O O5 0.608988 0.500000 0.405968
O O6 0.750000 0.750000 0.500000
O O7 0.516762 0.774606 0.324499
O O8 0.568668 0.714371 0.451806
O O9 0.873241 0.720070 0.794402
O O10 0.740542 0.765530 0.629454
O O11 0.985576 0.781776 0.777108
O O12 0.863470 0.000000 0.750338
O O13 0.472911 0.000000 0.913599
O O14 0.474381 0.000000 0.232424
O O15 0.899308 0.500000 0.493047
O O16 0.000000 0.274051 0.500000
#
# Coordination Sequence:
#
# PCOD8112203 Si02
#       6
#     8   8   8   8   8   8
#     4  10  22  42  66  91 121 160 205 249 306 368
#     4  12  24  40  63  90 125 164 204 249 301 361
#     4  11  23  40  63  90 124 164 203 252 307 360
#     4  11  23  40  64  92 126 160 200 254 305 360
#     4  11  24  41  64  92 123 160 204 254 304 361
#     4  10  23  42  63  90 123 161 207 253 303 357
#
# _framework density 20.370967
#
# number of rings (size 3 to 8) (size 9 to 14) (size 15 to 20)
#    0.000    1.167    1.667    5.500    2.333    4.333 
#    0.000    0.000    0.000    0.000    0.000    0.000 
#    0.000    0.000    0.000    0.000    0.000    0.000 
#
# Total GULP energy -297775.898187 kJ/mol
# GULP energy per Si atom -12407.329091 kJ/mol
# Density = 2.032460 g / cm^3
# Si number density = 20.370967 Si / 1000 Ang^3
#
#
#
# Elastic Constant Matrix: (Units=GPa)
#
#
# Indices 1 2 3 4 5 6 
#
# 1 93.4451 20.6782 19.8990 0.0002 4.4376 0.0001
# 2 20.6782 47.8482 17.2726 0.0002 6.9151 -0.0002
# 3 19.8990 17.2726 44.9216 0.0002 1.6278 0.0000
# 4 0.0002 0.0002 0.0002 29.7940 0.0001 -4.0133
# 5 4.4376 6.9151 1.6278 0.0001 42.2971 0.0001
# 6 0.0001 -0.0002 0.0000 -4.0133 0.0001 37.3955
#
#
#
# Elastic Compliance Matrix: (Units=1/GPa)
#
#
# Indices 1 2 3 4 5 6 
#
# 1 0.012432 -0.003851 -0.004007 0.000000 -0.000521 0.000000
# 2 -0.003851 0.026025 -0.008173 0.000000 -0.003536 0.000000
# 3 -0.004007 -0.008173 0.027153 0.000000 0.000712 0.000000
# 4 0.000000 0.000000 0.000000 0.034056 0.000000 0.003655
# 5 -0.000521 -0.003536 0.000712 0.000000 0.024248 0.000000
# 6 0.000000 0.000000 0.000000 0.003655 0.000000 0.027133
#
#
# Mechanical properties :
#
#
# Convention : Reuss Voigt Hill
#
# Bulk Modulus (GPa) = 29.80836 33.54604 31.67720
# Shear Modulus (GPa) = 25.73461 30.45499 28.09480
#
# Velocity S-wave (km/s) = 3.55815 3.87074 3.71773
# Velocity P-wave (km/s) = 5.61650 6.03988 5.83204
#
# Compressibility (1/GPa) = 0.03354764
#
# Stress axis : x y z
#
# Youngs Moduli (GPa) = 80.43980 38.42479 36.82853
#
# Poissons Ratio (x) = 0.14796 0.14759
# Poissons Ratio (y) = 0.30974 0.30099
# Poissons Ratio (z) = 0.32236 0.31404
#
# Static dielectric constant tensor:
#      x y z
#    x 3.732400 0.000000 0.004740 
#    y 0.000000 3.744540 0.000000 
#    z 0.004740 0.000000 3.735440 
# 
# 
# High freq. dielectric constant tensor:
#      x y z
#    x 1.803990 0.000000 0.000090 
#    y 0.000000 1.802500 0.000000 
#    z 0.000090 0.000000 1.798720 
# 
# From -- ./inp_files/365572.got.cif
#   From: 2010.06.25/outbox.cif.g09.slc.cpg/sg12_183_cif.got.tgz:365572.got - 2010.06.28 00:19:55.
