data_PCOD8112758
_publ_section_title
;
Structure prediction by ZEFSAII (Michael W. Deem and Ramdas Pophale) SiO2 
 PCOD8112758
Probable space group: C 2/M
;
_chemical_formula_sum "Si O2"
_cell_formula_units_Z 48
_cell_length_a 26.364119
_cell_length_b 20.311045
_cell_length_c 10.779246
_cell_angle_alpha 90.000000
_cell_angle_beta 157.904345
_cell_angle_gamma 90.000000
_cell_volume 2171.198841
_symmetry_space_group_name_H-M "C 2/M"
_symmetry_group_IT_number 12
_symmetry_cell_setting 'monoclinic'
loop_
_space_group_symop_operation_xyz
x,y,z
-x,y,-z
-x,-y,-z
x,-y,z
1/2+x,1/2+y,z
1/2-x,1/2+y,-z
1/2-x,1/2-y,-z
1/2+x,1/2-y,z
loop_
_atom_site_type_symbol
_atom_site_label
_atom_site_fract_x
_atom_site_fract_y
_atom_site_fract_z
Si Si1 0.358880 0.658767 0.718655
Si Si2 0.696295 0.425218 0.046700
Si Si3 0.343694 0.924695 0.123877
Si Si4 0.643798 0.075229 0.349266
Si Si5 0.558615 0.302374 0.830544
Si Si6 0.267536 0.698424 0.255756
O O1 0.251543 0.602227 0.497185
O O2 0.308994 0.705464 0.493989
O O3 0.500000 0.624474 0.000000
O O4 0.382446 0.700553 0.896707
O O5 0.638697 0.500000 0.925809
O O6 0.761302 0.411271 0.062181
O O7 0.815100 0.413648 0.415301
O O8 0.575703 0.374362 0.804817
O O9 0.500000 0.909233 0.500000
O O10 0.324810 0.000000 0.035466
O O11 0.284391 0.875683 0.886346
O O12 0.630148 0.000000 0.282217
O O13 0.500000 0.110785 0.000000
O O14 0.399270 0.285123 0.469526
O O15 0.646954 0.249731 0.952216
#
# Coordination Sequence:
#
# PCOD8112758 Si02
#       6
#     8   8   8   8   8   8
#     4   9  20  38  58  87 125 160 203 250 309 368
#     4   9  20  41  62  84 124 163 205 258 307 367
#     4  10  24  43  64  91 125 166 211 260 310 364
#     4   9  18  31  56  89 117 156 204 253 310 367
#     4  10  23  41  64  96 124 162 206 259 312 367
#     4  11  24  40  64  93 126 167 206 254 313 374
#
# _framework density 22.107603000000001
#
# number of rings (size 3 to 8) (size 9 to 14) (size 15 to 20)
#    0.000    2.333    0.000    0.500    4.667    4.333 
#    0.000    5.833    0.000    0.000    0.000    0.000 
#    0.000    0.000    0.000    0.000    0.000    0.000 
#
# Total GULP energy -297537.931113 kJ/mol
# GULP energy per Si atom -12397.413796 kJ/mol
# Density = 2.205728 g / cm^3
# Si number density = 22.107603 Si / 1000 Ang^3
#
#
#
# Elastic Constant Matrix: (Units=GPa)
#
#
# Indices 1 2 3 4 5 6 
#
# 1 75.9480 39.4533 30.6790 0.0000 19.8019 0.0000
# 2 39.4533 104.7372 52.7878 0.0000 20.5920 0.0000
# 3 30.6790 52.7878 116.5956 0.0000 40.0171 0.0000
# 4 0.0000 0.0000 0.0000 28.7204 0.0000 8.0484
# 5 19.8019 20.5920 40.0171 0.0000 31.5979 0.0000
# 6 0.0000 0.0000 0.0000 8.0484 0.0000 21.9293
#
#
#
# Elastic Compliance Matrix: (Units=1/GPa)
#
#
# Indices 1 2 3 4 5 6 
#
# 1 0.017941 -0.005411 0.000668 0.000000 -0.008563 0.000000
# 2 -0.005411 0.014055 -0.005235 0.000000 0.000862 0.000000
# 3 0.000668 -0.005235 0.017235 0.000000 -0.018835 0.000000
# 4 0.000000 0.000000 0.000000 0.038810 0.000000 -0.014244
# 5 -0.008563 0.000862 -0.018835 0.000000 0.060305 0.000000
# 6 0.000000 0.000000 0.000000 -0.014244 0.000000 0.050829
#
#
# Mechanical properties :
#
#
# Convention : Reuss Voigt Hill
#
# Bulk Modulus (GPa) = 34.15950 60.34677 47.25314
# Shear Modulus (GPa) = 21.84449 28.07358 24.95903
#
# Velocity S-wave (km/s) = 3.14681 3.56738 3.36367
# Velocity P-wave (km/s) = 5.35614 6.65765 6.04204
#
# Compressibility (1/GPa) = 0.02927443
#
# Stress axis : x y z
#
# Youngs Moduli (GPa) = 55.73950 71.14763 58.01996
#
# Poissons Ratio (x) = 0.38500 -0.03877
# Poissons Ratio (y) = 0.30162 0.30376
# Poissons Ratio (z) = -0.03725 0.37248
#
# Static dielectric constant tensor:
#      x y z
#    x 3.987830 0.000000 0.202560 
#    y 0.000000 3.759850 0.000000 
#    z 0.202560 0.000000 4.077290 
# 
# 
# High freq. dielectric constant tensor:
#      x y z
#    x 1.871640 0.000000 0.010210 
#    y 0.000000 1.853990 0.000000 
#    z 0.010210 0.000000 1.875090 
# 
# From -- ./inp_files/184820.got.cif
#   From: 2010.06.25/outbox.cif.g09.slc.cpg/sg12_93_cif.got.tgz:184820.got - 2010.06.28 00:19:55.
