data_PCOD8112641
_publ_section_title
;
Structure prediction by ZEFSAII (Michael W. Deem and Ramdas Pophale) SiO2 
 PCOD8112641
Probable space group: C 2/M
;
_chemical_formula_sum "Si O2"
_cell_formula_units_Z 64
_cell_length_a 28.476936
_cell_length_b 18.454655
_cell_length_c 9.042585
_cell_angle_alpha 90.000000
_cell_angle_beta 138.708453
_cell_angle_gamma 90.000000
_cell_volume 3135.912091
_symmetry_space_group_name_H-M "C 2/M"
_symmetry_group_IT_number 12
_symmetry_cell_setting 'monoclinic'
loop_
_space_group_symop_operation_xyz
x,y,z
-x,y,-z
-x,-y,-z
x,-y,z
1/2+x,1/2+y,z
1/2-x,1/2+y,-z
1/2-x,1/2-y,-z
1/2+x,1/2-y,z
loop_
_atom_site_type_symbol
_atom_site_label
_atom_site_fract_x
_atom_site_fract_y
_atom_site_fract_z
Si Si1 0.164954 0.422154 0.994409
Si Si2 0.315502 0.417038 0.837672
Si Si3 0.072506 0.704526 0.756743
Si Si4 0.689621 0.307077 0.918840
Si Si5 0.327675 0.582891 0.355106
Si Si6 0.582592 0.368980 0.163196
Si Si7 0.573196 0.796079 0.107337
Si Si8 0.171022 0.421961 0.350650
O O1 0.154965 0.500000 0.893824
O O2 0.108459 0.369537 0.782664
O O3 0.245059 0.394490 0.168125
O O4 0.149438 0.427094 0.130037
O O5 0.324305 0.500000 0.915671
O O6 0.390208 0.392286 0.936912
O O7 0.255394 0.411411 0.568686
O O8 0.284931 0.366361 0.898499
O O9 0.127499 0.766934 0.855016
O O10 0.000000 0.718732 0.500000
O O11 0.062196 0.702525 0.906571
O O12 0.646540 0.354359 0.694667
O O13 0.750000 0.250000 0.000000
O O14 0.336387 0.500000 0.318173
O O15 0.369238 0.588158 0.606567
O O16 0.594724 0.283554 0.213412
O O17 0.500000 0.389483 0.000000
O O18 0.630297 0.851360 0.314237
O O19 0.500000 0.822830 0.000000
O O20 0.148852 0.500000 0.372405
#
# Coordination Sequence:
#
# PCOD8112641 Si02
#       8
#     8   8   8   8   8   8   8   8
#     4   9  18  38  63  92 123 159 206 255 311 375
#     4  11  23  42  66  96 130 164 211 267 321 379
#     4  11  24  41  62  91 129 169 210 260 315 375
#     4  12  26  41  63  93 130 171 212 258 315 381
#     4  11  23  41  65  92 126 165 207 259 317 380
#     4  11  24  41  67  99 126 164 220 271 324 380
#     4  10  23  40  63  92 127 165 213 264 318 382
#     4   9  19  36  64  95 125 161 205 263 321 378
#
# _framework density 20.408735
#
# number of rings (size 3 to 8) (size 9 to 14) (size 15 to 20)
#    0.000    1.500    3.750    0.750    5.250    2.000 
#    0.000    0.000    0.000    2.250    0.000    0.000 
#    0.000    0.000    0.000    0.000    0.000    0.000 
#
# Total GULP energy -396437.203898 kJ/mol
# GULP energy per Si atom -12388.662622 kJ/mol
# Density = 2.036228 g / cm^3
# Si number density = 20.408735 Si / 1000 Ang^3
#
#
#
# Elastic Constant Matrix: (Units=GPa)
#
#
# Indices 1 2 3 4 5 6 
#
# 1 105.9702 49.7379 24.5779 0.0000 8.1477 0.0000
# 2 49.7379 126.1588 30.0526 0.0000 8.4218 0.0000
# 3 24.5779 30.0526 57.2992 0.0000 3.6746 0.0000
# 4 0.0000 0.0000 0.0000 29.6438 0.0000 -11.0811
# 5 8.1477 8.4218 3.6746 0.0000 26.6906 0.0000
# 6 0.0000 0.0000 0.0000 -11.0811 0.0000 -8.3697
#
#
#
# Elastic Compliance Matrix: (Units=1/GPa)
#
#
# Indices 1 2 3 4 5 6 
#
# 1 0.012138 -0.003931 -0.003013 0.000000 -0.002050 0.000000
# 2 -0.003931 0.010464 -0.003700 0.000000 -0.001592 0.000000
# 3 -0.003013 -0.003700 0.020735 0.000000 -0.000767 0.000000
# 4 0.000000 0.000000 0.000000 0.022566 0.000000 -0.029876
# 5 -0.002050 -0.001592 -0.000767 0.000000 0.038700 0.000000
# 6 0.000000 0.000000 0.000000 -0.029876 0.000000 -0.079924
#
#
# Mechanical properties :
#
#
# Convention : Reuss Voigt Hill
#
# Bulk Modulus (GPa) = 45.35492 55.35165 50.35328
# Shear Modulus (GPa) = 93.77911 21.93025 57.85468
#
# Velocity S-wave (km/s) = 6.78603 3.28159 5.33006
# Velocity P-wave (km/s) = 9.14723 6.44507 7.91236
#
# Compressibility (1/GPa) = 0.02204833
#
# Stress axis : x y z
#
# Youngs Moduli (GPa) = 82.38550 95.56686 48.22849
#
# Poissons Ratio (x) = 0.37565 0.14533
# Poissons Ratio (y) = 0.32383 0.17845
# Poissons Ratio (z) = 0.24826 0.35360
#
# Static dielectric constant tensor:
#      x y z
#    x 3.722620 0.000000 0.034260 
#    y 0.000000 4.245120 0.000000 
#    z 0.034260 0.000000 3.434310 
# 
# 
# High freq. dielectric constant tensor:
#      x y z
#    x 1.789990 0.000000 0.002390 
#    y 0.000000 1.822770 0.000000 
#    z 0.002390 0.000000 1.774200 
# 
# From -- ./inp_files/112915.got.cif
#   From: 2010.06.25/outbox.cif.g09.slc.cpg/sg12_57_cif.got.tgz:112915.got - 2010.06.28 00:19:55.
