data_PCOD8112296
_publ_section_title
;
Structure prediction by ZEFSAII (Michael W. Deem and Ramdas Pophale) SiO2 
 PCOD8112296
Probable space group: C 2/M
;
_chemical_formula_sum "Si O2"
_cell_formula_units_Z 56
_cell_length_a 29.810460
_cell_length_b 11.636903
_cell_length_c 8.748743
_cell_angle_alpha 90.000000
_cell_angle_beta 59.759376
_cell_angle_gamma 90.000000
_cell_volume 2621.948998
_symmetry_space_group_name_H-M "C 2/M"
_symmetry_group_IT_number 12
_symmetry_cell_setting 'monoclinic'
loop_
_space_group_symop_operation_xyz
x,y,z
-x,y,-z
-x,-y,-z
x,-y,z
1/2+x,1/2+y,z
1/2-x,1/2+y,-z
1/2-x,1/2-y,-z
1/2+x,1/2-y,z
loop_
_atom_site_type_symbol
_atom_site_label
_atom_site_fract_x
_atom_site_fract_y
_atom_site_fract_z
Si Si1 0.538256 0.500000 0.693008
Si Si2 0.345517 0.133182 0.704134
Si Si3 0.635017 0.708314 0.814661
Si Si4 0.796393 0.372190 0.105938
Si Si5 0.949223 0.760340 0.482832
Si Si6 0.050911 0.630891 0.819415
Si Si7 0.209337 0.216632 0.439535
Si Si8 0.071543 0.000000 0.988112
O O1 0.559443 0.388876 0.567478
O O2 0.555857 0.500000 0.837805
O O3 0.475385 0.500000 0.809923
O O4 0.396243 0.213140 0.653613
O O5 0.316786 0.172854 0.598202
O O6 0.362549 0.000000 0.655386
O O7 0.303781 0.146321 0.912476
O O8 0.674046 0.770833 0.860656
O O9 0.596312 0.803051 0.822304
O O10 0.663879 0.653540 0.615496
O O11 0.606013 0.611665 0.962349
O O12 0.816399 0.500000 0.116020
O O13 0.735856 0.362492 0.263229
O O14 0.961381 0.672396 0.328097
O O15 0.000000 0.758169 0.500000
O O16 0.067835 0.500000 0.786441
O O17 0.000000 0.655688 0.000000
O O18 0.250000 0.250000 0.500000
#
# Coordination Sequence:
#
# PCOD8112296 Si02
#       8
#     4   8   8   8   8   8   8   4
#     4  11  23  44  62  94 130 188 220 284 324 392
#     4  11  24  45  70  99 137 178 219 276 339 400
#     4  11  22  41  65 101 127 176 221 280 329 399
#     4  10  24  43  68  97 136 174 216 277 341 403
#     4  12  26  43  67  97 140 179 225 269 333 405
#     4  11  23  39  65  97 133 174 219 272 327 392
#     4  10  22  42  69  96 129 168 222 274 333 396
#     4  11  22  38  72  92 134 172 234 276 333 380
#
# _framework density 21.358156000000001
#
# number of rings (size 3 to 8) (size 9 to 14) (size 15 to 20)
#    0.000    1.143    2.857    2.357    5.000    3.429 
#    5.143    0.000    0.000    0.000    0.000    0.000 
#    0.000    0.000    0.000    0.000    0.000    0.000 
#
# Total GULP energy -347038.648474 kJ/mol
# GULP energy per Si atom -12394.237446 kJ/mol
# Density = 2.130954 g / cm^3
# Si number density = 21.358156 Si / 1000 Ang^3
#
#
#
# Elastic Constant Matrix: (Units=GPa)
#
#
# Indices 1 2 3 4 5 6 
#
# 1 73.2985 27.7370 4.2941 0.0000 -2.2761 0.0000
# 2 27.7370 152.8750 27.2354 0.0000 -3.4232 0.0000
# 3 4.2941 27.2354 102.7607 0.0000 -23.2173 0.0000
# 4 0.0000 0.0000 0.0000 -65.8829 0.0000 -62.9970
# 5 -2.2761 -3.4232 -23.2173 0.0000 34.2639 0.0000
# 6 0.0000 0.0000 0.0000 -62.9970 0.0000 -0.5439
#
#
#
# Elastic Compliance Matrix: (Units=1/GPa)
#
#
# Indices 1 2 3 4 5 6 
#
# 1 0.014674 -0.002697 0.000308 0.000000 0.000914 0.000000
# 2 -0.002697 0.007373 -0.002026 0.000000 -0.000815 0.000000
# 3 0.000308 -0.002026 0.012061 0.000000 0.007990 0.000000
# 4 0.000000 0.000000 0.000000 0.000138 0.000000 -0.016018
# 5 0.000914 -0.000815 0.007990 0.000000 0.034579 0.000000
# 6 0.000000 0.000000 0.000000 -0.016018 0.000000 0.016752
#
#
# Mechanical properties :
#
#
# Convention : Reuss Voigt Hill
#
# Bulk Modulus (GPa) = 39.55866 49.71859 44.63863
# Shear Modulus (GPa) = 48.62311 11.54525 30.08418
#
# Velocity S-wave (km/s) = 4.77651 2.32751 3.75715
# Velocity P-wave (km/s) = 6.99870 5.52739 6.30610
#
# Compressibility (1/GPa) = 0.02527891
#
# Stress axis : x y z
#
# Youngs Moduli (GPa) = 68.14935 135.62624 82.91423
#
# Poissons Ratio (x) = 0.36575 -0.02554
# Poissons Ratio (y) = 0.18378 0.16795
# Poissons Ratio (z) = -0.02100 0.27473
#
# Static dielectric constant tensor:
#      x y z
#    x 3.901010 0.000000 -0.314110 
#    y 0.000000 3.825010 0.000000 
#    z -0.314110 0.000000 4.487010 
# 
# 
# High freq. dielectric constant tensor:
#      x y z
#    x 1.830020 0.000000 -0.013520 
#    y 0.000000 1.835810 0.000000 
#    z -0.013520 0.000000 1.858220 
# 
# From -- ./inp_files/110391.got.cif
#   From: 2010.06.25/outbox.cif.g09.slc.cpg/sg12_56_cif.got.tgz:110391.got - 2010.06.28 00:19:55.
