data_PCOD8112418
_publ_section_title
;
Structure prediction by ZEFSAII (Michael W. Deem and Ramdas Pophale) SiO2 
 PCOD8112418
Probable space group: C 2/M
;
_chemical_formula_sum "Si O2"
_cell_formula_units_Z 32
_cell_length_a 10.852137
_cell_length_b 24.237727
_cell_length_c 5.111978
_cell_angle_alpha 90.000000
_cell_angle_beta 109.122231
_cell_angle_gamma 90.000000
_cell_volume 1270.416352
_symmetry_space_group_name_H-M "C 2/M"
_symmetry_group_IT_number 12
_symmetry_cell_setting 'monoclinic'
loop_
_space_group_symop_operation_xyz
x,y,z
-x,y,-z
-x,-y,-z
x,-y,z
1/2+x,1/2+y,z
1/2-x,1/2+y,-z
1/2-x,1/2-y,-z
1/2+x,1/2-y,z
loop_
_atom_site_type_symbol
_atom_site_label
_atom_site_fract_x
_atom_site_fract_y
_atom_site_fract_z
Si Si1 0.416195 0.835239 0.691611
Si Si2 0.155870 0.228861 0.167255
Si Si3 0.357571 0.394527 0.801086
Si Si4 0.245605 0.437979 0.245503
O O1 0.500000 0.846856 0.500000
O O2 0.331290 0.777818 0.600903
O O3 0.354603 0.893977 0.711687
O O4 0.500000 0.817786 0.000000
O O5 0.206719 0.166711 0.288040
O O6 0.250000 0.250000 0.000000
O O7 0.000000 0.220059 0.000000
O O8 0.364492 0.429456 0.535579
O O9 0.500000 0.386235 0.000000
O O10 0.277899 0.426976 0.967409
O O11 0.190463 0.500000 0.228004
#
# Coordination Sequence:
#
# PCOD8112418 Si02
#       4
#     8   8   8   8
#     4  11  25  44  69 102 139 180 227 292 352 421
#     4  10  22  43  72 106 140 182 227 291 359 426
#     4  11  25  44  69 101 139 178 232 291 353 417
#     4  12  26  44  69  98 136 188 238 285 344 414
#
# _framework density 25.188593999999998
#
# number of rings (size 3 to 8) (size 9 to 14) (size 15 to 20)
#    0.000    1.000    2.500    3.000    3.500   11.000 
#    0.000    0.000    0.000    0.000    0.000    0.000 
#    0.000    0.000    0.000    0.000    0.000    0.000 
#
# Total GULP energy -198219.912942 kJ/mol
# GULP energy per Si atom -12388.744559 kJ/mol
# Density = 2.513126 g / cm^3
# Si number density = 25.188594 Si / 1000 Ang^3
#
#
#
# Elastic Constant Matrix: (Units=GPa)
#
#
# Indices 1 2 3 4 5 6 
#
# 1 79.6861 43.2997 6.6481 0.0000 -31.5764 0.0000
# 2 43.2997 248.0102 35.2290 0.0000 -6.3916 0.0000
# 3 6.6481 35.2290 96.3758 0.0000 -12.9208 0.0000
# 4 0.0000 0.0000 0.0000 35.3044 0.0000 -5.8042
# 5 -31.5764 -6.3916 -12.9208 0.0000 31.4417 0.0000
# 6 0.0000 0.0000 0.0000 -5.8042 0.0000 28.1960
#
#
#
# Elastic Compliance Matrix: (Units=1/GPa)
#
#
# Indices 1 2 3 4 5 6 
#
# 1 0.024382 -0.004061 0.003148 0.000000 0.024954 0.000000
# 2 -0.004061 0.004931 -0.002048 0.000000 -0.003917 0.000000
# 3 0.003148 -0.002048 0.011933 0.000000 0.007649 0.000000
# 4 0.000000 0.000000 0.000000 0.029317 0.000000 0.006035
# 5 0.024954 -0.003917 0.007649 0.000000 0.059213 0.000000
# 6 0.000000 0.000000 0.000000 0.006035 0.000000 0.036708
#
#
# Mechanical properties :
#
#
# Convention : Reuss Voigt Hill
#
# Bulk Modulus (GPa) = 28.30872 66.04729 47.17800
# Shear Modulus (GPa) = 27.14744 41.58143 34.36443
#
# Velocity S-wave (km/s) = 3.28650 4.06742 3.69763
# Velocity P-wave (km/s) = 5.06602 6.95245 6.08281
#
# Compressibility (1/GPa) = 0.03532481
#
# Stress axis : x y z
#
# Youngs Moduli (GPa) = 41.01468 202.80070 83.80247
#
# Poissons Ratio (x) = 0.82353 -0.26382
# Poissons Ratio (y) = 0.16655 0.17159
# Poissons Ratio (z) = -0.12912 0.41524
#
# Static dielectric constant tensor:
#      x y z
#    x 4.771720 0.000000 0.337930 
#    y 0.000000 4.934070 0.000000 
#    z 0.337930 0.000000 5.729970 
# 
# 
# High freq. dielectric constant tensor:
#      x y z
#    x 2.007590 0.000000 0.024330 
#    y 0.000000 2.037270 0.000000 
#    z 0.024330 0.000000 2.027650 
# 
# From -- ./inp_files/6056.got.cif
#   From: 2010.06.25/outbox.cif.g09.slc.cpg/sg12_4_cif.got.tgz:6056.got - 2010.06.28 00:19:55.
