data_PCOD8112747
_publ_section_title
;
Structure prediction by ZEFSAII (Michael W. Deem and Ramdas Pophale) SiO2 
 PCOD8112747
Probable space group: C 2/M
;
_chemical_formula_sum "Si O2"
_cell_formula_units_Z 40
_cell_length_a 19.141355
_cell_length_b 7.699841
_cell_length_c 25.980976
_cell_angle_alpha 90.000000
_cell_angle_beta 29.671061
_cell_angle_gamma 90.000000
_cell_volume 1895.538169
_symmetry_space_group_name_H-M "C 2/M"
_symmetry_group_IT_number 12
_symmetry_cell_setting 'monoclinic'
loop_
_space_group_symop_operation_xyz
x,y,z
-x,y,-z
-x,-y,-z
x,-y,z
1/2+x,1/2+y,z
1/2-x,1/2+y,-z
1/2-x,1/2-y,-z
1/2+x,1/2-y,z
loop_
_atom_site_type_symbol
_atom_site_label
_atom_site_fract_x
_atom_site_fract_y
_atom_site_fract_z
Si Si1 0.765508 0.000000 0.155201
Si Si2 0.407237 0.694801 0.300079
Si Si3 0.477273 0.500000 0.932600
Si Si4 0.408338 0.704470 0.510436
Si Si5 0.452875 0.702565 0.685434
Si Si6 0.590459 0.192968 0.094638
O O1 0.680308 0.822572 0.217482
O O2 0.891762 0.000000 0.114046
O O3 0.827575 0.000000 0.057861
O O4 0.457423 0.500000 0.256499
O O5 0.244783 0.711451 0.388726
O O6 0.428935 0.738269 0.346560
O O7 0.508134 0.816491 0.201621
O O8 0.489852 0.326225 0.890877
O O9 0.500000 0.772713 0.500000
O O10 0.388568 0.500000 0.525640
O O11 0.483710 0.761585 0.409625
O O12 0.405904 0.500000 0.714530
O O13 0.586650 0.000000 0.072762
O O14 0.750000 0.250000 0.000000
#
# Coordination Sequence:
#
# PCOD8112747 Si02
#       6
#     4   8   4   8   8   8
#     4  11  26  44  72  91 135 180 212 277 338 397
#     4  11  23  40  66 100 133 173 227 273 326 398
#     4  11  26  46  63 106 131 166 234 268 332 400
#     4  10  23  41  63  95 134 175 222 272 332 396
#     4  10  24  43  67  97 134 174 225 270 329 400
#     4  12  24  42  69  98 136 173 221 278 325 388
#
# _framework density 21.102186
#
# number of rings (size 3 to 8) (size 9 to 14) (size 15 to 20)
#    0.000    1.200    2.000    2.400    7.000    3.600 
#    0.000    2.000    0.000    0.000    0.000    0.000 
#    0.000    0.000    0.000    0.000    0.000    0.000 
#
# Total GULP energy -248077.180326 kJ/mol
# GULP energy per Si atom -12403.859016 kJ/mol
# Density = 2.105416 g / cm^3
# Si number density = 21.102186 Si / 1000 Ang^3
#
#
#
# Elastic Constant Matrix: (Units=GPa)
#
#
# Indices 1 2 3 4 5 6 
#
# 1 134.2123 37.7075 64.3546 0.0014 6.7599 -0.0052
# 2 37.7075 115.1890 38.3428 -0.0003 1.7763 -0.0107
# 3 64.3546 38.3428 130.3933 -0.0035 3.2222 -0.0001
# 4 0.0014 -0.0003 -0.0035 32.6515 0.0008 -5.8735
# 5 6.7599 1.7763 3.2222 0.0008 37.0363 0.0008
# 6 -0.0052 -0.0107 -0.0001 -5.8735 0.0008 20.2057
#
#
#
# Elastic Compliance Matrix: (Units=1/GPa)
#
#
# Indices 1 2 3 4 5 6 
#
# 1 0.010165 -0.001827 -0.004446 -0.000001 -0.001381 0.000001
# 2 -0.001827 0.009953 -0.002026 0.000001 0.000032 0.000005
# 3 -0.004446 -0.002026 0.010459 0.000001 -0.000001 -0.000002
# 4 -0.000001 0.000001 0.000001 0.032316 -0.000001 0.009394
# 5 -0.001381 0.000032 -0.000001 -0.000001 0.027251 -0.000002
# 6 0.000001 0.000005 -0.000002 0.009394 -0.000002 0.052222
#
#
# Mechanical properties :
#
#
# Convention : Reuss Voigt Hill
#
# Bulk Modulus (GPa) = 71.52658 73.40049 72.46353
# Shear Modulus (GPa) = 30.55785 33.93800 32.24792
#
# Velocity S-wave (km/s) = 3.80951 4.01467 3.91343
# Velocity P-wave (km/s) = 7.30197 7.50660 7.40499
#
# Compressibility (1/GPa) = 0.01398082
#
# Stress axis : x y z
#
# Youngs Moduli (GPa) = 98.37319 100.46982 95.61024
#
# Poissons Ratio (x) = 0.18351 0.42507
# Poissons Ratio (y) = 0.17968 0.19372
# Poissons Ratio (z) = 0.43735 0.20357
#
# Static dielectric constant tensor:
#      x y z
#    x 3.985980 0.000000 0.209750 
#    y 0.000000 4.099210 0.000000 
#    z 0.209750 0.000000 3.842690 
# 
# 
# High freq. dielectric constant tensor:
#      x y z
#    x 1.832660 0.000000 0.006030 
#    y 0.000000 1.836580 0.000000 
#    z 0.006030 0.000000 1.831270 
# 
# From -- ./inp_files/342732.got.cif
#   From: 2010.06.25/outbox.cif.g09.slc.cpg/sg12_172_cif.got.tgz:342732.got - 2010.06.28 00:19:55.
