data_PCOD8112704
_publ_section_title
;
Structure prediction by ZEFSAII (Michael W. Deem and Ramdas Pophale) SiO2 
 PCOD8112704
Probable space group: C 2/M
;
_chemical_formula_sum "Si O2"
_cell_formula_units_Z 48
_cell_length_a 14.697313
_cell_length_b 8.489426
_cell_length_c 28.417803
_cell_angle_alpha 90.000000
_cell_angle_beta 41.105348
_cell_angle_gamma 90.000000
_cell_volume 2331.130464
_symmetry_space_group_name_H-M "C 2/M"
_symmetry_group_IT_number 12
_symmetry_cell_setting 'monoclinic'
loop_
_space_group_symop_operation_xyz
x,y,z
-x,y,-z
-x,-y,-z
x,-y,z
1/2+x,1/2+y,z
1/2-x,1/2+y,-z
1/2-x,1/2-y,-z
1/2+x,1/2-y,z
loop_
_atom_site_type_symbol
_atom_site_label
_atom_site_fract_x
_atom_site_fract_y
_atom_site_fract_z
Si Si1 0.393834 0.817781 0.744383
Si Si2 0.847897 0.316331 0.102623
Si Si3 0.831464 0.183174 0.512069
Si Si4 0.911287 0.320207 0.630916
Si Si5 0.829189 0.178259 0.340161
Si Si6 0.355473 0.686071 0.998139
O O1 0.272966 0.713532 0.813240
O O2 0.419651 0.760538 0.681100
O O3 0.537650 0.789984 0.715509
O O4 0.351001 0.000000 0.763815
O O5 0.863712 0.500000 0.086106
O O6 0.807160 0.231885 0.069541
O O7 0.990505 0.253742 0.069641
O O8 0.750000 0.250000 0.500000
O O9 0.780068 0.274603 0.577564
O O10 0.993970 0.212508 0.439711
O O11 0.801379 0.000000 0.530877
O O12 0.964560 0.500000 0.606491
O O13 0.751854 0.306443 0.677443
O O14 0.879482 0.000000 0.329479
O O15 0.360731 0.500000 0.991368
O O16 0.250000 0.750000 0.000000
#
# Coordination Sequence:
#
# PCOD8112704 Si02
#       6
#     8   8   8   8   8   8
#     4  11  23  41  62  87 123 165 205 249 303 362
#     4  11  23  41  64  94 130 167 207 252 304 360
#     4  12  23  37  60  86 115 153 201 255 311 365
#     4  10  23  41  61  85 118 157 200 251 309 364
#     4  11  23  40  61  87 118 157 203 253 310 367
#     4  11  22  41  68  98 129 164 207 252 303 360
#
# _framework density 20.590868
#
# number of rings (size 3 to 8) (size 9 to 14) (size 15 to 20)
#    0.000    1.000    1.667    7.000    0.000    5.333 
#    0.000    5.000    0.000    0.000    0.000    0.000 
#    0.000    0.000    0.000    0.000    0.000    0.000 
#
# Total GULP energy -297708.551922 kJ/mol
# GULP energy per Si atom -12404.522997 kJ/mol
# Density = 2.054400 g / cm^3
# Si number density = 20.590868 Si / 1000 Ang^3
#
#
#
# Elastic Constant Matrix: (Units=GPa)
#
#
# Indices 1 2 3 4 5 6 
#
# 1 118.2158 25.5719 23.8867 -0.0003 -17.7945 -0.0009
# 2 25.5719 80.8786 16.6875 -0.0008 -3.7689 -0.0009
# 3 23.8867 16.6875 92.1229 -0.0001 -22.5118 0.0000
# 4 -0.0003 -0.0008 -0.0001 34.3870 0.0000 -4.4214
# 5 -17.7945 -3.7689 -22.5118 0.0000 18.3488 -0.0003
# 6 -0.0009 -0.0009 0.0000 -4.4214 -0.0003 34.3283
#
#
#
# Elastic Compliance Matrix: (Units=1/GPa)
#
#
# Indices 1 2 3 4 5 6 
#
# 1 0.010533 -0.002913 0.000209 0.000000 0.009873 0.000000
# 2 -0.002913 0.013651 -0.002460 0.000000 -0.003040 0.000000
# 3 0.000209 -0.002460 0.015956 0.000000 0.019274 0.000000
# 4 0.000000 0.000000 0.000000 0.029570 0.000000 0.003809
# 5 0.009873 -0.003040 0.019274 0.000000 0.087098 0.000001
# 6 0.000000 0.000000 0.000000 0.003809 0.000001 0.029621
#
#
# Mechanical properties :
#
#
# Convention : Reuss Voigt Hill
#
# Bulk Modulus (GPa) = 33.54328 47.05658 40.29993
# Shear Modulus (GPa) = 24.19008 32.41757 28.30382
#
# Velocity S-wave (km/s) = 3.43125 3.97213 3.71156
# Velocity P-wave (km/s) = 5.65895 6.62871 6.16294
#
# Compressibility (1/GPa) = 0.02981223
#
# Stress axis : x y z
#
# Youngs Moduli (GPa) = 94.93759 73.25287 62.67048
#
# Poissons Ratio (x) = 0.21342 -0.01312
# Poissons Ratio (y) = 0.27660 0.15419
# Poissons Ratio (z) = -0.01987 0.18022
#
# Static dielectric constant tensor:
#      x y z
#    x 3.925360 0.000000 -0.004320 
#    y 0.000000 4.005270 0.000000 
#    z -0.004320 0.000000 3.650030 
# 
# 
# High freq. dielectric constant tensor:
#      x y z
#    x 1.816370 0.000000 -0.005370 
#    y 0.000000 1.815520 0.000000 
#    z -0.005370 0.000000 1.797260 
# 
# From -- ./inp_files/360251.got.cif
#   From: 2010.06.25/outbox.cif.g09.slc.cpg/sg12_181_cif.got.tgz:360251.got - 2010.06.28 00:19:55.
