data_PCOD8112834
_publ_section_title
;
Structure prediction by ZEFSAII (Michael W. Deem and Ramdas Pophale) SiO2 
 PCOD8112834
Probable space group: C 2/M
;
_chemical_formula_sum "Si O2"
_cell_formula_units_Z 40
_cell_length_a 9.642515
_cell_length_b 9.623191
_cell_length_c 23.407305
_cell_angle_alpha 90.000000
_cell_angle_beta 65.684532
_cell_angle_gamma 90.000000
_cell_volume 1979.331203
_symmetry_space_group_name_H-M "C 2/M"
_symmetry_group_IT_number 12
_symmetry_cell_setting 'monoclinic'
loop_
_space_group_symop_operation_xyz
x,y,z
-x,y,-z
-x,-y,-z
x,-y,z
1/2+x,1/2+y,z
1/2-x,1/2+y,-z
1/2-x,1/2-y,-z
1/2+x,1/2-y,z
loop_
_atom_site_type_symbol
_atom_site_label
_atom_site_fract_x
_atom_site_fract_y
_atom_site_fract_z
Si Si1 0.741144 0.000000 0.431090
Si Si2 0.753672 0.164019 0.273567
Si Si3 0.818629 0.158258 0.132306
Si Si4 0.172484 0.838032 0.062767
Si Si5 0.922529 0.500000 0.421708
Si Si6 0.568541 0.738502 0.650423
O O1 0.601002 0.000000 0.409856
O O2 0.681905 0.000000 0.505071
O O3 0.854492 0.873475 0.403025
O O4 0.802653 0.196957 0.201139
O O5 0.613761 0.259243 0.317697
O O6 0.889565 0.215181 0.290620
O O7 0.717523 0.000000 0.287418
O O8 0.717825 0.268686 0.115065
O O9 0.992882 0.172464 0.084003
O O10 0.762549 0.000000 0.130035
O O11 0.224439 0.000000 0.052642
O O12 0.250000 0.750000 0.000000
O O13 0.873379 0.376753 0.389026
#
# Coordination Sequence:
#
# PCOD8112834 Si02
#       6
#     4   8   8   8   4   8
#     4  11  24  43  65  89 129 161 204 262 313 372
#     4  11  23  42  64  89 130 162 207 258 310 371
#     4  10  23  42  63  91 124 170 208 253 311 366
#     4  11  23  41  65  95 128 164 210 257 309 365
#     4  11  24  43  63  93 125 161 206 260 313 372
#     4  12  20  44  63  91 121 168 203 256 317 366
#
# _framework density 20.208846999999999
#
# number of rings (size 3 to 8) (size 9 to 14) (size 15 to 20)
#    0.000    1.000    4.000    3.000    0.000    4.800 
#    3.600    1.000    0.000    0.000    0.000    0.000 
#    0.000    0.000    0.000    0.000    0.000    0.000 
#
# Total GULP energy -247928.117536 kJ/mol
# GULP energy per Si atom -12396.405877 kJ/mol
# Density = 2.016285 g / cm^3
# Si number density = 20.208847 Si / 1000 Ang^3
#
#
#
# Elastic Constant Matrix: (Units=GPa)
#
#
# Indices 1 2 3 4 5 6 
#
# 1 44.1258 24.3208 -2.3580 0.0000 -3.4488 0.0000
# 2 24.3208 130.0201 34.6760 0.0000 -0.4541 0.0000
# 3 -2.3580 34.6760 104.3316 0.0000 -2.6699 0.0000
# 4 0.0000 0.0000 0.0000 44.3471 0.0000 4.0474
# 5 -3.4488 -0.4541 -2.6699 0.0000 37.0331 0.0000
# 6 0.0000 0.0000 0.0000 4.0474 0.0000 34.5369
#
#
#
# Elastic Compliance Matrix: (Units=1/GPa)
#
#
# Indices 1 2 3 4 5 6 
#
# 1 0.026040 -0.005526 0.002490 0.000000 0.002537 0.000000
# 2 -0.005526 0.009612 -0.003336 0.000000 -0.000637 0.000000
# 3 0.002490 -0.003336 0.010775 0.000000 0.000968 0.000000
# 4 0.000000 0.000000 0.000000 0.022793 0.000000 -0.002671
# 5 0.002537 -0.000637 0.000968 0.000000 0.027301 0.000000
# 6 0.000000 0.000000 0.000000 -0.002671 0.000000 0.029268
#
#
# Mechanical properties :
#
#
# Convention : Reuss Voigt Hill
#
# Bulk Modulus (GPa) = 29.68888 43.52834 36.60861
# Shear Modulus (GPa) = 33.38681 37.97265 35.67973
#
# Velocity S-wave (km/s) = 4.06900 4.33946 4.20640
# Velocity P-wave (km/s) = 6.06618 6.83329 6.46113
#
# Compressibility (1/GPa) = 0.03368264
#
# Stress axis : x y z
#
# Youngs Moduli (GPa) = 38.40301 104.03384 92.81070
#
# Poissons Ratio (x) = 0.57490 -0.23111
# Poissons Ratio (y) = 0.21222 0.30961
# Poissons Ratio (z) = -0.09563 0.34705
#
# Static dielectric constant tensor:
#      x y z
#    x 3.605280 0.000000 -0.006150 
#    y 0.000000 3.743650 0.000000 
#    z -0.006150 0.000000 3.843440 
# 
# 
# High freq. dielectric constant tensor:
#      x y z
#    x 1.783440 0.000000 -0.004420 
#    y 0.000000 1.792780 0.000000 
#    z -0.004420 0.000000 1.815140 
# 
# From -- ./inp_files/331757.got.cif
#   From: 2010.06.25/outbox.cif.g09.slc.cpg/sg12_166_cif.got.tgz:331757.got - 2010.06.28 00:19:55.
