data_PCOD8112599
_publ_section_title
;
Structure prediction by ZEFSAII (Michael W. Deem and Ramdas Pophale) SiO2 
 PCOD8112599
Probable space group: C 2/M
;
_chemical_formula_sum "Si O2"
_cell_formula_units_Z 56
_cell_length_a 29.680950
_cell_length_b 8.759838
_cell_length_c 11.839389
_cell_angle_alpha 90.000000
_cell_angle_beta 109.079555
_cell_angle_gamma 90.000000
_cell_volume 2909.143363
_symmetry_space_group_name_H-M "C 2/M"
_symmetry_group_IT_number 12
_symmetry_cell_setting 'monoclinic'
loop_
_space_group_symop_operation_xyz
x,y,z
-x,y,-z
-x,-y,-z
x,-y,z
1/2+x,1/2+y,z
1/2-x,1/2+y,-z
1/2-x,1/2-y,-z
1/2+x,1/2-y,z
loop_
_atom_site_type_symbol
_atom_site_label
_atom_site_fract_x
_atom_site_fract_y
_atom_site_fract_z
Si Si1 0.064908 0.318968 0.156008
Si Si2 0.875582 0.678622 0.192150
Si Si3 0.704682 0.320314 0.022508
Si Si4 0.163507 0.822258 0.624880
Si Si5 0.039436 0.321896 0.889536
Si Si6 0.772986 0.680031 0.728962
Si Si7 0.847939 0.822320 0.640717
O O1 0.073699 0.500000 0.175364
O O2 0.106272 0.231429 0.253920
O O3 0.014675 0.262811 0.169992
O O4 0.064619 0.262353 0.025203
O O5 0.864299 0.500000 0.167743
O O6 0.869619 0.726567 0.317185
O O7 0.929282 0.718177 0.195132
O O8 0.841313 0.777455 0.086286
O O9 0.710734 0.500000 0.031716
O O10 0.699560 0.255500 0.143850
O O11 0.750000 0.250000 0.000000
O O12 0.218159 0.766603 0.680463
O O13 0.143958 0.787457 0.484481
O O14 0.159759 0.000000 0.652772
O O15 0.034634 0.500000 0.905359
O O16 0.776655 0.500000 0.742854
O O17 0.800168 0.734249 0.639133
O O18 0.838966 0.000000 0.654103
#
# Coordination Sequence:
#
# PCOD8112599 Si02
#       7
#     8   8   8   8   8   8   8
#     4   9  17  36  62  84 111 144 181 230 283 338
#     4  11  21  35  58  86 115 149 190 234 282 335
#     4  12  23  36  55  83 117 150 184 228 277 329
#     4  10  23  40  55  75 112 155 193 233 277 336
#     4   8  17  34  59  88 112 140 181 228 282 340
#     4  11  22  38  59  81 108 149 195 235 280 334
#     4  11  23  38  56  82 113 146 189 238 286 337
#
# _framework density 19.249655000000001
#
# number of rings (size 3 to 8) (size 9 to 14) (size 15 to 20)
#    0.000    1.714    1.429    4.714    0.000    2.857 
#    0.000    4.286    0.000    4.286    0.000    0.000 
#    0.000    0.000    0.000    0.000    0.000    0.000 
#
# Total GULP energy -347230.080237 kJ/mol
# GULP energy per Si atom -12401.074294 kJ/mol
# Density = 1.920584 g / cm^3
# Si number density = 19.249655 Si / 1000 Ang^3
#
#
#
# Elastic Constant Matrix: (Units=GPa)
#
#
# Indices 1 2 3 4 5 6 
#
# 1 133.1908 38.0521 45.3149 0.0000 -18.2365 0.0000
# 2 38.0521 79.8459 29.2389 0.0000 -10.1619 0.0000
# 3 45.3149 29.2389 86.2859 0.0000 -12.0886 0.0000
# 4 0.0000 0.0000 0.0000 30.8697 0.0000 -3.4489
# 5 -18.2365 -10.1619 -12.0886 0.0000 23.7733 0.0000
# 6 0.0000 0.0000 0.0000 -3.4489 0.0000 25.8631
#
#
#
# Elastic Compliance Matrix: (Units=1/GPa)
#
#
# Indices 1 2 3 4 5 6 
#
# 1 0.010260 -0.002920 -0.003737 0.000000 0.004722 0.000000
# 2 -0.002920 0.015478 -0.003336 0.000000 0.002680 0.000000
# 3 -0.003737 -0.003336 0.015161 0.000000 0.003416 0.000000
# 4 0.000000 0.000000 0.000000 0.032884 0.000000 0.004385
# 5 0.004722 0.002680 0.003416 0.000000 0.048569 0.000000
# 6 0.000000 0.000000 0.000000 0.004385 0.000000 0.039250
#
#
# Mechanical properties :
#
#
# Convention : Reuss Voigt Hill
#
# Bulk Modulus (GPa) = 47.81725 58.28160 53.04942
# Shear Modulus (GPa) = 26.51657 28.54901 27.53279
#
# Velocity S-wave (km/s) = 3.71551 3.85527 3.78603
# Velocity P-wave (km/s) = 6.58036 7.08237 6.83597
#
# Compressibility (1/GPa) = 0.02091296
#
# Stress axis : x y z
#
# Youngs Moduli (GPa) = 97.46191 64.60586 65.95771
#
# Poissons Ratio (x) = 0.18866 0.24651
# Poissons Ratio (y) = 0.28461 0.22003
# Poissons Ratio (z) = 0.36425 0.21552
#
# Static dielectric constant tensor:
#      x y z
#    x 4.138100 0.000000 0.007470 
#    y 0.000000 3.489590 0.000000 
#    z 0.007470 0.000000 3.543440 
# 
# 
# High freq. dielectric constant tensor:
#      x y z
#    x 1.756730 0.000000 -0.008150 
#    y 0.000000 1.740340 0.000000 
#    z -0.008150 0.000000 1.742330 
# 
# From -- ./inp_files/187723.got.cif
#   From: 2010.06.25/outbox.cif.g09.slc.cpg/sg12_94_cif.got.tgz:187723.got - 2010.06.28 00:19:55.
