data_PCOD8112479
_publ_section_title
;
Structure prediction by ZEFSAII (Michael W. Deem and Ramdas Pophale) SiO2 
 PCOD8112479
Probable space group: C 2/M
;
_chemical_formula_sum "Si O2"
_cell_formula_units_Z 28
_cell_length_a 18.746666
_cell_length_b 7.549190
_cell_length_c 15.156686
_cell_angle_alpha 90.000000
_cell_angle_beta 135.362806
_cell_angle_gamma 90.000000
_cell_volume 1507.114138
_symmetry_space_group_name_H-M "C 2/M"
_symmetry_group_IT_number 12
_symmetry_cell_setting 'monoclinic'
loop_
_space_group_symop_operation_xyz
x,y,z
-x,y,-z
-x,-y,-z
x,-y,z
1/2+x,1/2+y,z
1/2-x,1/2+y,-z
1/2-x,1/2-y,-z
1/2+x,1/2-y,z
loop_
_atom_site_type_symbol
_atom_site_label
_atom_site_fract_x
_atom_site_fract_y
_atom_site_fract_z
Si Si1 0.346766 0.293715 0.642511
Si Si2 0.900412 0.500000 0.352260
Si Si3 0.098049 0.500000 0.023890
Si Si4 0.494683 0.000000 0.247732
Si Si5 0.208419 0.805614 0.210559
O O1 0.375415 0.500000 0.661059
O O2 0.250000 0.250000 0.500000
O O3 0.322656 0.234226 0.720877
O O4 0.439269 0.177887 0.688536
O O5 0.831578 0.325613 0.313504
O O6 0.000000 0.500000 0.500000
O O7 0.922507 0.500000 0.268358
O O8 0.166155 0.672854 0.100485
O O9 0.000000 0.500000 0.000000
O O10 0.071853 0.500000 0.898575
O O11 0.158772 0.000000 0.150093
#
# Coordination Sequence:
#
# PCOD8112479 Si02
#       5
#     8   4   4   4   8
#     4  11  20  36  62  91 121 160 211 258 303 361
#     4  10  22  46  63  87 132 165 195 258 321 365
#     4  12  22  40  65  93 126 157 219 253 293 374
#     4  12  24  38  64  94 121 164 209 254 305 364
#     4   9  22  41  62  88 127 165 199 252 315 355
#
# _framework density 18.578554
#
# number of rings (size 3 to 8) (size 9 to 14) (size 15 to 20)
#    0.857    0.571    4.286    1.714    0.000    2.857 
#    2.571    0.714    0.000    0.000    0.000    0.000 
#    0.000    0.000    0.000    0.000    0.000    0.000 
#
# Total GULP energy -173566.584126 kJ/mol
# GULP energy per Si atom -12397.613152 kJ/mol
# Density = 1.853627 g / cm^3
# Si number density = 18.578554 Si / 1000 Ang^3
#
#
#
# Elastic Constant Matrix: (Units=GPa)
#
#
# Indices 1 2 3 4 5 6 
#
# 1 81.2425 16.7798 0.1842 0.0000 4.2966 0.0000
# 2 16.7798 101.3192 40.7238 0.0000 4.3040 0.0000
# 3 0.1842 40.7238 99.7368 0.0000 1.7357 0.0000
# 4 0.0000 0.0000 0.0000 36.7307 0.0000 3.7346
# 5 4.2966 4.3040 1.7357 0.0000 33.8907 0.0000
# 6 0.0000 0.0000 0.0000 3.7346 0.0000 17.9375
#
#
#
# Elastic Compliance Matrix: (Units=1/GPa)
#
#
# Indices 1 2 3 4 5 6 
#
# 1 0.012892 -0.002485 0.001015 0.000000 -0.001371 0.000000
# 2 -0.002485 0.012340 -0.005017 0.000000 -0.000995 0.000000
# 3 0.001015 -0.005017 0.012075 0.000000 -0.000110 0.000000
# 4 0.000000 0.000000 0.000000 0.027814 0.000000 -0.005791
# 5 -0.001371 -0.000995 -0.000110 0.000000 0.029812 0.000000
# 6 0.000000 0.000000 0.000000 -0.005791 0.000000 0.056955
#
#
# Mechanical properties :
#
#
# Convention : Reuss Voigt Hill
#
# Bulk Modulus (GPa) = 41.09572 44.18602 42.64087
# Shear Modulus (GPa) = 28.90626 32.68581 30.79603
#
# Velocity S-wave (km/s) = 3.94876 4.19899 4.07580
# Velocity P-wave (km/s) = 6.55426 6.88067 6.71945
#
# Compressibility (1/GPa) = 0.02433343
#
# Stress axis : x y z
#
# Youngs Moduli (GPa) = 77.56615 81.03762 82.81715
#
# Poissons Ratio (x) = 0.20135 -0.08402
# Poissons Ratio (y) = 0.19273 0.41546
# Poissons Ratio (z) = -0.07870 0.40654
#
# Static dielectric constant tensor:
#      x y z
#    x 3.406910 0.000000 -0.033750 
#    y 0.000000 3.156950 0.000000 
#    z -0.033750 0.000000 3.419510 
# 
# 
# High freq. dielectric constant tensor:
#      x y z
#    x 1.712260 0.000000 -0.007140 
#    y 0.000000 1.722600 0.000000 
#    z -0.007140 0.000000 1.726420 
# 
# From -- ./inp_files/221370.got.cif
#   From: 2010.06.25/outbox.cif.g09.slc.cpg/sg12_111_cif.got.tgz:221370.got - 2010.06.28 00:19:55.
