data_PCOD8112511
_publ_section_title
;
Structure prediction by ZEFSAII (Michael W. Deem and Ramdas Pophale) SiO2 
 PCOD8112511
Probable space group: C 2/M
;
_chemical_formula_sum "Si O2"
_cell_formula_units_Z 64
_cell_length_a 14.908265
_cell_length_b 23.466266
_cell_length_c 13.206478
_cell_angle_alpha 90.000000
_cell_angle_beta 137.490303
_cell_angle_gamma 90.000000
_cell_volume 3121.919146
_symmetry_space_group_name_H-M "C 2/M"
_symmetry_group_IT_number 12
_symmetry_cell_setting 'monoclinic'
loop_
_space_group_symop_operation_xyz
x,y,z
-x,y,-z
-x,-y,-z
x,-y,z
1/2+x,1/2+y,z
1/2-x,1/2+y,-z
1/2-x,1/2-y,-z
1/2+x,1/2-y,z
loop_
_atom_site_type_symbol
_atom_site_label
_atom_site_fract_x
_atom_site_fract_y
_atom_site_fract_z
Si Si1 0.639180 0.359190 0.077869
Si Si2 0.210828 0.375186 0.409185
Si Si3 0.850782 0.787844 0.380322
Si Si4 0.456706 0.881537 0.075633
Si Si5 0.357471 0.843514 0.420731
Si Si6 0.191529 0.933179 0.927095
Si Si7 0.474095 0.566120 0.589510
Si Si8 0.682305 0.234513 0.048318
O O1 0.748016 0.368533 0.254543
O O2 0.686379 0.395418 0.022535
O O3 0.617261 0.292372 0.035309
O O4 0.500000 0.384288 0.000000
O O5 0.262813 0.320927 0.389384
O O6 0.176907 0.363186 0.496226
O O7 0.324336 0.423071 0.500801
O O8 0.076220 0.398777 0.248711
O O9 0.856640 0.724036 0.424240
O O10 0.787347 0.791424 0.215646
O O11 0.000000 0.813060 0.500000
O O12 0.333527 0.922210 0.995675
O O13 0.500000 0.896625 0.000000
O O14 0.427807 0.813765 0.063774
O O15 0.500000 0.866116 0.500000
O O16 0.173483 0.000000 0.937195
O O17 0.078997 0.908803 0.757511
O O18 0.500000 0.593321 0.500000
O O19 0.502831 0.500000 0.607809
O O20 0.750000 0.250000 0.000000
#
# Coordination Sequence:
#
# PCOD8112511 Si02
#       8
#     8   8   8   8   8   8   8   8
#     4  11  23  41  66  92 125 168 216 267 322 382
#     4  12  23  38  65  90 128 163 211 261 316 385
#     4  10  23  37  58  92 127 168 212 252 310 385
#     4  12  24  40  63  98 131 167 211 260 321 394
#     4  10  23  41  57  88 129 168 206 258 319 373
#     4  11  25  45  68  93 124 170 222 270 323 380
#     4  10  23  43  65  93 126 162 209 266 321 376
#     4  11  23  39  63  93 137 172 209 257 322 392
#
# _framework density 20.500212000000001
#
# number of rings (size 3 to 8) (size 9 to 14) (size 15 to 20)
#    0.000    1.125    2.500    3.375    7.000    2.000 
#    0.000    0.625    0.000    1.500    0.000    0.000 
#    0.000    0.000    0.000    0.000    0.000    0.000 
#
# Total GULP energy -396879.028959 kJ/mol
# GULP energy per Si atom -12402.469655 kJ/mol
# Density = 2.045355 g / cm^3
# Si number density = 20.500212 Si / 1000 Ang^3
#
#
#
# Elastic Constant Matrix: (Units=GPa)
#
#
# Indices 1 2 3 4 5 6 
#
# 1 135.8822 10.3931 67.8365 0.0000 -6.6080 0.0000
# 2 10.3931 50.3012 29.4712 0.0000 -2.2383 0.0000
# 3 67.8365 29.4712 165.9129 0.0000 1.4298 0.0000
# 4 0.0000 0.0000 0.0000 10.7666 0.0000 1.7591
# 5 -6.6080 -2.2383 1.4298 0.0000 47.9654 0.0000
# 6 0.0000 0.0000 0.0000 1.7591 0.0000 16.6384
#
#
#
# Elastic Compliance Matrix: (Units=1/GPa)
#
#
# Indices 1 2 3 4 5 6 
#
# 1 0.009348 0.000422 -0.003909 0.000000 0.001424 0.000000
# 2 0.000422 0.022273 -0.004140 0.000000 0.001221 0.000000
# 3 -0.003909 -0.004140 0.008369 0.000000 -0.000981 0.000000
# 4 0.000000 0.000000 0.000000 0.094513 0.000000 -0.009993
# 5 0.001424 0.001221 -0.000981 0.000000 0.021131 0.000000
# 6 0.000000 0.000000 0.000000 -0.009993 0.000000 0.061158
#
#
# Mechanical properties :
#
#
# Convention : Reuss Voigt Hill
#
# Bulk Modulus (GPa) = 40.42528 63.05531 51.74029
# Shear Modulus (GPa) = 20.80816 31.36712 26.08764
#
# Velocity S-wave (km/s) = 3.18940 3.91588 3.57116
# Velocity P-wave (km/s) = 5.77280 7.16035 6.50369
#
# Compressibility (1/GPa) = 0.02473700
#
# Stress axis : x y z
#
# Youngs Moduli (GPa) = 106.97542 44.89821 119.48225
#
# Poissons Ratio (x) = -0.01897 0.46710
# Poissons Ratio (y) = -0.04519 0.49460
# Poissons Ratio (z) = 0.41821 0.18586
#
# Static dielectric constant tensor:
#      x y z
#    x 3.714050 0.000000 0.086810 
#    y 0.000000 3.638490 0.000000 
#    z 0.086810 0.000000 3.887650 
# 
# 
# High freq. dielectric constant tensor:
#      x y z
#    x 1.813820 0.000000 0.000570 
#    y 0.000000 1.787280 0.000000 
#    z 0.000570 0.000000 1.817260 
# 
# From -- ./inp_files/149788.got.cif
#   From: 2010.06.25/outbox.cif.g09.slc.cpg/sg12_75_cif.got.tgz:149788.got - 2010.06.28 00:19:55.
