data_PCOD8112977
_publ_section_title
;
Structure prediction by ZEFSAII (Michael W. Deem and Ramdas Pophale) SiO2 
 PCOD8112977
Probable space group: C 2/M
;
_chemical_formula_sum "Si O2"
_cell_formula_units_Z 48
_cell_length_a 9.825432
_cell_length_b 27.137811
_cell_length_c 9.134427
_cell_angle_alpha 90.000000
_cell_angle_beta 94.806359
_cell_angle_gamma 90.000000
_cell_volume 2427.045499
_symmetry_space_group_name_H-M "C 2/M"
_symmetry_group_IT_number 12
_symmetry_cell_setting 'monoclinic'
loop_
_space_group_symop_operation_xyz
x,y,z
-x,y,-z
-x,-y,-z
x,-y,z
1/2+x,1/2+y,z
1/2-x,1/2+y,-z
1/2-x,1/2-y,-z
1/2+x,1/2-y,z
loop_
_atom_site_type_symbol
_atom_site_label
_atom_site_fract_x
_atom_site_fract_y
_atom_site_fract_z
Si Si1 0.252145 0.323083 0.809961
Si Si2 0.489911 0.347934 0.341488
Si Si3 0.533637 0.141779 0.333012
Si Si4 0.138355 0.108475 0.939407
Si Si5 0.761186 0.225133 0.343461
Si Si6 0.110306 0.555927 0.132214
O O1 0.355880 0.344845 0.700124
O O2 0.101478 0.342663 0.765941
O O3 0.257037 0.263824 0.792476
O O4 0.303613 0.342150 0.973619
O O5 0.500000 0.374175 0.500000
O O6 0.392896 0.379595 0.230595
O O7 0.416399 0.294769 0.349319
O O8 0.500000 0.133963 0.500000
O O9 0.648260 0.182917 0.317837
O O10 0.588769 0.090864 0.270314
O O11 0.248390 0.065278 0.942133
O O12 0.000000 0.088446 0.000000
O O13 0.750000 0.250000 0.500000
O O14 0.105479 0.500000 0.188940
O O15 0.000000 0.567050 0.000000
#
# Coordination Sequence:
#
# PCOD8112977 Si02
#       6
#     8   8   8   8   8   8
#     4  11  23  36  58  92 134 167 214 254 313 382
#     4  11  21  38  59  86 125 171 212 256 314 376
#     4  12  23  40  66  97 132 170 217 266 318 382
#     4  10  23  43  63  93 126 166 209 269 325 383
#     4  12  22  36  61  93 129 179 214 254 314 387
#     4  11  24  46  71  94 123 166 220 278 336 385
#
# _framework density 19.777131000000001
#
# number of rings (size 3 to 8) (size 9 to 14) (size 15 to 20)
#    0.000    0.833    6.667    1.000    0.000    1.333 
#    0.000    2.500    0.000    0.500    0.000    0.000 
#    0.000    0.000    0.000    0.000    0.000    0.000 
#
# Total GULP energy -297531.002907 kJ/mol
# GULP energy per Si atom -12397.125121 kJ/mol
# Density = 1.973212 g / cm^3
# Si number density = 19.777131 Si / 1000 Ang^3
#
#
#
# Elastic Constant Matrix: (Units=GPa)
#
#
# Indices 1 2 3 4 5 6 
#
# 1 131.8888 48.6064 38.8678 0.0000 3.9820 0.0000
# 2 48.6064 97.9333 42.4203 0.0000 -3.2842 0.0000
# 3 38.8678 42.4203 113.2133 0.0000 9.3592 0.0000
# 4 0.0000 0.0000 0.0000 25.3282 0.0000 -6.9801
# 5 3.9820 -3.2842 9.3592 0.0000 27.2593 0.0000
# 6 0.0000 0.0000 0.0000 -6.9801 0.0000 14.0555
#
#
#
# Elastic Compliance Matrix: (Units=1/GPa)
#
#
# Indices 1 2 3 4 5 6 
#
# 1 0.009623 -0.004103 -0.001656 0.000000 -0.001331 0.000000
# 2 -0.004103 0.014203 -0.004224 0.000000 0.003761 0.000000
# 3 -0.001656 -0.004224 0.011328 0.000000 -0.004156 0.000000
# 4 0.000000 0.000000 0.000000 0.045742 0.000000 0.022716
# 5 -0.001331 0.003761 -0.004156 0.000000 0.038759 0.000000
# 6 0.000000 0.000000 0.000000 0.022716 0.000000 0.082427
#
#
# Mechanical properties :
#
#
# Convention : Reuss Voigt Hill
#
# Bulk Modulus (GPa) = 65.84609 66.98049 66.41329
# Shear Modulus (GPa) = 22.01568 27.53800 24.77684
#
# Velocity S-wave (km/s) = 3.34007 3.73556 3.54333
# Velocity P-wave (km/s) = 6.94558 7.24893 7.09888
#
# Compressibility (1/GPa) = 0.01518693
#
# Stress axis : x y z
#
# Youngs Moduli (GPa) = 103.92211 70.40574 88.27849
#
# Poissons Ratio (x) = 0.28889 0.14619
# Poissons Ratio (y) = 0.42642 0.37290
# Poissons Ratio (z) = 0.17210 0.29740
#
# Static dielectric constant tensor:
#      x y z
#    x 4.023820 0.000000 -0.022270 
#    y 0.000000 3.396160 0.000000 
#    z -0.022270 0.000000 3.747320 
# 
# 
# High freq. dielectric constant tensor:
#      x y z
#    x 1.802050 0.000000 0.001430 
#    y 0.000000 1.734630 0.000000 
#    z 0.001430 0.000000 1.774560 
# 
# From -- ./inp_files/42182.got.cif
#   From: 2010.06.25/outbox.cif.g09.slc.cpg/sg12_22_cif.got.tgz:42182.got - 2010.06.28 00:19:55.
