data_PCOD8112250
_publ_section_title
;
Structure prediction by ZEFSAII (Michael W. Deem and Ramdas Pophale) SiO2 
 PCOD8112250
Probable space group: C 2/M
;
_chemical_formula_sum "Si O2"
_cell_formula_units_Z 56
_cell_length_a 20.414092
_cell_length_b 29.982963
_cell_length_c 8.883083
_cell_angle_alpha 90.000000
_cell_angle_beta 29.433277
_cell_angle_gamma 90.000000
_cell_volume 2671.849744
_symmetry_space_group_name_H-M "C 2/M"
_symmetry_group_IT_number 12
_symmetry_cell_setting 'monoclinic'
loop_
_space_group_symop_operation_xyz
x,y,z
-x,y,-z
-x,-y,-z
x,-y,z
1/2+x,1/2+y,z
1/2-x,1/2+y,-z
1/2-x,1/2-y,-z
1/2+x,1/2-y,z
loop_
_atom_site_type_symbol
_atom_site_label
_atom_site_fract_x
_atom_site_fract_y
_atom_site_fract_z
Si Si1 0.342412 0.179711 0.310778
Si Si2 0.768689 0.243662 0.679456
Si Si3 0.785376 0.949541 0.605295
Si Si4 0.981484 0.106316 0.717063
Si Si5 0.232154 0.587698 0.398863
Si Si6 0.993005 0.552116 0.686851
Si Si7 0.469158 0.294838 0.726990
O O1 0.293691 0.195152 0.241320
O O2 0.285333 0.221266 0.514312
O O3 0.272450 0.135356 0.508953
O O4 0.500000 0.174332 0.000000
O O5 0.916186 0.237796 0.446307
O O6 0.669117 0.267754 0.995312
O O7 0.897842 0.916162 0.436155
O O8 0.761560 0.947231 0.473294
O O9 0.827590 0.000000 0.560218
O O10 0.651956 0.936299 0.960606
O O11 0.000000 0.100493 0.500000
O O12 0.968537 0.156885 0.808268
O O13 0.844860 0.083108 0.044926
O O14 0.093880 0.578839 0.591150
O O15 0.027700 0.500000 0.628470
O O16 0.000000 0.568654 0.500000
O O17 0.500000 0.310197 0.500000
#
# Coordination Sequence:
#
# PCOD8112250 Si02
#       7
#     8   8   8   8   8   8   8
#     4  11  22  37  62  88 122 155 205 254 311 370
#     4  11  22  40  61  88 118 162 204 255 309 372
#     4  11  24  42  65  96 130 168 213 262 318 374
#     4  11  25  43  63  93 131 169 211 263 322 382
#     4  12  23  40  66  94 128 165 213 269 315 370
#     4  10  22  42  67  94 128 171 213 256 315 383
#     4  11  23  42  63  89 125 164 209 259 316 378
#
# _framework density 20.959263
#
# number of rings (size 3 to 8) (size 9 to 14) (size 15 to 20)
#    0.000    1.000    2.857    4.286    0.000    3.143 
#    0.000    0.714    0.000    0.000    0.000    0.000 
#    0.000    0.000    0.000    0.000    0.000    0.000 
#
# Total GULP energy -347083.052355 kJ/mol
# GULP energy per Si atom -12395.823298 kJ/mol
# Density = 2.091156 g / cm^3
# Si number density = 20.959263 Si / 1000 Ang^3
#
#
#
# Elastic Constant Matrix: (Units=GPa)
#
#
# Indices 1 2 3 4 5 6 
#
# 1 -90.9863 -31.0047 -126.0629 0.0000 43.2680 0.0000
# 2 -31.0047 60.2756 -23.3973 0.0001 12.1307 0.0000
# 3 -126.0629 -23.3973 -0.6463 0.0000 41.7560 -0.0001
# 4 0.0000 0.0001 0.0000 26.4572 0.0000 -11.4393
# 5 43.2680 12.1307 41.7560 0.0000 22.2943 0.0000
# 6 0.0000 0.0000 -0.0001 -11.4393 0.0000 22.3633
#
#
#
# Elastic Compliance Matrix: (Units=1/GPa)
#
#
# Indices 1 2 3 4 5 6 
#
# 1 0.003185 -0.002629 -0.006826 0.000000 0.008036 0.000000
# 2 -0.002629 0.014570 -0.001617 0.000000 0.000202 0.000000
# 3 -0.006826 -0.001617 0.006193 0.000000 0.002529 0.000000
# 4 0.000000 0.000000 0.000000 0.048530 0.000000 0.024824
# 5 0.008036 0.000202 0.002529 0.000000 0.024412 0.000000
# 6 0.000000 0.000000 0.000000 0.024824 0.000000 0.057414
#
#
# Mechanical properties :
#
#
# Convention : Reuss Voigt Hill
#
# Bulk Modulus (GPa) = 554.51556 -43.58742 255.46407
# Shear Modulus (GPa) = 28.24078 24.16347 26.20212
#
# Velocity S-wave (km/s) = 3.67469 3.39909 3.53958
# Velocity P-wave (km/s) = 16.82698 2.33159 11.78369
#
# Compressibility (1/GPa) = 0.00180338
#
# Stress axis : x y z
#
# Youngs Moduli (GPa) = 314.01599 68.63424 161.47893
#
# Poissons Ratio (x) = 0.18044 1.10232
# Poissons Ratio (y) = 0.82553 0.26105
# Poissons Ratio (z) = 2.14361 0.11095
#
# Static dielectric constant tensor:
#      x y z
#    x 3.496670 0.000000 0.205100 
#    y 0.000000 3.853280 0.000000 
#    z 0.205100 0.000000 3.898430 
# 
# 
# High freq. dielectric constant tensor:
#      x y z
#    x 1.814790 0.000000 -0.001910 
#    y 0.000000 1.826030 0.000000 
#    z -0.001910 0.000000 1.836350 
# 
# From -- ./inp_files/91531.got.cif
#   From: 2010.06.25/outbox.cif.g09.slc.cpg/sg12_46_cif.got.tgz:91531.got - 2010.06.28 00:19:55.
