data_PCOD8112885
_publ_section_title
;
Structure prediction by ZEFSAII (Michael W. Deem and Ramdas Pophale) SiO2 
 PCOD8112885
Probable space group: C 2/M
;
_chemical_formula_sum "Si O2"
_cell_formula_units_Z 44
_cell_length_a 14.505880
_cell_length_b 17.804749
_cell_length_c 7.993873
_cell_angle_alpha 90.000000
_cell_angle_beta 105.064763
_cell_angle_gamma 90.000000
_cell_volume 1993.650960
_symmetry_space_group_name_H-M "C 2/M"
_symmetry_group_IT_number 12
_symmetry_cell_setting 'monoclinic'
loop_
_space_group_symop_operation_xyz
x,y,z
-x,y,-z
-x,-y,-z
x,-y,z
1/2+x,1/2+y,z
1/2-x,1/2+y,-z
1/2-x,1/2-y,-z
1/2+x,1/2-y,z
loop_
_atom_site_type_symbol
_atom_site_label
_atom_site_fract_x
_atom_site_fract_y
_atom_site_fract_z
Si Si1 0.500000 0.699138 0.000000
Si Si2 0.600963 0.416309 0.587054
Si Si3 0.518527 0.811669 0.313195
Si Si4 0.351278 0.583278 0.012354
Si Si5 0.847037 0.416901 0.196102
Si Si6 0.801041 0.586932 0.555542
O O1 0.509894 0.743544 0.179329
O O2 0.407002 0.646906 0.938627
O O3 0.500000 0.373763 0.500000
O O4 0.596285 0.500000 0.506364
O O5 0.605767 0.419092 0.785740
O O6 0.697686 0.378425 0.560205
O O7 0.500000 0.788393 0.500000
O O8 0.434782 0.863822 0.207413
O O9 0.616754 0.857903 0.335272
O O10 0.362351 0.500000 0.933450
O O11 0.239062 0.604379 0.969764
O O12 0.886180 0.500000 0.180196
O O13 0.802943 0.410765 0.358615
O O14 0.814526 0.500000 0.626791
#
# Coordination Sequence:
#
# PCOD8112885 Si02
#       6
#     4   8   8   8   8   8
#     4  12  27  42  63  90 130 176 212 256 321 388
#     4   9  19  35  60  94 126 158 207 267 318 366
#     4  10  23  44  63  95 133 172 210 254 316 384
#     4  10  23  42  65  91 121 160 217 274 316 366
#     4   9  19  39  68  96 124 163 213 266 313 366
#     4   9  18  37  66  96 127 165 210 261 315 370
#
# _framework density 22.070063999999999
#
# number of rings (size 3 to 8) (size 9 to 14) (size 15 to 20)
#    0.000    2.364    0.000    0.818    5.091    3.636 
#    0.000    2.727    0.000    0.545    0.000    0.000 
#    0.000    0.000    0.000    0.000    0.000    0.000 
#
# Total GULP energy -272595.570586 kJ/mol
# GULP energy per Si atom -12390.707754 kJ/mol
# Density = 2.201983 g / cm^3
# Si number density = 22.070064 Si / 1000 Ang^3
#
#
#
# Elastic Constant Matrix: (Units=GPa)
#
#
# Indices 1 2 3 4 5 6 
#
# 1 179.0879 75.0855 49.5335 0.0000 25.8352 0.0000
# 2 75.0855 94.8319 44.6612 0.0000 12.7730 0.0000
# 3 49.5335 44.6612 88.0216 0.0000 27.7074 0.0000
# 4 0.0000 0.0000 0.0000 18.7048 0.0000 -17.4618
# 5 25.8352 12.7730 27.7074 0.0000 36.4336 0.0000
# 6 0.0000 0.0000 0.0000 -17.4618 0.0000 20.4129
#
#
#
# Elastic Compliance Matrix: (Units=1/GPa)
#
#
# Indices 1 2 3 4 5 6 
#
# 1 0.008916 -0.006235 -0.000725 0.000000 -0.003585 0.000000
# 2 -0.006235 0.018227 -0.006731 0.000000 0.003150 0.000000
# 3 -0.000725 -0.006731 0.018774 0.000000 -0.011403 0.000000
# 4 0.000000 0.000000 0.000000 0.265435 0.000000 0.227061
# 5 -0.003585 0.003150 -0.011403 0.000000 0.037557 0.000000
# 6 0.000000 0.000000 0.000000 0.227061 0.000000 0.243223
#
#
# Mechanical properties :
#
#
# Convention : Reuss Voigt Hill
#
# Bulk Modulus (GPa) = 53.95505 77.83350 65.89428
# Shear Modulus (GPa) = 7.99115 27.95435 17.97275
#
# Velocity S-wave (km/s) = 1.90491 3.56282 2.85678
# Velocity P-wave (km/s) = 5.41650 7.22966 6.38774
#
# Compressibility (1/GPa) = 0.01853395
#
# Stress axis : x y z
#
# Youngs Moduli (GPa) = 112.16290 54.86272 53.26536
#
# Poissons Ratio (x) = 0.34205 0.03864
# Poissons Ratio (y) = 0.69930 0.35855
# Poissons Ratio (z) = 0.08136 0.36930
#
# Static dielectric constant tensor:
#      x y z
#    x 4.161290 0.000000 0.232390 
#    y 0.000000 4.034840 0.000000 
#    z 0.232390 0.000000 3.946180 
# 
# 
# High freq. dielectric constant tensor:
#      x y z
#    x 1.877950 0.000000 0.014110 
#    y 0.000000 1.848450 0.000000 
#    z 0.014110 0.000000 1.869090 
# 
# From -- ./inp_files/61299.got.cif
#   From: 2010.06.25/outbox.cif.g09.slc.cpg/sg12_31_cif.got.tgz:61299.got - 2010.06.28 00:19:55.
