data_PCOD8112230
_publ_section_title
;
Structure prediction by ZEFSAII (Michael W. Deem and Ramdas Pophale) SiO2 
 PCOD8112230
Probable space group: C 2/M
;
_chemical_formula_sum "Si O2"
_cell_formula_units_Z 28
_cell_length_a 10.763326
_cell_length_b 9.648644
_cell_length_c 14.551151
_cell_angle_alpha 90.000000
_cell_angle_beta 60.553847
_cell_angle_gamma 90.000000
_cell_volume 1315.944488
_symmetry_space_group_name_H-M "C 2/M"
_symmetry_group_IT_number 12
_symmetry_cell_setting 'monoclinic'
loop_
_space_group_symop_operation_xyz
x,y,z
-x,y,-z
-x,-y,-z
x,-y,z
1/2+x,1/2+y,z
1/2-x,1/2+y,-z
1/2-x,1/2-y,-z
1/2+x,1/2-y,z
loop_
_atom_site_type_symbol
_atom_site_label
_atom_site_fract_x
_atom_site_fract_y
_atom_site_fract_z
Si Si1 0.200135 0.000000 0.113363
Si Si2 0.917494 0.000000 0.124880
Si Si3 0.046521 0.500000 0.088779
Si Si4 0.322177 0.208379 0.207406
Si Si5 0.664981 0.338044 0.454503
O O1 0.236747 0.135616 0.157362
O O2 0.280560 0.000000 0.982289
O O3 0.032558 0.000000 0.163868
O O4 0.821086 0.866345 0.175521
O O5 0.000000 0.000000 0.000000
O O6 0.980776 0.638862 0.159351
O O7 0.000000 0.500000 0.000000
O O8 0.242654 0.189573 0.331154
O O9 0.500000 0.291236 0.500000
O O10 0.671785 0.500000 0.479749
O O11 0.750000 0.250000 0.500000
#
# Coordination Sequence:
#
# PCOD8112230 Si02
#       5
#     4   4   4   8   8
#     4  10  22  44  67  87 136 183 212 273 344 406
#     4  12  26  40  65 106 133 167 229 276 327 407
#     4   8  16  38  65  88 121 170 219 254 324 404
#     4  10  22  42  66  96 131 177 220 271 342 402
#     4  11  26  47  73 101 137 178 232 290 346 404
#
# _framework density 21.277494999999998
#
# number of rings (size 3 to 8) (size 9 to 14) (size 15 to 20)
#    0.000    2.000    2.857    2.571    6.000    5.143 
#    0.000    1.429    0.000    0.000    0.000    0.000 
#    0.000    0.000    0.000    0.000    0.000    0.000 
#
# Total GULP energy -173508.500045 kJ/mol
# GULP energy per Si atom -12393.464289 kJ/mol
# Density = 2.122907 g / cm^3
# Si number density = 21.277495 Si / 1000 Ang^3
#
#
#
# Elastic Constant Matrix: (Units=GPa)
#
#
# Indices 1 2 3 4 5 6 
#
# 1 110.4380 54.7203 42.1934 0.0000 -4.1115 0.0000
# 2 54.7203 178.1519 46.7628 0.0000 0.1146 0.0000
# 3 42.1934 46.7628 156.2016 0.0000 -17.6699 0.0000
# 4 0.0000 0.0000 0.0000 36.5510 0.0000 1.9288
# 5 -4.1115 0.1146 -17.6699 0.0000 15.8284 0.0000
# 6 0.0000 0.0000 0.0000 1.9288 0.0000 23.4287
#
#
#
# Elastic Compliance Matrix: (Units=1/GPa)
#
#
# Indices 1 2 3 4 5 6 
#
# 1 0.011336 -0.002926 -0.002118 0.000000 0.000601 0.000000
# 2 -0.002926 0.006927 -0.001574 0.000000 -0.002567 0.000000
# 3 -0.002118 -0.001574 0.008452 0.000000 0.008896 0.000000
# 4 0.000000 0.000000 0.000000 0.027478 0.000000 -0.002262
# 5 0.000601 -0.002567 0.008896 0.000000 0.073284 0.000000
# 6 0.000000 0.000000 0.000000 -0.002262 0.000000 0.042869
#
#
# Mechanical properties :
#
#
# Convention : Reuss Voigt Hill
#
# Bulk Modulus (GPa) = 74.19202 81.34939 77.77071
# Shear Modulus (GPa) = 26.58515 35.23595 30.91055
#
# Velocity S-wave (km/s) = 3.53859 4.07384 3.81561
# Velocity P-wave (km/s) = 7.18610 7.77456 7.48611
#
# Compressibility (1/GPa) = 0.01347854
#
# Stress axis : x y z
#
# Youngs Moduli (GPa) = 88.21066 144.36745 118.32148
#
# Poissons Ratio (x) = 0.42249 0.25061
# Poissons Ratio (y) = 0.25815 0.18619
# Poissons Ratio (z) = 0.18684 0.22717
#
# Static dielectric constant tensor:
#      x y z
#    x 3.401840 0.000000 -1.910080 
#    y 0.000000 3.999450 0.000000 
#    z -1.910080 0.000000 2.177270 
# 
# 
# High freq. dielectric constant tensor:
#      x y z
#    x 1.826080 0.000000 -0.009280 
#    y 0.000000 1.840640 0.000000 
#    z -0.009280 0.000000 1.843630 
# 
# From -- ./inp_files/201806.got.cif
#   From: 2010.06.25/outbox.cif.g09.slc.cpg/sg12_101_cif.got.tgz:201806.got - 2010.06.28 00:19:55.
