data_PCOD8112457
_publ_section_title
;
Structure prediction by ZEFSAII (Michael W. Deem and Ramdas Pophale) SiO2 
 PCOD8112457
Probable space group: C 2/M
;
_chemical_formula_sum "Si O2"
_cell_formula_units_Z 56
_cell_length_a 12.246240
_cell_length_b 15.065167
_cell_length_c 17.065839
_cell_angle_alpha 90.000000
_cell_angle_beta 59.890141
_cell_angle_gamma 90.000000
_cell_volume 2723.661664
_symmetry_space_group_name_H-M "C 2/M"
_symmetry_group_IT_number 12
_symmetry_cell_setting 'monoclinic'
loop_
_space_group_symop_operation_xyz
x,y,z
-x,y,-z
-x,-y,-z
x,-y,z
1/2+x,1/2+y,z
1/2-x,1/2+y,-z
1/2-x,1/2-y,-z
1/2+x,1/2-y,z
loop_
_atom_site_type_symbol
_atom_site_label
_atom_site_fract_x
_atom_site_fract_y
_atom_site_fract_z
Si Si1 0.986567 0.764482 0.287037
Si Si2 0.427347 0.400620 0.178730
Si Si3 0.842968 0.401180 0.285242
Si Si4 0.247891 0.808683 0.861256
Si Si5 0.117270 0.362273 0.905200
Si Si6 0.701936 0.402645 0.027640
Si Si7 0.952321 0.898464 0.604400
O O1 0.920003 0.827164 0.248184
O O2 0.910065 0.671446 0.317046
O O3 0.129844 0.739815 0.215667
O O4 0.979871 0.821778 0.369099
O O5 0.429867 0.500000 0.213771
O O6 0.300226 0.392877 0.171631
O O7 0.552795 0.384930 0.082141
O O8 0.869383 0.500000 0.310111
O O9 0.895543 0.401236 0.177238
O O10 0.695798 0.380360 0.337468
O O11 0.127229 0.743616 0.896295
O O12 0.271361 0.834504 0.943519
O O13 0.245009 0.394195 0.903105
O O14 0.000000 0.394038 0.000000
O O15 0.729961 0.500000 0.984615
O O16 0.000000 0.884627 0.500000
O O17 0.982451 0.000000 0.621969
#
# Coordination Sequence:
#
# PCOD8112457 Si02
#       7
#     8   8   8   8   8   8   8
#     4  12  22  40  64  91 124 159 196 253 312 362
#     4  11  22  38  58  83 118 162 211 260 304 354
#     4  11  24  42  62  93 128 161 207 256 303 364
#     4  12  23  36  55  83 120 163 210 252 298 361
#     4  12  22  36  58  82 120 167 213 251 298 349
#     4  11  23  36  53  79 115 166 220 265 301 349
#     4  10  22  44  72  97 122 155 197 249 309 374
#
# _framework density 20.560555999999998
#
# number of rings (size 3 to 8) (size 9 to 14) (size 15 to 20)
#    0.000    0.714    4.286    3.857    0.000    7.429 
#    0.000    0.000    0.000    0.429    0.000    0.000 
#    0.000    0.000    0.000    0.000    0.000    0.000 
#
# Total GULP energy -347117.588055 kJ/mol
# GULP energy per Si atom -12397.056716 kJ/mol
# Density = 2.051376 g / cm^3
# Si number density = 20.560556 Si / 1000 Ang^3
#
#
#
# Elastic Constant Matrix: (Units=GPa)
#
#
# Indices 1 2 3 4 5 6 
#
# 1 82.2888 48.3581 23.1441 0.0000 11.7154 0.0000
# 2 48.3581 132.2802 36.9046 0.0000 16.5399 0.0000
# 3 23.1441 36.9046 81.0867 0.0000 7.7738 0.0000
# 4 0.0000 0.0000 0.0000 70.1952 0.0000 76.2044
# 5 11.7154 16.5399 7.7738 0.0000 20.4358 0.0000
# 6 0.0000 0.0000 0.0000 76.2044 0.0000 158.5038
#
#
#
# Elastic Compliance Matrix: (Units=1/GPa)
#
#
# Indices 1 2 3 4 5 6 
#
# 1 0.016184 -0.004777 -0.001999 0.000000 -0.004651 0.000000
# 2 -0.004777 0.010765 -0.003075 0.000000 -0.004804 0.000000
# 3 -0.001999 -0.003075 0.014482 0.000000 -0.001874 0.000000
# 4 0.000000 0.000000 0.000000 0.029799 0.000000 -0.014327
# 5 -0.004651 -0.004804 -0.001874 0.000000 0.056201 0.000000
# 6 0.000000 0.000000 0.000000 -0.014327 0.000000 0.013197
#
#
# Mechanical properties :
#
#
# Convention : Reuss Voigt Hill
#
# Bulk Modulus (GPa) = 46.02346 56.94101 51.48223
# Shear Modulus (GPa) = 29.83750 62.31021 46.07386
#
# Velocity S-wave (km/s) = 3.81360 5.51103 4.73894
# Velocity P-wave (km/s) = 6.46717 8.26134 7.41869
#
# Compressibility (1/GPa) = 0.02172805
#
# Stress axis : x y z
#
# Youngs Moduli (GPa) = 61.78880 92.89572 69.04939
#
# Poissons Ratio (x) = 0.44378 0.13805
# Poissons Ratio (y) = 0.29518 0.21234
# Poissons Ratio (z) = 0.12353 0.28567
#
# Static dielectric constant tensor:
#      x y z
#    x 3.607490 0.000000 0.038070 
#    y 0.000000 4.052020 0.000000 
#    z 0.038070 0.000000 3.422290 
# 
# 
# High freq. dielectric constant tensor:
#      x y z
#    x 1.800620 0.000000 0.000620 
#    y 0.000000 1.827470 0.000000 
#    z 0.000620 0.000000 1.763680 
# 
# From -- ./inp_files/262965.got.cif
#   From: 2010.06.25/outbox.cif.g09.slc.cpg/sg12_132_cif.got.tgz:262965.got - 2010.06.28 00:19:55.
