data_PCOD8112468
_publ_section_title
;
Structure prediction by ZEFSAII (Michael W. Deem and Ramdas Pophale) SiO2 
 PCOD8112468
Probable space group: C 2/M
;
_chemical_formula_sum "Si O2"
_cell_formula_units_Z 40
_cell_length_a 9.699120
_cell_length_b 14.142745
_cell_length_c 30.674664
_cell_angle_alpha 90.000000
_cell_angle_beta 151.570315
_cell_angle_gamma 90.000000
_cell_volume 2003.206388
_symmetry_space_group_name_H-M "C 2/M"
_symmetry_group_IT_number 12
_symmetry_cell_setting 'monoclinic'
loop_
_space_group_symop_operation_xyz
x,y,z
-x,y,-z
-x,-y,-z
x,-y,z
1/2+x,1/2+y,z
1/2-x,1/2+y,-z
1/2-x,1/2-y,-z
1/2+x,1/2-y,z
loop_
_atom_site_type_symbol
_atom_site_label
_atom_site_fract_x
_atom_site_fract_y
_atom_site_fract_z
Si Si1 0.207563 0.310745 0.944798
Si Si2 0.783043 0.302453 0.234044
Si Si3 0.856622 0.748171 0.351497
Si Si4 0.009293 0.000000 0.855313
Si Si5 0.648553 0.891846 0.494835
Si Si6 0.443282 0.000000 0.054226
O O1 0.062613 0.409570 0.916532
O O2 0.002972 0.257462 0.854265
O O3 0.500000 0.328723 0.000000
O O4 0.250000 0.250000 0.000000
O O5 0.912930 0.276377 0.317018
O O6 0.701815 0.411781 0.208412
O O7 0.023479 0.277058 0.265077
O O8 0.048619 0.836565 0.420394
O O9 0.933401 0.654394 0.399995
O O10 0.254752 0.000000 0.886931
O O11 0.164235 0.000000 0.945288
O O12 0.500000 0.885497 0.500000
O O13 0.709114 0.000000 0.498070
#
# Coordination Sequence:
#
# PCOD8112468 Si02
#       6
#     8   8   8   4   8   4
#     4  12  24  44  67  93 134 179 220 271 324 380
#     4  12  25  42  65  98 131 168 220 273 318 378
#     4  11  24  44  65 100 128 168 213 270 322 390
#     4  11  24  40  68  93 133 171 222 276 319 382
#     4  10  22  45  70  92 130 171 206 258 331 398
#     4  11  23  44  64  94 127 184 226 260 334 382
#
# _framework density 19.967987000000001
#
# number of rings (size 3 to 8) (size 9 to 14) (size 15 to 20)
#    0.000    0.800    4.000    3.900    2.800    0.000 
#    3.600    1.000    0.000    0.000    0.000    0.000 
#    0.000    0.000    0.000    0.000    0.000    0.000 
#
# Total GULP energy -248147.021083 kJ/mol
# GULP energy per Si atom -12407.351054 kJ/mol
# Density = 1.992254 g / cm^3
# Si number density = 19.967987 Si / 1000 Ang^3
#
#
#
# Elastic Constant Matrix: (Units=GPa)
#
#
# Indices 1 2 3 4 5 6 
#
# 1 66.2573 21.9517 5.0419 0.0000 -6.0803 -0.0003
# 2 21.9517 161.5672 36.4517 0.0000 -10.1714 -0.0003
# 3 5.0419 36.4517 77.5565 -0.0016 -4.0480 -0.0006
# 4 0.0000 0.0000 -0.0016 30.0969 0.0002 3.6283
# 5 -6.0803 -10.1714 -4.0480 0.0002 37.4611 -0.0002
# 6 -0.0003 -0.0003 -0.0006 3.6283 -0.0002 24.7977
#
#
#
# Elastic Compliance Matrix: (Units=1/GPa)
#
#
# Indices 1 2 3 4 5 6 
#
# 1 0.015955 -0.002047 0.000031 0.000000 0.002037 0.000000
# 2 -0.002047 0.007275 -0.003219 0.000000 0.001295 0.000000
# 3 0.000031 -0.003219 0.014441 0.000001 0.000692 0.000000
# 4 0.000000 0.000000 0.000001 0.033823 0.000000 -0.004949
# 5 0.002037 0.001295 0.000692 0.000000 0.027452 0.000000
# 6 0.000000 0.000000 0.000000 -0.004949 0.000000 0.041050
#
#
# Mechanical properties :
#
#
# Convention : Reuss Voigt Hill
#
# Bulk Modulus (GPa) = 36.76109 48.03017 42.39563
# Shear Modulus (GPa) = 31.34173 34.60018 32.97096
#
# Velocity S-wave (km/s) = 3.96611 4.16719 4.06789
# Velocity P-wave (km/s) = 6.27881 6.87457 6.58343
#
# Compressibility (1/GPa) = 0.02720267
#
# Stress axis : x y z
#
# Youngs Moduli (GPa) = 62.67505 137.45402 69.24873
#
# Poissons Ratio (x) = 0.28130 -0.00214
# Poissons Ratio (y) = 0.12827 0.22289
# Poissons Ratio (z) = -0.00194 0.44242
#
# Static dielectric constant tensor:
#      x y z
#    x 3.409880 0.000050 0.407500 
#    y 0.000050 3.693320 -0.000090 
#    z 0.407500 -0.000090 2.822880 
# 
# 
# High freq. dielectric constant tensor:
#      x y z
#    x 1.788030 0.000000 0.000890 
#    y 0.000000 1.792160 0.000000 
#    z 0.000890 0.000000 1.783300 
# 
# From -- ./inp_files/194479.got.cif
#   From: 2010.06.25/outbox.cif.g09.slc.cpg/sg12_98_cif.got.tgz:194479.got - 2010.06.28 00:19:55.
