data_PCOD8112113
_publ_section_title
;
Structure prediction by ZEFSAII (Michael W. Deem and Ramdas Pophale) SiO2 
 PCOD8112113
Probable space group: C 2/M
;
_chemical_formula_sum "Si O2"
_cell_formula_units_Z 44
_cell_length_a 8.186488
_cell_length_b 23.251928
_cell_length_c 11.307868
_cell_angle_alpha 90.000000
_cell_angle_beta 117.765512
_cell_angle_gamma 90.000000
_cell_volume 1904.638907
_symmetry_space_group_name_H-M "C 2/M"
_symmetry_group_IT_number 12
_symmetry_cell_setting 'monoclinic'
loop_
_space_group_symop_operation_xyz
x,y,z
-x,y,-z
-x,-y,-z
x,-y,z
1/2+x,1/2+y,z
1/2-x,1/2+y,-z
1/2-x,1/2-y,-z
1/2+x,1/2-y,z
loop_
_atom_site_type_symbol
_atom_site_label
_atom_site_fract_x
_atom_site_fract_y
_atom_site_fract_z
Si Si1 0.000000 0.306959 0.000000
Si Si2 0.715156 0.500000 0.060387
Si Si3 0.825826 0.722058 0.710268
Si Si4 0.845889 0.119259 0.049079
Si Si5 0.538027 0.335418 0.339749
Si Si6 0.495552 0.000000 0.641307
Si Si7 0.126225 0.620002 0.428117
O O1 0.087454 0.267595 0.131157
O O2 0.167913 0.339881 0.992557
O O3 0.809216 0.500000 0.222563
O O4 0.500000 0.500000 0.000000
O O5 0.756001 0.557660 0.000035
O O6 0.620350 0.697433 0.642823
O O7 0.822019 0.784899 0.652810
O O8 0.939926 0.673052 0.677046
O O9 0.955155 0.124622 0.209162
O O10 0.000000 0.132659 0.000000
O O11 0.658104 0.376142 0.464359
O O12 0.500000 0.000000 0.500000
O O13 0.393458 0.941137 0.647221
O O14 0.000000 0.619840 0.500000
#
# Coordination Sequence:
#
# PCOD8112113 Si02
#       7
#     4   4   8   8   8   4   8
#     4  10  24  41  64 100 136 183 230 294 338 434
#     4  10  22  41  69  99 140 178 229 295 342 425
#     4  11  24  43  65  97 140 175 237 275 357 402
#     4  10  24  39  68  96 141 176 237 277 358 400
#     4  11  25  41  66 100 131 187 220 297 333 424
#     4  10  24  40  68 101 132 182 227 284 348 411
#     4  11  24  42  70  94 136 176 233 274 347 411
#
# _framework density 23.101493000000001
#
# number of rings (size 3 to 8) (size 9 to 14) (size 15 to 20)
#    0.000    1.455    0.000    3.273   16.545    1.818 
#    0.000    5.455    0.000    0.000    0.000    0.000 
#    0.000    0.000    0.000    0.000    0.000    0.000 
#
# Total GULP energy -272586.244673 kJ/mol
# GULP energy per Si atom -12390.283849 kJ/mol
# Density = 2.304891 g / cm^3
# Si number density = 23.101493 Si / 1000 Ang^3
#
#
#
# Elastic Constant Matrix: (Units=GPa)
#
#
# Indices 1 2 3 4 5 6 
#
# 1 103.6910 11.7181 17.3927 0.0000 10.0215 0.0000
# 2 11.7181 96.7605 51.1719 0.0000 4.1855 0.0000
# 3 17.3927 51.1719 117.5191 0.0000 26.5800 0.0000
# 4 0.0000 0.0000 0.0000 -34.1549 0.0000 0.6168
# 5 10.0215 4.1855 26.5800 0.0000 36.1042 0.0000
# 6 0.0000 0.0000 0.0000 0.6168 0.0000 17.7137
#
#
#
# Elastic Compliance Matrix: (Units=1/GPa)
#
#
# Indices 1 2 3 4 5 6 
#
# 1 0.010056 -0.000780 -0.000645 0.000000 -0.002226 0.000000
# 2 -0.000780 0.013822 -0.006707 0.000000 0.003552 0.000000
# 3 -0.000645 -0.006707 0.013568 0.000000 -0.009032 0.000000
# 4 0.000000 0.000000 0.000000 -0.029260 0.000000 0.001019
# 5 -0.002226 0.003552 -0.009032 0.000000 0.034553 0.000000
# 6 0.000000 0.000000 0.000000 0.001019 0.000000 0.056418
#
#
# Mechanical properties :
#
#
# Convention : Reuss Voigt Hill
#
# Bulk Modulus (GPa) = 47.20998 53.17068 50.19033
# Shear Modulus (GPa) = 40.82244 19.77846 30.30045
#
# Velocity S-wave (km/s) = 4.20824 2.92919 3.62556
# Velocity P-wave (km/s) = 6.64023 5.87420 6.26893
#
# Compressibility (1/GPa) = 0.02118196
#
# Stress axis : x y z
#
# Youngs Moduli (GPa) = 99.44772 72.34599 73.70369
#
# Poissons Ratio (x) = 0.05646 0.04754
# Poissons Ratio (y) = 0.07761 0.49430
# Poissons Ratio (z) = 0.06414 0.48519
#
# Static dielectric constant tensor:
#      x y z
#    x 4.169590 0.000000 -0.004830 
#    y 0.000000 24.572010 0.000000 
#    z -0.004830 0.000000 4.340860 
# 
# 
# High freq. dielectric constant tensor:
#      x y z
#    x 1.903680 0.000000 0.009680 
#    y 0.000000 1.914940 0.000000 
#    z 0.009680 0.000000 1.927880 
# 
# From -- ./inp_files/122698.got.cif
#   From: 2010.06.25/outbox.cif.g09.slc.cpg/sg12_62_cif.got.tgz:122698.got - 2010.06.28 00:19:55.
