data_PCOD8112689
_publ_section_title
;
Structure prediction by ZEFSAII (Michael W. Deem and Ramdas Pophale) SiO2 
 PCOD8112689
Probable space group: C 2/M
;
_chemical_formula_sum "Si O2"
_cell_formula_units_Z 48
_cell_length_a 29.062497
_cell_length_b 8.926462
_cell_length_c 18.784452
_cell_angle_alpha 90.000000
_cell_angle_beta 30.913246
_cell_angle_gamma 90.000000
_cell_volume 2503.536160
_symmetry_space_group_name_H-M "C 2/M"
_symmetry_group_IT_number 12
_symmetry_cell_setting 'monoclinic'
loop_
_space_group_symop_operation_xyz
x,y,z
-x,y,-z
-x,-y,-z
x,-y,z
1/2+x,1/2+y,z
1/2-x,1/2+y,-z
1/2-x,1/2-y,-z
1/2+x,1/2-y,z
loop_
_atom_site_type_symbol
_atom_site_label
_atom_site_fract_x
_atom_site_fract_y
_atom_site_fract_z
Si Si1 0.096900 0.328920 0.847992
Si Si2 0.751797 0.824162 0.106082
Si Si3 0.114624 0.823949 0.192128
Si Si4 0.656149 0.171728 0.612956
Si Si5 0.912852 0.822462 0.433984
Si Si6 0.747487 0.176531 0.273377
O O1 0.113041 0.500000 0.851532
O O2 0.098728 0.316619 0.760680
O O3 0.171994 0.225046 0.782694
O O4 0.000000 0.269655 0.000000
O O5 0.660153 0.750160 0.200321
O O6 0.770086 0.774445 0.162792
O O7 0.738209 0.000000 0.118853
O O8 0.835493 0.770624 0.946575
O O9 0.011768 0.773534 0.326741
O O10 0.123206 0.000000 0.189439
O O11 0.750000 0.250000 0.500000
O O12 0.601856 0.256526 0.624493
O O13 0.672380 0.000000 0.568737
O O14 0.843587 0.757010 0.582612
O O15 0.901208 0.000000 0.445473
O O16 0.733877 0.000000 0.298603
#
# Coordination Sequence:
#
# PCOD8112689 Si02
#       6
#     8   8   8   8   8   8
#     4  10  23  41  59  84 117 152 192 236 283 340
#     4   9  20  39  60  85 115 146 187 238 287 341
#     4   9  20  39  61  85 112 149 192 233 285 344
#     4  11  22  38  60  85 117 154 192 234 283 339
#     4  11  23  38  59  85 117 153 194 239 283 341
#     4  11  23  38  59  86 117 152 191 238 290 342
#
# _framework density 19.172882000000001
#
# number of rings (size 3 to 8) (size 9 to 14) (size 15 to 20)
#    0.000    1.833    1.667    1.500    2.333    4.333 
#    0.000    3.333    0.000    0.000    0.000    0.000 
#    0.000    0.000    0.000    0.000    0.000    0.000 
#
# Total GULP energy -297691.842466 kJ/mol
# GULP energy per Si atom -12403.826769 kJ/mol
# Density = 1.912924 g / cm^3
# Si number density = 19.172882 Si / 1000 Ang^3
#
#
#
# Elastic Constant Matrix: (Units=GPa)
#
#
# Indices 1 2 3 4 5 6 
#
# 1 77.4085 30.9300 31.2542 -0.0044 -1.3596 0.0000
# 2 30.9300 68.7091 34.3742 -0.0107 -6.2955 0.0054
# 3 31.2542 34.3742 111.4125 -0.0107 -12.3557 0.0057
# 4 -0.0044 -0.0107 -0.0107 24.7610 0.0093 0.5002
# 5 -1.3596 -6.2955 -12.3557 0.0093 36.1809 -0.0042
# 6 0.0000 0.0054 0.0057 0.5002 -0.0042 35.8029
#
#
#
# Elastic Compliance Matrix: (Units=1/GPa)
#
#
# Indices 1 2 3 4 5 6 
#
# 1 0.016507 -0.006109 -0.002905 0.000000 -0.001435 0.000001
# 2 -0.006109 0.019524 -0.004115 0.000005 0.001763 -0.000002
# 3 -0.002905 -0.004115 0.011400 0.000002 0.003068 -0.000001
# 4 0.000000 0.000005 0.000002 0.040397 -0.000009 -0.000564
# 5 -0.001435 0.001763 0.003068 -0.000009 0.028939 0.000003
# 6 0.000001 -0.000002 -0.000001 -0.000564 0.000003 0.027939
#
#
# Mechanical properties :
#
#
# Convention : Reuss Voigt Hill
#
# Bulk Modulus (GPa) = 47.22679 50.07189 48.64934
# Shear Modulus (GPa) = 28.08637 30.08041 29.08339
#
# Velocity S-wave (km/s) = 3.83155 3.96524 3.89897
# Velocity P-wave (km/s) = 6.65282 6.86563 6.76006
#
# Compressibility (1/GPa) = 0.02117442
#
# Stress axis : x y z
#
# Youngs Moduli (GPa) = 60.57981 51.21882 87.71691
#
# Poissons Ratio (x) = 0.31289 0.25482
# Poissons Ratio (y) = 0.37008 0.36092
# Poissons Ratio (z) = 0.17598 0.21074
#
# Static dielectric constant tensor:
#      x y z
#    x 3.572130 0.000010 0.125510 
#    y 0.000010 3.498420 0.000020 
#    z 0.125510 0.000020 3.728100 
# 
# 
# High freq. dielectric constant tensor:
#      x y z
#    x 1.748780 0.000000 0.003430 
#    y 0.000000 1.749170 0.000000 
#    z 0.003430 0.000000 1.754890 
# 
# From -- ./inp_files/244627.got.cif
#   From: 2010.06.25/outbox.cif.g09.slc.cpg/sg12_123_cif.got.tgz:244627.got - 2010.06.28 00:19:55.
