data_PCOD8112079
_publ_section_title
;
Structure prediction by ZEFSAII (Michael W. Deem and Ramdas Pophale) SiO2 
 PCOD8112079
Probable space group: C 2/M
;
_chemical_formula_sum "Si O2"
_cell_formula_units_Z 56
_cell_length_a 17.800141
_cell_length_b 31.244927
_cell_length_c 6.581354
_cell_angle_alpha 90.000000
_cell_angle_beta 126.521730
_cell_angle_gamma 90.000000
_cell_volume 2941.541657
_symmetry_space_group_name_H-M "C 2/M"
_symmetry_group_IT_number 12
_symmetry_cell_setting 'monoclinic'
loop_
_space_group_symop_operation_xyz
x,y,z
-x,y,-z
-x,-y,-z
x,-y,z
1/2+x,1/2+y,z
1/2-x,1/2+y,-z
1/2-x,1/2-y,-z
1/2+x,1/2-y,z
loop_
_atom_site_type_symbol
_atom_site_label
_atom_site_fract_x
_atom_site_fract_y
_atom_site_fract_z
Si Si1 0.128489 0.323033 0.875096
Si Si2 0.087213 0.768013 0.751066
Si Si3 0.707745 0.878998 0.650760
Si Si4 0.391444 0.950589 0.272545
Si Si5 0.105607 0.164115 0.130759
Si Si6 0.284001 0.715806 0.388947
Si Si7 0.096721 0.601056 0.076018
O O1 0.205293 0.314545 0.171784
O O2 0.068100 0.361745 0.869188
O O3 0.062506 0.281127 0.767263
O O4 0.168717 0.338732 0.720323
O O5 0.173977 0.760626 0.739459
O O6 0.000000 0.789970 0.500000
O O7 0.111848 0.797040 0.980991
O O8 0.680684 0.924379 0.703181
O O9 0.821260 0.873068 0.818608
O O10 0.666722 0.880446 0.357280
O O11 0.500000 0.939973 0.500000
O O12 0.369656 0.000000 0.275164
O O13 0.363368 0.938108 0.995307
O O14 0.137952 0.184637 0.393836
O O15 0.000000 0.146417 0.000000
O O16 0.250000 0.750000 0.500000
O O17 0.000000 0.582515 0.000000
#
# Coordination Sequence:
#
# PCOD8112079 Si02
#       7
#     8   8   8   8   8   8   8
#     4  11  24  35  56  81 120 162 206 255 311 356
#     4  12  25  37  53  81 117 163 219 268 308 351
#     4  11  23  41  61  88 126 162 198 252 310 367
#     4  10  22  41  67  98 128 156 188 234 306 389
#     4  12  24  41  60  84 117 166 222 266 309 357
#     4  12  22  37  57  79 113 159 212 273 316 353
#     4  11  23  36  57  92 126 159 196 238 301 377
#
# _framework density 19.037635999999999
#
# number of rings (size 3 to 8) (size 9 to 14) (size 15 to 20)
#    0.000    0.714    7.143    1.286    2.000    1.429 
#    0.000    0.000    0.000    0.429    0.000    1.000 
#    0.000    0.000    0.000    0.000    0.000    0.000 
#
# Total GULP energy -346894.869495 kJ/mol
# GULP energy per Si atom -12389.102482 kJ/mol
# Density = 1.899431 g / cm^3
# Si number density = 19.037636 Si / 1000 Ang^3
#
#
#
# Elastic Constant Matrix: (Units=GPa)
#
#
# Indices 1 2 3 4 5 6 
#
# 1 102.9404 43.7835 28.8936 0.0000 -2.9356 0.0000
# 2 43.7835 104.4380 29.3115 0.0000 -2.0338 0.0000
# 3 28.8936 29.3115 109.3408 0.0000 -0.1047 0.0000
# 4 0.0000 0.0000 0.0000 22.1221 0.0000 -0.3061
# 5 -2.9356 -2.0338 -0.1047 0.0000 31.4153 0.0000
# 6 0.0000 0.0000 0.0000 -0.3061 0.0000 23.3675
#
#
#
# Elastic Compliance Matrix: (Units=1/GPa)
#
#
# Indices 1 2 3 4 5 6 
#
# 1 0.012238 -0.004549 -0.002014 0.000000 0.000842 0.000000
# 2 -0.004549 0.012059 -0.002030 0.000000 0.000349 0.000000
# 3 -0.002014 -0.002030 0.010222 0.000000 -0.000286 0.000000
# 4 0.000000 0.000000 0.000000 0.045212 0.000000 0.000592
# 5 0.000842 0.000349 -0.000286 0.000000 0.031932 0.000000
# 6 0.000000 0.000000 0.000000 0.000592 0.000000 0.042802
#
#
# Mechanical properties :
#
#
# Convention : Reuss Voigt Hill
#
# Bulk Modulus (GPa) = 57.69366 57.85515 57.77441
# Shear Modulus (GPa) = 28.18030 29.69636 28.93833
#
# Velocity S-wave (km/s) = 3.85156 3.95381 3.90302
# Velocity P-wave (km/s) = 7.08168 7.16236 7.12213
#
# Compressibility (1/GPa) = 0.01733293
#
# Stress axis : x y z
#
# Youngs Moduli (GPa) = 81.70942 82.92706 97.82997
#
# Poissons Ratio (x) = 0.37725 0.19700
# Poissons Ratio (y) = 0.37171 0.19861
# Poissons Ratio (z) = 0.16454 0.16836
#
# Static dielectric constant tensor:
#      x y z
#    x 3.505760 0.000000 -0.157860 
#    y 0.000000 3.238170 0.000000 
#    z -0.157860 0.000000 3.765650 
# 
# 
# High freq. dielectric constant tensor:
#      x y z
#    x 1.732740 0.000000 -0.017650 
#    y 0.000000 1.709700 0.000000 
#    z -0.017650 0.000000 1.758660 
# 
# From -- ./inp_files/13129.got.cif
#   From: 2010.06.25/outbox.cif.g09.slc.cpg/sg12_7_cif.got.tgz:13129.got - 2010.06.28 00:19:55.
