data_PCOD8112228
_publ_section_title
;
Structure prediction by ZEFSAII (Michael W. Deem and Ramdas Pophale) SiO2 
 PCOD8112228
Probable space group: C 2/M
;
_chemical_formula_sum "Si O2"
_cell_formula_units_Z 48
_cell_length_a 10.560618
_cell_length_b 27.491098
_cell_length_c 12.936892
_cell_angle_alpha 90.000000
_cell_angle_beta 36.260333
_cell_angle_gamma 90.000000
_cell_volume 2221.432575
_symmetry_space_group_name_H-M "C 2/M"
_symmetry_group_IT_number 12
_symmetry_cell_setting 'monoclinic'
loop_
_space_group_symop_operation_xyz
x,y,z
-x,y,-z
-x,-y,-z
x,-y,z
1/2+x,1/2+y,z
1/2-x,1/2+y,-z
1/2-x,1/2-y,-z
1/2+x,1/2-y,z
loop_
_atom_site_type_symbol
_atom_site_label
_atom_site_fract_x
_atom_site_fract_y
_atom_site_fract_z
Si Si1 0.738677 0.447425 0.311841
Si Si2 0.212909 0.893411 0.915308
Si Si3 0.344109 0.893517 0.438174
Si Si4 0.803146 0.710863 0.552545
Si Si5 0.426457 0.443068 0.793286
Si Si6 0.904708 0.213526 0.957517
O O1 0.500000 0.459714 0.500000
O O2 0.863385 0.500000 0.241511
O O3 0.821021 0.403955 0.330345
O O4 0.729957 0.429782 0.199119
O O5 0.407076 0.909644 0.710432
O O6 0.214645 0.921849 0.021809
O O7 0.222403 0.835383 0.928846
O O8 0.000000 0.910355 0.000000
O O9 0.347273 0.836837 0.457716
O O10 0.166673 0.920660 0.623711
O O11 0.750000 0.750000 0.500000
O O12 0.598255 0.699530 0.756107
O O13 0.000000 0.725310 0.500000
O O14 0.462723 0.500000 0.781920
O O15 0.750000 0.250000 0.000000
O O16 0.000000 0.237694 0.000000
#
# Coordination Sequence:
#
# PCOD8112228 Si02
#       6
#     8   8   8   8   8   8
#     4   8  17  37  64  92 126 165 213 272 329 387
#     4  11  24  42  63  91 134 174 217 272 330 396
#     4  11  22  40  67  95 128 172 220 270 332 389
#     4  12  25  44  71 101 135 180 225 275 338 405
#     4  10  22  42  66  95 131 173 221 278 335 396
#     4  11  23  46  67  98 136 175 219 277 335 402
#
# _framework density 21.607679000000001
#
# number of rings (size 3 to 8) (size 9 to 14) (size 15 to 20)
#    0.000    1.500    1.667    5.500    0.000    4.333 
#    6.000    2.500    0.000    0.000    0.000    0.000 
#    0.000    0.000    0.000    0.000    0.000    0.000 
#
# Total GULP energy -297335.483119 kJ/mol
# GULP energy per Si atom -12388.978463 kJ/mol
# Density = 2.155850 g / cm^3
# Si number density = 21.607679 Si / 1000 Ang^3
#
#
#
# Elastic Constant Matrix: (Units=GPa)
#
#
# Indices 1 2 3 4 5 6 
#
# 1 124.5404 60.8125 7.0201 0.0000 5.0624 0.0000
# 2 60.8125 81.2843 19.8878 0.0000 2.7437 0.0000
# 3 7.0201 19.8878 113.3806 0.0000 -6.2003 0.0000
# 4 0.0000 0.0000 0.0000 25.2304 0.0000 8.8452
# 5 5.0624 2.7437 -6.2003 0.0000 35.0437 0.0000
# 6 0.0000 0.0000 0.0000 8.8452 0.0000 45.1575
#
#
#
# Elastic Compliance Matrix: (Units=1/GPa)
#
#
# Indices 1 2 3 4 5 6 
#
# 1 0.012773 -0.009736 0.000866 0.000000 -0.000930 0.000000
# 2 -0.009736 0.020346 -0.003005 0.000000 -0.000718 0.000000
# 3 0.000866 -0.003005 0.009390 0.000000 0.001772 0.000000
# 4 0.000000 0.000000 0.000000 0.042557 0.000000 -0.008336
# 5 -0.000930 -0.000718 0.001772 0.000000 0.029040 0.000000
# 6 0.000000 0.000000 0.000000 -0.008336 0.000000 0.023777
#
#
# Mechanical properties :
#
#
# Convention : Reuss Voigt Hill
#
# Bulk Modulus (GPa) = 53.31016 54.96068 54.13542
# Shear Modulus (GPa) = 29.78185 36.51865 33.15025
#
# Velocity S-wave (km/s) = 3.71657 4.11551 3.92112
# Velocity P-wave (km/s) = 6.56831 6.93356 6.75340
#
# Compressibility (1/GPa) = 0.01875815
#
# Stress axis : x y z
#
# Youngs Moduli (GPa) = 78.29183 49.14897 106.49334
#
# Poissons Ratio (x) = 0.47853 -0.09224
# Poissons Ratio (y) = 0.76228 0.32005
# Poissons Ratio (z) = -0.06781 0.14771
#
# Static dielectric constant tensor:
#      x y z
#    x -14.976380 0.000000 5.444290 
#    y 0.000000 3.759740 0.000000 
#    z 5.444290 0.000000 2.792800 
# 
# 
# High freq. dielectric constant tensor:
#      x y z
#    x 1.849710 0.000000 0.004560 
#    y 0.000000 1.834320 0.000000 
#    z 0.004560 0.000000 1.870290 
# 
# From -- ./inp_files/209297.got.cif
#   From: 2010.06.25/outbox.cif.g09.slc.cpg/sg12_105_cif.got.tgz:209297.got - 2010.06.28 00:19:55.
