data_PCOD8112845
_publ_section_title
;
Structure prediction by ZEFSAII (Michael W. Deem and Ramdas Pophale) SiO2 
 PCOD8112845
Probable space group: C 2/M
;
_chemical_formula_sum "Si O2"
_cell_formula_units_Z 56
_cell_length_a 27.592853
_cell_length_b 12.515723
_cell_length_c 7.916068
_cell_angle_alpha 90.000000
_cell_angle_beta 105.539302
_cell_angle_gamma 90.000000
_cell_volume 2633.842835
_symmetry_space_group_name_H-M "C 2/M"
_symmetry_group_IT_number 12
_symmetry_cell_setting 'monoclinic'
loop_
_space_group_symop_operation_xyz
x,y,z
-x,y,-z
-x,-y,-z
x,-y,z
1/2+x,1/2+y,z
1/2-x,1/2+y,-z
1/2-x,1/2-y,-z
1/2+x,1/2-y,z
loop_
_atom_site_type_symbol
_atom_site_label
_atom_site_fract_x
_atom_site_fract_y
_atom_site_fract_z
Si Si1 0.442841 0.880578 0.915678
Si Si2 0.420804 0.262716 0.186460
Si Si3 0.483213 0.615551 0.675230
Si Si4 0.588610 0.793110 0.456774
Si Si5 0.236022 0.738955 0.236551
Si Si6 0.183478 0.872844 0.900419
Si Si7 0.306637 0.874024 0.511032
O O1 0.430521 0.876040 0.703646
O O2 0.432451 0.000000 0.966017
O O3 0.500000 0.847302 0.000000
O O4 0.408503 0.809235 0.010397
O O5 0.471272 0.326994 0.184069
O O6 0.431954 0.192767 0.369102
O O7 0.374954 0.343475 0.184769
O O8 0.500000 0.602025 0.500000
O O9 0.473307 0.500000 0.749360
O O10 0.430374 0.679148 0.634436
O O11 0.648145 0.806281 0.528145
O O12 0.281599 0.661587 0.222816
O O13 0.256275 0.836083 0.370430
O O14 0.197967 0.659473 0.297870
O O15 0.203727 0.798570 0.067726
O O16 0.188210 0.000000 0.938772
O O17 0.315236 0.000000 0.497324
#
# Coordination Sequence:
#
# PCOD8112845 Si02
#       7
#     8   8   8   8   8   8   8
#     4  11  24  41  62  89 128 172 214 265 318 373
#     4  11  22  42  66  96 129 168 216 267 315 396
#     4   9  19  37  62  90 127 167 204 259 321 374
#     4  11  22  41  63  96 127 167 218 265 310 393
#     4  10  23  42  63  96 128 165 216 269 323 398
#     4  11  22  41  68  96 128 167 212 269 327 384
#     4  11  22  41  65  91 130 172 212 269 329 382
#
# _framework density 21.261709
#
# number of rings (size 3 to 8) (size 9 to 14) (size 15 to 20)
#    0.000    1.429    2.857    2.571    0.000    1.714 
#    0.000    7.143    0.000    0.000    0.000    0.000 
#    0.000    0.000    0.000    0.000    0.000    0.000 
#
# Total GULP energy -346957.319430 kJ/mol
# GULP energy per Si atom -12391.332837 kJ/mol
# Density = 2.121332 g / cm^3
# Si number density = 21.261709 Si / 1000 Ang^3
#
#
#
# Elastic Constant Matrix: (Units=GPa)
#
#
# Indices 1 2 3 4 5 6 
#
# 1 58.9361 59.1322 8.2062 0.0000 0.8797 0.0000
# 2 59.1322 113.8630 13.5713 0.0000 -7.1919 0.0000
# 3 8.2062 13.5713 70.2419 0.0000 -1.1609 0.0000
# 4 0.0000 0.0000 0.0000 22.2185 0.0000 -2.5566
# 5 0.8797 -7.1919 -1.1609 0.0000 29.9342 0.0000
# 6 0.0000 0.0000 0.0000 -2.5566 0.0000 26.0581
#
#
#
# Elastic Compliance Matrix: (Units=1/GPa)
#
#
# Indices 1 2 3 4 5 6 
#
# 1 0.036385 -0.019180 -0.000639 0.000000 -0.005702 0.000000
# 2 -0.019180 0.019233 -0.001390 0.000000 0.005131 0.000000
# 3 -0.000639 -0.001390 0.014584 0.000000 0.000250 0.000000
# 4 0.000000 0.000000 0.000000 0.045521 0.000000 0.004466
# 5 -0.005702 0.005131 0.000250 0.000000 0.034816 0.000000
# 6 0.000000 0.000000 0.000000 0.004466 0.000000 0.038814
#
#
# Mechanical properties :
#
#
# Convention : Reuss Voigt Hill
#
# Bulk Modulus (GPa) = 35.99330 44.98450 40.48890
# Shear Modulus (GPa) = 20.74394 26.45093 23.59743
#
# Velocity S-wave (km/s) = 3.12692 3.53096 3.33506
# Velocity P-wave (km/s) = 5.47744 6.15036 5.82363
#
# Compressibility (1/GPa) = 0.02778295
#
# Stress axis : x y z
#
# Youngs Moduli (GPa) = 27.48362 51.99427 68.56836
#
# Poissons Ratio (x) = 0.99724 0.04384
# Poissons Ratio (y) = 0.52713 0.09534
# Poissons Ratio (z) = 0.01757 0.07229
#
# Static dielectric constant tensor:
#      x y z
#    x 3.831400 0.000000 -0.005040 
#    y 0.000000 3.840390 0.000000 
#    z -0.005040 0.000000 3.847210 
# 
# 
# High freq. dielectric constant tensor:
#      x y z
#    x 1.830180 0.000000 0.005530 
#    y 0.000000 1.825610 0.000000 
#    z 0.005530 0.000000 1.838760 
# 
# From -- ./inp_files/103256.got.cif
#   From: 2010.06.25/outbox.cif.g09.slc.cpg/sg12_52_cif.got.tgz:103256.got - 2010.06.28 00:19:55.
