data_PCOD8112488
_publ_section_title
;
Structure prediction by ZEFSAII (Michael W. Deem and Ramdas Pophale) SiO2 
 PCOD8112488
Probable space group: C 2/M
;
_chemical_formula_sum "Si O2"
_cell_formula_units_Z 48
_cell_length_a 31.979263
_cell_length_b 14.343627
_cell_length_c 15.304783
_cell_angle_alpha 90.000000
_cell_angle_beta 161.993659
_cell_angle_gamma 90.000000
_cell_volume 2170.125609
_symmetry_space_group_name_H-M "C 2/M"
_symmetry_group_IT_number 12
_symmetry_cell_setting 'monoclinic'
loop_
_space_group_symop_operation_xyz
x,y,z
-x,y,-z
-x,-y,-z
x,-y,z
1/2+x,1/2+y,z
1/2-x,1/2+y,-z
1/2-x,1/2-y,-z
1/2+x,1/2-y,z
loop_
_atom_site_type_symbol
_atom_site_label
_atom_site_fract_x
_atom_site_fract_y
_atom_site_fract_z
Si Si1 0.741306 0.728253 0.619713
Si Si2 0.511868 0.752008 0.772873
Si Si3 0.799783 0.847554 0.133984
Si Si4 0.939539 0.897911 0.251671
Si Si5 0.159267 0.390012 0.334647
Si Si6 0.029988 0.604540 0.658694
O O1 0.625886 0.708510 0.462041
O O2 0.743556 0.649145 0.549240
O O3 0.707827 0.832004 0.516297
O O4 0.890006 0.713148 0.956082
O O5 0.601427 0.667438 0.909932
O O6 0.473613 0.831113 0.624831
O O7 0.821463 0.909008 0.089106
O O8 0.936992 0.840099 0.460712
O O9 0.750000 0.750000 0.000000
O O10 0.692975 0.895347 0.986834
O O11 0.982875 0.000000 0.305414
O O12 0.187316 0.500000 0.404670
O O13 0.000000 0.372015 0.000000
O O14 0.973313 0.500000 0.560493
O O15 0.000000 0.641442 0.500000
#
# Coordination Sequence:
#
# PCOD8112488 Si02
#       6
#     8   8   8   8   8   8
#     4  11  25  44  70 109 139 171 219 278 339 412
#     4  12  25  41  65  99 143 178 225 286 339 396
#     4  11  20  39  62  82 118 170 236 278 334 389
#     4  11  24  39  60  88 126 173 221 281 337 386
#     4  10  22  47  79 104 136 178 214 262 341 427
#     4  11  24  40  61  91 130 183 240 286 329 388
#
# _framework density 22.118535999999999
#
# number of rings (size 3 to 8) (size 9 to 14) (size 15 to 20)
#    0.000    1.000    3.333    4.000    2.333    2.667 
#    0.000    0.833    0.000    0.000    0.000    0.000 
#    0.000    0.000    0.000    0.000    0.000    0.000 
#
# Total GULP energy -297422.858648 kJ/mol
# GULP energy per Si atom -12392.619110 kJ/mol
# Density = 2.206819 g / cm^3
# Si number density = 22.118536 Si / 1000 Ang^3
#
#
#
# Elastic Constant Matrix: (Units=GPa)
#
#
# Indices 1 2 3 4 5 6 
#
# 1 101.7875 29.8724 12.7142 0.0000 12.4032 0.0000
# 2 29.8724 132.1541 12.1846 0.0000 -9.5367 0.0000
# 3 12.7142 12.1846 46.9377 0.0000 3.6784 0.0000
# 4 0.0000 0.0000 0.0000 27.7981 0.0000 1.1725
# 5 12.4032 -9.5367 3.6784 0.0000 43.8542 0.0000
# 6 0.0000 0.0000 0.0000 1.1725 0.0000 23.5501
#
#
#
# Elastic Compliance Matrix: (Units=1/GPa)
#
#
# Indices 1 2 3 4 5 6 
#
# 1 0.011292 -0.002618 -0.002098 0.000000 -0.003587 0.000000
# 2 -0.002618 0.008514 -0.001716 0.000000 0.002736 0.000000
# 3 -0.002098 -0.001716 0.022449 0.000000 -0.001663 0.000000
# 4 0.000000 0.000000 0.000000 0.036049 0.000000 -0.001795
# 5 -0.003587 0.002736 -0.001663 0.000000 0.024552 0.000000
# 6 0.000000 0.000000 0.000000 -0.001795 0.000000 0.042552
#
#
# Mechanical properties :
#
#
# Convention : Reuss Voigt Hill
#
# Bulk Modulus (GPa) = 34.02271 43.38020 38.70145
# Shear Modulus (GPa) = 29.74983 34.11433 31.93208
#
# Velocity S-wave (km/s) = 3.67143 3.93153 3.80370
# Velocity P-wave (km/s) = 5.77823 6.34542 6.06845
#
# Compressibility (1/GPa) = 0.02939214
#
# Stress axis : x y z
#
# Youngs Moduli (GPa) = 88.55980 117.44993 44.54584
#
# Poissons Ratio (x) = 0.30746 0.09346
# Poissons Ratio (y) = 0.23184 0.07642
# Poissons Ratio (z) = 0.18580 0.20149
#
# Static dielectric constant tensor:
#      x y z
#    x 4.191350 0.000000 0.104930 
#    y 0.000000 3.916910 0.000000 
#    z 0.104930 0.000000 4.124930 
# 
# 
# High freq. dielectric constant tensor:
#      x y z
#    x 1.868530 0.000000 0.007530 
#    y 0.000000 1.868040 0.000000 
#    z 0.007530 0.000000 1.865440 
# 
# From -- ./inp_files/251506.got.cif
#   From: 2010.06.25/outbox.cif.g09.slc.cpg/sg12_126_cif.got.tgz:251506.got - 2010.06.28 00:19:55.
