data_PCOD8112451
_publ_section_title
;
Structure prediction by ZEFSAII (Michael W. Deem and Ramdas Pophale) SiO2 
 PCOD8112451
Probable space group: C 2/M
;
_chemical_formula_sum "Si O2"
_cell_formula_units_Z 48
_cell_length_a 9.534154
_cell_length_b 17.064162
_cell_length_c 12.302398
_cell_angle_alpha 90.000000
_cell_angle_beta 91.378055
_cell_angle_gamma 90.000000
_cell_volume 2000.927134
_symmetry_space_group_name_H-M "C 2/M"
_symmetry_group_IT_number 12
_symmetry_cell_setting 'monoclinic'
loop_
_space_group_symop_operation_xyz
x,y,z
-x,y,-z
-x,-y,-z
x,-y,z
1/2+x,1/2+y,z
1/2-x,1/2+y,-z
1/2-x,1/2-y,-z
1/2+x,1/2-y,z
loop_
_atom_site_type_symbol
_atom_site_label
_atom_site_fract_x
_atom_site_fract_y
_atom_site_fract_z
Si Si1 0.674444 0.289728 0.791656
Si Si2 0.612989 0.908992 0.151221
Si Si3 0.814846 0.366356 0.092209
Si Si4 0.532957 0.583853 0.177601
Si Si5 0.142193 0.296787 0.568748
Si Si6 0.616693 0.412579 0.422996
O O1 0.803503 0.349760 0.766042
O O2 0.718841 0.223810 0.878992
O O3 0.560755 0.341695 0.856231
O O4 0.614627 0.249454 0.681232
O O5 0.447456 0.896566 0.165546
O O6 0.651659 0.000000 0.172832
O O7 0.655481 0.880023 0.032765
O O8 0.681432 0.417085 0.121370
O O9 0.461446 0.500000 0.145177
O O10 0.544182 0.588585 0.306245
O O11 0.250000 0.250000 0.500000
O O12 0.227820 0.376992 0.588255
O O13 0.000000 0.313191 0.500000
O O14 0.500000 0.369438 0.500000
O O15 0.640472 0.500000 0.468916
#
# Coordination Sequence:
#
# PCOD8112451 Si02
#       6
#     8   8   8   8   8   8
#     4  12  25  42  68 103 136 182 232 281 341 417
#     4  11  25  46  70 101 137 180 229 286 351 419
#     4  11  23  43  70  98 139 176 225 286 350 414
#     4  11  22  40  66  97 135 180 225 281 343 407
#     4  12  26  43  69  99 140 185 235 292 345 409
#     4  10  22  44  70  99 139 183 230 287 349 410
#
# _framework density 23.988879000000001
#
# number of rings (size 3 to 8) (size 9 to 14) (size 15 to 20)
#    0.000    0.833    1.667    6.500    2.333    2.333 
#    0.000    2.500    0.000    1.500    0.000    0.000 
#    0.000    0.000    0.000    0.000    0.000    0.000 
#
# Total GULP energy -297463.411494 kJ/mol
# GULP energy per Si atom -12394.308812 kJ/mol
# Density = 2.393428 g / cm^3
# Si number density = 23.988879 Si / 1000 Ang^3
#
#
#
# Elastic Constant Matrix: (Units=GPa)
#
#
# Indices 1 2 3 4 5 6 
#
# 1 114.6883 28.2395 -3.0218 0.0000 2.4982 0.0000
# 2 28.2395 152.8269 10.6124 0.0000 5.0265 0.0000
# 3 -3.0218 10.6124 45.4263 0.0000 -1.4470 0.0000
# 4 0.0000 0.0000 0.0000 11.2937 0.0000 -6.0292
# 5 2.4982 5.0265 -1.4470 0.0000 37.5345 0.0000
# 6 0.0000 0.0000 0.0000 -6.0292 0.0000 53.5433
#
#
#
# Elastic Compliance Matrix: (Units=1/GPa)
#
#
# Indices 1 2 3 4 5 6 
#
# 1 0.009186 -0.001756 0.001011 0.000000 -0.000337 0.000000
# 2 -0.001756 0.007021 -0.001786 0.000000 -0.000892 0.000000
# 3 0.001011 -0.001786 0.022531 0.000000 0.001040 0.000000
# 4 0.000000 0.000000 0.000000 0.094208 0.000000 0.010608
# 5 -0.000337 -0.000892 0.001040 0.000000 0.026824 0.000000
# 6 0.000000 0.000000 0.000000 0.010608 0.000000 0.019871
#
#
# Mechanical properties :
#
#
# Convention : Reuss Voigt Hill
#
# Bulk Modulus (GPa) = 29.69522 42.73353 36.21438
# Shear Modulus (GPa) = 25.51946 38.94841 32.23393
#
# Velocity S-wave (km/s) = 3.26514 4.03377 3.66963
# Velocity P-wave (km/s) = 5.15950 6.28869 5.75187
#
# Compressibility (1/GPa) = 0.03367545
#
# Stress axis : x y z
#
# Youngs Moduli (GPa) = 108.86435 142.42493 44.38296
#
# Poissons Ratio (x) = 0.25016 -0.04485
# Poissons Ratio (y) = 0.19121 0.07925
# Poissons Ratio (z) = -0.11002 0.25431
#
# Static dielectric constant tensor:
#      x y z
#    x 3.756570 0.000000 0.151040 
#    y 0.000000 4.791970 0.000000 
#    z 0.151040 0.000000 3.151870 
# 
# 
# High freq. dielectric constant tensor:
#      x y z
#    x 1.958470 0.000000 -0.005470 
#    y 0.000000 1.968050 0.000000 
#    z -0.005470 0.000000 1.934940 
# 
# From -- ./inp_files/195929.got.cif
#   From: 2010.06.25/outbox.cif.g09.slc.cpg/sg12_98_cif.got.tgz:195929.got - 2010.06.28 00:19:55.
