data_PCOD8112041
_publ_section_title
;
Structure prediction by ZEFSAII (Michael W. Deem and Ramdas Pophale) SiO2 
 PCOD8112041
Probable space group: C 2/M
;
_chemical_formula_sum "Si O2"
_cell_formula_units_Z 48
_cell_length_a 11.275566
_cell_length_b 23.794410
_cell_length_c 9.593708
_cell_angle_alpha 90.000000
_cell_angle_beta 64.479899
_cell_angle_gamma 90.000000
_cell_volume 2322.818788
_symmetry_space_group_name_H-M "C 2/M"
_symmetry_group_IT_number 12
_symmetry_cell_setting 'monoclinic'
loop_
_space_group_symop_operation_xyz
x,y,z
-x,y,-z
-x,-y,-z
x,-y,z
1/2+x,1/2+y,z
1/2-x,1/2+y,-z
1/2-x,1/2-y,-z
1/2+x,1/2-y,z
loop_
_atom_site_type_symbol
_atom_site_label
_atom_site_fract_x
_atom_site_fract_y
_atom_site_fract_z
Si Si1 0.288133 0.181993 0.839530
Si Si2 0.342358 0.500000 0.592189
Si Si3 0.909556 0.800539 0.838062
Si Si4 0.708978 0.375780 0.328309
Si Si5 0.192605 0.805643 0.601235
Si Si6 0.927326 0.500000 0.390079
Si Si7 0.508669 0.898338 0.839293
O O1 0.335463 0.245081 0.830080
O O2 0.287250 0.169185 0.673977
O O3 0.382373 0.138940 0.870439
O O4 0.143705 0.177926 0.985080
O O5 0.500000 0.500000 0.500000
O O6 0.307557 0.442650 0.689464
O O7 0.234897 0.500000 0.516218
O O8 0.882338 0.847949 0.738453
O O9 0.064063 0.788625 0.754878
O O10 0.664346 0.354790 0.504236
O O11 0.861739 0.358866 0.232950
O O12 0.250000 0.750000 0.500000
O O13 0.979268 0.446428 0.280661
O O14 0.000000 0.500000 0.500000
O O15 0.500000 0.923422 0.000000
#
# Coordination Sequence:
#
# PCOD8112041 Si02
#       7
#     8   4   8   8   8   4   8
#     4  11  25  38  65  90 130 170 214 266 329 395
#     4  10  22  41  66  95 130 175 215 270 334 394
#     4  11  23  42  60  90 130 171 215 265 324 396
#     4  11  23  41  67  94 126 169 223 267 321 395
#     4  12  24  39  61  94 130 170 215 272 329 389
#     4  10  25  43  70 103 134 166 227 290 333 385
#     4  11  23  44  67  94 130 177 218 262 333 399
#
# _framework density 20.664549000000001
#
# number of rings (size 3 to 8) (size 9 to 14) (size 15 to 20)
#    0.000    1.000    3.333    3.250    4.667    1.333 
#    0.000    0.000    0.000    0.000    0.000    7.000 
#    0.000    0.000    0.000    0.000    0.000    0.000 
#
# Total GULP energy -297416.059080 kJ/mol
# GULP energy per Si atom -12392.335795 kJ/mol
# Density = 2.061752 g / cm^3
# Si number density = 20.664549 Si / 1000 Ang^3
#
#
#
# Elastic Constant Matrix: (Units=GPa)
#
#
# Indices 1 2 3 4 5 6 
#
# 1 103.2805 30.1805 52.2300 0.0000 -9.8249 0.0000
# 2 30.1805 104.3402 35.9516 0.0000 8.0712 0.0000
# 3 52.2300 35.9516 129.8725 0.0000 11.9613 0.0000
# 4 0.0000 0.0000 0.0000 203.1503 0.0000 18.7950
# 5 -9.8249 8.0712 11.9613 0.0000 53.8249 0.0000
# 6 0.0000 0.0000 0.0000 18.7950 0.0000 27.3709
#
#
#
# Elastic Compliance Matrix: (Units=1/GPa)
#
#
# Indices 1 2 3 4 5 6 
#
# 1 0.013312 -0.002415 -0.005045 0.000000 0.003913 0.000000
# 2 -0.002415 0.011081 -0.001943 0.000000 -0.001671 0.000000
# 3 -0.005045 -0.001943 0.010540 0.000000 -0.002972 0.000000
# 4 0.000000 0.000000 0.000000 0.005256 0.000000 -0.003609
# 5 0.003913 -0.001671 -0.002972 0.000000 0.020204 0.000000
# 6 0.000000 0.000000 0.000000 -0.003609 0.000000 0.039014
#
#
# Mechanical properties :
#
#
# Convention : Reuss Voigt Hill
#
# Bulk Modulus (GPa) = 62.00429 63.80192 62.90310
# Shear Modulus (GPa) = 40.45676 71.47796 55.96736
#
# Velocity S-wave (km/s) = 4.42949 5.88768 5.20985
# Velocity P-wave (km/s) = 7.49872 8.78418 8.16678
#
# Compressibility (1/GPa) = 0.01612792
#
# Stress axis : x y z
#
# Youngs Moduli (GPa) = 75.12131 90.24429 94.87280
#
# Poissons Ratio (x) = 0.21791 0.47868
# Poissons Ratio (y) = 0.18139 0.18429
# Poissons Ratio (z) = 0.37902 0.17530
#
# Static dielectric constant tensor:
#      x y z
#    x 3.958930 0.000000 -0.150050 
#    y 0.000000 3.820300 0.000000 
#    z -0.150050 0.000000 3.924230 
# 
# 
# High freq. dielectric constant tensor:
#      x y z
#    x 1.820940 0.000000 -0.005410 
#    y 0.000000 1.800670 0.000000 
#    z -0.005410 0.000000 1.810040 
# 
# From -- ./inp_files/51405.got.cif
#   From: 2010.06.25/outbox.cif.g09.slc.cpg/sg12_26_cif.got.tgz:51405.got - 2010.06.28 00:19:55.
