data_PCOD8112843
_publ_section_title
;
Structure prediction by ZEFSAII (Michael W. Deem and Ramdas Pophale) SiO2 
 PCOD8112843
Probable space group: C 2/M
;
_chemical_formula_sum "Si O2"
_cell_formula_units_Z 64
_cell_length_a 19.083855
_cell_length_b 13.541411
_cell_length_c 25.108847
_cell_angle_alpha 90.000000
_cell_angle_beta 152.494100
_cell_angle_gamma 90.000000
_cell_volume 2996.734694
_symmetry_space_group_name_H-M "C 2/M"
_symmetry_group_IT_number 12
_symmetry_cell_setting 'monoclinic'
loop_
_space_group_symop_operation_xyz
x,y,z
-x,y,-z
-x,-y,-z
x,-y,z
1/2+x,1/2+y,z
1/2-x,1/2+y,-z
1/2-x,1/2-y,-z
1/2+x,1/2-y,z
loop_
_atom_site_type_symbol
_atom_site_label
_atom_site_fract_x
_atom_site_fract_y
_atom_site_fract_z
Si Si1 0.126591 0.808592 0.649375
Si Si2 0.814565 0.889791 0.420066
Si Si3 0.144172 0.116451 0.961237
Si Si4 0.820592 0.613540 0.876785
Si Si5 0.579098 0.387999 0.102763
Si Si6 0.620562 0.191852 0.382268
Si Si7 0.846631 0.216577 0.142872
Si Si8 0.069533 0.390940 0.653684
O O1 0.206517 0.819415 0.645739
O O2 0.249844 0.825865 0.779023
O O3 0.046199 0.699712 0.597380
O O4 0.984364 0.882606 0.558858
O O5 0.689647 0.868645 0.380146
O O6 0.788526 0.000000 0.381762
O O7 0.120115 0.145833 0.884262
O O8 0.987868 0.149850 0.885996
O O9 0.181776 0.000000 0.990598
O O10 0.283411 0.176919 0.081401
O O11 0.768010 0.500000 0.836093
O O12 0.768198 0.659193 0.896825
O O13 0.000000 0.621784 0.000000
O O14 0.523255 0.500000 0.063172
O O15 0.756038 0.378851 0.212581
O O16 0.500000 0.330129 0.000000
O O17 0.750000 0.250000 0.500000
O O18 0.502199 0.270807 0.279913
O O19 0.536451 0.117763 0.366015
O O20 0.040899 0.500000 0.608764
#
# Coordination Sequence:
#
# PCOD8112843 Si02
#       8
#     8   8   8   8   8   8   8   8
#     4  11  23  43  69  98 132 166 222 276 329 394
#     4  11  24  44  72  95 127 175 226 279 329 386
#     4  10  23  42  63  95 134 170 218 272 334 405
#     4  11  24  42  66  96 131 169 215 272 336 399
#     4   9  19  35  60  90 121 166 215 261 319 383
#     4  12  24  44  66  99 136 177 226 278 331 394
#     4  11  24  40  67  95 131 178 220 272 338 394
#     4  11  23  40  65  96 132 170 215 272 324 393
#
# _framework density 21.356579
#
# number of rings (size 3 to 8) (size 9 to 14) (size 15 to 20)
#    0.000    1.250    2.500    3.000    3.500    3.000 
#    0.000    3.125    0.000    0.000    0.000    0.000 
#    0.000    0.000    0.000    0.000    0.000    0.000 
#
# Total GULP energy -396678.626152 kJ/mol
# GULP energy per Si atom -12396.207067 kJ/mol
# Density = 2.130797 g / cm^3
# Si number density = 21.356579 Si / 1000 Ang^3
#
#
#
# Elastic Constant Matrix: (Units=GPa)
#
#
# Indices 1 2 3 4 5 6 
#
# 1 165.2459 67.9452 41.0605 0.0029 6.5070 0.0009
# 2 67.9452 135.6930 22.7295 0.0073 -4.7650 0.0005
# 3 41.0605 22.7295 88.0143 0.0103 1.9550 0.0023
# 4 0.0029 0.0073 0.0103 20.3851 0.0019 0.3453
# 5 6.5070 -4.7650 1.9550 0.0019 31.9295 -0.0008
# 6 0.0009 0.0005 0.0023 0.3453 -0.0008 32.9550
#
#
#
# Elastic Compliance Matrix: (Units=1/GPa)
#
#
# Indices 1 2 3 4 5 6 
#
# 1 0.008419 -0.003804 -0.002898 0.000002 -0.002106 0.000000
# 2 -0.003804 0.009474 -0.000722 -0.000003 0.002233 0.000000
# 3 -0.002898 -0.000722 0.012907 -0.000006 -0.000307 -0.000001
# 4 0.000002 -0.000003 -0.000006 0.049064 -0.000003 -0.000514
# 5 -0.002106 0.002233 -0.000307 -0.000003 0.032100 0.000001
# 6 0.000000 0.000000 -0.000001 -0.000514 0.000001 0.030350
#
#
# Mechanical properties :
#
#
# Convention : Reuss Voigt Hill
#
# Bulk Modulus (GPa) = 62.68905 72.49150 67.59027
# Shear Modulus (GPa) = 30.77325 34.20179 32.48752
#
# Velocity S-wave (km/s) = 3.80007 4.00617 3.90448
# Velocity P-wave (km/s) = 6.97648 7.44421 7.21414
#
# Compressibility (1/GPa) = 0.01595175
#
# Stress axis : x y z
#
# Youngs Moduli (GPa) = 118.78156 105.55636 77.47669
#
# Poissons Ratio (x) = 0.40153 0.22456
# Poissons Ratio (y) = 0.45184 0.05590
# Poissons Ratio (z) = 0.34428 0.07616
#
# Static dielectric constant tensor:
#      x y z
#    x 4.076780 0.000050 0.071390 
#    y 0.000050 4.240290 -0.000040 
#    z 0.071390 -0.000040 3.684400 
# 
# 
# High freq. dielectric constant tensor:
#      x y z
#    x 1.854230 0.000000 0.007320 
#    y 0.000000 1.845720 0.000000 
#    z 0.007320 0.000000 1.824460 
# 
# From -- ./inp_files/344110.got.cif
#   From: 2010.06.25/outbox.cif.g09.slc.cpg/sg12_173_cif.got.tgz:344110.got - 2010.06.28 00:19:55.
