data_PCOD8112279
_publ_section_title
;
Structure prediction by ZEFSAII (Michael W. Deem and Ramdas Pophale) SiO2 
 PCOD8112279
Probable space group: C 2/M
;
_chemical_formula_sum "Si O2"
_cell_formula_units_Z 48
_cell_length_a 18.247678
_cell_length_b 11.862345
_cell_length_c 11.205553
_cell_angle_alpha 90.000000
_cell_angle_beta 68.561352
_cell_angle_gamma 90.000000
_cell_volume 2257.731292
_symmetry_space_group_name_H-M "C 2/M"
_symmetry_group_IT_number 12
_symmetry_cell_setting 'monoclinic'
loop_
_space_group_symop_operation_xyz
x,y,z
-x,y,-z
-x,-y,-z
x,-y,z
1/2+x,1/2+y,z
1/2-x,1/2+y,-z
1/2-x,1/2-y,-z
1/2+x,1/2-y,z
loop_
_atom_site_type_symbol
_atom_site_label
_atom_site_fract_x
_atom_site_fract_y
_atom_site_fract_z
Si Si1 0.595587 0.627319 0.732303
Si Si2 0.171074 0.872738 0.260351
Si Si3 0.941148 0.500000 0.421129
Si Si4 0.424163 0.374828 0.916044
Si Si5 0.414694 0.761695 0.494916
Si Si6 0.661243 0.788302 0.860124
Si Si7 0.059390 0.500000 0.853463
O O1 0.622858 0.500000 0.701800
O O2 0.518769 0.639898 0.864570
O O3 0.575398 0.673797 0.616112
O O4 0.666573 0.695480 0.751675
O O5 0.101675 0.870797 0.205957
O O6 0.150507 0.786047 0.377185
O O7 0.252764 0.830878 0.152813
O O8 0.181099 0.000000 0.304529
O O9 0.888497 0.386539 0.465000
O O10 0.977521 0.500000 0.261506
O O11 0.000000 0.500000 0.500000
O O12 0.401654 0.500000 0.982001
O O13 0.380777 0.270344 0.002820
O O14 0.500000 0.772909 0.500000
O O15 0.611719 0.890036 0.836047
O O16 0.000000 0.500000 0.000000
#
# Coordination Sequence:
#
# PCOD8112279 Si02
#       7
#     8   8   4   8   8   8   4
#     4  11  22  39  67  98 123 166 226 275 329 393
#     4  11  24  43  66  97 134 175 222 282 343 410
#     4  10  24  44  66 102 138 175 228 284 332 403
#     4  10  22  42  68  95 132 170 225 286 336 405
#     4  11  22  42  69  94 127 169 222 273 333 402
#     4  12  24  41  61  98 137 171 221 275 349 397
#     4  12  24  42  70  96 135 189 228 275 341 413
#
# _framework density 21.260280999999999
#
# number of rings (size 3 to 8) (size 9 to 14) (size 15 to 20)
#    0.000    1.000    4.167    3.000    0.000    2.667 
#    3.000    0.000    0.000    0.000    0.000    0.000 
#    0.000    0.000    0.000    0.000    0.000    0.000 
#
# Total GULP energy -297482.382406 kJ/mol
# GULP energy per Si atom -12395.099267 kJ/mol
# Density = 2.121189 g / cm^3
# Si number density = 21.260281 Si / 1000 Ang^3
#
#
#
# Elastic Constant Matrix: (Units=GPa)
#
#
# Indices 1 2 3 4 5 6 
#
# 1 47.1310 19.9684 -1.4335 0.0000 -2.6008 0.0000
# 2 19.9684 171.3086 48.7137 0.0000 1.8286 0.0000
# 3 -1.4335 48.7137 90.4759 0.0000 6.2182 0.0000
# 4 0.0000 0.0000 0.0000 27.7227 0.0000 6.1699
# 5 -2.6008 1.8286 6.2182 0.0000 24.2561 0.0000
# 6 0.0000 0.0000 0.0000 6.1699 0.0000 24.1477
#
#
#
# Elastic Compliance Matrix: (Units=1/GPa)
#
#
# Indices 1 2 3 4 5 6 
#
# 1 0.022767 -0.003232 0.001951 0.000000 0.002185 0.000000
# 2 -0.003232 0.007356 -0.004021 0.000000 0.000130 0.000000
# 3 0.001951 -0.004021 0.013450 0.000000 -0.002936 0.000000
# 4 0.000000 0.000000 0.000000 0.038246 0.000000 -0.009772
# 5 0.002185 0.000130 -0.002936 0.000000 0.042204 0.000000
# 6 0.000000 0.000000 0.000000 -0.009772 0.000000 0.043909
#
#
# Mechanical properties :
#
#
# Convention : Reuss Voigt Hill
#
# Bulk Modulus (GPa) = 30.33150 49.26806 39.79978
# Shear Modulus (GPa) = 26.38169 31.33641 28.85905
#
# Velocity S-wave (km/s) = 3.52645 3.84336 3.68831
# Velocity P-wave (km/s) = 5.55687 6.55128 6.07446
#
# Compressibility (1/GPa) = 0.03296903
#
# Stress axis : x y z
#
# Youngs Moduli (GPa) = 43.92403 135.94172 74.34842
#
# Poissons Ratio (x) = 0.43933 -0.14502
# Poissons Ratio (y) = 0.14195 0.29894
# Poissons Ratio (z) = -0.08568 0.54659
#
# Static dielectric constant tensor:
#      x y z
#    x 3.616580 0.000000 0.203970 
#    y 0.000000 4.391670 0.000000 
#    z 0.203970 0.000000 3.792310 
# 
# 
# High freq. dielectric constant tensor:
#      x y z
#    x 1.812540 0.000000 0.023800 
#    y 0.000000 1.862260 0.000000 
#    z 0.023800 0.000000 1.829580 
# 
# From -- ./inp_files/154241.got.cif
#   From: 2010.06.25/outbox.cif.g09.slc.cpg/sg12_78_cif.got.tgz:154241.got - 2010.06.28 00:19:55.
