data_PCOD8112611
_publ_section_title
;
Structure prediction by ZEFSAII (Michael W. Deem and Ramdas Pophale) SiO2 
 PCOD8112611
Probable space group: C 2/M
;
_chemical_formula_sum "Si O2"
_cell_formula_units_Z 64
_cell_length_a 26.628728
_cell_length_b 13.787543
_cell_length_c 8.510945
_cell_angle_alpha 90.000000
_cell_angle_beta 78.419769
_cell_angle_gamma 90.000000
_cell_volume 3061.143022
_symmetry_space_group_name_H-M "C 2/M"
_symmetry_group_IT_number 12
_symmetry_cell_setting 'monoclinic'
loop_
_space_group_symop_operation_xyz
x,y,z
-x,y,-z
-x,-y,-z
x,-y,z
1/2+x,1/2+y,z
1/2-x,1/2+y,-z
1/2-x,1/2-y,-z
1/2+x,1/2-y,z
loop_
_atom_site_type_symbol
_atom_site_label
_atom_site_fract_x
_atom_site_fract_y
_atom_site_fract_z
Si Si1 0.316660 0.609984 0.314019
Si Si2 0.039308 0.810825 0.095401
Si Si3 0.792507 0.610932 0.132023
Si Si4 0.887974 0.722176 0.193498
Si Si5 0.695297 0.693558 0.353368
Si Si6 0.085894 0.890359 0.361251
Si Si7 0.533980 0.228884 0.606280
Si Si8 0.287368 0.107517 0.772281
O O1 0.333562 0.500000 0.341372
O O2 0.367315 0.668700 0.236395
O O3 0.289985 0.661044 0.480778
O O4 0.274489 0.613883 0.203050
O O5 0.070860 0.884024 0.185864
O O6 0.004361 0.746993 0.228937
O O7 0.075468 0.734436 0.980024
O O8 0.000000 0.865782 0.000000
O O9 0.782969 0.500000 0.185261
O O10 0.842546 0.647607 0.191545
O O11 0.742728 0.671912 0.209547
O O12 0.802682 0.624173 0.942105
O O13 0.916537 0.683524 0.335767
O O14 0.645332 0.636760 0.330236
O O15 0.684995 0.809788 0.349615
O O16 0.051799 0.824225 0.497566
O O17 0.078057 0.000000 0.423682
O O18 0.500000 0.165565 0.500000
O O19 0.305427 0.000000 0.704331
#
# Coordination Sequence:
#
# PCOD8112611 Si02
#       8
#     8   8   8   8   8   8   8   8
#     4  11  23  37  56  86 124 165 209 247 288 351
#     4   9  21  38  58  83 113 158 210 259 312 366
#     4  11  24  40  61  92 126 161 204 254 302 364
#     4  11  21  39  62  86 120 164 203 252 305 370
#     4  12  22  39  59  89 125 169 206 243 298 361
#     4  11  22  35  57  87 123 166 206 249 304 370
#     4   9  20  39  60  84 116 156 204 260 313 365
#     4  10  23  40  59  85 122 164 205 249 298 351
#
# _framework density 20.907222999999998
#
# number of rings (size 3 to 8) (size 9 to 14) (size 15 to 20)
#    0.000    1.500    2.500    2.625    1.750    3.000 
#    0.000    3.750    0.000    3.750    0.000    3.500 
#    0.000    0.000    0.000    0.000    0.000    0.000 
#
# Total GULP energy -396551.711084 kJ/mol
# GULP energy per Si atom -12392.240971 kJ/mol
# Density = 2.085964 g / cm^3
# Si number density = 20.907223 Si / 1000 Ang^3
#
#
#
# Elastic Constant Matrix: (Units=GPa)
#
#
# Indices 1 2 3 4 5 6 
#
# 1 98.5913 15.6146 32.0777 0.0000 17.0024 0.0000
# 2 15.6146 83.4215 25.7809 0.0000 5.8269 0.0000
# 3 32.0777 25.7809 84.1554 0.0000 11.4083 0.0000
# 4 0.0000 0.0000 0.0000 21.8878 0.0000 2.7060
# 5 17.0024 5.8269 11.4083 0.0000 37.7730 0.0000
# 6 0.0000 0.0000 0.0000 2.7060 0.0000 2.0054
#
#
#
# Elastic Compliance Matrix: (Units=1/GPa)
#
#
# Indices 1 2 3 4 5 6 
#
# 1 0.012252 -0.000808 -0.003850 0.000000 -0.004228 0.000000
# 2 -0.000808 0.013321 -0.003695 0.000000 -0.000575 0.000000
# 3 -0.003850 -0.003695 0.014775 0.000000 -0.002160 0.000000
# 4 0.000000 0.000000 0.000000 0.054835 0.000000 -0.073989
# 5 -0.004228 -0.000575 -0.002160 0.000000 0.029118 0.000000
# 6 0.000000 0.000000 0.000000 -0.073989 0.000000 0.598481
#
#
# Mechanical properties :
#
#
# Convention : Reuss Voigt Hill
#
# Bulk Modulus (GPa) = 42.29645 45.90163 44.09904
# Shear Modulus (GPa) = 6.69015 25.17958 15.93486
#
# Velocity S-wave (km/s) = 1.79077 3.47414 2.76374
# Velocity P-wave (km/s) = 4.95483 6.17215 5.59668
#
# Compressibility (1/GPa) = 0.02364265
#
# Stress axis : x y z
#
# Youngs Moduli (GPa) = 81.61600 75.07159 67.68314
#
# Poissons Ratio (x) = 0.06069 0.26055
# Poissons Ratio (y) = 0.06598 0.25007
# Poissons Ratio (z) = 0.31418 0.27736
#
# Static dielectric constant tensor:
#      x y z
#    x 4.172660 0.000000 0.444670 
#    y 0.000000 3.564080 0.000000 
#    z 0.444670 0.000000 4.047560 
# 
# 
# High freq. dielectric constant tensor:
#      x y z
#    x 1.835310 0.000000 0.018710 
#    y 0.000000 1.779470 0.000000 
#    z 0.018710 0.000000 1.828030 
# 
# From -- ./inp_files/104593.got.cif
#   From: 2010.06.25/outbox.cif.g09.slc.cpg/sg12_53_cif.got.tgz:104593.got - 2010.06.28 00:19:55.
