data_PCOD8112115
_publ_section_title
;
Structure prediction by ZEFSAII (Michael W. Deem and Ramdas Pophale) SiO2 
 PCOD8112115
Probable space group: C 2/M
;
_chemical_formula_sum "Si O2"
_cell_formula_units_Z 40
_cell_length_a 8.481168
_cell_length_b 22.619407
_cell_length_c 16.716535
_cell_angle_alpha 90.000000
_cell_angle_beta 148.247164
_cell_angle_gamma 90.000000
_cell_volume 1687.641570
_symmetry_space_group_name_H-M "C 2/M"
_symmetry_group_IT_number 12
_symmetry_cell_setting 'monoclinic'
loop_
_space_group_symop_operation_xyz
x,y,z
-x,y,-z
-x,-y,-z
x,-y,z
1/2+x,1/2+y,z
1/2-x,1/2+y,-z
1/2-x,1/2-y,-z
1/2+x,1/2-y,z
loop_
_atom_site_type_symbol
_atom_site_label
_atom_site_fract_x
_atom_site_fract_y
_atom_site_fract_z
Si Si1 0.176587 0.066804 0.337313
Si Si2 0.337040 0.933463 0.754065
Si Si3 0.257308 0.631529 0.046498
Si Si4 0.107330 0.240425 0.132553
Si Si5 0.800116 0.313802 0.670962
O O1 0.500000 0.093007 0.500000
O O2 0.951362 0.069479 0.313925
O O3 0.060746 0.106636 0.214925
O O4 0.210591 0.000000 0.320643
O O5 0.290063 0.885488 0.663844
O O6 0.374263 0.000000 0.735406
O O7 0.643632 0.915227 0.931704
O O8 0.342142 0.695871 0.046403
O O9 0.000000 0.639352 0.000000
O O10 0.169910 0.293454 0.222961
O O11 0.420388 0.206715 0.260737
O O12 0.000000 0.265621 0.000000
O O13 0.500000 0.288354 0.500000
#
# Coordination Sequence:
#
# PCOD8112115 Si02
#       5
#     8   8   8   8   8
#     4   9  19  35  64 101 138 186 236 286 347 420
#     4  10  22  43  69 100 142 187 233 288 351 420
#     4  10  22  41  70 102 139 188 235 291 344 423
#     4  12  27  47  73 105 139 190 237 291 352 422
#     4  12  29  48  72 107 144 187 233 296 360 418
#
# _framework density 23.701713999999999
#
# number of rings (size 3 to 8) (size 9 to 14) (size 15 to 20)
#    0.000    1.400    2.000    1.800    8.400    3.600 
#    0.000    3.000    0.000    0.000    0.000    0.000 
#    0.000    0.000    0.000    0.000    0.000    0.000 
#
# Total GULP energy -247981.892129 kJ/mol
# GULP energy per Si atom -12399.094606 kJ/mol
# Density = 2.364777 g / cm^3
# Si number density = 23.701714 Si / 1000 Ang^3
#
#
#
# Elastic Constant Matrix: (Units=GPa)
#
#
# Indices 1 2 3 4 5 6 
#
# 1 64.0135 26.1698 33.4944 -0.0018 -1.6855 0.0024
# 2 26.1698 148.1937 41.4503 0.0025 0.8163 -0.0037
# 3 33.4944 41.4503 185.7083 0.0599 6.7503 -0.0426
# 4 -0.0018 0.0025 0.0599 22.3035 0.0007 7.7118
# 5 -1.6855 0.8163 6.7503 0.0007 25.7303 -0.0024
# 6 0.0024 -0.0037 -0.0426 7.7118 -0.0024 29.2665
#
#
#
# Elastic Compliance Matrix: (Units=1/GPa)
#
#
# Indices 1 2 3 4 5 6 
#
# 1 0.018133 -0.002430 -0.002801 0.000012 0.002000 -0.000009
# 2 -0.002430 0.007524 -0.001238 0.000003 -0.000073 -0.000001
# 3 -0.002801 -0.001238 0.006231 -0.000022 -0.001779 0.000015
# 4 0.000012 0.000003 -0.000022 0.049331 0.000004 -0.012999
# 5 0.002000 -0.000073 -0.001779 0.000004 0.039465 -0.000001
# 6 -0.000009 -0.000001 0.000015 -0.012999 -0.000001 0.037594
#
#
# Mechanical properties :
#
#
# Convention : Reuss Voigt Hill
#
# Bulk Modulus (GPa) = 52.77075 66.68272 59.72674
# Shear Modulus (GPa) = 28.16389 35.24679 31.70534
#
# Velocity S-wave (km/s) = 3.45086 3.86048 3.66140
# Velocity P-wave (km/s) = 6.17987 6.93298 6.56723
#
# Compressibility (1/GPa) = 0.01894989
#
# Stress axis : x y z
#
# Youngs Moduli (GPa) = 55.14735 132.91159 160.48662
#
# Poissons Ratio (x) = 0.32295 0.44950
# Poissons Ratio (y) = 0.13400 0.19875
# Poissons Ratio (z) = 0.15446 0.16460
#
# Static dielectric constant tensor:
#      x y z
#    x 4.127480 0.000020 0.089960 
#    y 0.000020 4.478930 -0.000030 
#    z 0.089960 -0.000030 4.606690 
# 
# 
# High freq. dielectric constant tensor:
#      x y z
#    x 1.921280 0.000000 0.016120 
#    y 0.000000 1.952560 0.000000 
#    z 0.016120 0.000000 1.958510 
# 
# From -- ./inp_files/198676.got.cif
#   From: 2010.06.25/outbox.cif.g09.slc.cpg/sg12_100_cif.got.tgz:198676.got - 2010.06.28 00:19:55.
