data_PCOD8112792
_publ_section_title
;
Structure prediction by ZEFSAII (Michael W. Deem and Ramdas Pophale) SiO2 
 PCOD8112792
Probable space group: C 2/M
;
_chemical_formula_sum "Si O2"
_cell_formula_units_Z 56
_cell_length_a 11.809976
_cell_length_b 30.999145
_cell_length_c 14.289384
_cell_angle_alpha 90.000000
_cell_angle_beta 31.978700
_cell_angle_gamma 90.000000
_cell_volume 2770.533863
_symmetry_space_group_name_H-M "C 2/M"
_symmetry_group_IT_number 12
_symmetry_cell_setting 'monoclinic'
loop_
_space_group_symop_operation_xyz
x,y,z
-x,y,-z
-x,-y,-z
x,-y,z
1/2+x,1/2+y,z
1/2-x,1/2+y,-z
1/2-x,1/2-y,-z
1/2+x,1/2-y,z
loop_
_atom_site_type_symbol
_atom_site_label
_atom_site_fract_x
_atom_site_fract_y
_atom_site_fract_z
Si Si1 0.514074 0.763283 0.691988
Si Si2 0.008490 0.601890 0.288742
Si Si3 0.829223 0.172845 0.800844
Si Si4 0.386487 0.451032 0.980891
Si Si5 0.580070 0.833762 0.797292
Si Si6 0.147278 0.883735 0.678908
Si Si7 0.773868 0.829012 0.197355
O O1 0.750000 0.750000 0.500000
O O2 0.376890 0.720562 0.805877
O O3 0.530362 0.790347 0.775449
O O4 0.401958 0.791033 0.687601
O O5 0.872976 0.624972 0.301695
O O6 0.857531 0.594338 0.485029
O O7 0.130742 0.558700 0.169318
O O8 0.208163 0.632574 0.174193
O O9 0.784111 0.173935 0.721102
O O10 0.025569 0.140751 0.680884
O O11 0.626771 0.154319 0.997259
O O12 0.409389 0.500000 0.929940
O O13 0.500000 0.443933 0.000000
O O14 0.502010 0.421021 0.824022
O O15 0.215955 0.846786 0.704328
O O16 0.000000 0.811404 0.000000
#
# Coordination Sequence:
#
# PCOD8112792 Si02
#       7
#     8   8   8   8   8   8   8
#     4  11  25  39  57  89 126 165 217 283 316 368
#     4  11  21  40  64  92 127 167 211 257 316 388
#     4  11  23  40  64  85 123 169 220 271 315 377
#     4  11  23  42  66 100 138 162 200 264 322 394
#     4  10  23  42  60  87 119 170 220 263 326 371
#     4  12  22  39  68  95 126 175 212 258 324 384
#     4  11  21  39  63  87 124 170 217 260 319 380
#
# _framework density 20.212712
#
# number of rings (size 3 to 8) (size 9 to 14) (size 15 to 20)
#    0.000    1.000    4.286    3.429    4.000    2.857 
#    2.571    1.429    0.000    1.714    0.000    2.000 
#    0.000    0.000    0.000    0.000    0.000    0.000 
#
# Total GULP energy -347209.547009 kJ/mol
# GULP energy per Si atom -12400.340965 kJ/mol
# Density = 2.016671 g / cm^3
# Si number density = 20.212712 Si / 1000 Ang^3
#
#
#
# Elastic Constant Matrix: (Units=GPa)
#
#
# Indices 1 2 3 4 5 6 
#
# 1 127.6830 51.8744 37.5847 0.0000 -2.4385 0.0000
# 2 51.8744 109.6015 41.2581 0.0000 -2.9856 0.0000
# 3 37.5847 41.2581 125.4033 0.0000 1.4170 0.0000
# 4 0.0000 0.0000 0.0000 18.7813 0.0000 -4.5724
# 5 -2.4385 -2.9856 1.4170 0.0000 24.9055 0.0000
# 6 0.0000 0.0000 0.0000 -4.5724 0.0000 20.7733
#
#
#
# Elastic Compliance Matrix: (Units=1/GPa)
#
#
# Indices 1 2 3 4 5 6 
#
# 1 0.009992 -0.004090 -0.001656 0.000000 0.000582 0.000000
# 2 -0.004090 0.012140 -0.002782 0.000000 0.001213 0.000000
# 3 -0.001656 -0.002782 0.009397 0.000000 -0.001030 0.000000
# 4 0.000000 0.000000 0.000000 0.056259 0.000000 0.012383
# 5 0.000582 0.001213 -0.001030 0.000000 0.040413 0.000000
# 6 0.000000 0.000000 0.000000 0.012383 0.000000 0.050864
#
#
# Mechanical properties :
#
#
# Convention : Reuss Voigt Hill
#
# Bulk Modulus (GPa) = 69.08910 69.34692 69.21801
# Shear Modulus (GPa) = 24.88227 28.35672 26.61949
#
# Velocity S-wave (km/s) = 3.51240 3.74961 3.63294
# Velocity P-wave (km/s) = 7.12071 7.28898 7.20533
#
# Compressibility (1/GPa) = 0.01447406
#
# Stress axis : x y z
#
# Youngs Moduli (GPa) = 100.07905 82.37141 106.41225
#
# Poissons Ratio (x) = 0.33691 0.17618
# Poissons Ratio (y) = 0.40934 0.29604
# Poissons Ratio (z) = 0.16570 0.22916
#
# Static dielectric constant tensor:
#      x y z
#    x 3.932100 0.000000 -0.043910 
#    y 0.000000 3.608140 0.000000 
#    z -0.043910 0.000000 3.761010 
# 
# 
# High freq. dielectric constant tensor:
#      x y z
#    x 1.787490 0.000000 -0.004590 
#    y 0.000000 1.759780 0.000000 
#    z -0.004590 0.000000 1.799270 
# 
# From -- ./inp_files/210004.got.cif
#   From: 2010.06.25/outbox.cif.g09.slc.cpg/sg12_106_cif.got.tgz:210004.got - 2010.06.28 00:19:55.
