data_PCOD8112616
_publ_section_title
;
Structure prediction by ZEFSAII (Michael W. Deem and Ramdas Pophale) SiO2 
 PCOD8112616
Probable space group: C 2/M
;
_chemical_formula_sum "Si O2"
_cell_formula_units_Z 64
_cell_length_a 23.584055
_cell_length_b 8.590670
_cell_length_c 28.589008
_cell_angle_alpha 90.000000
_cell_angle_beta 148.816885
_cell_angle_gamma 90.000000
_cell_volume 2999.063113
_symmetry_space_group_name_H-M "C 2/M"
_symmetry_group_IT_number 12
_symmetry_cell_setting 'monoclinic'
loop_
_space_group_symop_operation_xyz
x,y,z
-x,y,-z
-x,-y,-z
x,-y,z
1/2+x,1/2+y,z
1/2-x,1/2+y,-z
1/2-x,1/2-y,-z
1/2+x,1/2-y,z
loop_
_atom_site_type_symbol
_atom_site_label
_atom_site_fract_x
_atom_site_fract_y
_atom_site_fract_z
Si Si1 0.292283 0.679441 0.662495
Si Si2 0.979601 0.323806 0.185115
Si Si3 0.437715 0.318423 0.333662
Si Si4 0.683370 0.681754 0.496234
Si Si5 0.262966 0.182182 0.272126
Si Si6 0.841128 0.678077 0.176413
Si Si7 0.546841 0.181865 0.083532
Si Si8 0.626486 0.681730 0.972227
O O1 0.267634 0.500000 0.634110
O O2 0.421985 0.705761 0.754852
O O3 0.240662 0.784253 0.585774
O O4 0.242949 0.730007 0.677611
O O5 0.016365 0.500000 0.199805
O O6 0.941719 0.309842 0.211662
O O7 0.879001 0.274756 0.080557
O O8 0.440651 0.500000 0.347510
O O9 0.559731 0.251086 0.411086
O O10 0.383527 0.228859 0.339170
O O11 0.364946 0.288691 0.236593
O O12 0.679031 0.500000 0.484578
O O13 0.750000 0.750000 0.500000
O O14 0.174538 0.274814 0.178258
O O15 0.241491 0.000000 0.250658
O O16 0.826023 0.500000 0.182895
O O17 0.730594 0.741875 0.074725
O O18 0.483971 0.283594 0.077419
O O19 0.529420 0.000000 0.081291
O O20 0.500000 0.228443 0.000000
O O21 0.637879 0.500000 0.969523
#
# Coordination Sequence:
#
# PCOD8112616 Si02
#       8
#     8   8   8   8   8   8   8   8
#     4  11  24  42  66  96 128 167 213 264 321 382
#     4  11  22  38  62  91 125 167 212 263 319 378
#     4  11  25  43  65  94 127 163 208 261 317 375
#     4  11  25  45  70 100 131 167 209 260 319 380
#     4  11  24  42  65  92 126 168 212 261 319 379
#     4  10  23  40  60  89 125 167 212 260 320 380
#     4  11  23  38  59  88 123 166 217 268 317 374
#     4  11  22  37  57  86 124 165 211 261 315 379
#
# _framework density 21.339997
#
# number of rings (size 3 to 8) (size 9 to 14) (size 15 to 20)
#    0.000    1.125    1.250    4.500    0.000   11.000 
#    0.000    2.500    0.000    0.000    0.000    0.000 
#    0.000    0.000    0.000    0.000    0.000    0.000 
#
# Total GULP energy -397016.752471 kJ/mol
# GULP energy per Si atom -12406.773515 kJ/mol
# Density = 2.129143 g / cm^3
# Si number density = 21.339997 Si / 1000 Ang^3
#
#
#
# Elastic Constant Matrix: (Units=GPa)
#
#
# Indices 1 2 3 4 5 6 
#
# 1 122.1708 29.7494 49.6760 -0.0002 3.2344 0.0000
# 2 29.7494 52.7748 17.3319 -0.0001 -2.5627 0.0007
# 3 49.6760 17.3319 108.5375 -0.0007 0.9636 -0.0004
# 4 -0.0002 -0.0001 -0.0007 34.5505 -0.0002 -1.3293
# 5 3.2344 -2.5627 0.9636 -0.0002 38.7073 0.0000
# 6 0.0000 0.0007 -0.0004 -1.3293 0.0000 29.7132
#
#
#
# Elastic Compliance Matrix: (Units=1/GPa)
#
#
# Indices 1 2 3 4 5 6 
#
# 1 0.011172 -0.004937 -0.004315 0.000000 -0.001153 0.000000
# 2 -0.004937 0.022255 -0.001311 0.000000 0.001919 -0.000001
# 3 -0.004315 -0.001311 0.011398 0.000000 -0.000010 0.000000
# 4 0.000000 0.000000 0.000000 0.028993 0.000000 0.001297
# 5 -0.001153 0.001919 -0.000010 0.000000 0.026059 0.000000
# 6 0.000000 -0.000001 0.000000 0.001297 0.000000 0.033713
#
#
# Mechanical properties :
#
#
# Convention : Reuss Voigt Hill
#
# Bulk Modulus (GPa) = 42.19548 52.99974 47.59761
# Shear Modulus (GPa) = 30.74727 33.04257 31.89492
#
# Velocity S-wave (km/s) = 3.79994 3.93922 3.87021
# Velocity P-wave (km/s) = 6.25049 6.75128 6.50570
#
# Compressibility (1/GPa) = 0.02369922
#
# Stress axis : x y z
#
# Youngs Moduli (GPa) = 89.50604 44.93325 87.73670
#
# Poissons Ratio (x) = 0.22183 0.37857
# Poissons Ratio (y) = 0.44188 0.11505
# Poissons Ratio (z) = 0.38621 0.05892
#
# Static dielectric constant tensor:
#      x y z
#    x 3.955610 0.000000 0.050160 
#    y 0.000000 3.719640 0.000000 
#    z 0.050160 0.000000 3.905220 
# 
# 
# High freq. dielectric constant tensor:
#      x y z
#    x 1.849290 0.000000 0.000060 
#    y 0.000000 1.836470 0.000000 
#    z 0.000060 0.000000 1.838420 
# 
# From -- ./inp_files/382549.got.cif
#   From: 2010.06.25/outbox.cif.g09.slc.cpg/sg12_192_cif.got.tgz:382549.got - 2010.06.28 00:19:55.
