data_PCOD8112809
_publ_section_title
;
Structure prediction by ZEFSAII (Michael W. Deem and Ramdas Pophale) SiO2 
 PCOD8112809
Probable space group: C 2/M
;
_chemical_formula_sum "Si O2"
_cell_formula_units_Z 48
_cell_length_a 22.734907
_cell_length_b 9.111893
_cell_length_c 12.015650
_cell_angle_alpha 90.000000
_cell_angle_beta 105.103971
_cell_angle_gamma 90.000000
_cell_volume 2403.150152
_symmetry_space_group_name_H-M "C 2/M"
_symmetry_group_IT_number 12
_symmetry_cell_setting 'monoclinic'
loop_
_space_group_symop_operation_xyz
x,y,z
-x,y,-z
-x,-y,-z
x,-y,z
1/2+x,1/2+y,z
1/2-x,1/2+y,-z
1/2-x,1/2-y,-z
1/2+x,1/2-y,z
loop_
_atom_site_type_symbol
_atom_site_label
_atom_site_fract_x
_atom_site_fract_y
_atom_site_fract_z
Si Si1 0.614844 0.169086 0.819267
Si Si2 0.479569 0.671281 0.368340
Si Si3 0.748562 0.833570 0.808904
Si Si4 0.786130 0.326491 0.614829
Si Si5 0.621053 0.666387 0.038784
Si Si6 0.906505 0.829438 0.727371
O O1 0.581456 0.246208 0.699230
O O2 0.686896 0.196509 0.845047
O O3 0.597043 0.000000 0.807710
O O4 0.593696 0.233824 0.927443
O O5 0.500000 0.728652 0.500000
O O6 0.464564 0.500000 0.367331
O O7 0.530664 0.707234 0.302015
O O8 0.752944 0.716895 0.712425
O O9 0.806065 0.811448 0.918334
O O10 0.749601 0.000000 0.761010
O O11 0.785397 0.500000 0.599397
O O12 0.750000 0.250000 0.500000
O O13 0.855221 0.269371 0.644962
O O14 0.604678 0.500000 0.999197
O O15 0.588862 0.709957 0.139408
O O16 0.888180 0.000000 0.704346
#
# Coordination Sequence:
#
# PCOD8112809 Si02
#       6
#     8   8   8   8   8   8
#     4  11  23  37  58  88 122 155 194 244 293 344
#     4  10  23  42  62  84 113 154 202 243 289 353
#     4   9  20  38  57  85 121 155 191 238 293 346
#     4  11  22  35  57  86 116 153 193 237 289 347
#     4   9  18  36  61  85 116 154 194 240 293 352
#     4   9  20  40  61  84 116 151 194 247 292 340
#
# _framework density 19.973783999999998
#
# number of rings (size 3 to 8) (size 9 to 14) (size 15 to 20)
#    0.000    2.167    0.000    3.500    2.333    5.667 
#    0.000    3.333    0.000    0.000    0.000    0.000 
#    0.000    0.000    0.000    0.000    0.000    0.000 
#
# Total GULP energy -297648.722450 kJ/mol
# GULP energy per Si atom -12402.030102 kJ/mol
# Density = 1.992832 g / cm^3
# Si number density = 19.973784 Si / 1000 Ang^3
#
#
#
# Elastic Constant Matrix: (Units=GPa)
#
#
# Indices 1 2 3 4 5 6 
#
# 1 72.5861 24.2314 30.2632 0.0000 -10.2988 0.0000
# 2 24.2314 95.2760 44.6223 0.0000 5.8389 0.0000
# 3 30.2632 44.6223 110.8190 0.0000 4.9973 0.0000
# 4 0.0000 0.0000 0.0000 35.9297 0.0000 5.4283
# 5 -10.2988 5.8389 4.9973 0.0000 19.4899 0.0000
# 6 0.0000 0.0000 0.0000 5.4283 0.0000 25.8522
#
#
#
# Elastic Compliance Matrix: (Units=1/GPa)
#
#
# Indices 1 2 3 4 5 6 
#
# 1 0.018327 -0.003439 -0.004151 0.000000 0.011779 0.000000
# 2 -0.003439 0.013709 -0.004364 0.000000 -0.004805 0.000000
# 3 -0.004151 -0.004364 0.012095 0.000000 -0.003987 0.000000
# 4 0.000000 0.000000 0.000000 0.028744 0.000000 -0.006035
# 5 0.011779 -0.004805 -0.003987 0.000000 0.059995 0.000000
# 6 0.000000 0.000000 0.000000 -0.006035 0.000000 0.039949
#
#
# Mechanical properties :
#
#
# Convention : Reuss Voigt Hill
#
# Bulk Modulus (GPa) = 49.45205 52.99053 51.22129
# Shear Modulus (GPa) = 24.57412 28.22532 26.39972
#
# Velocity S-wave (km/s) = 3.51139 3.76322 3.63949
# Velocity P-wave (km/s) = 6.42278 6.74315 6.58491
#
# Compressibility (1/GPa) = 0.02022161
#
# Stress axis : x y z
#
# Youngs Moduli (GPa) = 54.56541 72.94577 82.68210
#
# Poissons Ratio (x) = 0.25083 0.34324
# Poissons Ratio (y) = 0.18763 0.36085
# Poissons Ratio (z) = 0.22652 0.31836
#
# Static dielectric constant tensor:
#      x y z
#    x 3.335880 0.000000 0.101380 
#    y 0.000000 3.598650 0.000000 
#    z 0.101380 0.000000 3.538000 
# 
# 
# High freq. dielectric constant tensor:
#      x y z
#    x 1.775870 0.000000 -0.001530 
#    y 0.000000 1.772820 0.000000 
#    z -0.001530 0.000000 1.783050 
# 
# From -- ./inp_files/172047.got.cif
#   From: 2010.06.25/outbox.cif.g09.slc.cpg/sg12_87_cif.got.tgz:172047.got - 2010.06.28 00:19:55.
