data_PCOD8112292
_publ_section_title
;
Structure prediction by ZEFSAII (Michael W. Deem and Ramdas Pophale) SiO2 
 PCOD8112292
Probable space group: C 2/M
;
_chemical_formula_sum "Si O2"
_cell_formula_units_Z 32
_cell_length_a 13.238351
_cell_length_b 14.020370
_cell_length_c 12.525050
_cell_angle_alpha 90.000000
_cell_angle_beta 146.878072
_cell_angle_gamma 90.000000
_cell_volume 1270.285767
_symmetry_space_group_name_H-M "C 2/M"
_symmetry_group_IT_number 12
_symmetry_cell_setting 'monoclinic'
loop_
_space_group_symop_operation_xyz
x,y,z
-x,y,-z
-x,-y,-z
x,-y,z
1/2+x,1/2+y,z
1/2-x,1/2+y,-z
1/2-x,1/2-y,-z
1/2+x,1/2-y,z
loop_
_atom_site_type_symbol
_atom_site_label
_atom_site_fract_x
_atom_site_fract_y
_atom_site_fract_z
Si Si1 0.711391 0.719456 0.710723
Si Si2 0.163188 0.650506 0.386656
Si Si3 0.239025 0.611568 0.025447
Si Si4 0.895735 0.102580 0.774216
O O1 0.500000 0.744669 0.500000
O O2 0.780152 0.638123 0.687452
O O3 0.745938 0.676848 0.856925
O O4 0.826081 0.818044 0.796340
O O5 0.250000 0.750000 0.500000
O O6 0.258546 0.578845 0.553239
O O7 0.942813 0.640915 0.202109
O O8 0.235953 0.500000 0.054430
O O9 0.407906 0.637476 0.098004
O O10 0.914022 0.000000 0.849711
#
# Coordination Sequence:
#
# PCOD8112292 Si02
#       4
#     8   8   8   8
#     4  11  23  42  68 107 144 182 234 294 352 415
#     4  10  22  42  69 101 136 181 232 289 350 412
#     4  11  24  44  74 104 137 185 237 291 352 418
#     4  10  23  45  71 100 140 186 235 290 349 419
#
# _framework density 25.191182000000001
#
# number of rings (size 3 to 8) (size 9 to 14) (size 15 to 20)
#    0.000    1.500    2.500    1.500    0.000    8.000 
#    9.000    0.000    0.000   13.500    0.000    0.000 
#    0.000    0.000    0.000    0.000    0.000    0.000 
#
# Total GULP energy -198291.462002 kJ/mol
# GULP energy per Si atom -12393.216375 kJ/mol
# Density = 2.513385 g / cm^3
# Si number density = 25.191182 Si / 1000 Ang^3
#
#
#
# Elastic Constant Matrix: (Units=GPa)
#
#
# Indices 1 2 3 4 5 6 
#
# 1 102.4378 73.8225 91.8575 -0.0001 17.6690 -0.0002
# 2 73.8225 157.1938 43.7142 -0.0012 3.7111 -0.0009
# 3 91.8575 43.7142 209.1384 -0.0013 34.7716 -0.0010
# 4 -0.0001 -0.0012 -0.0013 9.5316 -0.0006 8.6813
# 5 17.6690 3.7111 34.7716 -0.0006 47.3037 -0.0005
# 6 -0.0002 -0.0009 -0.0010 8.6813 -0.0005 34.0900
#
#
#
# Elastic Compliance Matrix: (Units=1/GPa)
#
#
# Indices 1 2 3 4 5 6 
#
# 1 0.024034 -0.008918 -0.008334 -0.000002 -0.002151 0.000000
# 2 -0.008918 0.010078 0.001582 0.000002 0.001378 0.000000
# 3 -0.008334 0.001582 0.008675 0.000001 -0.003388 0.000000
# 4 -0.000002 0.000002 0.000001 0.136597 0.000001 -0.034786
# 5 -0.002151 0.001378 -0.003388 0.000001 0.024326 0.000000
# 6 0.000000 0.000000 0.000000 -0.034786 0.000000 0.038193
#
#
# Mechanical properties :
#
#
# Convention : Reuss Voigt Hill
#
# Bulk Modulus (GPa) = 87.38344 98.61762 93.00053
# Shear Modulus (GPa) = 18.04683 35.47677 26.76180
#
# Velocity S-wave (km/s) = 2.67946 3.75681 3.26290
# Velocity P-wave (km/s) = 6.65853 7.61911 7.15496
#
# Compressibility (1/GPa) = 0.01144382
#
# Stress axis : x y z
#
# Youngs Moduli (GPa) = 41.60848 99.23076 115.27755
#
# Poissons Ratio (x) = 0.88498 0.96075
# Poissons Ratio (y) = 0.37108 -0.18232
# Poissons Ratio (z) = 0.34677 -0.15694
#
# Static dielectric constant tensor:
#      x y z
#    x 4.938260 0.000000 -0.281530 
#    y 0.000000 4.930810 0.000000 
#    z -0.281530 0.000000 5.344620 
# 
# 
# High freq. dielectric constant tensor:
#      x y z
#    x 2.004630 0.000000 -0.001040 
#    y 0.000000 2.007570 0.000000 
#    z -0.001040 0.000000 2.033270 
# 
# From -- ./inp_files/215140.got.cif
#   From: 2010.06.25/outbox.cif.g09.slc.cpg/sg12_108_cif.got.tgz:215140.got - 2010.06.28 00:19:55.
