data_PCOD8112546
_publ_section_title
;
Structure prediction by ZEFSAII (Michael W. Deem and Ramdas Pophale) SiO2 
 PCOD8112546
Probable space group: C 2/M
;
_chemical_formula_sum "Si O2"
_cell_formula_units_Z 56
_cell_length_a 25.869814
_cell_length_b 15.054132
_cell_length_c 25.723581
_cell_angle_alpha 90.000000
_cell_angle_beta 163.692135
_cell_angle_gamma 90.000000
_cell_volume 2813.035240
_symmetry_space_group_name_H-M "C 2/M"
_symmetry_group_IT_number 12
_symmetry_cell_setting 'monoclinic'
loop_
_space_group_symop_operation_xyz
x,y,z
-x,y,-z
-x,-y,-z
x,-y,z
1/2+x,1/2+y,z
1/2-x,1/2+y,-z
1/2-x,1/2-y,-z
1/2+x,1/2-y,z
loop_
_atom_site_type_symbol
_atom_site_label
_atom_site_fract_x
_atom_site_fract_y
_atom_site_fract_z
Si Si1 0.289777 0.280937 0.738519
Si Si2 0.454673 0.896905 0.573535
Si Si3 0.788819 0.199823 0.857895
Si Si4 0.625262 0.651933 0.766231
Si Si5 0.568675 0.791732 0.349561
Si Si6 0.765564 0.900541 0.366418
Si Si7 0.043363 0.597664 0.850919
O O1 0.151214 0.336633 0.569993
O O2 0.248395 0.304200 0.757831
O O3 0.253114 0.175099 0.695699
O O4 0.495458 0.311172 0.921718
O O5 0.672881 0.877497 0.775347
O O6 0.386109 0.868773 0.564709
O O7 0.412057 0.000000 0.523399
O O8 0.727673 0.295329 0.819561
O O9 0.545783 0.716310 0.733122
O O10 0.467084 0.594472 0.586559
O O11 0.770647 0.590543 0.936080
O O12 0.750000 0.750000 0.500000
O O13 0.441966 0.833393 0.182105
O O14 0.624407 0.871730 0.274843
O O15 0.721897 0.000000 0.302015
O O16 0.003110 0.500000 0.789249
#
# Coordination Sequence:
#
# PCOD8112546 Si02
#       7
#     8   8   8   8   8   8   8
#     4  11  21  43  63  91 125 168 204 259 321 368
#     4  11  24  42  66  95 126 163 211 262 310 367
#     4  10  23  38  67  88 125 162 211 252 313 380
#     4  11  21  39  62  88 118 161 207 250 305 373
#     4  11  21  40  64  87 122 163 203 250 310 365
#     4  11  22  38  62  92 125 160 210 259 307 374
#     4  11  22  38  58  87 123 158 201 252 308 366
#
# _framework density 19.907323000000002
#
# number of rings (size 3 to 8) (size 9 to 14) (size 15 to 20)
#    0.000    1.143    5.714    1.714    0.000    1.714 
#    0.000    5.000    0.000    0.000    0.000    0.000 
#    0.000    0.000    0.000    0.000    0.000    0.000 
#
# Total GULP energy -347178.803428 kJ/mol
# GULP energy per Si atom -12399.242980 kJ/mol
# Density = 1.986201 g / cm^3
# Si number density = 19.907323 Si / 1000 Ang^3
#
#
#
# Elastic Constant Matrix: (Units=GPa)
#
#
# Indices 1 2 3 4 5 6 
#
# 1 78.1493 23.7351 29.6569 0.0683 13.9932 0.0010
# 2 23.7351 101.1318 7.7755 0.0921 2.8590 0.0256
# 3 29.6569 7.7755 91.7114 0.0570 1.2302 0.0406
# 4 0.0683 0.0921 0.0570 19.0836 0.0157 0.9332
# 5 13.9932 2.8590 1.2302 0.0157 26.4654 0.0263
# 6 0.0010 0.0256 0.0406 0.9332 0.0263 9.8148
#
#
#
# Elastic Compliance Matrix: (Units=1/GPa)
#
#
# Indices 1 2 3 4 5 6 
#
# 1 0.017344 -0.003429 -0.005203 -0.000026 -0.008558 0.000054
# 2 -0.003429 0.010659 0.000196 -0.000039 0.000652 -0.000026
# 3 -0.005203 0.000196 0.012541 -0.000019 0.002147 -0.000056
# 4 -0.000026 -0.000039 -0.000019 0.052646 -0.000008 -0.005006
# 5 -0.008558 0.000652 0.002147 -0.000008 0.042140 -0.000122
# 6 0.000054 -0.000026 -0.000056 -0.005006 -0.000122 0.102364
#
#
# Mechanical properties :
#
#
# Convention : Reuss Voigt Hill
#
# Bulk Modulus (GPa) = 42.24132 43.70305 42.97219
# Shear Modulus (GPa) = 19.05075 25.06109 22.05592
#
# Velocity S-wave (km/s) = 3.09685 3.55193 3.33217
# Velocity P-wave (km/s) = 5.83544 6.23077 6.03634
#
# Compressibility (1/GPa) = 0.02367350
#
# Stress axis : x y z
#
# Youngs Moduli (GPa) = 57.65556 93.81495 79.73889
#
# Poissons Ratio (x) = 0.32166 0.41490
# Poissons Ratio (y) = 0.19768 -0.01565
# Poissons Ratio (z) = 0.29999 -0.01842
#
# Static dielectric constant tensor:
#      x y z
#    x 3.804870 -0.000040 0.187690 
#    y -0.000040 3.477840 -0.000050 
#    z 0.187690 -0.000050 3.823270 
# 
# 
# High freq. dielectric constant tensor:
#      x y z
#    x 1.778820 -0.000010 0.005430 
#    y -0.000010 1.769610 -0.000010 
#    z 0.005430 -0.000010 1.783930 
# 
# From -- ./inp_files/349818.got.cif
#   From: 2010.06.25/outbox.cif.g09.slc.cpg/sg12_175_cif.got.tgz:349818.got - 2010.06.28 00:19:55.
