data_PCOD8112710
_publ_section_title
;
Structure prediction by ZEFSAII (Michael W. Deem and Ramdas Pophale) SiO2 
 PCOD8112710
Probable space group: C 2/M
;
_chemical_formula_sum "Si O2"
_cell_formula_units_Z 64
_cell_length_a 30.500745
_cell_length_b 8.961780
_cell_length_c 14.148720
_cell_angle_alpha 90.000000
_cell_angle_beta 56.946123
_cell_angle_gamma 90.000000
_cell_volume 3241.513253
_symmetry_space_group_name_H-M "C 2/M"
_symmetry_group_IT_number 12
_symmetry_cell_setting 'monoclinic'
loop_
_space_group_symop_operation_xyz
x,y,z
-x,y,-z
-x,-y,-z
x,-y,z
1/2+x,1/2+y,z
1/2-x,1/2+y,-z
1/2-x,1/2-y,-z
1/2+x,1/2-y,z
loop_
_atom_site_type_symbol
_atom_site_label
_atom_site_fract_x
_atom_site_fract_y
_atom_site_fract_z
Si Si1 0.643714 0.671989 0.222848
Si Si2 0.737682 0.670985 0.242877
Si Si3 0.895874 0.172303 0.235857
Si Si4 0.723958 0.675558 0.619871
Si Si5 0.966771 0.326129 0.628916
Si Si6 0.575641 0.673122 0.010604
Si Si7 0.014602 0.674425 0.774293
Si Si8 0.170392 0.324872 0.003884
O O1 0.637189 0.500000 0.203744
O O2 0.678781 0.693071 0.275043
O O3 0.587198 0.738932 0.307984
O O4 0.673840 0.750673 0.101964
O O5 0.748110 0.500000 0.260256
O O6 0.744746 0.775614 0.324293
O O7 0.777864 0.719797 0.113934
O O8 0.836120 0.227392 0.301841
O O9 0.925890 0.272314 0.278191
O O10 0.899013 0.000000 0.262931
O O11 0.922343 0.198266 0.103419
O O12 0.728382 0.500000 0.604582
O O13 0.750000 0.750000 0.500000
O O14 0.953435 0.500000 0.637664
O O15 0.000000 0.271878 0.500000
O O16 0.999459 0.289118 0.684463
O O17 0.583234 0.500000 0.027614
O O18 0.520209 0.730045 0.112807
O O19 0.619934 0.768598 0.008328
O O20 0.008552 0.500000 0.803622
O O21 0.164696 0.500000 0.024978
#
# Coordination Sequence:
#
# PCOD8112710 Si02
#       8
#     8   8   8   8   8   8   8   8
#     4  11  23  39  62  92 124 160 201 248 305 364
#     4  10  23  41  62  92 126 160 202 250 300 364
#     4  10  23  41  61  88 122 159 199 245 301 364
#     4  11  24  43  65  90 121 162 208 255 306 359
#     4  10  23  43  62  84 118 158 204 254 301 356
#     4  11  21  37  61  89 123 159 197 243 302 363
#     4  11  23  38  61  92 122 157 201 248 302 360
#     4  11  21  36  61  91 125 161 198 245 302 362
#
# _framework density 19.743865
#
# number of rings (size 3 to 8) (size 9 to 14) (size 15 to 20)
#    0.000    1.375    2.500    2.625    0.000    6.750 
#    0.000    2.500    0.000    0.000    0.000    0.000 
#    0.000    0.000    0.000    0.000    0.000    0.000 
#
# Total GULP energy -396984.926566 kJ/mol
# GULP energy per Si atom -12405.778955 kJ/mol
# Density = 1.969893 g / cm^3
# Si number density = 19.743865 Si / 1000 Ang^3
#
#
#
# Elastic Constant Matrix: (Units=GPa)
#
#
# Indices 1 2 3 4 5 6 
#
# 1 117.8562 41.0093 53.1433 0.0000 12.8278 0.0000
# 2 41.0093 66.5082 65.8343 0.0000 15.0931 0.0000
# 3 53.1433 65.8343 120.4588 0.0000 20.0002 0.0000
# 4 0.0000 0.0000 0.0000 30.0651 0.0000 0.8942
# 5 12.8278 15.0931 20.0002 0.0000 8.2154 0.0000
# 6 0.0000 0.0000 0.0000 0.8942 0.0000 36.0110
#
#
#
# Elastic Compliance Matrix: (Units=1/GPa)
#
#
# Indices 1 2 3 4 5 6 
#
# 1 0.011310 -0.003587 -0.001999 0.000000 -0.006202 0.000000
# 2 -0.003587 0.038191 -0.014385 0.000000 -0.029543 0.000000
# 3 -0.001999 -0.014385 0.020375 0.000000 -0.020053 0.000000
# 4 0.000000 0.000000 0.000000 0.033286 0.000000 -0.000826
# 5 -0.006202 -0.029543 -0.020053 0.000000 0.234500 0.000000
# 6 0.000000 0.000000 0.000000 -0.000826 0.000000 0.027790
#
#
# Mechanical properties :
#
#
# Convention : Reuss Voigt Hill
#
# Bulk Modulus (GPa) = 33.40813 69.42189 51.41501
# Shear Modulus (GPa) = 12.03741 24.51405 18.27573
#
# Velocity S-wave (km/s) = 2.47185 3.52746 3.04574
# Velocity P-wave (km/s) = 5.01041 7.19918 6.20211
#
# Compressibility (1/GPa) = 0.02993283
#
# Stress axis : x y z
#
# Youngs Moduli (GPa) = 88.42006 26.18421 49.08001
#
# Poissons Ratio (x) = 0.09392 0.09813
# Poissons Ratio (y) = 0.31717 0.70601
# Poissons Ratio (z) = 0.17679 0.37666
#
# Static dielectric constant tensor:
#      x y z
#    x 3.538620 0.000000 -0.052000 
#    y 0.000000 3.562120 0.000000 
#    z -0.052000 0.000000 3.652660 
# 
# 
# High freq. dielectric constant tensor:
#      x y z
#    x 1.782810 0.000000 -0.001220 
#    y 0.000000 1.775760 0.000000 
#    z -0.001220 0.000000 1.767440 
# 
# From -- ./inp_files/249666.got.cif
#   From: 2010.06.25/outbox.cif.g09.slc.cpg/sg12_125_cif.got.tgz:249666.got - 2010.06.28 00:19:55.
