data_PCOD8112856
_publ_section_title
;
Structure prediction by ZEFSAII (Michael W. Deem and Ramdas Pophale) SiO2 
 PCOD8112856
Probable space group: C 2/M
;
_chemical_formula_sum "Si O2"
_cell_formula_units_Z 64
_cell_length_a 28.588716
_cell_length_b 8.831175
_cell_length_c 18.899771
_cell_angle_alpha 90.000000
_cell_angle_beta 41.136881
_cell_angle_gamma 90.000000
_cell_volume 3139.086471
_symmetry_space_group_name_H-M "C 2/M"
_symmetry_group_IT_number 12
_symmetry_cell_setting 'monoclinic'
loop_
_space_group_symop_operation_xyz
x,y,z
-x,y,-z
-x,-y,-z
x,-y,z
1/2+x,1/2+y,z
1/2-x,1/2+y,-z
1/2-x,1/2-y,-z
1/2+x,1/2-y,z
loop_
_atom_site_type_symbol
_atom_site_label
_atom_site_fract_x
_atom_site_fract_y
_atom_site_fract_z
Si Si1 0.916167 0.821487 0.674236
Si Si2 0.074002 0.678662 0.878336
Si Si3 0.698512 0.320962 0.828224
Si Si4 0.182628 0.329546 0.108434
Si Si5 0.946869 0.179318 0.393251
Si Si6 0.642078 0.178324 0.392989
Si Si7 0.619768 0.171010 0.033466
Si Si8 0.472627 0.320655 0.203920
O O1 0.845054 0.766063 0.794228
O O2 0.914106 0.750724 0.598414
O O3 0.983717 0.765948 0.642367
O O4 0.915388 0.000000 0.667382
O O5 0.079207 0.500000 0.862910
O O6 0.140543 0.737541 0.846711
O O7 0.081965 0.756244 0.791882
O O8 0.000000 0.726392 0.000000
O O9 0.688294 0.500000 0.835166
O O10 0.777260 0.271875 0.714754
O O11 0.685828 0.262155 0.923049
O O12 0.200093 0.500000 0.114268
O O13 0.124451 0.330781 0.112651
O O14 0.250000 0.250000 0.000000
O O15 0.878447 0.259327 0.506114
O O16 0.951264 0.233848 0.306967
O O17 0.938223 0.000000 0.407590
O O18 0.633214 0.000000 0.400120
O O19 0.548095 0.254827 0.094051
O O20 0.617749 0.000000 0.005298
O O21 0.476122 0.500000 0.196836
#
# Coordination Sequence:
#
# PCOD8112856 Si02
#       8
#     8   8   8   8   8   8   8   8
#     4  11  22  39  62  89 122 162 210 256 304 363
#     4  11  23  39  63  96 126 155 200 249 303 366
#     4  11  24  41  62  89 123 162 204 249 305 368
#     4  11  23  36  54  83 122 164 205 250 305 365
#     4  10  23  42  64  91 122 163 210 254 303 361
#     4  11  25  42  62  91 123 162 210 258 307 361
#     4  11  22  36  57  87 121 158 198 246 304 359
#     4  11  22  39  64  92 122 157 199 246 301 361
#
# _framework density 20.388099
#
# number of rings (size 3 to 8) (size 9 to 14) (size 15 to 20)
#    0.000    1.125    2.500    3.750    0.000    9.500 
#    0.000    0.625    0.000    0.000    0.000    0.000 
#    0.000    0.000    0.000    0.000    0.000    0.000 
#
# Total GULP energy -396912.889241 kJ/mol
# GULP energy per Si atom -12403.527789 kJ/mol
# Density = 2.034169 g / cm^3
# Si number density = 20.388099 Si / 1000 Ang^3
#
#
#
# Elastic Constant Matrix: (Units=GPa)
#
#
# Indices 1 2 3 4 5 6 
#
# 1 62.4299 20.0565 19.6130 0.0079 9.7631 -0.0088
# 2 20.0565 64.1869 32.8510 0.0027 0.5227 0.0149
# 3 19.6130 32.8510 115.4595 0.0021 10.2152 -0.0065
# 4 0.0079 0.0027 0.0021 37.4755 0.0117 2.0959
# 5 9.7631 0.5227 10.2152 0.0117 26.1997 -0.0109
# 6 -0.0088 0.0149 -0.0065 2.0959 -0.0109 32.8885
#
#
#
# Elastic Compliance Matrix: (Units=1/GPa)
#
#
# Indices 1 2 3 4 5 6 
#
# 1 0.019120 -0.005333 -0.001149 -0.000002 -0.006570 0.000005
# 2 -0.005333 0.019797 -0.005042 -0.000001 0.003558 -0.000010
# 3 -0.001149 -0.005042 0.010610 0.000001 -0.003608 0.000003
# 4 -0.000002 -0.000001 0.000001 0.026780 -0.000012 -0.001707
# 5 -0.006570 0.003558 -0.003608 -0.000012 0.041953 0.000011
# 6 0.000005 -0.000010 0.000003 -0.001707 0.000011 0.030515
#
#
# Mechanical properties :
#
#
# Convention : Reuss Voigt Hill
#
# Bulk Modulus (GPa) = 37.76493 43.01304 40.38899
# Shear Modulus (GPa) = 27.67825 30.61646 29.14735
#
# Velocity S-wave (km/s) = 3.68852 3.87936 3.78514
# Velocity P-wave (km/s) = 6.05834 6.41941 6.24149
#
# Compressibility (1/GPa) = 0.02647959
#
# Stress axis : x y z
#
# Youngs Moduli (GPa) = 52.30203 50.51223 94.25098
#
# Poissons Ratio (x) = 0.26936 0.10832
# Poissons Ratio (y) = 0.27891 0.47519
# Poissons Ratio (z) = 0.06011 0.25467
#
# Static dielectric constant tensor:
#      x y z
#    x 3.814520 -0.000050 0.219580 
#    y -0.000050 3.703540 0.000040 
#    z 0.219580 0.000040 3.823120 
# 
# 
# High freq. dielectric constant tensor:
#      x y z
#    x 1.795310 0.000000 0.012410 
#    y 0.000000 1.804970 0.000000 
#    z 0.012410 0.000000 1.796240 
# 
# From -- ./inp_files/295594.got.cif
#   From: 2010.06.25/outbox.cif.g09.slc.cpg/sg12_148_cif.got.tgz:295594.got - 2010.06.28 00:19:55.
