data_PCOD8112640
_publ_section_title
;
Structure prediction by ZEFSAII (Michael W. Deem and Ramdas Pophale) SiO2 
 PCOD8112640
Probable space group: C 2/M
;
_chemical_formula_sum "Si O2"
_cell_formula_units_Z 48
_cell_length_a 11.426075
_cell_length_b 18.009349
_cell_length_c 12.816407
_cell_angle_alpha 90.000000
_cell_angle_beta 112.478960
_cell_angle_gamma 90.000000
_cell_volume 2436.928268
_symmetry_space_group_name_H-M "C 2/M"
_symmetry_group_IT_number 12
_symmetry_cell_setting 'monoclinic'
loop_
_space_group_symop_operation_xyz
x,y,z
-x,y,-z
-x,-y,-z
x,-y,z
1/2+x,1/2+y,z
1/2-x,1/2+y,-z
1/2-x,1/2-y,-z
1/2+x,1/2-y,z
loop_
_atom_site_type_symbol
_atom_site_label
_atom_site_fract_x
_atom_site_fract_y
_atom_site_fract_z
Si Si1 0.539849 0.917017 0.310146
Si Si2 0.890721 0.349030 0.877164
Si Si3 0.808182 0.831415 0.036241
Si Si4 0.073013 0.800771 0.220862
Si Si5 0.399119 0.227471 0.559969
Si Si6 0.244370 0.085415 0.193386
O O1 0.581684 0.907608 0.204375
O O2 0.605485 0.859586 0.411412
O O3 0.391049 0.903511 0.265087
O O4 0.576562 0.000000 0.358780
O O5 0.763242 0.372610 0.893152
O O6 0.866841 0.268107 0.820323
O O7 0.000000 0.347448 0.000000
O O8 0.953105 0.827433 0.115650
O O9 0.750000 0.750000 0.000000
O O10 0.794788 0.881588 0.930626
O O11 0.039062 0.775986 0.326319
O O12 0.172858 0.868278 0.258985
O O13 0.500000 0.240792 0.500000
O O14 0.250000 0.250000 0.500000
O O15 0.203017 0.000000 0.184625
#
# Coordination Sequence:
#
# PCOD8112640 Si02
#       6
#     8   8   8   8   8   8
#     4  10  23  40  63  92 124 156 197 250 308 369
#     4  11  19  33  58  89 125 165 197 239 293 365
#     4  12  20  33  57  90 127 167 203 241 294 365
#     4  11  23  36  60  85 124 159 206 258 304 359
#     4  11  25  44  70  93 115 156 216 272 316 362
#     4  11  22  38  60  93 130 165 198 238 299 376
#
# _framework density 19.696928
#
# number of rings (size 3 to 8) (size 9 to 14) (size 15 to 20)
#    0.000    1.000    5.000    2.500    4.667    2.667 
#    0.000    0.833    0.000    1.000    0.000    0.000 
#    0.000    0.000    0.000    0.000    0.000    0.000 
#
# Total GULP energy -297537.124867 kJ/mol
# GULP energy per Si atom -12397.380203 kJ/mol
# Density = 1.965210 g / cm^3
# Si number density = 19.696928 Si / 1000 Ang^3
#
#
#
# Elastic Constant Matrix: (Units=GPa)
#
#
# Indices 1 2 3 4 5 6 
#
# 1 101.1681 55.8624 30.0771 0.0000 -14.7638 0.0000
# 2 55.8624 122.2887 45.1094 0.0000 4.1337 0.0000
# 3 30.0771 45.1094 81.2872 0.0000 -11.4515 0.0000
# 4 0.0000 0.0000 0.0000 25.9236 0.0000 5.2311
# 5 -14.7638 4.1337 -11.4515 0.0000 38.6197 0.0000
# 6 0.0000 0.0000 0.0000 5.2311 0.0000 26.4587
#
#
#
# Elastic Compliance Matrix: (Units=1/GPa)
#
#
# Indices 1 2 3 4 5 6 
#
# 1 0.014663 -0.006556 -0.000938 0.000000 0.006029 0.000000
# 2 -0.006556 0.013538 -0.005890 0.000000 -0.005702 0.000000
# 3 -0.000938 -0.005890 0.016652 0.000000 0.005209 0.000000
# 4 0.000000 0.000000 0.000000 0.040178 0.000000 -0.007943
# 5 0.006029 -0.005702 0.005209 0.000000 0.030353 0.000000
# 6 0.000000 0.000000 0.000000 -0.007943 0.000000 0.039365
#
#
# Mechanical properties :
#
#
# Convention : Reuss Voigt Hill
#
# Bulk Modulus (GPa) = 55.29613 62.98240 59.13926
# Shear Modulus (GPa) = 26.66020 29.78009 28.22015
#
# Velocity S-wave (km/s) = 3.68301 3.89255 3.78923
# Velocity P-wave (km/s) = 6.79857 7.22826 7.01671
#
# Compressibility (1/GPa) = 0.01808445
#
# Stress axis : x y z
#
# Youngs Moduli (GPa) = 68.19702 73.86779 60.05430
#
# Poissons Ratio (x) = 0.48429 0.05633
# Poissons Ratio (y) = 0.44711 0.35372
# Poissons Ratio (z) = 0.06397 0.43508
#
# Static dielectric constant tensor:
#      x y z
#    x 4.005710 0.000000 -0.239500 
#    y 0.000000 3.643270 0.000000 
#    z -0.239500 0.000000 3.696410 
# 
# 
# High freq. dielectric constant tensor:
#      x y z
#    x 1.777730 0.000000 -0.009900 
#    y 0.000000 1.757590 0.000000 
#    z -0.009900 0.000000 1.763970 
# 
# From -- ./inp_files/131779.got.cif
#   From: 2010.06.25/outbox.cif.g09.slc.cpg/sg12_66_cif.got.tgz:131779.got - 2010.06.28 00:19:55.
