data_PCOD8112565
_publ_section_title
;
Structure prediction by ZEFSAII (Michael W. Deem and Ramdas Pophale) SiO2 
 PCOD8112565
Probable space group: C 2/M
;
_chemical_formula_sum "Si O2"
_cell_formula_units_Z 56
_cell_length_a 9.311659
_cell_length_b 17.314541
_cell_length_c 26.320486
_cell_angle_alpha 90.000000
_cell_angle_beta 40.752789
_cell_angle_gamma 90.000000
_cell_volume 2770.191887
_symmetry_space_group_name_H-M "C 2/M"
_symmetry_group_IT_number 12
_symmetry_cell_setting 'monoclinic'
loop_
_space_group_symop_operation_xyz
x,y,z
-x,y,-z
-x,-y,-z
x,-y,z
1/2+x,1/2+y,z
1/2-x,1/2+y,-z
1/2-x,1/2-y,-z
1/2+x,1/2-y,z
loop_
_atom_site_type_symbol
_atom_site_label
_atom_site_fract_x
_atom_site_fract_y
_atom_site_fract_z
Si Si1 0.520504 0.707992 0.550234
Si Si2 0.097400 0.591064 0.026213
Si Si3 0.398822 0.588822 0.671706
Si Si4 0.208810 0.794558 0.774325
Si Si5 0.095026 0.090681 0.889569
Si Si6 0.509665 0.142202 0.156318
Si Si7 0.133692 0.809212 0.679915
O O1 0.500000 0.668601 0.500000
O O2 0.750000 0.750000 0.500000
O O3 0.451697 0.643805 0.609856
O O4 0.345220 0.776663 0.595239
O O5 0.082749 0.500000 0.027502
O O6 0.954480 0.618627 0.112962
O O7 0.347777 0.619264 0.965934
O O8 0.000000 0.626589 0.000000
O O9 0.427420 0.500000 0.647775
O O10 0.153519 0.602907 0.758989
O O11 0.568757 0.609749 0.671220
O O12 0.190675 0.868746 0.814242
O O13 0.007638 0.734746 0.836054
O O14 0.197615 0.826144 0.720491
O O15 0.435105 0.751215 0.726045
O O16 0.243334 0.114051 0.898015
O O17 0.103938 0.000000 0.877500
#
# Coordination Sequence:
#
# PCOD8112565 Si02
#       7
#     8   8   8   8   8   8   8
#     4  12  22  41  69  95 127 173 206 249 315 385
#     4  10  23  39  58  90 130 169 211 263 325 374
#     4  11  24  40  68 101 127 161 215 263 312 372
#     4  11  22  39  64  93 126 164 210 267 305 377
#     4  11  23  39  62  92 125 165 216 263 315 370
#     4  11  22  41  67  88 125 169 212 261 315 374
#     4  11  21  42  64  94 128 167 208 251 316 378
#
# _framework density 20.215206999999999
#
# number of rings (size 3 to 8) (size 9 to 14) (size 15 to 20)
#    0.000    1.000    5.714    1.714    4.000    2.571 
#    0.000    1.429    0.000    3.429    0.000    0.000 
#    0.000    0.000    0.000    0.000    0.000    0.000 
#
# Total GULP energy -347176.513814 kJ/mol
# GULP energy per Si atom -12399.161208 kJ/mol
# Density = 2.016920 g / cm^3
# Si number density = 20.215207 Si / 1000 Ang^3
#
#
#
# Elastic Constant Matrix: (Units=GPa)
#
#
# Indices 1 2 3 4 5 6 
#
# 1 97.8010 31.1082 53.1984 -0.0028 20.4240 0.0027
# 2 31.1082 73.4135 33.9875 0.0031 -7.0328 -0.0022
# 3 53.1984 33.9875 108.3202 0.0026 8.6121 0.0046
# 4 -0.0028 0.0031 0.0026 17.4693 0.0086 2.7842
# 5 20.4240 -7.0328 8.6121 0.0086 46.2551 -0.0041
# 6 0.0027 -0.0022 0.0046 2.7842 -0.0041 29.9235
#
#
#
# Elastic Compliance Matrix: (Units=1/GPa)
#
#
# Indices 1 2 3 4 5 6 
#
# 1 0.016487 -0.004858 -0.006025 0.000008 -0.006897 -0.000003
# 2 -0.004858 0.017914 -0.003677 -0.000007 0.005553 0.000004
# 3 -0.006025 -0.003677 0.013375 -0.000002 -0.000389 -0.000002
# 4 0.000008 -0.000007 -0.000002 0.058105 -0.000016 -0.005406
# 5 -0.006897 0.005553 -0.000389 -0.000016 0.025581 0.000006
# 6 -0.000003 0.000004 -0.000002 -0.005406 0.000006 0.033922
#
#
# Mechanical properties :
#
#
# Convention : Reuss Voigt Hill
#
# Bulk Modulus (GPa) = 53.59520 57.34701 55.47111
# Shear Modulus (GPa) = 24.90999 29.47896 27.19447
#
# Velocity S-wave (km/s) = 3.51414 3.82286 3.67174
# Velocity P-wave (km/s) = 6.56014 6.92210 6.74355
#
# Compressibility (1/GPa) = 0.01865839
#
# Stress axis : x y z
#
# Youngs Moduli (GPa) = 60.65218 55.82215 74.76461
#
# Poissons Ratio (x) = 0.27118 0.45044
# Poissons Ratio (y) = 0.29464 0.27488
# Poissons Ratio (z) = 0.36541 0.20523
#
# Static dielectric constant tensor:
#      x y z
#    x 4.441140 0.000010 0.210730 
#    y 0.000010 3.517740 0.000010 
#    z 0.210730 0.000010 3.890200 
# 
# 
# High freq. dielectric constant tensor:
#      x y z
#    x 1.809260 0.000000 0.004840 
#    y 0.000000 1.767560 0.000000 
#    z 0.004840 0.000000 1.793570 
# 
# From -- ./inp_files/356659.got.cif
#   From: 2010.06.25/outbox.cif.g09.slc.cpg/sg12_179_cif.got.tgz:356659.got - 2010.06.28 00:19:55.
