data_PCOD8112300
_publ_section_title
;
Structure prediction by ZEFSAII (Michael W. Deem and Ramdas Pophale) SiO2 
 PCOD8112300
Probable space group: C 2/M
;
_chemical_formula_sum "Si O2"
_cell_formula_units_Z 36
_cell_length_a 15.543722
_cell_length_b 9.150058
_cell_length_c 11.213930
_cell_angle_alpha 90.000000
_cell_angle_beta 79.943638
_cell_angle_gamma 90.000000
_cell_volume 1570.408440
_symmetry_space_group_name_H-M "C 2/M"
_symmetry_group_IT_number 12
_symmetry_cell_setting 'monoclinic'
loop_
_space_group_symop_operation_xyz
x,y,z
-x,y,-z
-x,-y,-z
x,-y,z
1/2+x,1/2+y,z
1/2-x,1/2+y,-z
1/2-x,1/2-y,-z
1/2+x,1/2-y,z
loop_
_atom_site_type_symbol
_atom_site_label
_atom_site_fract_x
_atom_site_fract_y
_atom_site_fract_z
Si Si1 0.159065 0.172410 0.536617
Si Si2 0.674413 0.665311 0.088934
Si Si3 0.572684 0.155247 0.747763
Si Si4 0.612304 0.163322 0.324679
Si Si5 0.000000 0.237463 0.000000
O O1 0.250000 0.250000 0.500000
O O2 0.125776 0.210065 0.678244
O O3 0.099563 0.244593 0.448973
O O4 0.163169 0.000000 0.519920
O O5 0.706693 0.500000 0.101897
O O6 0.671151 0.746954 0.216847
O O7 0.750000 0.750000 0.000000
O O8 0.577740 0.651964 0.050511
O O9 0.482319 0.143596 0.703178
O O10 0.622705 0.000000 0.717031
O O11 0.555365 0.169447 0.892326
O O12 0.653094 0.000000 0.337475
#
# Coordination Sequence:
#
# PCOD8112300 Si02
#       5
#     8   8   8   8   4
#     4  12  26  42  64  94 131 173 219 273 331 395
#     4  11  24  42  67  98 136 180 227 281 338 401
#     4  10  22  42  69  97 130 172 218 271 331 398
#     4  10  22  43  67  94 128 168 218 272 332 398
#     4  10  24  44  70 100 138 180 230 276 338 402
#
# _framework density 22.923973
#
# number of rings (size 3 to 8) (size 9 to 14) (size 15 to 20)
#    0.000    1.333    0.000    4.667    3.111   10.667 
#    0.000    0.000    0.000    0.000    0.000    0.000 
#    0.000    0.000    0.000    0.000    0.000    0.000 
#
# Total GULP energy -223026.444333 kJ/mol
# GULP energy per Si atom -12390.358019 kJ/mol
# Density = 2.287180 g / cm^3
# Si number density = 22.923973 Si / 1000 Ang^3
#
#
#
# Elastic Constant Matrix: (Units=GPa)
#
#
# Indices 1 2 3 4 5 6 
#
# 1 32.3826 19.3052 20.8734 0.0000 -5.6502 0.0000
# 2 19.3052 227.5405 74.5793 0.0000 -12.7806 0.0000
# 3 20.8734 74.5793 159.7099 0.0000 -11.6866 0.0000
# 4 0.0000 0.0000 0.0000 30.5338 0.0000 -11.8893
# 5 -5.6502 -12.7806 -11.6866 0.0000 38.8449 0.0000
# 6 0.0000 0.0000 0.0000 -11.8893 0.0000 20.6145
#
#
#
# Elastic Compliance Matrix: (Units=1/GPa)
#
#
# Indices 1 2 3 4 5 6 
#
# 1 0.034715 -0.001590 -0.003541 0.000000 0.003461 0.000000
# 2 -0.001590 0.005300 -0.002205 0.000000 0.000849 0.000000
# 3 -0.003541 -0.002205 0.007836 0.000000 0.001117 0.000000
# 4 0.000000 0.000000 0.000000 0.042236 0.000000 0.024359
# 5 0.003461 0.000849 0.001117 0.000000 0.026862 0.000000
# 6 0.000000 0.000000 0.000000 0.024359 0.000000 0.062558
#
#
# Mechanical properties :
#
#
# Convention : Reuss Voigt Hill
#
# Bulk Modulus (GPa) = 30.14048 72.12765 51.13406
# Shear Modulus (GPa) = 24.36174 38.32364 31.34269
#
# Velocity S-wave (km/s) = 3.26347 4.09317 3.70164
# Velocity P-wave (km/s) = 5.23229 7.33968 6.37369
#
# Compressibility (1/GPa) = 0.03317797
#
# Stress axis : x y z
#
# Youngs Moduli (GPa) = 28.80565 188.67330 127.62298
#
# Poissons Ratio (x) = 0.30004 0.45195
# Poissons Ratio (y) = 0.04581 0.28141
# Poissons Ratio (z) = 0.10201 0.41603
#
# Static dielectric constant tensor:
#      x y z
#    x 3.888300 0.000000 -0.865430 
#    y 0.000000 4.434340 0.000000 
#    z -0.865430 0.000000 -8.470030 
# 
# 
# High freq. dielectric constant tensor:
#      x y z
#    x 1.901970 0.000000 0.002050 
#    y 0.000000 1.910180 0.000000 
#    z 0.002050 0.000000 1.917500 
# 
# From -- ./inp_files/151514.got.cif
#   From: 2010.06.25/outbox.cif.g09.slc.cpg/sg12_76_cif.got.tgz:151514.got - 2010.06.28 00:19:55.
