data_PCOD8112949
_publ_section_title
;
Structure prediction by ZEFSAII (Michael W. Deem and Ramdas Pophale) SiO2 
 PCOD8112949
Probable space group: C 2/M
;
_chemical_formula_sum "Si O2"
_cell_formula_units_Z 56
_cell_length_a 29.008400
_cell_length_b 11.990428
_cell_length_c 8.849357
_cell_angle_alpha 90.000000
_cell_angle_beta 53.974206
_cell_angle_gamma 90.000000
_cell_volume 2489.348519
_symmetry_space_group_name_H-M "C 2/M"
_symmetry_group_IT_number 12
_symmetry_cell_setting 'monoclinic'
loop_
_space_group_symop_operation_xyz
x,y,z
-x,y,-z
-x,-y,-z
x,-y,z
1/2+x,1/2+y,z
1/2-x,1/2+y,-z
1/2-x,1/2-y,-z
1/2+x,1/2-y,z
loop_
_atom_site_type_symbol
_atom_site_label
_atom_site_fract_x
_atom_site_fract_y
_atom_site_fract_z
Si Si1 0.550146 0.500000 0.684061
Si Si2 0.341649 0.126021 0.706667
Si Si3 0.629067 0.728797 0.880362
Si Si4 0.782878 0.375368 0.123416
Si Si5 0.949829 0.771186 0.475169
Si Si6 0.979398 0.621813 0.873416
Si Si7 0.200957 0.238876 0.469930
Si Si8 0.079200 0.000000 0.974715
O O1 0.568707 0.391188 0.553791
O O2 0.578225 0.500000 0.794963
O O3 0.482524 0.500000 0.833257
O O4 0.393438 0.210268 0.650121
O O5 0.312951 0.149761 0.599255
O O6 0.365691 0.000000 0.658454
O O7 0.290989 0.138192 0.928253
O O8 0.683143 0.776019 0.862601
O O9 0.643122 0.712206 0.674285
O O10 0.611713 0.607876 0.976543
O O11 0.579984 0.815757 0.009175
O O12 0.802007 0.500000 0.136524
O O13 0.718146 0.355209 0.310608
O O14 0.000000 0.783925 0.500000
O O15 0.972186 0.693693 0.298634
O O16 0.971547 0.500000 0.809615
O O17 0.000000 0.601478 0.000000
O O18 0.250000 0.250000 0.500000
#
# Coordination Sequence:
#
# PCOD8112949 Si02
#       8
#     4   8   8   8   8   8   8   4
#     4  11  23  42  62  92 136 180 220 276 318 383
#     4  11  24  44  69  97 134 177 216 270 333 393
#     4  11  22  39  63  97 125 170 215 273 327 388
#     4  10  23  44  67  94 132 169 216 273 335 395
#     4  12  25  42  66  99 139 177 222 264 328 398
#     4  11  22  37  61  94 130 168 214 263 321 390
#     4  10  23  42  68  96 127 166 220 274 330 388
#     4  11  22  38  68  90 132 174 228 268 329 383
#
# _framework density 22.495846
#
# number of rings (size 3 to 8) (size 9 to 14) (size 15 to 20)
#    0.000    1.143    1.429    4.929    1.000    6.286 
#    5.143    0.000    0.000    0.000    0.000    0.000 
#    0.000    0.000    0.000    0.000    0.000    0.000 
#
# Total GULP energy -347030.155143 kJ/mol
# GULP energy per Si atom -12393.934112 kJ/mol
# Density = 2.244464 g / cm^3
# Si number density = 22.495846 Si / 1000 Ang^3
#
#
#
# Elastic Constant Matrix: (Units=GPa)
#
#
# Indices 1 2 3 4 5 6 
#
# 1 51.3558 23.7312 2.0530 0.0000 7.6190 0.0000
# 2 23.7312 168.0986 32.9107 0.0000 -4.1203 0.0000
# 3 2.0530 32.9107 91.8558 0.0000 -4.8086 0.0000
# 4 0.0000 0.0000 0.0000 31.4020 0.0000 -5.4372
# 5 7.6190 -4.1203 -4.8086 0.0000 25.1557 0.0000
# 6 0.0000 0.0000 0.0000 -5.4372 0.0000 20.8738
#
#
#
# Elastic Compliance Matrix: (Units=1/GPa)
#
#
# Indices 1 2 3 4 5 6 
#
# 1 0.022074 -0.003358 0.000334 0.000000 -0.007172 0.000000
# 2 -0.003358 0.006918 -0.002314 0.000000 0.001708 0.000000
# 3 0.000334 -0.002314 0.011801 0.000000 0.001776 0.000000
# 4 0.000000 0.000000 0.000000 0.033349 0.000000 0.008687
# 5 -0.007172 0.001708 0.001776 0.000000 0.042544 0.000000
# 6 0.000000 0.000000 0.000000 0.008687 0.000000 0.050170
#
#
# Mechanical properties :
#
#
# Convention : Reuss Voigt Hill
#
# Bulk Modulus (GPa) = 33.20253 47.63332 40.41792
# Shear Modulus (GPa) = 26.65671 32.32732 29.49201
#
# Velocity S-wave (km/s) = 3.44606 3.79494 3.62470
# Velocity P-wave (km/s) = 5.53401 6.35785 5.96018
#
# Compressibility (1/GPa) = 0.03011819
#
# Stress axis : x y z
#
# Youngs Moduli (GPa) = 45.30200 144.55456 84.73690
#
# Poissons Ratio (x) = 0.48534 -0.02832
# Poissons Ratio (y) = 0.15210 0.19609
# Poissons Ratio (z) = -0.01514 0.33452
#
# Static dielectric constant tensor:
#      x y z
#    x 2.742180 0.000000 0.473780 
#    y 0.000000 4.234090 0.000000 
#    z 0.473780 0.000000 4.227260 
# 
# 
# High freq. dielectric constant tensor:
#      x y z
#    x 1.866400 0.000000 -0.007290 
#    y 0.000000 1.892320 0.000000 
#    z -0.007290 0.000000 1.906490 
# 
# From -- ./inp_files/110390.got.cif
#   From: 2010.06.25/outbox.cif.g09.slc.cpg/sg12_56_cif.got.tgz:110390.got - 2010.06.28 00:19:55.
