data_PCOD8112515
_publ_section_title
;
Structure prediction by ZEFSAII (Michael W. Deem and Ramdas Pophale) SiO2 
 PCOD8112515
Probable space group: C 2/M
;
_chemical_formula_sum "Si O2"
_cell_formula_units_Z 36
_cell_length_a 28.350186
_cell_length_b 7.216730
_cell_length_c 9.318688
_cell_angle_alpha 90.000000
_cell_angle_beta 70.136280
_cell_angle_gamma 90.000000
_cell_volume 1793.129035
_symmetry_space_group_name_H-M "C 2/M"
_symmetry_group_IT_number 12
_symmetry_cell_setting 'monoclinic'
loop_
_space_group_symop_operation_xyz
x,y,z
-x,y,-z
-x,-y,-z
x,-y,z
1/2+x,1/2+y,z
1/2-x,1/2+y,-z
1/2-x,1/2-y,-z
1/2+x,1/2-y,z
loop_
_atom_site_type_symbol
_atom_site_label
_atom_site_fract_x
_atom_site_fract_y
_atom_site_fract_z
Si Si1 0.800167 0.214589 0.361451
Si Si2 0.201295 0.786765 0.957051
Si Si3 0.554531 0.000000 0.008444
Si Si4 0.404665 0.278309 0.817616
Si Si5 0.619925 0.000000 0.662951
Si Si6 0.440520 0.000000 0.556153
O O1 0.750000 0.250000 0.500000
O O2 0.793190 0.299550 0.207825
O O3 0.845628 0.318787 0.392663
O O4 0.814330 0.000000 0.345839
O O5 0.193372 0.000000 0.939478
O O6 0.250000 0.750000 0.000000
O O7 0.152425 0.713571 0.090911
O O8 0.595934 0.000000 0.843564
O O9 0.500000 0.000000 0.000000
O O10 0.560383 0.812988 0.096455
O O11 0.412372 0.500000 0.805106
O O12 0.419475 0.187478 0.650907
O O13 0.576333 0.000000 0.590733
O O14 0.500000 0.000000 0.500000
#
# Coordination Sequence:
#
# PCOD8112515 Si02
#       6
#     8   8   4   8   4   4
#     4  11  24  40  60  97 136 173 216 261 333 402
#     4  10  23  37  62  94 127 173 216 260 324 391
#     4  11  23  43  73  97 127 175 227 285 339 389
#     4  10  23  45  67  98 135 168 226 277 327 405
#     4  12  24  42  68  94 142 174 212 290 332 392
#     4  11  27  47  69  97 129 179 233 275 341 391
#
# _framework density 20.076636000000001
#
# number of rings (size 3 to 8) (size 9 to 14) (size 15 to 20)
#    0.000    1.333    3.333    1.333    7.778    1.778 
#    0.000    2.222    0.000    0.000    0.000    0.000 
#    0.000    0.000    0.000    0.000    0.000    0.000 
#
# Total GULP energy -223194.023133 kJ/mol
# GULP energy per Si atom -12399.667952 kJ/mol
# Density = 2.003094 g / cm^3
# Si number density = 20.076636 Si / 1000 Ang^3
#
#
#
# Elastic Constant Matrix: (Units=GPa)
#
#
# Indices 1 2 3 4 5 6 
#
# 1 128.1534 31.0337 22.8899 0.0000 7.8327 0.0000
# 2 31.0337 129.8129 28.8530 0.0000 3.0015 0.0000
# 3 22.8899 28.8530 97.0270 0.0000 1.3537 0.0000
# 4 0.0000 0.0000 0.0000 29.9685 0.0000 -1.1614
# 5 7.8327 3.0015 1.3537 0.0000 40.8856 0.0000
# 6 0.0000 0.0000 0.0000 -1.1614 0.0000 26.5488
#
#
#
# Elastic Compliance Matrix: (Units=1/GPa)
#
#
# Indices 1 2 3 4 5 6 
#
# 1 0.008568 -0.001681 -0.001501 0.000000 -0.001468 0.000000
# 2 -0.001681 0.008590 -0.002154 0.000000 -0.000237 0.000000
# 3 -0.001501 -0.002154 0.011300 0.000000 0.000072 0.000000
# 4 0.000000 0.000000 0.000000 0.033425 0.000000 0.001462
# 5 -0.001468 -0.000237 0.000072 0.000000 0.024755 0.000000
# 6 0.000000 0.000000 0.000000 0.001462 0.000000 0.037730
#
#
# Mechanical properties :
#
#
# Convention : Reuss Voigt Hill
#
# Bulk Modulus (GPa) = 56.22612 57.83849 57.03231
# Shear Modulus (GPa) = 35.46881 37.62836 36.54859
#
# Velocity S-wave (km/s) = 4.20774 4.33394 4.27131
# Velocity P-wave (km/s) = 7.18841 7.34272 7.26597
#
# Compressibility (1/GPa) = 0.01778533
#
# Stress axis : x y z
#
# Youngs Moduli (GPa) = 116.71328 116.42050 88.49411
#
# Poissons Ratio (x) = 0.19567 0.13283
# Poissons Ratio (y) = 0.19616 0.19066
# Poissons Ratio (z) = 0.17519 0.25082
#
# Static dielectric constant tensor:
#      x y z
#    x 3.685270 0.000000 0.086250 
#    y 0.000000 3.515050 0.000000 
#    z 0.086250 0.000000 4.169660 
# 
# 
# High freq. dielectric constant tensor:
#      x y z
#    x 1.782090 0.000000 -0.005390 
#    y 0.000000 1.790710 0.000000 
#    z -0.005390 0.000000 1.796150 
# 
# From -- ./inp_files/100963.got.cif
#   From: 2010.06.25/outbox.cif.g09.slc.cpg/sg12_51_cif.got.tgz:100963.got - 2010.06.28 00:19:55.
