data_PCOD8112068
_publ_section_title
;
Structure prediction by ZEFSAII (Michael W. Deem and Ramdas Pophale) SiO2 
 PCOD8112068
Probable space group: C 2/M
;
_chemical_formula_sum "Si O2"
_cell_formula_units_Z 56
_cell_length_a 18.708805
_cell_length_b 17.304701
_cell_length_c 9.974759
_cell_angle_alpha 90.000000
_cell_angle_beta 120.332822
_cell_angle_gamma 90.000000
_cell_volume 2787.256207
_symmetry_space_group_name_H-M "C 2/M"
_symmetry_group_IT_number 12
_symmetry_cell_setting 'monoclinic'
loop_
_space_group_symop_operation_xyz
x,y,z
-x,y,-z
-x,-y,-z
x,-y,z
1/2+x,1/2+y,z
1/2-x,1/2+y,-z
1/2-x,1/2-y,-z
1/2+x,1/2-y,z
loop_
_atom_site_type_symbol
_atom_site_label
_atom_site_fract_x
_atom_site_fract_y
_atom_site_fract_z
Si Si1 0.735219 0.333707 0.717677
Si Si2 0.346935 0.089887 0.609432
Si Si3 0.748232 0.347410 0.267900
Si Si4 0.199649 0.409132 0.965574
Si Si5 0.572029 0.588669 0.469972
Si Si6 0.478853 0.909911 0.124919
Si Si7 0.427312 0.411110 0.834369
O O1 0.811453 0.362721 0.700773
O O2 0.735288 0.242404 0.729913
O O3 0.740061 0.369280 0.870125
O O4 0.651269 0.358383 0.565995
O O5 0.309899 0.117160 0.435065
O O6 0.445785 0.104889 0.700462
O O7 0.326017 0.000000 0.612763
O O8 0.653652 0.359935 0.220264
O O9 0.766361 0.390293 0.147592
O O10 0.203345 0.500000 0.992850
O O11 0.106123 0.375459 0.894594
O O12 0.500000 0.617681 0.500000
O O13 0.595850 0.500000 0.523806
O O14 0.541280 0.598122 0.288233
O O15 0.463747 0.000000 0.088239
O O16 0.500000 0.872221 0.000000
O O17 0.405320 0.500000 0.846336
O O18 0.500000 0.380774 0.000000
#
# Coordination Sequence:
#
# PCOD8112068 Si02
#       7
#     8   8   8   8   8   8   8
#     4  12  24  42  63  95 129 169 211 258 323 378
#     4  11  21  40  69  92 122 170 215 254 303 377
#     4  12  26  42  59  98 135 164 205 262 332 378
#     4  11  23  42  68  93 123 166 213 259 307 377
#     4  10  22  41  67  95 121 164 223 266 302 370
#     4   9  18  36  63  96 118 150 212 260 299 363
#     4  10  22  42  66  92 126 168 214 262 313 376
#
# _framework density 20.091442000000001
#
# number of rings (size 3 to 8) (size 9 to 14) (size 15 to 20)
#    0.000    1.286    2.857    3.429    2.000    0.571 
#    5.143    2.143    0.000    0.000    0.000    0.000 
#    0.000    0.000    0.000    0.000    0.000    0.000 
#
# Total GULP energy -347323.268937 kJ/mol
# GULP energy per Si atom -12404.402462 kJ/mol
# Density = 2.004571 g / cm^3
# Si number density = 20.091442 Si / 1000 Ang^3
#
#
#
# Elastic Constant Matrix: (Units=GPa)
#
#
# Indices 1 2 3 4 5 6 
#
# 1 80.3024 6.7084 32.7094 0.0000 -1.5461 0.0000
# 2 6.7084 -2.1724 2.8154 0.0000 35.0836 0.0000
# 3 32.7094 2.8154 135.0635 0.0000 10.2993 0.0000
# 4 0.0000 0.0000 0.0000 23.4078 0.0000 -4.7074
# 5 -1.5461 35.0836 10.2993 0.0000 30.4497 0.0000
# 6 0.0000 0.0000 0.0000 -4.7074 0.0000 8.0590
#
#
#
# Elastic Compliance Matrix: (Units=1/GPa)
#
#
# Indices 1 2 3 4 5 6 
#
# 1 0.013420 0.003346 -0.003159 0.000000 -0.002105 0.000000
# 2 0.003346 -0.022304 -0.002379 0.000000 0.026673 0.000000
# 3 -0.003159 -0.002379 0.008234 0.000000 -0.000204 0.000000
# 4 0.000000 0.000000 0.000000 0.048407 0.000000 0.028276
# 5 -0.002105 0.026673 -0.000204 0.000000 0.002071 0.000000
# 6 0.000000 0.000000 0.000000 0.028276 0.000000 0.140601
#
#
# Mechanical properties :
#
#
# Convention : Reuss Voigt Hill
#
# Bulk Modulus (GPa) = -198.58748 33.07334 -82.75707
# Shear Modulus (GPa) = 25.88867 23.78066 24.83466
#
# Velocity S-wave (km/s) = 3.59352 3.44411 3.51961
# Velocity P-wave (km/s) = 9.04647 5.68445 4.97622
#
# Compressibility (1/GPa) = -0.00503556
#
# Stress axis : x y z
#
# Youngs Moduli (GPa) = 74.51736 -44.83421 121.44527
#
# Poissons Ratio (x) = 0.15002 0.38367
# Poissons Ratio (y) = -0.24934 0.28897
# Poissons Ratio (z) = 0.23541 -0.10668
#
# Static dielectric constant tensor:
#      x y z
#    x 3.756780 0.000000 0.021640 
#    y 0.000000 3.569820 0.000000 
#    z 0.021640 0.000000 3.730630 
# 
# 
# High freq. dielectric constant tensor:
#      x y z
#    x 1.786990 0.000000 0.002840 
#    y 0.000000 1.767020 0.000000 
#    z 0.002840 0.000000 1.798900 
# 
# From -- ./inp_files/75977.got.cif
#   From: 2010.06.25/outbox.cif.g09.slc.cpg/sg12_38_cif.got.tgz:75977.got - 2010.06.28 00:19:55.
