data_PCOD8112334
_publ_section_title
;
Structure prediction by ZEFSAII (Michael W. Deem and Ramdas Pophale) SiO2 
 PCOD8112334
Probable space group: C 2/M
;
_chemical_formula_sum "Si O2"
_cell_formula_units_Z 48
_cell_length_a 11.026605
_cell_length_b 25.668050
_cell_length_c 14.831844
_cell_angle_alpha 90.000000
_cell_angle_beta 145.850391
_cell_angle_gamma 90.000000
_cell_volume 2356.503126
_symmetry_space_group_name_H-M "C 2/M"
_symmetry_group_IT_number 12
_symmetry_cell_setting 'monoclinic'
loop_
_space_group_symop_operation_xyz
x,y,z
-x,y,-z
-x,-y,-z
x,-y,z
1/2+x,1/2+y,z
1/2-x,1/2+y,-z
1/2-x,1/2-y,-z
1/2+x,1/2-y,z
loop_
_atom_site_type_symbol
_atom_site_label
_atom_site_fract_x
_atom_site_fract_y
_atom_site_fract_z
Si Si1 0.394025 0.059102 0.839193
Si Si2 0.230018 0.687402 0.093270
Si Si3 0.846253 0.000000 0.682146
Si Si4 0.016276 0.094968 0.337672
Si Si5 0.730617 0.304962 0.097564
Si Si6 0.019699 0.603561 0.288933
Si Si7 0.401800 0.000000 0.301446
O O1 0.480623 0.100459 0.820077
O O2 0.136652 0.066868 0.683679
O O3 0.447222 0.000000 0.842613
O O4 0.500000 0.073444 0.000000
O O5 0.414739 0.649107 0.242838
O O6 0.292636 0.746020 0.162074
O O7 0.243432 0.685772 0.993347
O O8 0.000000 0.673314 0.000000
O O9 0.972727 0.053279 0.737314
O O10 0.623219 0.000000 0.491946
O O11 0.808035 0.000000 0.764758
O O12 0.243688 0.105938 0.523391
O O13 0.899179 0.344512 0.247965
O O14 0.500000 0.318544 0.000000
O O15 0.888349 0.552336 0.235804
#
# Coordination Sequence:
#
# PCOD8112334 Si02
#       7
#     8   8   4   8   8   8   4
#     4  11  22  37  58  87 123 160 198 239 295 364
#     4  10  22  43  64  85 119 163 200 249 308 361
#     4   9  20  35  53  83 122 160 188 232 303 352
#     4  11  21  36  64  89 120 156 200 249 298 355
#     4  10  23  42  63  86 120 159 203 251 305 361
#     4  11  22  38  61  91 120 155 200 251 296 356
#     4   9  20  37  52  80 125 159 186 237 300 353
#
# _framework density 20.369164999999999
#
# number of rings (size 3 to 8) (size 9 to 14) (size 15 to 20)
#    0.000    1.667    1.667    3.000    2.333    1.333 
#    0.000    0.417    0.000    6.000    0.000    0.000 
#    0.000    0.000    0.000    0.000    0.000    0.000 
#
# Total GULP energy -297457.929995 kJ/mol
# GULP energy per Si atom -12394.080416 kJ/mol
# Density = 2.032280 g / cm^3
# Si number density = 20.369165 Si / 1000 Ang^3
#
#
#
# Elastic Constant Matrix: (Units=GPa)
#
#
# Indices 1 2 3 4 5 6 
#
# 1 147.3070 57.5355 39.5337 0.0000 8.5726 0.0000
# 2 57.5355 169.8454 70.4434 0.0000 17.2803 0.0000
# 3 39.5337 70.4434 77.6325 -0.0001 8.4257 0.0000
# 4 0.0000 0.0000 -0.0001 34.4883 0.0000 13.4098
# 5 8.5726 17.2803 8.4257 0.0000 24.4053 0.0000
# 6 0.0000 0.0000 0.0000 13.4098 0.0000 31.0884
#
#
#
# Elastic Compliance Matrix: (Units=1/GPa)
#
#
# Indices 1 2 3 4 5 6 
#
# 1 0.008163 -0.001593 -0.002620 0.000000 -0.000834 0.000000
# 2 -0.001593 0.010118 -0.007950 0.000000 -0.003859 0.000000
# 3 -0.002620 -0.007950 0.021525 0.000000 -0.000882 0.000000
# 4 0.000000 0.000000 0.000000 0.034838 0.000000 -0.015027
# 5 -0.000834 -0.003859 -0.000882 0.000000 0.044305 0.000000
# 6 0.000000 0.000000 0.000000 -0.015027 0.000000 0.038648
#
#
# Mechanical properties :
#
#
# Convention : Reuss Voigt Hill
#
# Bulk Modulus (GPa) = 64.61027 81.08999 72.85013
# Shear Modulus (GPa) = 26.72593 33.14789 29.93691
#
# Velocity S-wave (km/s) = 3.62619 4.03843 3.83785
# Velocity P-wave (km/s) = 7.02288 7.85123 7.44858
#
# Compressibility (1/GPa) = 0.01547742
#
# Stress axis : x y z
#
# Youngs Moduli (GPa) = 122.50831 98.83831 46.45685
#
# Poissons Ratio (x) = 0.15750 0.12173
# Poissons Ratio (y) = 0.19521 0.36935
# Poissons Ratio (z) = 0.32101 0.78579
#
# Static dielectric constant tensor:
#      x y z
#    x 4.020470 0.000000 0.137970 
#    y 0.000000 3.955260 0.000000 
#    z 0.137970 0.000000 3.286000 
# 
# 
# High freq. dielectric constant tensor:
#      x y z
#    x 1.810030 0.000000 0.008380 
#    y 0.000000 1.816660 0.000000 
#    z 0.008380 0.000000 1.766790 
# 
# From -- ./inp_files/209490.got.cif
#   From: 2010.06.25/outbox.cif.g09.slc.cpg/sg12_105_cif.got.tgz:209490.got - 2010.06.28 00:19:55.
