data_PCOD8112186
_publ_section_title
;
Structure prediction by ZEFSAII (Michael W. Deem and Ramdas Pophale) SiO2 
 PCOD8112186
Probable space group: C 2/M
;
_chemical_formula_sum "Si O2"
_cell_formula_units_Z 56
_cell_length_a 31.238020
_cell_length_b 19.389509
_cell_length_c 9.895096
_cell_angle_alpha 90.000000
_cell_angle_beta 27.140344
_cell_angle_gamma 90.000000
_cell_volume 2734.000500
_symmetry_space_group_name_H-M "C 2/M"
_symmetry_group_IT_number 12
_symmetry_cell_setting 'monoclinic'
loop_
_space_group_symop_operation_xyz
x,y,z
-x,y,-z
-x,-y,-z
x,-y,z
1/2+x,1/2+y,z
1/2-x,1/2+y,-z
1/2-x,1/2-y,-z
1/2+x,1/2-y,z
loop_
_atom_site_type_symbol
_atom_site_label
_atom_site_fract_x
_atom_site_fract_y
_atom_site_fract_z
Si Si1 0.068973 0.378005 0.690615
Si Si2 0.052229 0.861511 0.219664
Si Si3 0.527764 0.500000 0.144227
Si Si4 0.454898 0.716281 0.266609
Si Si5 0.642729 0.500000 0.574757
Si Si6 0.582341 0.079296 0.365452
Si Si7 0.215265 0.119135 0.204649
Si Si8 0.777938 0.920161 0.119688
O O1 0.057964 0.297203 0.697103
O O2 0.042390 0.418405 0.629323
O O3 0.173205 0.396585 0.443695
O O4 0.000000 0.404913 0.000000
O O5 0.011146 0.933922 0.283585
O O6 0.000000 0.837223 0.500000
O O7 0.031952 0.804076 0.163343
O O8 0.161245 0.871842 0.951206
O O9 0.452984 0.500000 0.237287
O O10 0.626565 0.500000 0.783058
O O11 0.350783 0.685382 0.586389
O O12 0.500000 0.688964 0.000000
O O13 0.698972 0.567625 0.374273
O O14 0.500000 0.106071 0.500000
O O15 0.611575 0.000000 0.250040
O O16 0.671802 0.131684 0.104488
O O17 0.192649 0.088616 0.119907
O O18 0.793596 0.000000 0.114940
#
# Coordination Sequence:
#
# PCOD8112186 Si02
#       8
#     8   8   4   8   4   8   8   8
#     4  10  24  47  64  85 123 172 213 256 308 365
#     4  12  22  37  59  95 130 159 201 257 315 376
#     4  11  21  30  54  88 134 159 197 245 313 383
#     4  11  24  42  61  89 130 170 208 245 307 382
#     4  11  18  32  55  88 122 172 196 238 318 373
#     4  10  22  42  65  93 121 153 213 271 307 357
#     4  11  19  37  62  86 123 165 201 251 311 369
#     4  11  22  39  66  96 123 157 208 263 314 372
#
# _framework density 20.482804999999999
#
# number of rings (size 3 to 8) (size 9 to 14) (size 15 to 20)
#    0.000    1.143    5.000    2.357    0.000    4.000 
#    7.714    1.429    0.000    0.000    0.000    0.000 
#    0.000    0.000    0.000    0.000    0.000    0.000 
#
# Total GULP energy -347116.600611 kJ/mol
# GULP energy per Si atom -12397.021450 kJ/mol
# Density = 2.043619 g / cm^3
# Si number density = 20.482805 Si / 1000 Ang^3
#
#
#
# Elastic Constant Matrix: (Units=GPa)
#
#
# Indices 1 2 3 4 5 6 
#
# 1 132.2380 13.6726 60.0554 0.0000 -15.3900 0.0000
# 2 13.6726 41.1582 18.9207 0.0000 -4.8092 0.0000
# 3 60.0554 18.9207 120.0015 0.0000 -1.2053 0.0000
# 4 0.0000 0.0000 0.0000 31.8072 0.0000 2.2871
# 5 -15.3900 -4.8092 -1.2053 0.0000 34.6590 0.0000
# 6 0.0000 0.0000 0.0000 2.2871 0.0000 25.2228
#
#
#
# Elastic Compliance Matrix: (Units=1/GPa)
#
#
# Indices 1 2 3 4 5 6 
#
# 1 0.010445 -0.000621 -0.005085 0.000000 0.004375 0.000000
# 2 -0.000621 0.026662 -0.003860 0.000000 0.003290 0.000000
# 3 -0.005085 -0.003860 0.011463 0.000000 -0.002395 0.000000
# 4 0.000000 0.000000 0.000000 0.031646 0.000000 -0.002870
# 5 0.004375 0.003290 -0.002395 0.000000 0.031168 0.000000
# 6 0.000000 0.000000 0.000000 -0.002870 0.000000 0.039907
#
#
# Mechanical properties :
#
#
# Convention : Reuss Voigt Hill
#
# Bulk Modulus (GPa) = 33.97098 53.18833 43.57966
# Shear Modulus (GPa) = 27.74153 31.72107 29.73130
#
# Velocity S-wave (km/s) = 3.68418 3.93958 3.81402
# Velocity P-wave (km/s) = 5.89226 6.83501 6.38107
#
# Compressibility (1/GPa) = 0.02943689
#
# Stress axis : x y z
#
# Youngs Moduli (GPa) = 95.73955 37.50721 87.23860
#
# Poissons Ratio (x) = 0.02328 0.44365
# Poissons Ratio (y) = 0.05943 0.33674
# Poissons Ratio (z) = 0.48688 0.14478
#
# Static dielectric constant tensor:
#      x y z
#    x 3.877570 0.000000 0.152490 
#    y 0.000000 3.448300 0.000000 
#    z 0.152490 0.000000 4.052490 
# 
# 
# High freq. dielectric constant tensor:
#      x y z
#    x 1.800930 0.000000 0.003520 
#    y 0.000000 1.780730 0.000000 
#    z 0.003520 0.000000 1.808450 
# 
# From -- ./inp_files/113367.got.cif
#   From: 2010.06.25/outbox.cif.g09.slc.cpg/sg12_57_cif.got.tgz:113367.got - 2010.06.28 00:19:55.
