data_PCOD8112789
_publ_section_title
;
Structure prediction by ZEFSAII (Michael W. Deem and Ramdas Pophale) SiO2 
 PCOD8112789
Probable space group: C 2/M
;
_chemical_formula_sum "Si O2"
_cell_formula_units_Z 56
_cell_length_a 16.279179
_cell_length_b 28.716322
_cell_length_c 8.820903
_cell_angle_alpha 90.000000
_cell_angle_beta 130.403881
_cell_angle_gamma 90.000000
_cell_volume 3140.082626
_symmetry_space_group_name_H-M "C 2/M"
_symmetry_group_IT_number 12
_symmetry_cell_setting 'monoclinic'
loop_
_space_group_symop_operation_xyz
x,y,z
-x,y,-z
-x,-y,-z
x,-y,z
1/2+x,1/2+y,z
1/2-x,1/2+y,-z
1/2-x,1/2-y,-z
1/2+x,1/2-y,z
loop_
_atom_site_type_symbol
_atom_site_label
_atom_site_fract_x
_atom_site_fract_y
_atom_site_fract_z
Si Si1 0.159114 0.448380 0.607700
Si Si2 0.387900 0.713464 0.780036
Si Si3 0.676273 0.776057 0.034745
Si Si4 0.619329 0.865261 0.101091
Si Si5 0.287915 0.858830 0.468030
Si Si6 0.454732 0.778764 0.609259
Si Si7 0.067782 0.448523 0.819488
O O1 0.201886 0.500000 0.611277
O O2 0.235391 0.405342 0.657296
O O3 0.148983 0.447136 0.776124
O O4 0.048982 0.436861 0.386999
O O5 0.315948 0.745652 0.804114
O O6 0.327449 0.665636 0.676910
O O7 0.391154 0.737398 0.617909
O O8 0.500000 0.703081 0.000000
O O9 0.701098 0.829505 0.110767
O O10 0.750000 0.750000 0.000000
O O11 0.556407 0.785601 0.836642
O O12 0.681694 0.876467 0.329424
O O13 0.500000 0.844181 0.000000
O O14 0.604211 0.912493 0.990205
O O15 0.382524 0.825503 0.511813
O O16 0.500000 0.763199 0.500000
O O17 0.069209 0.500000 0.895250
#
# Coordination Sequence:
#
# PCOD8112789 Si02
#       7
#     8   8   8   8   8   8   8
#     4   9  19  34  53  80 111 145 183 217 266 332
#     4  10  23  42  53  76 111 144 188 234 275 322
#     4  11  22  36  51  76 112 149 184 225 266 323
#     4  12  21  34  50  81 115 145 184 222 266 328
#     4  12  22  34  59  79 109 147 185 230 272 325
#     4  11  22  34  54  79 109 145 182 224 271 322
#     4   9  19  34  51  78 117 148 174 218 269 328
#
# _framework density 17.833926000000002
#
# number of rings (size 3 to 8) (size 9 to 14) (size 15 to 20)
#    0.000    1.429    4.286    2.571    8.000    0.857 
#    0.000    0.000    0.000    0.429    0.000    0.000 
#    0.000    2.857    0.000    0.000    0.000    0.000 
#
# Total GULP energy -346887.146044 kJ/mol
# GULP energy per Si atom -12388.826644 kJ/mol
# Density = 1.779334 g / cm^3
# Si number density = 17.833926 Si / 1000 Ang^3
#
#
#
# Elastic Constant Matrix: (Units=GPa)
#
#
# Indices 1 2 3 4 5 6 
#
# 1 92.2671 66.2915 25.1614 0.0000 -22.5715 0.0000
# 2 66.2915 138.2842 37.8241 0.0000 -8.9738 0.0000
# 3 25.1614 37.8241 61.4772 0.0000 -15.0957 0.0000
# 4 0.0000 0.0000 0.0000 30.8105 0.0000 -4.1762
# 5 -22.5715 -8.9738 -15.0957 0.0000 25.8659 0.0000
# 6 0.0000 0.0000 0.0000 -4.1762 0.0000 30.8231
#
#
#
# Elastic Compliance Matrix: (Units=1/GPa)
#
#
# Indices 1 2 3 4 5 6 
#
# 1 0.021192 -0.009405 0.000996 0.000000 0.015811 0.000000
# 2 -0.009405 0.012869 -0.005822 0.000000 -0.007140 0.000000
# 3 0.000996 -0.005822 0.022363 0.000000 0.011900 0.000000
# 4 0.000000 0.000000 0.000000 0.033064 0.000000 0.004480
# 5 0.015811 -0.007140 0.011900 0.000000 0.056926 0.000000
# 6 0.000000 0.000000 0.000000 0.004480 0.000000 0.033050
#
#
# Mechanical properties :
#
#
# Convention : Reuss Voigt Hill
#
# Bulk Modulus (GPa) = 35.76430 61.17582 48.47006
# Shear Modulus (GPa) = 23.01522 28.34998 25.68260
#
# Velocity S-wave (km/s) = 3.59629 3.99139 3.79898
# Velocity P-wave (km/s) = 6.11081 7.45782 6.81767
#
# Compressibility (1/GPa) = 0.02796085
#
# Stress axis : x y z
#
# Youngs Moduli (GPa) = 47.18751 77.70390 44.71746
#
# Poissons Ratio (x) = 0.73084 -0.04452
# Poissons Ratio (y) = 0.44382 0.26033
# Poissons Ratio (z) = -0.04698 0.45237
#
# Static dielectric constant tensor:
#      x y z
#    x 3.446990 0.000000 -0.363060 
#    y 0.000000 3.394930 0.000000 
#    z -0.363060 0.000000 3.363840 
# 
# 
# High freq. dielectric constant tensor:
#      x y z
#    x 1.666940 0.000000 -0.031940 
#    y 0.000000 1.689970 0.000000 
#    z -0.031940 0.000000 1.682180 
# 
# From -- ./inp_files/68307.got.cif
#   From: 2010.06.25/outbox.cif.g09.slc.cpg/sg12_35_cif.got.tgz:68307.got - 2010.06.28 00:19:55.
