data_PCOD8112176
_publ_section_title
;
Structure prediction by ZEFSAII (Michael W. Deem and Ramdas Pophale) SiO2 
 PCOD8112176
Probable space group: C 2/M
;
_chemical_formula_sum "Si O2"
_cell_formula_units_Z 64
_cell_length_a 29.560685
_cell_length_b 8.745755
_cell_length_c 18.287859
_cell_angle_alpha 90.000000
_cell_angle_beta 40.009957
_cell_angle_gamma 90.000000
_cell_volume 3039.709572
_symmetry_space_group_name_H-M "C 2/M"
_symmetry_group_IT_number 12
_symmetry_cell_setting 'monoclinic'
loop_
_space_group_symop_operation_xyz
x,y,z
-x,y,-z
-x,-y,-z
x,-y,z
1/2+x,1/2+y,z
1/2-x,1/2+y,-z
1/2-x,1/2-y,-z
1/2+x,1/2-y,z
loop_
_atom_site_type_symbol
_atom_site_label
_atom_site_fract_x
_atom_site_fract_y
_atom_site_fract_z
Si Si1 0.541304 0.825299 0.592878
Si Si2 0.803164 0.676932 0.222368
Si Si3 0.085483 0.179003 0.307236
Si Si4 0.166237 0.326319 0.335858
Si Si5 0.824594 0.321079 0.927121
Si Si6 0.685605 0.179853 0.624305
Si Si7 0.043560 0.822194 0.743161
Si Si8 0.407089 0.174250 0.968498
O O1 0.489318 0.766161 0.592830
O O2 0.620565 0.808561 0.465982
O O3 0.528810 0.717912 0.677555
O O4 0.523628 0.000000 0.635539
O O5 0.779831 0.500000 0.247676
O O6 0.744872 0.780422 0.256766
O O7 0.812743 0.732581 0.293450
O O8 0.875450 0.702959 0.088360
O O9 0.137533 0.217383 0.308424
O O10 0.117172 0.234687 0.191681
O O11 0.071893 0.000000 0.322702
O O12 0.164164 0.500000 0.309641
O O13 0.823056 0.500000 0.909925
O O14 0.845415 0.291849 0.985786
O O15 0.750000 0.250000 0.000000
O O16 0.750000 0.250000 0.500000
O O17 0.611439 0.229417 0.683867
O O18 0.692201 0.000000 0.609019
O O19 0.975177 0.780622 0.875634
O O20 0.059483 0.000000 0.732057
O O21 0.432860 0.000000 0.927691
#
# Coordination Sequence:
#
# PCOD8112176 Si02
#       8
#     8   8   8   8   8   8   8   8
#     4  11  23  41  63  90 126 167 213 267 325 384
#     4  10  23  43  67  95 126 164 212 262 318 382
#     4  12  24  38  59  89 126 166 214 264 316 383
#     4  11  24  40  62  91 126 167 211 264 324 383
#     4  11  22  37  61  89 125 169 216 268 321 381
#     4  11  24  44  70  99 133 169 211 264 320 386
#     4  12  25  41  66  97 129 169 216 265 321 388
#     4  10  22  42  65  90 125 168 212 263 321 379
#
# _framework density 21.054642999999999
#
# number of rings (size 3 to 8) (size 9 to 14) (size 15 to 20)
#    0.000    1.000    1.250    5.625    0.000    9.000 
#    0.000    2.500    0.000    0.000    0.000    0.000 
#    0.000    0.000    0.000    0.000    0.000    0.000 
#
# Total GULP energy -396982.160193 kJ/mol
# GULP energy per Si atom -12405.692506 kJ/mol
# Density = 2.100672 g / cm^3
# Si number density = 21.054643 Si / 1000 Ang^3
#
#
#
# Elastic Constant Matrix: (Units=GPa)
#
#
# Indices 1 2 3 4 5 6 
#
# 1 100.6112 19.3560 40.2681 -0.0048 -2.6260 0.0032
# 2 19.3560 79.3995 35.3294 -0.0180 1.7548 0.0163
# 3 40.2681 35.3294 106.5897 0.0008 4.5386 0.0033
# 4 -0.0048 -0.0180 0.0008 34.5930 0.0064 -6.0138
# 5 -2.6260 1.7548 4.5386 0.0064 39.7215 -0.0054
# 6 0.0032 0.0163 0.0033 -6.0138 -0.0054 35.6382
#
#
#
# Elastic Compliance Matrix: (Units=1/GPa)
#
#
# Indices 1 2 3 4 5 6 
#
# 1 0.011851 -0.001057 -0.004182 0.000001 0.001308 0.000000
# 2 -0.001057 0.014868 -0.004520 0.000007 -0.000210 -0.000005
# 3 -0.004182 -0.004520 0.012524 -0.000003 -0.001508 0.000001
# 4 0.000001 0.000007 -0.000003 0.029781 -0.000004 0.005025
# 5 0.001308 -0.000210 -0.001508 -0.000004 0.025443 0.000003
# 6 0.000000 -0.000005 0.000001 0.005025 0.000003 0.028908
#
#
# Mechanical properties :
#
#
# Convention : Reuss Voigt Hill
#
# Bulk Modulus (GPa) = 50.69814 52.94529 51.82171
# Shear Modulus (GPa) = 33.45196 34.76702 34.10949
#
# Velocity S-wave (km/s) = 3.99032 4.06800 4.02935
# Velocity P-wave (km/s) = 6.73512 6.87503 6.80543
#
# Compressibility (1/GPa) = 0.01972459
#
# Stress axis : x y z
#
# Youngs Moduli (GPa) = 84.38345 67.25879 79.84585
#
# Poissons Ratio (x) = 0.07108 0.33395
# Poissons Ratio (y) = 0.08918 0.36089
# Poissons Ratio (z) = 0.35293 0.30400
#
# Static dielectric constant tensor:
#      x y z
#    x 3.791350 -0.000040 0.047870 
#    y -0.000040 3.805880 0.000050 
#    z 0.047870 0.000050 3.917690 
# 
# 
# High freq. dielectric constant tensor:
#      x y z
#    x 1.826510 0.000000 -0.002410 
#    y 0.000000 1.829310 0.000000 
#    z -0.002410 0.000000 1.836850 
# 
# From -- ./inp_files/295652.got.cif
#   From: 2010.06.25/outbox.cif.g09.slc.cpg/sg12_148_cif.got.tgz:295652.got - 2010.06.28 00:19:55.
