data_PCOD8112391
_publ_section_title
;
Structure prediction by ZEFSAII (Michael W. Deem and Ramdas Pophale) SiO2 
 PCOD8112391
Probable space group: C 2/M
;
_chemical_formula_sum "Si O2"
_cell_formula_units_Z 40
_cell_length_a 12.225054
_cell_length_b 20.347721
_cell_length_c 12.731285
_cell_angle_alpha 90.000000
_cell_angle_beta 146.097239
_cell_angle_gamma 90.000000
_cell_volume 1766.467752
_symmetry_space_group_name_H-M "C 2/M"
_symmetry_group_IT_number 12
_symmetry_cell_setting 'monoclinic'
loop_
_space_group_symop_operation_xyz
x,y,z
-x,y,-z
-x,-y,-z
x,-y,z
1/2+x,1/2+y,z
1/2-x,1/2+y,-z
1/2-x,1/2-y,-z
1/2+x,1/2-y,z
loop_
_atom_site_type_symbol
_atom_site_label
_atom_site_fract_x
_atom_site_fract_y
_atom_site_fract_z
Si Si1 0.698468 0.322394 0.222141
Si Si2 0.239957 0.573277 0.381222
Si Si3 0.230261 0.320535 0.201392
Si Si4 0.478809 0.619189 0.227100
Si Si5 0.653894 0.074568 0.814656
O O1 0.797140 0.250425 0.299056
O O2 0.649253 0.340880 0.302427
O O3 0.838272 0.376742 0.279234
O O4 0.500000 0.317323 0.000000
O O5 0.224290 0.500000 0.320230
O O6 0.299415 0.623809 0.337880
O O7 0.409822 0.571244 0.604229
O O8 0.032417 0.594823 0.264528
O O9 0.338930 0.330178 0.177130
O O10 0.000000 0.326569 0.000000
O O11 0.349732 0.578114 0.041566
O O12 0.634120 0.000000 0.756638
#
# Coordination Sequence:
#
# PCOD8112391 Si02
#       5
#     8   8   8   8   8
#     4   9  23  40  67  97 128 169 212 261 313 381
#     4  11  25  42  65  98 128 165 216 263 312 379
#     4  11  23  42  67  93 130 171 212 261 316 378
#     4  11  23  42  65  94 127 169 210 264 316 374
#     4  10  22  43  68  95 130 168 208 260 320 376
#
# _framework density 22.644058000000001
#
# number of rings (size 3 to 8) (size 9 to 14) (size 15 to 20)
#    0.000    1.600    2.000    1.200    2.800   11.200 
#    3.600    2.000    0.000    0.000    0.000    0.000 
#    0.000    0.000    0.000    0.000    0.000    0.000 
#
# Total GULP energy -248052.192782 kJ/mol
# GULP energy per Si atom -12402.609639 kJ/mol
# Density = 2.259252 g / cm^3
# Si number density = 22.644058 Si / 1000 Ang^3
#
#
#
# Elastic Constant Matrix: (Units=GPa)
#
#
# Indices 1 2 3 4 5 6 
#
# 1 143.1474 77.2329 9.3832 0.0000 -14.9280 0.0000
# 2 77.2329 161.6730 10.7636 0.0000 -13.7458 0.0000
# 3 9.3832 10.7636 66.9198 0.0000 -1.2932 0.0000
# 4 0.0000 0.0000 0.0000 12.5164 0.0000 -8.0019
# 5 -14.9280 -13.7458 -1.2932 0.0000 27.3962 -0.0001
# 6 0.0000 0.0000 0.0000 -8.0019 -0.0001 27.2320
#
#
#
# Elastic Compliance Matrix: (Units=1/GPa)
#
#
# Indices 1 2 3 4 5 6 
#
# 1 0.009678 -0.004321 -0.000602 0.000000 0.003077 0.000000
# 2 -0.004321 0.008455 -0.000718 0.000000 0.001854 0.000000
# 3 -0.000602 -0.000718 0.015144 0.000000 0.000026 0.000000
# 4 0.000000 0.000000 0.000000 0.098376 0.000000 0.028907
# 5 0.003077 0.001854 0.000026 0.000000 0.039109 0.000000
# 6 0.000000 0.000000 0.000000 0.028907 0.000000 0.045215
#
#
# Mechanical properties :
#
#
# Convention : Reuss Voigt Hill
#
# Bulk Modulus (GPa) = 45.47018 62.94441 54.20729
# Shear Modulus (GPa) = 21.31362 31.71962 26.51662
#
# Velocity S-wave (km/s) = 3.07130 3.74678 3.42573
# Velocity P-wave (km/s) = 5.71849 6.82462 6.29590
#
# Compressibility (1/GPa) = 0.02199244
#
# Stress axis : x y z
#
# Youngs Moduli (GPa) = 103.33020 118.27116 66.03383
#
# Poissons Ratio (x) = 0.51110 0.03978
# Poissons Ratio (y) = 0.44654 0.04743
# Poissons Ratio (z) = 0.06225 0.08494
#
# Static dielectric constant tensor:
#      x y z
#    x 4.276630 0.000000 0.067150 
#    y 0.000000 4.120000 0.000000 
#    z 0.067150 0.000000 3.839250 
# 
# 
# High freq. dielectric constant tensor:
#      x y z
#    x 1.904220 0.000000 0.011170 
#    y 0.000000 1.890260 0.000000 
#    z 0.011170 0.000000 1.886070 
# 
# From -- ./inp_files/48617.got.cif
#   From: 2010.06.25/outbox.cif.g09.slc.cpg/sg12_25_cif.got.tgz:48617.got - 2010.06.28 00:19:55.
