data_PCOD8112209
_publ_section_title
;
Structure prediction by ZEFSAII (Michael W. Deem and Ramdas Pophale) SiO2 
 PCOD8112209
Probable space group: C 2/M
;
_chemical_formula_sum "Si O2"
_cell_formula_units_Z 64
_cell_length_a 31.000603
_cell_length_b 15.846328
_cell_length_c 9.054339
_cell_angle_alpha 90.000000
_cell_angle_beta 46.618321
_cell_angle_gamma 90.000000
_cell_volume 3232.712397
_symmetry_space_group_name_H-M "C 2/M"
_symmetry_group_IT_number 12
_symmetry_cell_setting 'monoclinic'
loop_
_space_group_symop_operation_xyz
x,y,z
-x,y,-z
-x,-y,-z
x,-y,z
1/2+x,1/2+y,z
1/2-x,1/2+y,-z
1/2-x,1/2-y,-z
1/2+x,1/2-y,z
loop_
_atom_site_type_symbol
_atom_site_label
_atom_site_fract_x
_atom_site_fract_y
_atom_site_fract_z
Si Si1 0.464641 0.404330 0.231645
Si Si2 0.669759 0.594213 0.427474
Si Si3 0.697369 0.308096 0.071263
Si Si4 0.377822 0.817489 0.922784
Si Si5 0.285690 0.095662 0.677969
Si Si6 0.770909 0.340214 0.396964
Si Si7 0.598337 0.901268 0.424869
Si Si8 0.997886 0.738747 0.331740
O O1 0.477603 0.500000 0.264248
O O2 0.395658 0.396623 0.351885
O O3 0.481855 0.329658 0.302505
O O4 0.500000 0.388718 0.000000
O O5 0.686204 0.500000 0.345074
O O6 0.672730 0.643845 0.268980
O O7 0.714612 0.622513 0.447434
O O8 0.641529 0.260236 0.134809
O O9 0.750000 0.250000 0.000000
O O10 0.724214 0.365266 0.878448
O O11 0.391415 0.894010 0.776477
O O12 0.436592 0.791058 0.875669
O O13 0.326407 0.841364 0.156677
O O14 0.290625 0.104998 0.490527
O O15 0.343629 0.132854 0.624096
O O16 0.283149 0.000000 0.730856
O O17 0.750000 0.250000 0.500000
O O18 0.546562 0.838319 0.603304
O O19 0.583229 0.000000 0.495703
O O20 0.000000 0.752846 0.500000
#
# Coordination Sequence:
#
# PCOD8112209 Si02
#       8
#     8   8   8   8   8   8   8   8
#     4  10  24  43  66  92 124 166 209 255 312 375
#     4  11  23  40  63  90 122 162 205 254 310 369
#     4  12  20  39  63  89 120 159 206 253 307 367
#     4  11  23  38  62  94 120 165 209 253 311 372
#     4  11  23  38  59  90 126 163 203 256 313 367
#     4  12  24  38  60  90 127 162 203 254 313 370
#     4  10  22  42  66  91 126 168 212 259 306 367
#     4  10  23  40  64  94 124 162 213 257 311 363
#
# _framework density 19.797616999999999
#
# number of rings (size 3 to 8) (size 9 to 14) (size 15 to 20)
#    0.000    1.125    3.750    2.250    3.500    4.500 
#    0.000    1.250    0.000    1.875    0.000    0.000 
#    0.000    0.000    0.000    0.000    0.000    0.000 
#
# Total GULP energy -396739.384839 kJ/mol
# GULP energy per Si atom -12398.105776 kJ/mol
# Density = 1.975256 g / cm^3
# Si number density = 19.797617 Si / 1000 Ang^3
#
#
#
# Elastic Constant Matrix: (Units=GPa)
#
#
# Indices 1 2 3 4 5 6 
#
# 1 88.2455 36.5402 38.1496 0.0000 -11.9926 0.0000
# 2 36.5402 103.8209 39.5235 0.0000 -10.5683 0.0000
# 3 38.1496 39.5235 102.4053 0.0000 -5.6619 0.0000
# 4 0.0000 0.0000 0.0000 168.2851 0.0000 115.7765
# 5 -11.9926 -10.5683 -5.6619 0.0000 31.4887 0.0000
# 6 0.0000 0.0000 0.0000 115.7765 0.0000 122.4909
#
#
#
# Elastic Compliance Matrix: (Units=1/GPa)
#
#
# Indices 1 2 3 4 5 6 
#
# 1 0.015004 -0.003330 -0.004091 0.000000 0.003861 0.000000
# 2 -0.003330 0.012325 -0.003391 0.000000 0.002258 0.000000
# 3 -0.004091 -0.003391 0.012574 0.000000 -0.000435 0.000000
# 4 0.000000 0.000000 0.000000 0.016991 0.000000 -0.016060
# 5 0.003861 0.002258 -0.000435 0.000000 0.033908 0.000000
# 6 0.000000 0.000000 0.000000 -0.016060 0.000000 0.023343
#
#
# Mechanical properties :
#
#
# Convention : Reuss Voigt Hill
#
# Bulk Modulus (GPa) = 54.71001 58.09979 56.40490
# Shear Modulus (GPa) = 35.24535 76.47017 55.85776
#
# Velocity S-wave (km/s) = 4.22392 6.22172 5.31748
# Velocity P-wave (km/s) = 7.17518 9.00131 8.13962
#
# Compressibility (1/GPa) = 0.01827819
#
# Stress axis : x y z
#
# Youngs Moduli (GPa) = 66.64759 81.13547 79.53003
#
# Poissons Ratio (x) = 0.27022 0.32534
# Poissons Ratio (y) = 0.22197 0.26971
# Poissons Ratio (z) = 0.27264 0.27515
#
# Static dielectric constant tensor:
#      x y z
#    x 3.993810 0.000000 -0.199630 
#    y 0.000000 3.801360 0.000000 
#    z -0.199630 0.000000 3.686410 
# 
# 
# High freq. dielectric constant tensor:
#      x y z
#    x 1.773920 0.000000 -0.010990 
#    y 0.000000 1.781610 0.000000 
#    z -0.010990 0.000000 1.775870 
# 
# From -- ./inp_files/111940.got.cif
#   From: 2010.06.25/outbox.cif.g09.slc.cpg/sg12_56_cif.got.tgz:111940.got - 2010.06.28 00:19:55.
