data_PCOD8112501
_publ_section_title
;
Structure prediction by ZEFSAII (Michael W. Deem and Ramdas Pophale) SiO2 
 PCOD8112501
Probable space group: C 2/M
;
_chemical_formula_sum "Si O2"
_cell_formula_units_Z 44
_cell_length_a 16.034990
_cell_length_b 17.279755
_cell_length_c 25.562745
_cell_angle_alpha 90.000000
_cell_angle_beta 18.961624
_cell_angle_gamma 90.000000
_cell_volume 2301.494639
_symmetry_space_group_name_H-M "C 2/M"
_symmetry_group_IT_number 12
_symmetry_cell_setting 'monoclinic'
loop_
_space_group_symop_operation_xyz
x,y,z
-x,y,-z
-x,-y,-z
x,-y,z
1/2+x,1/2+y,z
1/2-x,1/2+y,-z
1/2-x,1/2-y,-z
1/2+x,1/2-y,z
loop_
_atom_site_type_symbol
_atom_site_label
_atom_site_fract_x
_atom_site_fract_y
_atom_site_fract_z
Si Si1 0.586593 0.841306 0.891843
Si Si2 0.000000 0.845727 0.500000
Si Si3 0.924640 0.833648 0.972626
Si Si4 0.139702 0.590528 0.237472
Si Si5 0.142168 0.819116 0.530081
Si Si6 0.979995 0.413133 0.851635
O O1 0.491998 0.904872 0.906767
O O2 0.891611 0.843770 0.709590
O O3 0.500000 0.868480 0.000000
O O4 0.476679 0.757322 0.942018
O O5 0.920462 0.797412 0.494343
O O6 0.753180 0.896520 0.661929
O O7 0.759299 0.857600 0.120921
O O8 0.747047 0.854667 0.029169
O O9 0.194950 0.881556 0.809919
O O10 0.177861 0.500000 0.204473
O O11 0.839062 0.609272 0.418449
O O12 0.250000 0.750000 0.500000
O O13 0.902518 0.500000 0.882061
#
# Coordination Sequence:
#
# PCOD8112501 Si02
#       6
#     8   4   8   8   8   8
#     4  11  23  40  61  89 125 172 206 248 308 383
#     4  10  23  36  62  90 121 158 208 258 313 354
#     4  11  19  38  61  91 126 153 205 254 313 367
#     4  11  21  35  64  94 123 157 199 261 317 356
#     4  11  21  40  60  90 128 161 203 254 311 372
#     4  11  23  38  61  91 126 162 209 262 309 363
#
# _framework density 19.118010000000002
#
# number of rings (size 3 to 8) (size 9 to 14) (size 15 to 20)
#    0.000    1.091    5.455    3.000    0.000    3.273 
#    0.000    0.000    0.000    0.000    0.000    3.182 
#    0.000    0.000    0.000    0.000    0.000    0.000 
#
# Total GULP energy -272607.066503 kJ/mol
# GULP energy per Si atom -12391.230296 kJ/mol
# Density = 1.907450 g / cm^3
# Si number density = 19.118010 Si / 1000 Ang^3
#
#
#
# Elastic Constant Matrix: (Units=GPa)
#
#
# Indices 1 2 3 4 5 6 
#
# 1 117.3915 7.7231 53.1812 -0.0302 0.1101 -0.0243
# 2 7.7231 58.8296 16.3244 -0.3701 0.7049 0.0510
# 3 53.1812 16.3244 116.7263 -0.5814 -3.9229 -0.0093
# 4 -0.0302 -0.3701 -0.5814 25.2156 -0.0921 -4.7845
# 5 0.1101 0.7049 -3.9229 -0.0921 34.3951 0.0310
# 6 -0.0243 0.0510 -0.0093 -4.7845 0.0310 21.7750
#
#
#
# Elastic Compliance Matrix: (Units=1/GPa)
#
#
# Indices 1 2 3 4 5 6 
#
# 1 0.010746 -0.000042 -0.004911 -0.000105 -0.000594 -0.000012
# 2 -0.000042 0.017700 -0.002477 0.000201 -0.000645 0.000002
# 3 -0.004911 -0.002477 0.011197 0.000231 0.001344 0.000054
# 4 -0.000105 0.000201 0.000231 0.041392 0.000125 0.009094
# 5 -0.000594 -0.000645 0.001344 0.000125 0.029243 -0.000013
# 6 -0.000012 0.000002 0.000054 0.009094 -0.000013 0.047923
#
#
# Mechanical properties :
#
#
# Convention : Reuss Voigt Hill
#
# Bulk Modulus (GPa) = 40.34754 49.71165 45.02959
# Shear Modulus (GPa) = 27.57527 30.65838 29.11682
#
# Velocity S-wave (km/s) = 3.80198 4.00889 3.90680
# Velocity P-wave (km/s) = 6.35796 6.89110 6.62989
#
# Compressibility (1/GPa) = 0.02478466
#
# Stress axis : x y z
#
# Youngs Moduli (GPa) = 93.05360 56.49696 89.30801
#
# Poissons Ratio (x) = 0.00235 0.43858
# Poissons Ratio (y) = 0.00388 0.22122
# Poissons Ratio (z) = 0.45697 0.13995
#
# Static dielectric constant tensor:
#      x y z
#    x 3.813940 -0.000480 -0.101970 
#    y -0.000480 3.265090 0.001890 
#    z -0.101970 0.001890 3.221070 
# 
# 
# High freq. dielectric constant tensor:
#      x y z
#    x 1.750350 0.000000 -0.024890 
#    y 0.000000 1.723850 0.000100 
#    z -0.024890 0.000100 1.747850 
# 
# From -- ./inp_files/158397.got.cif
#   From: 2010.06.25/outbox.cif.g09.slc.cpg/sg12_80_cif.got.tgz:158397.got - 2010.06.28 00:19:55.
