data_PCOD8112618
_publ_section_title
;
Structure prediction by ZEFSAII (Michael W. Deem and Ramdas Pophale) SiO2 
 PCOD8112618
Probable space group: C 2/M
;
_chemical_formula_sum "Si O2"
_cell_formula_units_Z 40
_cell_length_a 20.224770
_cell_length_b 17.622955
_cell_length_c 9.099224
_cell_angle_alpha 90.000000
_cell_angle_beta 141.466468
_cell_angle_gamma 90.000000
_cell_volume 2020.391759
_symmetry_space_group_name_H-M "C 2/M"
_symmetry_group_IT_number 12
_symmetry_cell_setting 'monoclinic'
loop_
_space_group_symop_operation_xyz
x,y,z
-x,y,-z
-x,-y,-z
x,-y,z
1/2+x,1/2+y,z
1/2-x,1/2+y,-z
1/2-x,1/2-y,-z
1/2+x,1/2-y,z
loop_
_atom_site_type_symbol
_atom_site_label
_atom_site_fract_x
_atom_site_fract_y
_atom_site_fract_z
Si Si1 0.753000 0.500000 0.114545
Si Si2 0.808662 0.130788 0.538350
Si Si3 0.601830 0.787123 0.270087
Si Si4 0.572850 0.118877 0.491361
Si Si5 0.879130 0.000000 0.849059
Si Si6 0.717902 0.500000 0.716772
Si Si7 0.538820 0.000000 0.902714
O O1 0.825592 0.573636 0.270583
O O2 0.642292 0.500000 0.013605
O O3 0.708298 0.500000 0.873438
O O4 0.695805 0.173483 0.340600
O O5 0.895991 0.195909 0.714404
O O6 0.815635 0.074082 0.687365
O O7 0.832712 0.078337 0.436024
O O8 0.608269 0.810695 0.453104
O O9 0.500000 0.812193 0.000000
O O10 0.500000 0.146447 0.500000
O O11 0.500503 0.071883 0.254694
O O12 0.000000 0.000000 0.000000
O O13 0.836576 0.500000 0.865594
O O14 0.500000 0.000000 0.000000
#
# Coordination Sequence:
#
# PCOD8112618 Si02
#       7
#     4   8   8   8   4   4   4
#     4  11  21  37  60  95 126 157 203 248 307 371
#     4  10  23  40  60  91 120 161 216 253 289 372
#     4  11  22  39  62  89 126 160 204 256 311 355
#     4  11  20  35  57  97 132 152 190 252 315 382
#     4  11  22  43  67  87 120 168 211 256 298 350
#     4  11  20  38  59  85 125 158 203 247 300 353
#     4  11  19  29  59  93 121 159 195 241 309 360
#
# _framework density 19.79814
#
# number of rings (size 3 to 8) (size 9 to 14) (size 15 to 20)
#    0.000    1.200    4.000    4.200    2.800    0.000 
#    0.000    7.500    0.000    0.000    0.000    0.000 
#    0.000    0.000    0.000    0.000    0.000    0.000 
#
# Total GULP energy -247864.022970 kJ/mol
# GULP energy per Si atom -12393.201148 kJ/mol
# Density = 1.975308 g / cm^3
# Si number density = 19.798140 Si / 1000 Ang^3
#
#
#
# Elastic Constant Matrix: (Units=GPa)
#
#
# Indices 1 2 3 4 5 6 
#
# 1 118.2384 21.0125 31.5434 0.0000 -26.0491 0.0000
# 2 21.0125 121.3842 22.6349 0.0000 -16.4226 0.0000
# 3 31.5434 22.6349 75.2591 0.0000 -18.8804 0.0000
# 4 0.0000 0.0000 0.0000 41.7141 0.0000 1.7423
# 5 -26.0491 -16.4226 -18.8804 0.0000 43.4445 0.0000
# 6 0.0000 0.0000 0.0000 1.7423 0.0000 10.5180
#
#
#
# Elastic Compliance Matrix: (Units=1/GPa)
#
#
# Indices 1 2 3 4 5 6 
#
# 1 0.010401 -0.000605 -0.002997 0.000000 0.004705 0.000000
# 2 -0.000605 0.008996 -0.001897 0.000000 0.002214 0.000000
# 3 -0.002997 -0.001897 0.016256 0.000000 0.004550 0.000000
# 4 0.000000 0.000000 0.000000 0.024140 0.000000 -0.003999
# 5 0.004705 0.002214 0.004550 0.000000 0.028654 0.000000
# 6 0.000000 0.000000 0.000000 -0.003999 0.000000 0.095738
#
#
# Mechanical properties :
#
#
# Convention : Reuss Voigt Hill
#
# Bulk Modulus (GPa) = 40.55923 51.69591 46.12757
# Shear Modulus (GPa) = 24.58206 35.11469 29.84837
#
# Velocity S-wave (km/s) = 3.52751 4.21602 3.88704
# Velocity P-wave (km/s) = 6.09278 7.06173 6.59507
#
# Compressibility (1/GPa) = 0.02465530
#
# Stress axis : x y z
#
# Youngs Moduli (GPa) = 96.14288 111.15764 61.51714
#
# Poissons Ratio (x) = 0.06726 0.18437
# Poissons Ratio (y) = 0.05817 0.11668
# Poissons Ratio (z) = 0.28814 0.21084
#
# Static dielectric constant tensor:
#      x y z
#    x 3.349970 0.000000 0.092400 
#    y 0.000000 3.604180 0.000000 
#    z 0.092400 0.000000 3.350940 
# 
# 
# High freq. dielectric constant tensor:
#      x y z
#    x 1.762510 0.000000 -0.006940 
#    y 0.000000 1.771800 0.000000 
#    z -0.006940 0.000000 1.769000 
# 
# From -- ./inp_files/87685.got.cif
#   From: 2010.06.25/outbox.cif.g09.slc.cpg/sg12_44_cif.got.tgz:87685.got - 2010.06.28 00:19:55.
