data_PCOD8112553
_publ_section_title
;
Structure prediction by ZEFSAII (Michael W. Deem and Ramdas Pophale) SiO2 
 PCOD8112553
Probable space group: C 2/M
;
_chemical_formula_sum "Si O2"
_cell_formula_units_Z 56
_cell_length_a 9.914862
_cell_length_b 27.254053
_cell_length_c 11.513349
_cell_angle_alpha 90.000000
_cell_angle_beta 109.066392
_cell_angle_gamma 90.000000
_cell_volume 2940.464214
_symmetry_space_group_name_H-M "C 2/M"
_symmetry_group_IT_number 12
_symmetry_cell_setting 'monoclinic'
loop_
_space_group_symop_operation_xyz
x,y,z
-x,y,-z
-x,-y,-z
x,-y,z
1/2+x,1/2+y,z
1/2-x,1/2+y,-z
1/2-x,1/2-y,-z
1/2+x,1/2-y,z
loop_
_atom_site_type_symbol
_atom_site_label
_atom_site_fract_x
_atom_site_fract_y
_atom_site_fract_z
Si Si1 0.428903 0.340140 0.649670
Si Si2 0.723615 0.640528 0.619072
Si Si3 0.185114 0.273561 0.869269
Si Si4 0.630909 0.236212 0.281377
Si Si5 0.690220 0.943658 0.954112
Si Si6 0.370419 0.057169 0.802605
Si Si7 0.135615 0.864831 0.110569
O O1 0.334911 0.368511 0.527174
O O2 0.595480 0.345075 0.668808
O O3 0.384674 0.282518 0.636109
O O4 0.401809 0.366150 0.764497
O O5 0.835486 0.685709 0.642541
O O6 0.799266 0.590883 0.683936
O O7 0.241451 0.245456 0.772129
O O8 0.230046 0.330089 0.875943
O O9 0.015377 0.269944 0.830594
O O10 0.250000 0.250000 0.000000
O O11 0.540072 0.934586 0.847898
O O12 0.817716 0.918021 0.920298
O O13 0.730356 0.000000 0.963835
O O14 0.686143 0.925995 0.086897
O O15 0.333707 0.000000 0.767705
O O16 0.000000 0.845515 0.000000
#
# Coordination Sequence:
#
# PCOD8112553 Si02
#       7
#     8   8   8   8   8   8   8
#     4  10  23  39  54  89 116 153 202 249 282 372
#     4  11  21  39  63  79 118 162 198 241 310 343
#     4  11  22  35  53  85 117 152 189 246 292 351
#     4  11  21  38  57  81 116 156 204 237 296 358
#     4   9  19  37  61  88 118 150 195 247 297 361
#     4   9  19  37  62  92 115 149 203 247 294 361
#     4  11  22  37  56  83 122 148 193 246 302 350
#
# _framework density 19.044612000000001
#
# number of rings (size 3 to 8) (size 9 to 14) (size 15 to 20)
#    0.000    1.714    1.429    5.143    2.000    0.286 
#    0.000    6.429    0.000    1.714    0.000    0.000 
#    0.000    0.000    0.000    0.000    0.000    0.000 
#
# Total GULP energy -347226.094824 kJ/mol
# GULP energy per Si atom -12400.931958 kJ/mol
# Density = 1.900127 g / cm^3
# Si number density = 19.044612 Si / 1000 Ang^3
#
#
#
# Elastic Constant Matrix: (Units=GPa)
#
#
# Indices 1 2 3 4 5 6 
#
# 1 57.7378 27.2820 26.7862 0.0000 1.9517 0.0000
# 2 27.2820 83.0349 48.1261 0.0000 4.2821 0.0000
# 3 26.7862 48.1261 106.1910 0.0000 4.6157 0.0000
# 4 0.0000 0.0000 0.0000 29.6927 0.0000 6.9319
# 5 1.9517 4.2821 4.6157 0.0000 31.6789 0.0000
# 6 0.0000 0.0000 0.0000 6.9319 0.0000 29.5079
#
#
#
# Elastic Compliance Matrix: (Units=1/GPa)
#
#
# Indices 1 2 3 4 5 6 
#
# 1 0.021171 -0.005230 -0.002963 0.000000 -0.000166 0.000000
# 2 -0.005230 0.017666 -0.006639 0.000000 -0.001098 0.000000
# 3 -0.002963 -0.006639 0.013210 0.000000 -0.000845 0.000000
# 4 0.000000 0.000000 0.000000 0.035632 0.000000 -0.008371
# 5 -0.000166 -0.001098 -0.000845 0.000000 0.031848 0.000000
# 6 0.000000 0.000000 0.000000 -0.008371 0.000000 0.035856
#
#
# Mechanical properties :
#
#
# Convention : Reuss Voigt Hill
#
# Bulk Modulus (GPa) = 44.67734 50.15027 47.41380
# Shear Modulus (GPa) = 25.97268 27.82720 26.89994
#
# Velocity S-wave (km/s) = 3.69695 3.82666 3.76236
# Velocity P-wave (km/s) = 6.46014 6.77603 6.61997
#
# Compressibility (1/GPa) = 0.02238271
#
# Stress axis : x y z
#
# Youngs Moduli (GPa) = 47.23403 56.60478 75.69999
#
# Poissons Ratio (x) = 0.29606 0.22428
# Poissons Ratio (y) = 0.24705 0.50260
# Poissons Ratio (z) = 0.13994 0.37582
#
# Static dielectric constant tensor:
#      x y z
#    x 3.579790 0.000000 0.052150 
#    y 0.000000 3.379030 0.000000 
#    z 0.052150 0.000000 3.356550 
# 
# 
# High freq. dielectric constant tensor:
#      x y z
#    x 1.743590 0.000000 0.008060 
#    y 0.000000 1.733850 0.000000 
#    z 0.008060 0.000000 1.735100 
# 
# From -- ./inp_files/124216.got.cif
#   From: 2010.06.25/outbox.cif.g09.slc.cpg/sg12_63_cif.got.tgz:124216.got - 2010.06.28 00:19:55.
