data_PCOD8112199
_publ_section_title
;
Structure prediction by ZEFSAII (Michael W. Deem and Ramdas Pophale) SiO2 
 PCOD8112199
Probable space group: C 2/M
;
_chemical_formula_sum "Si O2"
_cell_formula_units_Z 40
_cell_length_a 13.439234
_cell_length_b 16.430166
_cell_length_c 8.786344
_cell_angle_alpha 90.000000
_cell_angle_beta 70.174046
_cell_angle_gamma 90.000000
_cell_volume 1825.107227
_symmetry_space_group_name_H-M "C 2/M"
_symmetry_group_IT_number 12
_symmetry_cell_setting 'monoclinic'
loop_
_space_group_symop_operation_xyz
x,y,z
-x,y,-z
-x,-y,-z
x,-y,z
1/2+x,1/2+y,z
1/2-x,1/2+y,-z
1/2-x,1/2-y,-z
1/2+x,1/2-y,z
loop_
_atom_site_type_symbol
_atom_site_label
_atom_site_fract_x
_atom_site_fract_y
_atom_site_fract_z
Si Si1 0.522119 0.320259 0.813356
Si Si2 0.900621 0.591384 0.129502
Si Si3 0.298460 0.592532 0.416833
Si Si4 0.588494 0.832435 0.579783
Si Si5 0.166745 0.905503 0.253511
O O1 0.609643 0.391546 0.754974
O O2 0.575368 0.245937 0.694207
O O3 0.413258 0.347255 0.792114
O O4 0.500000 0.298713 0.000000
O O5 0.899747 0.500000 0.068585
O O6 0.918666 0.590936 0.301995
O O7 0.784832 0.627461 0.149237
O O8 0.000000 0.638896 0.000000
O O9 0.257850 0.500000 0.416332
O O10 0.203303 0.657850 0.440378
O O11 0.350310 0.604312 0.556884
O O12 0.500000 0.836069 0.500000
O O13 0.151056 0.000000 0.214616
#
# Coordination Sequence:
#
# PCOD8112199 Si02
#       5
#     8   8   8   8   8
#     4  12  25  39  59  91 128 160 197 250 308 360
#     4   9  19  38  63  90 123 161 201 248 302 359
#     4  10  22  42  66  89 118 158 204 251 299 358
#     4  11  23  40  61  87 120 162 206 249 295 356
#     4   9  19  38  63  88 118 158 202 247 299 361
#
# _framework density 21.916522000000001
#
# number of rings (size 3 to 8) (size 9 to 14) (size 15 to 20)
#    0.000    1.800    0.000    5.400    0.000    8.000 
#    0.000    8.000    0.000    0.000    0.000    0.000 
#    0.000    0.000    0.000    0.000    0.000    0.000 
#
# Total GULP energy -247846.086112 kJ/mol
# GULP energy per Si atom -12392.304306 kJ/mol
# Density = 2.186664 g / cm^3
# Si number density = 21.916522 Si / 1000 Ang^3
#
#
#
# Elastic Constant Matrix: (Units=GPa)
#
#
# Indices 1 2 3 4 5 6 
#
# 1 146.6554 59.9088 82.4446 0.0000 -12.9957 0.0000
# 2 59.9088 80.6816 30.2298 0.0000 -2.4156 0.0000
# 3 82.4446 30.2298 82.0711 0.0000 -18.4690 0.0000
# 4 0.0000 0.0000 0.0000 22.6181 0.0000 -1.9840
# 5 -12.9957 -2.4156 -18.4690 0.0000 42.5445 0.0000
# 6 0.0000 0.0000 0.0000 -1.9840 0.0000 29.4815
#
#
#
# Elastic Compliance Matrix: (Units=1/GPa)
#
#
# Indices 1 2 3 4 5 6 
#
# 1 0.019635 -0.008220 -0.017125 0.000000 -0.001903 0.000000
# 2 -0.008220 0.017925 0.001462 0.000000 -0.000859 0.000000
# 3 -0.017125 0.001462 0.030688 0.000000 0.008174 0.000000
# 4 0.000000 0.000000 0.000000 0.044475 0.000000 0.002993
# 5 -0.001903 -0.000859 0.008174 0.000000 0.026423 0.000000
# 6 0.000000 0.000000 0.000000 0.002993 0.000000 0.034121
#
#
# Mechanical properties :
#
#
# Convention : Reuss Voigt Hill
#
# Bulk Modulus (GPa) = 48.82319 72.73051 60.77685
# Shear Modulus (GPa) = 21.94327 28.05047 24.99687
#
# Velocity S-wave (km/s) = 3.16764 3.58142 3.38087
# Velocity P-wave (km/s) = 5.97527 7.09643 6.55985
#
# Compressibility (1/GPa) = 0.02048207
#
# Stress axis : x y z
#
# Youngs Moduli (GPa) = 50.92933 55.78892 32.58586
#
# Poissons Ratio (x) = 0.45860 0.55803
# Poissons Ratio (y) = 0.41866 -0.04765
# Poissons Ratio (z) = 0.87215 -0.08157
#
# Static dielectric constant tensor:
#      x y z
#    x 4.058930 0.000000 -0.352290 
#    y 0.000000 3.951390 0.000000 
#    z -0.352290 0.000000 4.005020 
# 
# 
# High freq. dielectric constant tensor:
#      x y z
#    x 1.868820 0.000000 -0.024640 
#    y 0.000000 1.857520 0.000000 
#    z -0.024640 0.000000 1.847100 
# 
# From -- ./inp_files/46952.got.cif
#   From: 2010.06.25/outbox.cif.g09.slc.cpg/sg12_24_cif.got.tgz:46952.got - 2010.06.28 00:19:55.
