data_PCOD8112114
_publ_section_title
;
Structure prediction by ZEFSAII (Michael W. Deem and Ramdas Pophale) SiO2 
 PCOD8112114
Probable space group: C 2/M
;
_chemical_formula_sum "Si O2"
_cell_formula_units_Z 40
_cell_length_a 17.753750
_cell_length_b 14.067352
_cell_length_c 11.490702
_cell_angle_alpha 90.000000
_cell_angle_beta 140.748682
_cell_angle_gamma 90.000000
_cell_volume 1815.777941
_symmetry_space_group_name_H-M "C 2/M"
_symmetry_group_IT_number 12
_symmetry_cell_setting 'monoclinic'
loop_
_space_group_symop_operation_xyz
x,y,z
-x,y,-z
-x,-y,-z
x,-y,z
1/2+x,1/2+y,z
1/2-x,1/2+y,-z
1/2-x,1/2-y,-z
1/2+x,1/2-y,z
loop_
_atom_site_type_symbol
_atom_site_label
_atom_site_fract_x
_atom_site_fract_y
_atom_site_fract_z
Si Si1 0.252786 0.390804 0.463996
Si Si2 0.508524 0.101740 0.877363
Si Si3 0.233959 0.388755 0.697265
Si Si4 0.935435 0.221727 0.538435
Si Si5 0.854215 0.769618 0.036696
O O1 0.251146 0.500000 0.423378
O O2 0.303743 0.377456 0.656583
O O3 0.319475 0.336263 0.440526
O O4 0.116945 0.351716 0.313882
O O5 0.621184 0.169468 0.995547
O O6 0.528844 0.000000 0.836008
O O7 0.500000 0.078145 0.000000
O O8 0.204142 0.500000 0.684525
O O9 0.109716 0.328790 0.546416
O O10 0.320441 0.350466 0.902858
O O11 0.000000 0.180612 0.500000
O O12 0.026691 0.205189 0.752156
O O13 0.750000 0.750000 0.000000
#
# Coordination Sequence:
#
# PCOD8112114 Si02
#       5
#     8   8   8   8   8
#     4  10  23  45  73 102 134 184 238 287 347 414
#     4  10  22  41  70 100 131 177 236 288 336 410
#     4  11  25  47  72 103 138 183 239 290 342 413
#     4  12  25  44  71 102 145 186 228 289 358 414
#     4  12  26  42  67 106 144 181 229 287 358 414
#
# _framework density 22.029125000000001
#
# number of rings (size 3 to 8) (size 9 to 14) (size 15 to 20)
#    0.000    1.000    4.000    1.800    2.800    2.400 
#    0.000    2.000    0.000    0.000    0.000    0.000 
#    0.000    0.000    0.000    0.000    0.000    0.000 
#
# Total GULP energy -247820.238683 kJ/mol
# GULP energy per Si atom -12391.011934 kJ/mol
# Density = 2.197899 g / cm^3
# Si number density = 22.029125 Si / 1000 Ang^3
#
#
#
# Elastic Constant Matrix: (Units=GPa)
#
#
# Indices 1 2 3 4 5 6 
#
# 1 131.6047 74.1091 28.3517 0.0000 0.6490 0.0000
# 2 74.1091 129.5708 51.6244 0.0000 4.5850 0.0000
# 3 28.3517 51.6244 133.8786 0.0000 -11.3439 0.0000
# 4 0.0000 0.0000 0.0000 40.5072 0.0000 4.4286
# 5 0.6490 4.5850 -11.3439 0.0000 33.3517 0.0000
# 6 0.0000 0.0000 0.0000 4.4286 0.0000 19.9180
#
#
#
# Elastic Compliance Matrix: (Units=1/GPa)
#
#
# Indices 1 2 3 4 5 6 
#
# 1 0.011228 -0.006529 0.000203 0.000000 0.000748 0.000000
# 2 -0.006529 0.013127 -0.003935 0.000000 -0.003016 0.000000
# 3 0.000203 -0.003935 0.009256 0.000000 0.003685 0.000000
# 4 0.000000 0.000000 0.000000 0.025302 0.000000 -0.005626
# 5 0.000748 -0.003016 0.003685 0.000000 0.031637 0.000000
# 6 0.000000 0.000000 0.000000 -0.005626 0.000000 0.051457
#
#
# Mechanical properties :
#
#
# Convention : Reuss Voigt Hill
#
# Bulk Modulus (GPa) = 76.39793 78.13604 77.26699
# Shear Modulus (GPa) = 29.95986 34.81996 32.38991
#
# Velocity S-wave (km/s) = 3.69183 3.98003 3.83864
# Velocity P-wave (km/s) = 7.27520 7.52777 7.40256
#
# Compressibility (1/GPa) = 0.01308936
#
# Stress axis : x y z
#
# Youngs Moduli (GPa) = 89.06450 76.18087 108.04053
#
# Poissons Ratio (x) = 0.49741 -0.02198
# Poissons Ratio (y) = 0.58154 0.42509
# Poissons Ratio (z) = -0.01812 0.29973
#
# Static dielectric constant tensor:
#      x y z
#    x 3.958190 0.000000 -0.050250 
#    y 0.000000 4.145200 0.000000 
#    z -0.050250 0.000000 4.574020 
# 
# 
# High freq. dielectric constant tensor:
#      x y z
#    x 1.863180 0.000000 -0.014580 
#    y 0.000000 1.861820 0.000000 
#    z -0.014580 0.000000 1.874510 
# 
# From -- ./inp_files/155761.got.cif
#   From: 2010.06.25/outbox.cif.g09.slc.cpg/sg12_78_cif.got.tgz:155761.got - 2010.06.28 00:19:55.
