data_PCOD8112945
_publ_section_title
;
Structure prediction by ZEFSAII (Michael W. Deem and Ramdas Pophale) SiO2 
 PCOD8112945
Probable space group: C 2/M
;
_chemical_formula_sum "Si O2"
_cell_formula_units_Z 32
_cell_length_a 5.225979
_cell_length_b 22.199102
_cell_length_c 11.884318
_cell_angle_alpha 90.000000
_cell_angle_beta 75.208342
_cell_angle_gamma 90.000000
_cell_volume 1333.033859
_symmetry_space_group_name_H-M "C 2/M"
_symmetry_group_IT_number 12
_symmetry_cell_setting 'monoclinic'
loop_
_space_group_symop_operation_xyz
x,y,z
-x,y,-z
-x,-y,-z
x,-y,z
1/2+x,1/2+y,z
1/2-x,1/2+y,-z
1/2-x,1/2-y,-z
1/2+x,1/2-y,z
loop_
_atom_site_type_symbol
_atom_site_label
_atom_site_fract_x
_atom_site_fract_y
_atom_site_fract_z
Si Si1 0.296785 0.500000 0.422396
Si Si2 0.465909 0.286496 0.132426
Si Si3 0.238111 0.380877 0.295365
Si Si4 0.300401 0.929563 0.932559
Si Si5 0.000000 0.707509 0.500000
O O1 0.500000 0.500000 0.500000
O O2 0.351705 0.439086 0.347075
O O3 0.000000 0.500000 0.500000
O O4 0.670663 0.239942 0.160813
O O5 0.480719 0.341233 0.219677
O O6 0.500000 0.308640 0.000000
O O7 0.095361 0.403864 0.198153
O O8 0.050877 0.337881 0.390670
O O9 0.343759 0.000000 0.922424
O O10 0.500000 0.899681 0.000000
O O11 0.000000 0.913597 0.000000
O O12 0.750000 0.750000 0.500000
#
# Coordination Sequence:
#
# PCOD8112945 Si02
#       5
#     4   8   8   8   4
#     4  12  30  50  72 112 148 198 246 301 373 442
#     4  10  23  43  71 106 144 189 240 294 359 428
#     4  12  25  50  77 106 152 190 247 301 375 435
#     4  10  23  42  68 108 146 185 232 286 360 443
#     4  12  30  49  76 107 142 196 258 312 364 422
#
# _framework density 24.005392000000001
#
# number of rings (size 3 to 8) (size 9 to 14) (size 15 to 20)
#    0.000    1.000    2.500    2.250    1.750   11.000 
#    0.000    0.000    0.000    0.000    0.000    0.000 
#    0.000    0.000    0.000    0.000    0.000    0.000 
#
# Total GULP energy -198231.110274 kJ/mol
# GULP energy per Si atom -12389.444392 kJ/mol
# Density = 2.395076 g / cm^3
# Si number density = 24.005392 Si / 1000 Ang^3
#
#
#
# Elastic Constant Matrix: (Units=GPa)
#
#
# Indices 1 2 3 4 5 6 
#
# 1 164.3345 73.3419 89.5426 0.0000 19.8403 0.0000
# 2 73.3419 167.6625 78.2414 0.0000 11.6797 0.0000
# 3 89.5426 78.2414 162.9783 0.0000 26.9697 0.0000
# 4 0.0000 0.0000 0.0000 110.2960 0.0000 -29.3944
# 5 19.8403 11.6797 26.9697 0.0000 31.6721 0.0000
# 6 0.0000 0.0000 0.0000 -29.3944 0.0000 37.8556
#
#
#
# Elastic Compliance Matrix: (Units=1/GPa)
#
#
# Indices 1 2 3 4 5 6 
#
# 1 0.009344 -0.002198 -0.003776 0.000000 -0.001827 0.000000
# 2 -0.002198 0.008207 -0.002863 0.000000 0.000788 0.000000
# 3 -0.003776 -0.002863 0.010498 0.000000 -0.005518 0.000000
# 4 0.000000 0.000000 0.000000 0.011432 0.000000 0.008877
# 5 -0.001827 0.000788 -0.005518 0.000000 0.037126 0.000000
# 6 0.000000 0.000000 0.000000 0.008877 0.000000 0.033309
#
#
# Mechanical properties :
#
#
# Convention : Reuss Voigt Hill
#
# Bulk Modulus (GPa) = 96.38412 108.58079 102.48246
# Shear Modulus (GPa) = 38.15356 52.88805 45.52080
#
# Velocity S-wave (km/s) = 3.99102 4.69889 4.35935
# Velocity P-wave (km/s) = 7.84065 8.64693 8.25364
#
# Compressibility (1/GPa) = 0.01037515
#
# Stress axis : x y z
#
# Youngs Moduli (GPa) = 107.01614 121.84926 95.25637
#
# Poissons Ratio (x) = 0.26783 0.35972
# Poissons Ratio (y) = 0.23522 0.27269
# Poissons Ratio (z) = 0.40413 0.34882
#
# Static dielectric constant tensor:
#      x y z
#    x 4.092030 0.000000 0.180120 
#    y 0.000000 4.805880 0.000000 
#    z 0.180120 0.000000 4.895960 
# 
# 
# High freq. dielectric constant tensor:
#      x y z
#    x 1.930260 0.000000 0.006530 
#    y 0.000000 1.986860 0.000000 
#    z 0.006530 0.000000 1.971720 
# 
# From -- ./inp_files/114942.got.cif
#   From: 2010.06.25/outbox.cif.g09.slc.cpg/sg12_58_cif.got.tgz:114942.got - 2010.06.28 00:19:55.
