data_PCOD8112862
_publ_section_title
;
Structure prediction by ZEFSAII (Michael W. Deem and Ramdas Pophale) SiO2 
 PCOD8112862
Probable space group: C 2/M
;
_chemical_formula_sum "Si O2"
_cell_formula_units_Z 40
_cell_length_a 15.458314
_cell_length_b 8.637261
_cell_length_c 16.276771
_cell_angle_alpha 90.000000
_cell_angle_beta 117.271649
_cell_angle_gamma 90.000000
_cell_volume 1931.665849
_symmetry_space_group_name_H-M "C 2/M"
_symmetry_group_IT_number 12
_symmetry_cell_setting 'monoclinic'
loop_
_space_group_symop_operation_xyz
x,y,z
-x,y,-z
-x,-y,-z
x,-y,z
1/2+x,1/2+y,z
1/2-x,1/2+y,-z
1/2-x,1/2-y,-z
1/2+x,1/2-y,z
loop_
_atom_site_type_symbol
_atom_site_label
_atom_site_fract_x
_atom_site_fract_y
_atom_site_fract_z
Si Si1 0.714168 0.677885 0.729780
Si Si2 0.984936 0.821832 0.283684
Si Si3 0.456326 0.816567 0.100022
Si Si4 0.192704 0.682789 0.398973
Si Si5 0.359495 0.681842 0.909928
O O1 0.746167 0.500000 0.755683
O O2 0.596901 0.693839 0.680791
O O3 0.755203 0.742675 0.661499
O O4 0.757230 0.776947 0.823848
O O5 0.081474 0.736170 0.355132
O O6 0.937981 0.743749 0.183197
O O7 0.010155 0.000000 0.276462
O O8 0.556844 0.743985 0.113212
O O9 0.465034 0.000000 0.103086
O O10 0.368020 0.762694 0.002856
O O11 0.196818 0.500000 0.405179
O O12 0.250000 0.750000 0.500000
O O13 0.369870 0.500000 0.926926
#
# Coordination Sequence:
#
# PCOD8112862 Si02
#       5
#     8   8   8   8   8
#     4  10  23  42  64  91 127 166 204 252 313 370
#     4  11  23  41  65  94 125 162 209 257 306 367
#     4  11  21  36  59  88 127 169 207 251 309 365
#     4  11  24  44  68  92 123 162 203 257 317 372
#     4  11  21  35  60  91 124 165 213 256 299 359
#
# _framework density 20.707515000000001
#
# number of rings (size 3 to 8) (size 9 to 14) (size 15 to 20)
#    0.000    1.200    2.000    6.000    0.000    4.000 
#    0.000    4.000    0.000    0.000    0.000    0.000 
#    0.000    0.000    0.000    0.000    0.000    0.000 
#
# Total GULP energy -248074.516507 kJ/mol
# GULP energy per Si atom -12403.725825 kJ/mol
# Density = 2.066038 g / cm^3
# Si number density = 20.707515 Si / 1000 Ang^3
#
#
#
# Elastic Constant Matrix: (Units=GPa)
#
#
# Indices 1 2 3 4 5 6 
#
# 1 104.9649 23.5735 52.7833 0.0000 10.8859 0.0000
# 2 23.5735 102.8103 32.1934 0.0000 -3.7713 0.0000
# 3 52.7833 32.1934 139.2584 0.0000 14.5667 0.0000
# 4 0.0000 0.0000 0.0000 39.0605 0.0000 4.9394
# 5 10.8859 -3.7713 14.5667 0.0000 16.2155 0.0000
# 6 0.0000 0.0000 0.0000 4.9394 0.0000 28.4635
#
#
#
# Elastic Compliance Matrix: (Units=1/GPa)
#
#
# Indices 1 2 3 4 5 6 
#
# 1 0.012365 -0.001881 -0.003684 0.000000 -0.005429 0.000000
# 2 -0.001881 0.011168 -0.002508 0.000000 0.006113 0.000000
# 3 -0.003684 -0.002508 0.009889 0.000000 -0.006993 0.000000
# 4 0.000000 0.000000 0.000000 0.026176 0.000000 -0.004542
# 5 -0.005429 0.006113 -0.006993 0.000000 0.073018 0.000000
# 6 0.000000 0.000000 0.000000 -0.004542 0.000000 0.035921
#
#
# Mechanical properties :
#
#
# Convention : Reuss Voigt Hill
#
# Bulk Modulus (GPa) = 57.88692 62.68155 60.28423
# Shear Modulus (GPa) = 26.25498 32.64680 29.45089
#
# Velocity S-wave (km/s) = 3.56462 3.97491 3.77534
# Velocity P-wave (km/s) = 6.70501 7.16953 6.94116
#
# Compressibility (1/GPa) = 0.01727506
#
# Stress axis : x y z
#
# Youngs Moduli (GPa) = 80.87346 89.54522 101.12620
#
# Poissons Ratio (x) = 0.16841 0.37256
# Poissons Ratio (y) = 0.15210 0.25365
# Poissons Ratio (z) = 0.29794 0.22460
#
# Static dielectric constant tensor:
#      x y z
#    x 3.700030 0.000000 -0.052660 
#    y 0.000000 3.832730 0.000000 
#    z -0.052660 0.000000 3.839540 
# 
# 
# High freq. dielectric constant tensor:
#      x y z
#    x 1.809340 0.000000 0.002000 
#    y 0.000000 1.820490 0.000000 
#    z 0.002000 0.000000 1.807690 
# 
# From -- ./inp_files/211255.got.cif
#   From: 2010.06.25/outbox.cif.g09.slc.cpg/sg12_106_cif.got.tgz:211255.got - 2010.06.28 00:19:55.
