data_PCOD8112831
_publ_section_title
;
Structure prediction by ZEFSAII (Michael W. Deem and Ramdas Pophale) SiO2 
 PCOD8112831
Probable space group: C 2/M
;
_chemical_formula_sum "Si O2"
_cell_formula_units_Z 36
_cell_length_a 9.522744
_cell_length_b 23.040377
_cell_length_c 8.708105
_cell_angle_alpha 90.000000
_cell_angle_beta 107.063598
_cell_angle_gamma 90.000000
_cell_volume 1826.518135
_symmetry_space_group_name_H-M "C 2/M"
_symmetry_group_IT_number 12
_symmetry_cell_setting 'monoclinic'
loop_
_space_group_symop_operation_xyz
x,y,z
-x,y,-z
-x,-y,-z
x,-y,z
1/2+x,1/2+y,z
1/2-x,1/2+y,-z
1/2-x,1/2-y,-z
1/2+x,1/2-y,z
loop_
_atom_site_type_symbol
_atom_site_label
_atom_site_fract_x
_atom_site_fract_y
_atom_site_fract_z
Si Si1 0.486085 0.206327 0.819493
Si Si2 0.500000 0.596581 0.000000
Si Si3 0.728910 0.500000 0.543357
Si Si4 0.795730 0.181206 0.769893
Si Si5 0.981175 0.000000 0.236164
Si Si6 0.853524 0.377093 0.547850
O O1 0.645287 0.207634 0.789092
O O2 0.417246 0.269866 0.781336
O O3 0.374094 0.160812 0.707320
O O4 0.500000 0.187760 0.000000
O O5 0.359091 0.635225 0.911941
O O6 0.549652 0.557183 0.873154
O O7 0.647864 0.500000 0.352423
O O8 0.621309 0.500000 0.651007
O O9 0.827405 0.443018 0.588080
O O10 0.775275 0.149859 0.598612
O O11 0.000000 0.374387 0.500000
#
# Coordination Sequence:
#
# PCOD8112831 Si02
#       6
#     8   4   4   8   4   8
#     4  11  24  40  62  95 123 164 207 254 304 368
#     4  11  22  42  64  92 126 161 202 256 312 363
#     4  11  21  42  62  92 119 162 210 253 303 368
#     4  11  23  41  65  89 129 164 201 254 311 365
#     4  10  24  38  63  93 122 158 207 254 309 363
#     4  10  23  42  63  89 126 164 203 251 313 363
#
# _framework density 19.709633
#
# number of rings (size 3 to 8) (size 9 to 14) (size 15 to 20)
#    0.000    1.333    3.333    1.667    3.111    0.000 
#    0.000    0.556    0.000    0.000    0.000    0.000 
#    0.000    0.000    0.000    0.000    0.000    0.000 
#
# Total GULP energy -223257.065653 kJ/mol
# GULP energy per Si atom -12403.170314 kJ/mol
# Density = 1.966477 g / cm^3
# Si number density = 19.709633 Si / 1000 Ang^3
#
#
#
# Elastic Constant Matrix: (Units=GPa)
#
#
# Indices 1 2 3 4 5 6 
#
# 1 48.3849 41.3710 39.1096 0.0000 8.8256 0.0000
# 2 41.3710 161.5590 78.6678 0.0000 10.3293 0.0000
# 3 39.1096 78.6678 140.5109 0.0000 13.4547 0.0000
# 4 0.0000 0.0000 0.0000 42.4625 0.0000 7.8947
# 5 8.8256 10.3293 13.4547 0.0000 28.1480 0.0000
# 6 0.0000 0.0000 0.0000 7.8947 0.0000 25.3342
#
#
#
# Elastic Compliance Matrix: (Units=1/GPa)
#
#
# Indices 1 2 3 4 5 6 
#
# 1 0.029872 -0.004828 -0.005119 0.000000 -0.005148 0.000000
# 2 -0.004828 0.009311 -0.003864 0.000000 -0.000056 0.000000
# 3 -0.005119 -0.003864 0.010915 0.000000 -0.002195 0.000000
# 4 0.000000 0.000000 0.000000 0.024999 0.000000 -0.007790
# 5 -0.005148 -0.000056 -0.002195 0.000000 0.038210 0.000000
# 6 0.000000 0.000000 0.000000 -0.007790 0.000000 0.041900
#
#
# Mechanical properties :
#
#
# Convention : Reuss Voigt Hill
#
# Bulk Modulus (GPa) = 44.48916 74.30572 59.39744
# Shear Modulus (GPa) = 26.27162 31.94270 29.10716
#
# Velocity S-wave (km/s) = 3.65490 4.03011 3.84708
# Velocity P-wave (km/s) = 6.35864 7.70959 7.06647
#
# Compressibility (1/GPa) = 0.02247739
#
# Stress axis : x y z
#
# Youngs Moduli (GPa) = 33.47614 107.40035 91.61768
#
# Poissons Ratio (x) = 0.51852 0.46895
# Poissons Ratio (y) = 0.16162 0.35399
# Poissons Ratio (z) = 0.17135 0.41497
#
# Static dielectric constant tensor:
#      x y z
#    x 3.382470 0.000000 0.253940 
#    y 0.000000 3.795990 0.000000 
#    z 0.253940 0.000000 4.171440 
# 
# 
# High freq. dielectric constant tensor:
#      x y z
#    x 1.755340 0.000000 0.008690 
#    y 0.000000 1.780820 0.000000 
#    z 0.008690 0.000000 1.787440 
# 
# From -- ./inp_files/38940.got.cif
#   From: 2010.06.25/outbox.cif.g09.slc.cpg/sg12_20_cif.got.tgz:38940.got - 2010.06.28 00:19:55.
