data_PCOD8112380
_publ_section_title
;
Structure prediction by ZEFSAII (Michael W. Deem and Ramdas Pophale) SiO2 
 PCOD8112380
Probable space group: C 2/M
;
_chemical_formula_sum "Si O2"
_cell_formula_units_Z 44
_cell_length_a 9.453332
_cell_length_b 23.975276
_cell_length_c 11.641497
_cell_angle_alpha 90.000000
_cell_angle_beta 127.638854
_cell_angle_gamma 90.000000
_cell_volume 2089.365285
_symmetry_space_group_name_H-M "C 2/M"
_symmetry_group_IT_number 12
_symmetry_cell_setting 'monoclinic'
loop_
_space_group_symop_operation_xyz
x,y,z
-x,y,-z
-x,-y,-z
x,-y,z
1/2+x,1/2+y,z
1/2-x,1/2+y,-z
1/2-x,1/2-y,-z
1/2+x,1/2-y,z
loop_
_atom_site_type_symbol
_atom_site_label
_atom_site_fract_x
_atom_site_fract_y
_atom_site_fract_z
Si Si1 0.954137 0.000000 0.283396
Si Si2 0.973979 0.594806 0.740909
Si Si3 0.361888 0.000000 0.034507
Si Si4 0.214889 0.694729 0.828290
Si Si5 0.882778 0.882266 0.336410
Si Si6 0.544984 0.696559 0.832077
Si Si7 0.151105 0.500000 0.482528
O O1 0.904394 0.948358 0.338449
O O2 0.163133 0.000000 0.356343
O O3 0.841984 0.000000 0.109681
O O4 0.829180 0.627669 0.747937
O O5 0.863203 0.556827 0.597354
O O6 0.108679 0.555922 0.878621
O O7 0.093184 0.641454 0.737273
O O8 0.500000 0.000000 0.000000
O O9 0.348886 0.703992 0.788775
O O10 0.092145 0.749079 0.781004
O O11 0.314519 0.684297 0.997768
O O12 0.949019 0.855330 0.250956
O O13 0.000000 0.858490 0.500000
O O14 0.000000 0.500000 0.500000
#
# Coordination Sequence:
#
# PCOD8112380 Si02
#       7
#     4   8   4   8   8   8   4
#     4  12  22  40  66  91 134 173 222 262 326 386
#     4  11  23  40  64  98 133 165 224 262 328 386
#     4  11  21  37  64 103 127 169 217 274 315 384
#     4  10  22  43  67  96 125 172 210 283 319 389
#     4  12  23  39  66  97 131 179 213 267 319 403
#     4  10  23  42  67  96 131 164 223 262 340 376
#     4  11  26  44  62  91 133 185 214 265 328 397
#
# _framework density 21.059027
#
# number of rings (size 3 to 8) (size 9 to 14) (size 15 to 20)
#    0.000    1.091    3.636    3.000    2.545    1.455 
#    0.000    5.455    0.000    0.000    0.000    0.000 
#    0.000    0.000    0.000    0.000    0.000    0.000 
#
# Total GULP energy -272896.226415 kJ/mol
# GULP energy per Si atom -12404.373928 kJ/mol
# Density = 2.101110 g / cm^3
# Si number density = 21.059027 Si / 1000 Ang^3
#
#
#
# Elastic Constant Matrix: (Units=GPa)
#
#
# Indices 1 2 3 4 5 6 
#
# 1 166.2164 61.1647 45.8468 0.0000 7.4518 0.0000
# 2 61.1647 117.0675 29.5999 0.0000 1.7747 0.0000
# 3 45.8468 29.5999 104.2686 0.0000 14.2563 0.0000
# 4 0.0000 0.0000 0.0000 12.4453 0.0000 3.9037
# 5 7.4518 1.7747 14.2563 0.0000 39.4810 0.0000
# 6 0.0000 0.0000 0.0000 3.9037 0.0000 37.5763
#
#
#
# Elastic Compliance Matrix: (Units=1/GPa)
#
#
# Indices 1 2 3 4 5 6 
#
# 1 0.008026 -0.003566 -0.002453 0.000000 -0.000469 0.000000
# 2 -0.003566 0.010799 -0.001602 0.000000 0.000766 0.000000
# 3 -0.002453 -0.001602 0.011625 0.000000 -0.003663 0.000000
# 4 0.000000 0.000000 0.000000 0.083058 0.000000 -0.008629
# 5 -0.000469 0.000766 -0.003663 0.000000 0.026705 0.000000
# 6 0.000000 0.000000 0.000000 -0.008629 0.000000 0.027509
#
#
# Mechanical properties :
#
#
# Convention : Reuss Voigt Hill
#
# Bulk Modulus (GPa) = 65.75727 73.41949 69.58838
# Shear Modulus (GPa) = 26.59103 34.62991 30.61047
#
# Velocity S-wave (km/s) = 3.55729 4.05955 3.81669
# Velocity P-wave (km/s) = 6.94013 7.54404 7.24838
#
# Compressibility (1/GPa) = 0.01520744
#
# Stress axis : x y z
#
# Youngs Moduli (GPa) = 124.59438 92.60258 86.02408
#
# Poissons Ratio (x) = 0.33024 0.21098
# Poissons Ratio (y) = 0.44432 0.13784
# Poissons Ratio (z) = 0.30557 0.14838
#
# Static dielectric constant tensor:
#      x y z
#    x 3.864710 0.000000 0.192510 
#    y 0.000000 3.775730 0.000000 
#    z 0.192510 0.000000 4.011520 
# 
# 
# High freq. dielectric constant tensor:
#      x y z
#    x 1.831680 0.000000 0.007850 
#    y 0.000000 1.827450 0.000000 
#    z 0.007850 0.000000 1.814300 
# 
# From -- ./inp_files/122708.got.cif
#   From: 2010.06.25/outbox.cif.g09.slc.cpg/sg12_62_cif.got.tgz:122708.got - 2010.06.28 00:19:55.
