data_PCOD8112348
_publ_section_title
;
Structure prediction by ZEFSAII (Michael W. Deem and Ramdas Pophale) SiO2 
 PCOD8112348
Probable space group: C 2/M
;
_chemical_formula_sum "Si O2"
_cell_formula_units_Z 40
_cell_length_a 15.191278
_cell_length_b 8.646183
_cell_length_c 30.283904
_cell_angle_alpha 90.000000
_cell_angle_beta 29.326938
_cell_angle_gamma 90.000000
_cell_volume 1948.240843
_symmetry_space_group_name_H-M "C 2/M"
_symmetry_group_IT_number 12
_symmetry_cell_setting 'monoclinic'
loop_
_space_group_symop_operation_xyz
x,y,z
-x,y,-z
-x,-y,-z
x,-y,z
1/2+x,1/2+y,z
1/2-x,1/2+y,-z
1/2-x,1/2-y,-z
1/2+x,1/2-y,z
loop_
_atom_site_type_symbol
_atom_site_label
_atom_site_fract_x
_atom_site_fract_y
_atom_site_fract_z
Si Si1 0.930077 0.316497 0.401037
Si Si2 0.212985 0.685757 0.715394
Si Si3 0.387581 0.833948 0.908715
Si Si4 0.191056 0.829194 0.903611
Si Si5 0.987578 0.817850 0.280498
O O1 0.936327 0.500000 0.402727
O O2 0.750000 0.250000 0.500000
O O3 0.937120 0.269059 0.347119
O O4 0.089614 0.243293 0.359999
O O5 0.206015 0.500000 0.714335
O O6 0.148661 0.759919 0.697567
O O7 0.082576 0.742711 0.813291
O O8 0.304425 0.853022 0.897412
O O9 0.417957 0.000000 0.917906
O O10 0.250000 0.750000 0.000000
O O11 0.303231 0.720306 0.821651
O O12 0.157953 0.000000 0.896467
O O13 0.000000 0.751284 0.000000
O O14 0.966711 0.000000 0.296118
#
# Coordination Sequence:
#
# PCOD8112348 Si02
#       5
#     8   8   8   8   8
#     4  12  26  45  69  97 126 164 211 265 322 381
#     4  10  22  43  65  92 128 168 211 263 317 376
#     4   9  19  33  53  83 120 159 201 249 304 365
#     4   9  19  36  56  83 119 164 210 255 309 369
#     4  11  23  41  64  94 129 168 212 260 315 380
#
# _framework density 20.531341999999999
#
# number of rings (size 3 to 8) (size 9 to 14) (size 15 to 20)
#    0.000    1.800    0.000    5.400    2.800    5.200 
#    0.000    4.000    0.000    0.000    0.000    0.000 
#    0.000    0.000    0.000    0.000    0.000    0.000 
#
# Total GULP energy -247863.904348 kJ/mol
# GULP energy per Si atom -12393.195217 kJ/mol
# Density = 2.048461 g / cm^3
# Si number density = 20.531342 Si / 1000 Ang^3
#
#
#
# Elastic Constant Matrix: (Units=GPa)
#
#
# Indices 1 2 3 4 5 6 
#
# 1 63.3955 10.2404 46.1934 -0.0014 -7.1334 -0.0040
# 2 10.2404 76.9559 25.5436 -0.0004 -5.4160 -0.0024
# 3 46.1934 25.5436 160.8644 -0.0055 -15.4661 -0.0035
# 4 -0.0014 -0.0004 -0.0055 22.5509 0.0005 -9.5048
# 5 -7.1334 -5.4160 -15.4661 0.0005 36.8852 0.0001
# 6 -0.0040 -0.0024 -0.0035 -9.5048 0.0001 27.1993
#
#
#
# Elastic Compliance Matrix: (Units=1/GPa)
#
#
# Indices 1 2 3 4 5 6 
#
# 1 0.020069 -0.000740 -0.005505 0.000001 0.001464 0.000002
# 2 -0.000740 0.013792 -0.001872 0.000000 0.001097 0.000001
# 3 -0.005505 -0.001872 0.008300 0.000002 0.002141 0.000001
# 4 0.000001 0.000000 0.000002 0.052004 0.000000 0.018173
# 5 0.001464 0.001097 0.002141 0.000000 0.028453 0.000001
# 6 0.000002 0.000001 0.000001 0.018173 0.000001 0.043116
#
#
# Mechanical properties :
#
#
# Convention : Reuss Voigt Hill
#
# Bulk Modulus (GPa) = 38.56963 51.68563 45.12763
# Shear Modulus (GPa) = 26.23155 31.94298 29.08727
#
# Velocity S-wave (km/s) = 3.57828 3.94866 3.76802
# Velocity P-wave (km/s) = 5.99155 6.78365 6.39986
#
# Compressibility (1/GPa) = 0.02592714
#
# Stress axis : x y z
#
# Youngs Moduli (GPa) = 49.82716 72.50838 120.47906
#
# Poissons Ratio (x) = 0.05369 0.66320
# Poissons Ratio (y) = 0.03689 0.22552
# Poissons Ratio (z) = 0.27428 0.13573
#
# Static dielectric constant tensor:
#      x y z
#    x 3.618010 0.000000 -0.180390 
#    y 0.000000 3.862650 -0.000010 
#    z -0.180390 -0.000010 4.785110 
# 
# 
# High freq. dielectric constant tensor:
#      x y z
#    x 1.798620 0.000000 -0.006240 
#    y 0.000000 1.803870 0.000000 
#    z -0.006240 0.000000 1.816990 
# 
# From -- ./inp_files/211459.got.cif
#   From: 2010.06.25/outbox.cif.g09.slc.cpg/sg12_106_cif.got.tgz:211459.got - 2010.06.28 00:19:55.
