data_PCOD8112825
_publ_section_title
;
Structure prediction by ZEFSAII (Michael W. Deem and Ramdas Pophale) SiO2 
 PCOD8112825
Probable space group: C 2/M
;
_chemical_formula_sum "Si O2"
_cell_formula_units_Z 56
_cell_length_a 20.917074
_cell_length_b 8.894852
_cell_length_c 29.281952
_cell_angle_alpha 90.000000
_cell_angle_beta 149.417916
_cell_angle_gamma 90.000000
_cell_volume 2771.807674
_symmetry_space_group_name_H-M "C 2/M"
_symmetry_group_IT_number 12
_symmetry_cell_setting 'monoclinic'
loop_
_space_group_symop_operation_xyz
x,y,z
-x,y,-z
-x,-y,-z
x,-y,z
1/2+x,1/2+y,z
1/2-x,1/2+y,-z
1/2-x,1/2-y,-z
1/2+x,1/2-y,z
loop_
_atom_site_type_symbol
_atom_site_label
_atom_site_fract_x
_atom_site_fract_y
_atom_site_fract_z
Si Si1 0.737697 0.671707 0.705916
Si Si2 0.588978 0.826531 0.269822
Si Si3 0.889719 0.170213 0.870991
Si Si4 0.988989 0.324352 0.545739
Si Si5 0.170437 0.175970 0.910428
Si Si6 0.676912 0.669932 0.069667
Si Si7 0.759413 0.822954 0.456256
O O1 0.694366 0.500000 0.684054
O O2 0.789828 0.704315 0.687356
O O3 0.848794 0.707084 0.809317
O O4 0.623161 0.780021 0.649452
O O5 0.473859 0.728003 0.180708
O O6 0.634893 0.784252 0.349424
O O7 0.547323 0.000000 0.241378
O O8 0.811141 0.196098 0.868991
O O9 0.868202 0.000000 0.840134
O O10 0.035485 0.200097 0.967883
O O11 0.962686 0.500000 0.535319
O O12 0.881785 0.235156 0.505729
O O13 0.000000 0.273797 0.500000
O O14 0.232203 0.214739 0.899863
O O15 0.171460 0.000000 0.919860
O O16 0.250000 0.250000 0.000000
O O17 0.717205 0.500000 0.081783
O O18 0.750000 0.750000 0.500000
O O19 0.772265 0.000000 0.470290
#
# Coordination Sequence:
#
# PCOD8112825 Si02
#       7
#     8   8   8   8   8   8   8
#     4  11  22  37  61  91 121 156 202 251 308 367
#     4  10  23  42  63  88 122 163 205 255 312 369
#     4   9  19  36  59  87 117 154 197 246 303 361
#     4  11  23  40  65  93 122 159 205 255 308 369
#     4  12  25  39  60  88 121 160 204 251 304 366
#     4   9  19  38  60  82 116 157 198 246 301 358
#     4  11  24  44  68  95 131 170 212 263 322 382
#
# _framework density 20.203423000000001
#
# number of rings (size 3 to 8) (size 9 to 14) (size 15 to 20)
#    0.000    1.571    1.429    4.286    0.000    7.429 
#    0.000    2.857    0.000    0.000    0.000    0.000 
#    0.000    0.000    0.000    0.000    0.000    0.000 
#
# Total GULP energy -347243.532978 kJ/mol
# GULP energy per Si atom -12401.554749 kJ/mol
# Density = 2.015744 g / cm^3
# Si number density = 20.203423 Si / 1000 Ang^3
#
#
#
# Elastic Constant Matrix: (Units=GPa)
#
#
# Indices 1 2 3 4 5 6 
#
# 1 95.2281 51.4957 42.4945 0.0000 -2.4956 0.0003
# 2 51.4957 104.2740 54.4669 0.0001 -0.6522 0.0003
# 3 42.4945 54.4669 99.7870 0.0006 -6.6537 0.0000
# 4 0.0000 0.0001 0.0006 34.7636 0.0001 1.7599
# 5 -2.4956 -0.6522 -6.6537 0.0001 33.4112 0.0000
# 6 0.0003 0.0003 0.0000 1.7599 0.0000 35.4517
#
#
#
# Elastic Compliance Matrix: (Units=1/GPa)
#
#
# Indices 1 2 3 4 5 6 
#
# 1 0.015067 -0.005735 -0.003262 0.000000 0.000364 0.000000
# 2 -0.005735 0.015646 -0.006188 0.000000 -0.001355 0.000000
# 3 -0.003262 -0.006188 0.014963 0.000000 0.002615 0.000000
# 4 0.000000 0.000000 0.000000 0.028838 0.000000 -0.001432
# 5 0.000364 -0.001355 0.002615 0.000000 0.030452 0.000000
# 6 0.000000 0.000000 0.000000 -0.001432 0.000000 0.028278
#
#
# Mechanical properties :
#
#
# Convention : Reuss Voigt Hill
#
# Bulk Modulus (GPa) = 65.33427 66.24482 65.78955
# Shear Modulus (GPa) = 29.63538 30.78076 30.20807
#
# Velocity S-wave (km/s) = 3.83410 3.90749 3.87097
# Velocity P-wave (km/s) = 7.21172 7.29507 7.25351
#
# Compressibility (1/GPa) = 0.01530590
#
# Stress axis : x y z
#
# Youngs Moduli (GPa) = 66.36815 63.91284 66.83305
#
# Poissons Ratio (x) = 0.36654 0.21801
# Poissons Ratio (y) = 0.38062 0.41359
# Poissons Ratio (z) = 0.21649 0.39552
#
# Static dielectric constant tensor:
#      x y z
#    x 3.811940 0.000000 -0.083980 
#    y 0.000000 3.601070 0.000000 
#    z -0.083980 0.000000 3.629130 
# 
# 
# High freq. dielectric constant tensor:
#      x y z
#    x 1.793180 0.000000 -0.002200 
#    y 0.000000 1.787540 0.000000 
#    z -0.002200 0.000000 1.793350 
# 
# From -- ./inp_files/380726.got.cif
#   From: 2010.06.25/outbox.cif.g09.slc.cpg/sg12_191_cif.got.tgz:380726.got - 2010.06.28 00:19:55.
