data_PCOD8112073
_publ_section_title
;
Structure prediction by ZEFSAII (Michael W. Deem and Ramdas Pophale) SiO2 
 PCOD8112073
Probable space group: C 2/M
;
_chemical_formula_sum "Si O2"
_cell_formula_units_Z 52
_cell_length_a 13.502255
_cell_length_b 23.794736
_cell_length_c 15.754496
_cell_angle_alpha 90.000000
_cell_angle_beta 150.762211
_cell_angle_gamma 90.000000
_cell_volume 2472.286164
_symmetry_space_group_name_H-M "C 2/M"
_symmetry_group_IT_number 12
_symmetry_cell_setting 'monoclinic'
loop_
_space_group_symop_operation_xyz
x,y,z
-x,y,-z
-x,-y,-z
x,-y,z
1/2+x,1/2+y,z
1/2-x,1/2+y,-z
1/2-x,1/2-y,-z
1/2+x,1/2-y,z
loop_
_atom_site_type_symbol
_atom_site_label
_atom_site_fract_x
_atom_site_fract_y
_atom_site_fract_z
Si Si1 0.512634 0.190137 0.291816
Si Si2 0.591032 0.374825 0.975365
Si Si3 0.574816 0.000000 0.280452
Si Si4 0.436236 0.883409 0.818288
Si Si5 0.401237 0.313273 0.679569
Si Si6 0.854000 0.000000 0.972941
Si Si7 0.683561 0.615784 0.790661
Si Si8 0.485103 0.500000 0.386179
O O1 0.631661 0.157053 0.307763
O O2 0.481974 0.253775 0.237221
O O3 0.657415 0.191169 0.483833
O O4 0.303942 0.156800 0.149024
O O5 0.443688 0.341372 0.802172
O O6 0.500000 0.376957 0.000000
O O7 0.605832 0.439777 0.950715
O O8 0.577934 0.052207 0.218776
O O9 0.395678 0.000000 0.218341
O O10 0.791313 0.000000 0.489705
O O11 0.288106 0.864263 0.782576
O O12 0.669857 0.873446 0.019345
O O13 0.482379 0.349751 0.661033
O O14 0.000000 0.000000 0.000000
O O15 0.637805 0.551072 0.743795
O O16 0.500000 0.500000 0.500000
#
# Coordination Sequence:
#
# PCOD8112073 Si02
#       8
#     8   8   4   8   8   4   8   4
#     4  11  24  44  66  97 131 173 228 270 331 393
#     4  11  24  45  70  94 134 170 225 282 335 389
#     4  12  19  36  63  89 130 172 205 273 333 388
#     4  11  22  38  64  93 131 171 217 264 330 402
#     4  11  25  43  68  96 132 176 222 276 326 399
#     4  10  22  41  67  96 119 172 225 281 335 387
#     4  11  23  38  60  96 132 172 214 264 328 405
#     4  12  23  35  59 101 140 174 217 259 336 416
#
# _framework density 21.033163999999999
#
# number of rings (size 3 to 8) (size 9 to 14) (size 15 to 20)
#    0.000    0.923    4.615    1.846    0.000    3.692 
#    0.000    4.615    0.000    2.769    0.000    0.000 
#    0.000    0.000    0.000    0.000    0.000    0.000 
#
# Total GULP energy -322134.338222 kJ/mol
# GULP energy per Si atom -12389.782239 kJ/mol
# Density = 2.098529 g / cm^3
# Si number density = 21.033164 Si / 1000 Ang^3
#
#
#
# Elastic Constant Matrix: (Units=GPa)
#
#
# Indices 1 2 3 4 5 6 
#
# 1 66.3766 29.9595 32.8641 0.0000 -1.5942 0.0000
# 2 29.9595 154.4449 28.7431 0.0000 -16.5208 0.0000
# 3 32.8641 28.7431 100.3442 0.0000 -4.1987 0.0000
# 4 0.0000 0.0000 0.0000 24.0443 0.0000 1.8930
# 5 -1.5942 -16.5208 -4.1987 0.0000 22.4757 -0.0001
# 6 0.0000 0.0000 0.0000 1.8930 -0.0001 25.0374
#
#
#
# Elastic Compliance Matrix: (Units=1/GPa)
#
#
# Indices 1 2 3 4 5 6 
#
# 1 0.019031 -0.002861 -0.005488 0.000000 -0.001778 0.000000
# 2 -0.002861 0.007800 -0.001074 0.000000 0.005330 0.000000
# 3 -0.005488 -0.001074 0.012116 0.000000 0.001084 0.000000
# 4 0.000000 0.000000 0.000000 0.041839 0.000000 -0.003163
# 5 -0.001778 0.005330 0.001084 0.000000 0.048487 0.000000
# 6 0.000000 0.000000 0.000000 -0.003163 0.000000 0.040179
#
#
# Mechanical properties :
#
#
# Convention : Reuss Voigt Hill
#
# Bulk Modulus (GPa) = 49.74774 56.03324 52.89049
# Shear Modulus (GPa) = 25.64126 29.61807 27.62967
#
# Velocity S-wave (km/s) = 3.49533 3.75662 3.62833
# Velocity P-wave (km/s) = 6.32402 6.74644 6.53864
#
# Compressibility (1/GPa) = 0.02010142
#
# Stress axis : x y z
#
# Youngs Moduli (GPa) = 52.54538 128.20950 82.53412
#
# Poissons Ratio (x) = 0.36675 0.45295
# Poissons Ratio (y) = 0.15031 0.08867
# Poissons Ratio (z) = 0.28837 0.13774
#
# Static dielectric constant tensor:
#      x y z
#    x 3.817460 0.000000 0.178330 
#    y 0.000000 4.016610 0.000000 
#    z 0.178330 0.000000 3.875580 
# 
# 
# High freq. dielectric constant tensor:
#      x y z
#    x 1.815880 0.000000 0.012900 
#    y 0.000000 1.839770 0.000000 
#    z 0.012900 0.000000 1.824720 
# 
# From -- ./inp_files/272249.got.cif
#   From: 2010.06.25/outbox.cif.g09.slc.cpg/sg12_137_cif.got.tgz:272249.got - 2010.06.28 00:19:55.
