data_PCOD8112539
_publ_section_title
;
Structure prediction by ZEFSAII (Michael W. Deem and Ramdas Pophale) SiO2 
 PCOD8112539
Probable space group: C 2/M
;
_chemical_formula_sum "Si O2"
_cell_formula_units_Z 56
_cell_length_a 29.163235
_cell_length_b 21.608255
_cell_length_c 8.855041
_cell_angle_alpha 90.000000
_cell_angle_beta 29.304517
_cell_angle_gamma 90.000000
_cell_volume 2731.211729
_symmetry_space_group_name_H-M "C 2/M"
_symmetry_group_IT_number 12
_symmetry_cell_setting 'monoclinic'
loop_
_space_group_symop_operation_xyz
x,y,z
-x,y,-z
-x,-y,-z
x,-y,z
1/2+x,1/2+y,z
1/2-x,1/2+y,-z
1/2-x,1/2-y,-z
1/2+x,1/2-y,z
loop_
_atom_site_type_symbol
_atom_site_label
_atom_site_fract_x
_atom_site_fract_y
_atom_site_fract_z
Si Si1 0.490368 0.805085 0.701204
Si Si2 0.040482 0.163422 0.163744
Si Si3 0.673702 0.366654 0.212240
Si Si4 0.327087 0.213033 0.637412
Si Si5 0.184110 0.069586 0.891512
Si Si6 0.318942 0.146801 0.343816
Si Si7 0.668060 0.661828 0.533605
O O1 0.500000 0.823999 0.500000
O O2 0.445621 0.736261 0.840540
O O3 0.587799 0.813502 0.508150
O O4 0.421506 0.855638 0.976228
O O5 0.936300 0.143365 0.497404
O O6 0.106793 0.121534 0.078080
O O7 0.071630 0.150445 0.900666
O O8 0.691043 0.390098 0.337927
O O9 0.730841 0.303560 0.000797
O O10 0.709284 0.420723 0.996392
O O11 0.322670 0.188461 0.480251
O O12 0.347442 0.284878 0.549053
O O13 0.275353 0.080658 0.521547
O O14 0.147879 0.000000 0.967114
O O15 0.251242 0.176141 0.410080
#
# Coordination Sequence:
#
# PCOD8112539 Si02
#       7
#     8   8   8   8   8   8   8
#     4  12  23  35  59  98 135 161 198 250 311 391
#     4  11  23  35  58  91 127 165 204 246 314 375
#     4  11  22  35  58  89 120 165 207 252 308 364
#     4  11  22  36  57  87 134 168 196 244 309 383
#     4  10  24  45  64  85 119 167 224 268 307 363
#     4  10  23  38  63  89 125 167 208 250 318 370
#     4  11  21  36  54  87 128 163 198 249 300 378
#
# _framework density 20.503720999999999
#
# number of rings (size 3 to 8) (size 9 to 14) (size 15 to 20)
#    0.000    1.143    2.857    3.857    6.000    1.143 
#    0.000    2.857    0.000   11.571    0.000    0.000 
#    0.000    0.000    0.000    0.000    0.000    0.000 
#
# Total GULP energy -346905.087845 kJ/mol
# GULP energy per Si atom -12389.467423 kJ/mol
# Density = 2.045705 g / cm^3
# Si number density = 20.503721 Si / 1000 Ang^3
#
#
#
# Elastic Constant Matrix: (Units=GPa)
#
#
# Indices 1 2 3 4 5 6 
#
# 1 135.2698 20.6291 67.3448 0.0000 16.9852 0.0000
# 2 20.6291 58.2761 27.8897 0.0000 -1.3641 0.0000
# 3 67.3448 27.8897 159.2150 0.0000 21.2075 0.0000
# 4 0.0000 0.0000 0.0000 11.0341 0.0000 1.1078
# 5 16.9852 -1.3641 21.2075 0.0000 47.3058 0.0000
# 6 0.0000 0.0000 0.0000 1.1078 0.0000 7.4746
#
#
#
# Elastic Compliance Matrix: (Units=1/GPa)
#
#
# Indices 1 2 3 4 5 6 
#
# 1 0.009658 -0.001783 -0.003514 0.000000 -0.001944 0.000000
# 2 -0.001783 0.019265 -0.002956 0.000000 0.002521 0.000000
# 3 -0.003514 -0.002956 0.008645 0.000000 -0.002699 0.000000
# 4 0.000000 0.000000 0.000000 0.091997 0.000000 -0.013635
# 5 -0.001944 0.002521 -0.002699 0.000000 0.023120 0.000000
# 6 0.000000 0.000000 0.000000 -0.013635 0.000000 0.135808
#
#
# Mechanical properties :
#
#
# Convention : Reuss Voigt Hill
#
# Bulk Modulus (GPa) = 47.48061 64.94312 56.21186
# Shear Modulus (GPa) = 16.02473 28.95603 22.49038
#
# Velocity S-wave (km/s) = 2.79866 3.76205 3.31553
# Velocity P-wave (km/s) = 5.80092 7.11430 6.49091
#
# Compressibility (1/GPa) = 0.02106123
#
# Stress axis : x y z
#
# Youngs Moduli (GPa) = 103.54095 51.90872 115.68017
#
# Poissons Ratio (x) = 0.09253 0.40650
# Poissons Ratio (y) = 0.18457 0.34199
# Poissons Ratio (z) = 0.36384 0.15346
#
# Static dielectric constant tensor:
#      x y z
#    x 3.979010 0.000000 0.319410 
#    y 0.000000 3.200860 0.000000 
#    z 0.319410 0.000000 4.115760 
# 
# 
# High freq. dielectric constant tensor:
#      x y z
#    x 1.826010 0.000000 0.025210 
#    y 0.000000 1.727110 0.000000 
#    z 0.025210 0.000000 1.826140 
# 
# From -- ./inp_files/113357.got.cif
#   From: 2010.06.25/outbox.cif.g09.slc.cpg/sg12_57_cif.got.tgz:113357.got - 2010.06.28 00:19:55.
