data_PCOD8112287
_publ_section_title
;
Structure prediction by ZEFSAII (Michael W. Deem and Ramdas Pophale) SiO2 
 PCOD8112287
Probable space group: C 2/M
;
_chemical_formula_sum "Si O2"
_cell_formula_units_Z 48
_cell_length_a 15.150432
_cell_length_b 24.118108
_cell_length_c 10.932475
_cell_angle_alpha 90.000000
_cell_angle_beta 34.696169
_cell_angle_gamma 90.000000
_cell_volume 2273.894797
_symmetry_space_group_name_H-M "C 2/M"
_symmetry_group_IT_number 12
_symmetry_cell_setting 'monoclinic'
loop_
_space_group_symop_operation_xyz
x,y,z
-x,y,-z
-x,-y,-z
x,-y,z
1/2+x,1/2+y,z
1/2-x,1/2+y,-z
1/2-x,1/2-y,-z
1/2+x,1/2-y,z
loop_
_atom_site_type_symbol
_atom_site_label
_atom_site_fract_x
_atom_site_fract_y
_atom_site_fract_z
Si Si1 0.373976 0.500000 0.032151
Si Si2 0.365968 0.500000 0.752148
Si Si3 0.129715 0.303523 0.508224
Si Si4 0.329354 0.617119 0.145145
Si Si5 0.716301 0.812033 0.068219
Si Si6 0.835350 0.702576 0.247507
Si Si7 0.315880 0.617400 0.730643
O O1 0.427451 0.500000 0.825006
O O2 0.500000 0.500000 0.000000
O O3 0.272991 0.555946 0.164483
O O4 0.500000 0.500000 0.500000
O O5 0.268977 0.555436 0.828278
O O6 0.217683 0.360660 0.377935
O O7 0.134224 0.292682 0.645387
O O8 0.210677 0.250468 0.348844
O O9 0.951246 0.313908 0.674389
O O10 0.336307 0.660084 0.024896
O O11 0.500000 0.611358 0.000000
O O12 0.750000 0.750000 0.000000
O O13 0.734723 0.843012 0.920440
O O14 0.768122 0.640594 0.295872
O O15 0.000000 0.715690 0.000000
O O16 0.500000 0.623547 0.500000
#
# Coordination Sequence:
#
# PCOD8112287 Si02
#       7
#     4   4   8   8   8   8   8
#     4  10  22  44  70  99 136 178 233 289 338 403
#     4  10  22  42  68  98 132 182 231 284 341 409
#     4  11  25  41  66  96 137 174 219 273 339 407
#     4  11  25  42  69  98 132 173 226 276 333 398
#     4  12  24  41  66  96 132 172 217 268 336 406
#     4  11  23  43  65  97 135 175 220 277 337 402
#     4  11  23  40  67  94 130 172 223 274 332 398
#
# _framework density 21.109155999999999
#
# number of rings (size 3 to 8) (size 9 to 14) (size 15 to 20)
#    0.000    1.000    3.333    3.000    7.000    1.333 
#    0.000    2.917    0.000    0.000    0.000    0.000 
#    0.000    0.000    0.000    0.000    0.000    0.000 
#
# Total GULP energy -297349.829449 kJ/mol
# GULP energy per Si atom -12389.576227 kJ/mol
# Density = 2.106111 g / cm^3
# Si number density = 21.109156 Si / 1000 Ang^3
#
#
#
# Elastic Constant Matrix: (Units=GPa)
#
#
# Indices 1 2 3 4 5 6 
#
# 1 58.0051 42.6305 14.3090 -0.0001 3.8004 0.0000
# 2 42.6305 200.6077 58.8662 -0.0003 3.2686 0.0000
# 3 14.3090 58.8662 124.8031 -0.0030 3.7265 0.0010
# 4 -0.0001 -0.0003 -0.0030 27.7827 0.0009 0.6866
# 5 3.8004 3.2686 3.7265 0.0009 32.2288 -0.0002
# 6 0.0000 0.0000 0.0010 0.6866 -0.0002 32.1599
#
#
#
# Elastic Compliance Matrix: (Units=1/GPa)
#
#
# Indices 1 2 3 4 5 6 
#
# 1 0.020566 -0.004252 -0.000294 0.000000 -0.001960 0.000000
# 2 -0.004252 0.006667 -0.002661 0.000000 0.000133 0.000000
# 3 -0.000294 -0.002661 0.009325 0.000001 -0.000774 0.000000
# 4 0.000000 0.000000 0.000001 0.036013 -0.000001 -0.000769
# 5 -0.001960 0.000133 -0.000774 -0.000001 0.031335 0.000000
# 6 0.000000 0.000000 0.000000 -0.000769 0.000000 0.031111
#
#
# Mechanical properties :
#
#
# Convention : Reuss Voigt Hill
#
# Bulk Modulus (GPa) = 45.16028 68.33637 56.74833
# Shear Modulus (GPa) = 31.88531 36.27497 34.08014
#
# Velocity S-wave (km/s) = 3.89073 4.14991 4.02241
# Velocity P-wave (km/s) = 6.45165 7.44349 6.96525
#
# Compressibility (1/GPa) = 0.02214335
#
# Stress axis : x y z
#
# Youngs Moduli (GPa) = 48.62416 149.98755 107.24313
#
# Poissons Ratio (x) = 0.63779 0.03150
# Poissons Ratio (y) = 0.20676 0.28539
# Poissons Ratio (z) = 0.01428 0.39914
#
# Static dielectric constant tensor:
#      x y z
#    x 4.070700 0.000010 0.236710 
#    y 0.000010 4.295280 0.000000 
#    z 0.236710 0.000000 3.776420 
# 
# 
# High freq. dielectric constant tensor:
#      x y z
#    x 1.834740 0.000000 0.023930 
#    y 0.000000 1.839560 0.000000 
#    z 0.023930 0.000000 1.819970 
# 
# From -- ./inp_files/149684.got.cif
#   From: 2010.06.25/outbox.cif.g09.slc.cpg/sg12_75_cif.got.tgz:149684.got - 2010.06.28 00:19:55.
