data_PCOD8112343
_publ_section_title
;
Structure prediction by ZEFSAII (Michael W. Deem and Ramdas Pophale) SiO2 
 PCOD8112343
Probable space group: C 2/M
;
_chemical_formula_sum "Si O2"
_cell_formula_units_Z 40
_cell_length_a 24.190201
_cell_length_b 9.015002
_cell_length_c 9.427364
_cell_angle_alpha 90.000000
_cell_angle_beta 101.692538
_cell_angle_gamma 90.000000
_cell_volume 2013.208760
_symmetry_space_group_name_H-M "C 2/M"
_symmetry_group_IT_number 12
_symmetry_cell_setting 'monoclinic'
loop_
_space_group_symop_operation_xyz
x,y,z
-x,y,-z
-x,-y,-z
x,-y,z
1/2+x,1/2+y,z
1/2-x,1/2+y,-z
1/2-x,1/2-y,-z
1/2+x,1/2-y,z
loop_
_atom_site_type_symbol
_atom_site_label
_atom_site_fract_x
_atom_site_fract_y
_atom_site_fract_z
Si Si1 0.603213 0.826013 0.222991
Si Si2 0.227798 0.334060 0.354746
Si Si3 0.411818 0.174687 0.108035
Si Si4 0.991430 0.174713 0.660176
Si Si5 0.796730 0.168919 0.114848
O O1 0.668398 0.772410 0.263268
O O2 0.569908 0.730951 0.322745
O O3 0.595996 0.000000 0.252220
O O4 0.580043 0.789902 0.053951
O O5 0.216346 0.500000 0.398700
O O6 0.250000 0.250000 0.500000
O O7 0.277101 0.325770 0.266050
O O8 0.463627 0.240335 0.220915
O O9 0.355378 0.247234 0.137599
O O10 0.408031 0.000000 0.132188
O O11 0.000000 0.214995 0.500000
O O12 0.997244 0.000000 0.688811
O O13 0.803457 0.000000 0.064948
O O14 0.750000 0.250000 0.000000
#
# Coordination Sequence:
#
# PCOD8112343 Si02
#       5
#     8   8   8   8   8
#     4  10  22  43  65  90 123 162 207 255 305 365
#     4  10  23  41  61  91 129 164 204 251 304 362
#     4  11  23  42  67  93 123 162 207 256 307 365
#     4  11  26  44  62  91 126 160 203 258 312 366
#     4  11  22  40  64  94 129 163 204 252 303 365
#
# _framework density 19.868779
#
# number of rings (size 3 to 8) (size 9 to 14) (size 15 to 20)
#    0.000    1.400    2.000    2.400    2.800    8.000 
#    0.000    0.000    0.000    0.000    0.000    0.000 
#    0.000    0.000    0.000    0.000    0.000    0.000 
#
# Total GULP energy -248063.023827 kJ/mol
# GULP energy per Si atom -12403.151191 kJ/mol
# Density = 1.982356 g / cm^3
# Si number density = 19.868779 Si / 1000 Ang^3
#
#
#
# Elastic Constant Matrix: (Units=GPa)
#
#
# Indices 1 2 3 4 5 6 
#
# 1 105.0746 46.8164 34.3509 0.0000 -13.3985 0.0000
# 2 46.8164 104.1093 62.8263 0.0000 -7.3438 0.0000
# 3 34.3509 62.8263 120.6259 0.0000 -0.6522 0.0000
# 4 0.0000 0.0000 0.0000 38.3576 0.0000 1.8084
# 5 -13.3985 -7.3438 -0.6522 0.0000 33.0457 0.0000
# 6 0.0000 0.0000 0.0000 1.8084 0.0000 41.3528
#
#
#
# Elastic Compliance Matrix: (Units=1/GPa)
#
#
# Indices 1 2 3 4 5 6 
#
# 1 0.012462 -0.004657 -0.001101 0.000000 0.003996 0.000000
# 2 -0.004657 0.016046 -0.007023 0.000000 0.001539 0.000000
# 3 -0.001101 -0.007023 0.012252 0.000000 -0.001765 0.000000
# 4 0.000000 0.000000 0.000000 0.026124 0.000000 -0.001142
# 5 0.003996 0.001539 -0.001765 0.000000 0.032188 0.000000
# 6 0.000000 0.000000 0.000000 -0.001142 0.000000 0.024232
#
#
# Mechanical properties :
#
#
# Convention : Reuss Voigt Hill
#
# Bulk Modulus (GPa) = 65.80374 68.64410 67.22392
# Shear Modulus (GPa) = 32.48153 34.93897 33.71025
#
# Velocity S-wave (km/s) = 4.04766 4.19798 4.12350
# Velocity P-wave (km/s) = 7.41861 7.62372 7.52186
#
# Compressibility (1/GPa) = 0.01519670
#
# Stress axis : x y z
#
# Youngs Moduli (GPa) = 80.24553 62.32002 81.61955
#
# Poissons Ratio (x) = 0.29024 0.08990
# Poissons Ratio (y) = 0.37373 0.57320
# Poissons Ratio (z) = 0.08839 0.43766
#
# Static dielectric constant tensor:
#      x y z
#    x 5.294600 0.000000 0.289890 
#    y 0.000000 3.721150 0.000000 
#    z 0.289890 0.000000 3.791950 
# 
# 
# High freq. dielectric constant tensor:
#      x y z
#    x 1.790660 0.000000 -0.000790 
#    y 0.000000 1.780970 0.000000 
#    z -0.000790 0.000000 1.780150 
# 
# From -- ./inp_files/92709.got.cif
#   From: 2010.06.25/outbox.cif.g09.slc.cpg/sg12_47_cif.got.tgz:92709.got - 2010.06.28 00:19:55.
