data_PCOD8112669
_publ_section_title
;
Structure prediction by ZEFSAII (Michael W. Deem and Ramdas Pophale) SiO2 
 PCOD8112669
Probable space group: C 2/M
;
_chemical_formula_sum "Si O2"
_cell_formula_units_Z 48
_cell_length_a 26.015513
_cell_length_b 16.847825
_cell_length_c 11.928772
_cell_angle_alpha 90.000000
_cell_angle_beta 24.987013
_cell_angle_gamma 90.000000
_cell_volume 2208.559312
_symmetry_space_group_name_H-M "C 2/M"
_symmetry_group_IT_number 12
_symmetry_cell_setting 'monoclinic'
loop_
_space_group_symop_operation_xyz
x,y,z
-x,y,-z
-x,-y,-z
x,-y,z
1/2+x,1/2+y,z
1/2-x,1/2+y,-z
1/2-x,1/2-y,-z
1/2+x,1/2-y,z
loop_
_atom_site_type_symbol
_atom_site_label
_atom_site_fract_x
_atom_site_fract_y
_atom_site_fract_z
Si Si1 0.350475 0.157585 0.221948
Si Si2 0.060880 0.588593 0.175117
Si Si3 0.107420 0.181099 0.986620
Si Si4 0.157281 0.408396 0.533216
Si Si5 0.877329 0.263624 0.811175
Si Si6 0.593095 0.589867 0.714537
O O1 0.382389 0.246359 0.121278
O O2 0.406539 0.139543 0.235989
O O3 0.207125 0.142867 0.526044
O O4 0.380111 0.095713 0.064664
O O5 0.080470 0.500000 0.182107
O O6 0.115548 0.645125 0.162000
O O7 0.918502 0.607872 0.431474
O O8 0.205782 0.115422 0.760934
O O9 0.128608 0.208170 0.070212
O O10 0.975343 0.139184 0.247791
O O11 0.156305 0.500000 0.570354
O O12 0.000000 0.242743 0.500000
O O13 0.750000 0.250000 0.000000
O O14 0.627755 0.500000 0.607936
O O15 0.500000 0.586765 0.000000
#
# Coordination Sequence:
#
# PCOD8112669 Si02
#       6
#     8   8   8   8   8   8
#     4  11  23  37  63  95 138 173 209 249 306 388
#     4  10  23  40  67  95 125 163 209 262 321 386
#     4  11  25  38  66  92 127 168 221 262 318 386
#     4  11  21  39  63  97 136 170 203 250 312 388
#     4  11  26  47  69  91 123 163 218 283 336 376
#     4  11  23  39  61  94 136 177 208 253 315 387
#
# _framework density 21.733625
#
# number of rings (size 3 to 8) (size 9 to 14) (size 15 to 20)
#    0.000    1.167    1.667    4.000    9.333    1.667 
#    0.000    1.667    0.000    2.500    0.000    0.000 
#    0.000    0.000    0.000    0.000    0.000    0.000 
#
# Total GULP energy -297528.142325 kJ/mol
# GULP energy per Si atom -12397.005930 kJ/mol
# Density = 2.168416 g / cm^3
# Si number density = 21.733625 Si / 1000 Ang^3
#
#
#
# Elastic Constant Matrix: (Units=GPa)
#
#
# Indices 1 2 3 4 5 6 
#
# 1 115.4793 59.2573 6.0876 0.0000 -3.7978 0.0000
# 2 59.2573 98.0928 19.0698 0.0000 -13.5966 0.0000
# 3 6.0876 19.0698 52.2010 0.0000 6.0879 0.0000
# 4 0.0000 0.0000 0.0000 18.1485 0.0000 -13.6838
# 5 -3.7978 -13.5966 6.0879 0.0000 26.4469 0.0000
# 6 0.0000 0.0000 0.0000 -13.6838 0.0000 21.6484
#
#
#
# Elastic Compliance Matrix: (Units=1/GPa)
#
#
# Indices 1 2 3 4 5 6 
#
# 1 0.012852 -0.008567 0.001983 0.000000 -0.003015 0.000000
# 2 -0.008567 0.017996 -0.006690 0.000000 0.009562 0.000000
# 3 0.001983 -0.006690 0.022337 0.000000 -0.008297 0.000000
# 4 0.000000 0.000000 0.000000 0.105274 0.000000 0.066543
# 5 -0.003015 0.009562 -0.008297 0.000000 0.044204 0.000000
# 6 0.000000 0.000000 0.000000 0.066543 0.000000 0.088255
#
#
# Mechanical properties :
#
#
# Convention : Reuss Voigt Hill
#
# Bulk Modulus (GPa) = 37.54400 48.28916 42.91658
# Shear Modulus (GPa) = 15.32118 25.33931 20.33025
#
# Velocity S-wave (km/s) = 2.65797 3.41824 3.06180
# Velocity P-wave (km/s) = 5.17029 6.15191 5.68234
#
# Compressibility (1/GPa) = 0.02663542
#
# Stress axis : x y z
#
# Youngs Moduli (GPa) = 77.80829 55.56860 44.76858
#
# Poissons Ratio (x) = 0.47607 -0.08876
# Poissons Ratio (y) = 0.66660 0.29951
# Poissons Ratio (z) = -0.15426 0.37176
#
# Static dielectric constant tensor:
#      x y z
#    x 4.027040 0.000000 -0.308590 
#    y 0.000000 3.982080 0.000000 
#    z -0.308590 0.000000 4.199350 
# 
# 
# High freq. dielectric constant tensor:
#      x y z
#    x 1.846350 0.000000 -0.018630 
#    y 0.000000 1.858980 0.000000 
#    z -0.018630 0.000000 1.862980 
# 
# From -- ./inp_files/177299.got.cif
#   From: 2010.06.25/outbox.cif.g09.slc.cpg/sg12_89_cif.got.tgz:177299.got - 2010.06.28 00:19:55.
