data_PCOD8112556
_publ_section_title
;
Structure prediction by ZEFSAII (Michael W. Deem and Ramdas Pophale) SiO2 
 PCOD8112556
Probable space group: C 2/M
;
_chemical_formula_sum "Si O2"
_cell_formula_units_Z 56
_cell_length_a 12.069693
_cell_length_b 26.978443
_cell_length_c 14.017863
_cell_angle_alpha 90.000000
_cell_angle_beta 136.614735
_cell_angle_gamma 90.000000
_cell_volume 3135.370244
_symmetry_space_group_name_H-M "C 2/M"
_symmetry_group_IT_number 12
_symmetry_cell_setting 'monoclinic'
loop_
_space_group_symop_operation_xyz
x,y,z
-x,y,-z
-x,-y,-z
x,-y,z
1/2+x,1/2+y,z
1/2-x,1/2+y,-z
1/2-x,1/2-y,-z
1/2+x,1/2-y,z
loop_
_atom_site_type_symbol
_atom_site_label
_atom_site_fract_x
_atom_site_fract_y
_atom_site_fract_z
Si Si1 0.203344 0.693588 0.944556
Si Si2 0.420328 0.141052 0.848406
Si Si3 0.259332 0.055094 0.673807
Si Si4 0.841669 0.791713 0.842249
Si Si5 0.613375 0.299098 0.661254
Si Si6 0.993620 0.846457 0.225397
Si Si7 0.024636 0.056086 0.357645
O O1 0.231503 0.680317 0.851249
O O2 0.016853 0.683691 0.851633
O O3 0.250000 0.750000 0.000000
O O4 0.310162 0.655651 0.073031
O O5 0.417420 0.089326 0.788714
O O6 0.230009 0.153496 0.732016
O O7 0.500000 0.133247 0.000000
O O8 0.145812 0.057450 0.695862
O O9 0.163243 0.071177 0.519141
O O10 0.326548 0.000000 0.702173
O O11 0.733844 0.746887 0.738604
O O12 0.885340 0.827805 0.782055
O O13 0.000000 0.772334 0.000000
O O14 0.500000 0.294722 0.500000
O O15 0.497052 0.307399 0.680207
O O16 0.033418 0.903113 0.278501
O O17 0.053042 0.000000 0.335040
#
# Coordination Sequence:
#
# PCOD8112556 Si02
#       7
#     8   8   8   8   8   8   8
#     4  11  20  38  58  78 111 153 193 226 281 339
#     4  12  20  33  57  80 111 150 180 228 285 342
#     4   9  18  32  53  84 114 142 181 234 293 337
#     4  10  23  39  57  76 110 151 191 231 274 334
#     4  12  23  35  53  82 115 144 189 230 281 334
#     4  11  20  36  59  82 109 148 195 230 274 343
#     4   9  17  34  56  81 115 148 184 232 284 341
#
# _framework density 17.86073
#
# number of rings (size 3 to 8) (size 9 to 14) (size 15 to 20)
#    0.000    1.429    4.286    3.857    0.000    0.857 
#    2.571    0.714    0.000    4.714    0.000    2.000 
#    0.000    0.000    0.000    0.000    0.000    0.000 
#
# Total GULP energy -346997.380919 kJ/mol
# GULP energy per Si atom -12392.763604 kJ/mol
# Density = 1.782008 g / cm^3
# Si number density = 17.860730 Si / 1000 Ang^3
#
#
#
# Elastic Constant Matrix: (Units=GPa)
#
#
# Indices 1 2 3 4 5 6 
#
# 1 92.7233 42.2912 37.3263 0.0000 -17.0799 0.0000
# 2 42.2912 119.6752 55.2039 0.0000 -7.3278 0.0000
# 3 37.3263 55.2039 106.8931 0.0000 -9.2409 0.0000
# 4 0.0000 0.0000 0.0000 34.8228 0.0000 -4.6762
# 5 -17.0799 -7.3278 -9.2409 0.0000 22.7748 0.0000
# 6 0.0000 0.0000 0.0000 -4.6762 0.0000 16.5729
#
#
#
# Elastic Compliance Matrix: (Units=1/GPa)
#
#
# Indices 1 2 3 4 5 6 
#
# 1 0.015171 -0.003573 -0.002661 0.000000 0.009148 0.000000
# 2 -0.003573 0.011847 -0.004946 0.000000 -0.000875 0.000000
# 3 -0.002661 -0.004946 0.012984 0.000000 0.001681 0.000000
# 4 0.000000 0.000000 0.000000 0.029848 0.000000 0.008422
# 5 0.009148 -0.000875 0.001681 0.000000 0.051169 0.000000
# 6 0.000000 0.000000 0.000000 0.008422 0.000000 0.062716
#
#
# Mechanical properties :
#
#
# Convention : Reuss Voigt Hill
#
# Bulk Modulus (GPa) = 56.68817 65.43717 61.06267
# Shear Modulus (GPa) = 23.58761 27.13211 25.35986
#
# Velocity S-wave (km/s) = 3.63800 3.90178 3.77220
# Velocity P-wave (km/s) = 7.03240 7.55086 7.29624
#
# Compressibility (1/GPa) = 0.01764037
#
# Stress axis : x y z
#
# Youngs Moduli (GPa) = 65.91520 84.41232 77.01762
#
# Poissons Ratio (x) = 0.30164 0.20497
# Poissons Ratio (y) = 0.23554 0.38092
# Poissons Ratio (z) = 0.17542 0.41749
#
# Static dielectric constant tensor:
#      x y z
#    x 3.366350 0.000000 -0.063830 
#    y 0.000000 3.371140 0.000000 
#    z -0.063830 0.000000 3.291580 
# 
# 
# High freq. dielectric constant tensor:
#      x y z
#    x 1.670710 0.000000 -0.007540 
#    y 0.000000 1.684080 0.000000 
#    z -0.007540 0.000000 1.686730 
# 
# From -- ./inp_files/209711.got.cif
#   From: 2010.06.25/outbox.cif.g09.slc.cpg/sg12_105_cif.got.tgz:209711.got - 2010.06.28 00:19:55.
