data_PCOD8112198
_publ_section_title
;
Structure prediction by ZEFSAII (Michael W. Deem and Ramdas Pophale) SiO2 
 PCOD8112198
Probable space group: C 2/M
;
_chemical_formula_sum "Si O2"
_cell_formula_units_Z 40
_cell_length_a 8.303892
_cell_length_b 25.573649
_cell_length_c 11.964237
_cell_angle_alpha 90.000000
_cell_angle_beta 49.723250
_cell_angle_gamma 90.000000
_cell_volume 1938.404932
_symmetry_space_group_name_H-M "C 2/M"
_symmetry_group_IT_number 12
_symmetry_cell_setting 'monoclinic'
loop_
_space_group_symop_operation_xyz
x,y,z
-x,y,-z
-x,-y,-z
x,-y,z
1/2+x,1/2+y,z
1/2-x,1/2+y,-z
1/2-x,1/2-y,-z
1/2+x,1/2-y,z
loop_
_atom_site_type_symbol
_atom_site_label
_atom_site_fract_x
_atom_site_fract_y
_atom_site_fract_z
Si Si1 0.731183 0.220988 0.860833
Si Si2 0.267217 0.360609 0.649816
Si Si3 0.015633 0.140517 0.123638
Si Si4 0.267946 0.939647 0.151486
Si Si5 0.576473 0.816434 0.346896
O O1 0.709429 0.180945 0.769952
O O2 0.840389 0.191793 0.916861
O O3 0.876583 0.269353 0.759360
O O4 0.500000 0.241105 0.000000
O O5 0.500000 0.350774 0.500000
O O6 0.246491 0.417704 0.715480
O O7 0.101613 0.354440 0.623791
O O8 0.104882 0.089233 0.143195
O O9 0.783884 0.149547 0.277574
O O10 0.000000 0.129931 0.000000
O O11 0.204898 0.000000 0.183081
O O12 0.500000 0.930189 0.000000
O O13 0.500000 0.793296 0.500000
#
# Coordination Sequence:
#
# PCOD8112198 Si02
#       5
#     8   8   8   8   8
#     4  11  23  39  59  86 123 164 199 234 287 351
#     4  11  23  41  62  85 119 159 198 240 292 356
#     4  11  22  38  61  89 120 152 196 247 289 340
#     4  10  22  42  66  89 116 153 194 239 298 360
#     4  12  24  38  58  87 121 158 200 245 289 337
#
# _framework density 20.635524
#
# number of rings (size 3 to 8) (size 9 to 14) (size 15 to 20)
#    0.000    1.000    0.000    9.600    0.000    5.600 
#    0.000    4.000    0.000    2.400    0.000    0.000 
#    0.000    0.000    0.000    0.000    0.000    0.000 
#
# Total GULP energy -248106.420121 kJ/mol
# GULP energy per Si atom -12405.321006 kJ/mol
# Density = 2.058856 g / cm^3
# Si number density = 20.635524 Si / 1000 Ang^3
#
#
#
# Elastic Constant Matrix: (Units=GPa)
#
#
# Indices 1 2 3 4 5 6 
#
# 1 140.9796 63.2227 44.6415 0.0000 -5.7182 0.0000
# 2 63.2227 130.2361 42.1226 0.0000 2.0140 0.0000
# 3 44.6415 42.1226 121.4628 0.0000 -2.3101 0.0000
# 4 0.0000 0.0000 0.0000 17.0102 0.0000 0.5149
# 5 -5.7182 2.0140 -2.3101 0.0000 41.2240 0.0000
# 6 0.0000 0.0000 0.0000 0.5149 0.0000 18.0615
#
#
#
# Elastic Compliance Matrix: (Units=1/GPa)
#
#
# Indices 1 2 3 4 5 6 
#
# 1 0.009618 -0.004005 -0.002119 0.000000 0.001411 0.000000
# 2 -0.004005 0.010331 -0.002133 0.000000 -0.001180 0.000000
# 3 -0.002119 -0.002133 0.009758 0.000000 0.000357 0.000000
# 4 0.000000 0.000000 0.000000 0.058839 0.000000 -0.001677
# 5 0.001411 -0.001180 0.000357 0.000000 0.024531 0.000000
# 6 0.000000 0.000000 0.000000 -0.001677 0.000000 0.055414
#
#
# Mechanical properties :
#
#
# Convention : Reuss Voigt Hill
#
# Bulk Modulus (GPa) = 75.80255 76.96135 76.38195
# Shear Modulus (GPa) = 26.39870 31.43857 28.91863
#
# Velocity S-wave (km/s) = 3.58059 3.90746 3.74759
# Velocity P-wave (km/s) = 7.34220 7.59830 7.47135
#
# Compressibility (1/GPa) = 0.01319217
#
# Stress axis : x y z
#
# Youngs Moduli (GPa) = 103.97578 96.79713 102.47728
#
# Poissons Ratio (x) = 0.38771 0.21714
# Poissons Ratio (y) = 0.41646 0.21859
# Poissons Ratio (z) = 0.22032 0.20647
#
# Static dielectric constant tensor:
#      x y z
#    x 4.070470 0.000000 0.080710 
#    y 0.000000 3.659740 0.000000 
#    z 0.080710 0.000000 4.018310 
# 
# 
# High freq. dielectric constant tensor:
#      x y z
#    x 1.825130 0.000000 -0.000210 
#    y 0.000000 1.784120 0.000000 
#    z -0.000210 0.000000 1.821580 
# 
# From -- ./inp_files/40505.got.cif
#   From: 2010.06.25/outbox.cif.g09.slc.cpg/sg12_21_cif.got.tgz:40505.got - 2010.06.28 00:19:55.
