data_PCOD8112447
_publ_section_title
;
Structure prediction by ZEFSAII (Michael W. Deem and Ramdas Pophale) SiO2 
 PCOD8112447
Probable space group: C 2/M
;
_chemical_formula_sum "Si O2"
_cell_formula_units_Z 36
_cell_length_a 11.234529
_cell_length_b 28.608316
_cell_length_c 5.126404
_cell_angle_alpha 90.000000
_cell_angle_beta 85.748303
_cell_angle_gamma 90.000000
_cell_volume 1643.096847
_symmetry_space_group_name_H-M "C 2/M"
_symmetry_group_IT_number 12
_symmetry_cell_setting 'monoclinic'
loop_
_space_group_symop_operation_xyz
x,y,z
-x,y,-z
-x,-y,-z
x,-y,z
1/2+x,1/2+y,z
1/2-x,1/2+y,-z
1/2-x,1/2-y,-z
1/2+x,1/2-y,z
loop_
_atom_site_type_symbol
_atom_site_label
_atom_site_fract_x
_atom_site_fract_y
_atom_site_fract_z
Si Si1 0.724706 0.219268 0.256795
Si Si2 0.500000 0.172438 0.500000
Si Si3 0.214993 0.554050 0.262015
Si Si4 0.638288 0.368364 0.937545
Si Si5 0.657870 0.898017 0.776438
O O1 0.750000 0.250000 0.500000
O O2 0.587382 0.203240 0.306126
O O3 0.750000 0.250000 0.000000
O O4 0.809010 0.173913 0.241938
O O5 0.432988 0.141796 0.293625
O O6 0.238769 0.500000 0.203753
O O7 0.160852 0.561680 0.556451
O O8 0.340143 0.582701 0.222052
O O9 0.124277 0.576312 0.057833
O O10 0.712512 0.372619 0.198825
O O11 0.500000 0.359311 0.000000
#
# Coordination Sequence:
#
# PCOD8112447 Si02
#       5
#     8   4   8   8   8
#     4  12  29  46  73 108 136 194 239 301 361 429
#     4  12  24  54  75 100 158 186 243 298 376 426
#     4  10  22  44  70 108 144 184 247 289 360 432
#     4  10  25  47  72 104 150 184 244 300 366 425
#     4  10  23  43  74 100 139 197 227 291 366 420
#
# _framework density 21.909846999999999
#
# number of rings (size 3 to 8) (size 9 to 14) (size 15 to 20)
#    1.333    0.000    2.222    2.000    3.111    8.444 
#    0.000    4.444    0.000    0.000    0.000    0.000 
#    0.000    0.000    0.000    0.000    0.000    0.000 
#
# Total GULP energy -223024.411498 kJ/mol
# GULP energy per Si atom -12390.245083 kJ/mol
# Density = 2.185998 g / cm^3
# Si number density = 21.909847 Si / 1000 Ang^3
#
#
#
# Elastic Constant Matrix: (Units=GPa)
#
#
# Indices 1 2 3 4 5 6 
#
# 1 109.4663 67.7920 41.1477 0.0000 7.3114 0.0000
# 2 67.7920 177.1869 68.9083 0.0000 -1.6636 0.0000
# 3 41.1477 68.9083 155.7438 0.0000 13.3722 0.0000
# 4 0.0000 0.0000 0.0000 39.4423 0.0000 -3.4251
# 5 7.3114 -1.6636 13.3722 0.0000 32.3608 0.0000
# 6 0.0000 0.0000 0.0000 -3.4251 0.0000 23.6651
#
#
#
# Elastic Compliance Matrix: (Units=1/GPa)
#
#
# Indices 1 2 3 4 5 6 
#
# 1 0.012418 -0.004329 -0.001146 0.000000 -0.002555 0.000000
# 2 -0.004329 0.008413 -0.002799 0.000000 0.002567 0.000000
# 3 -0.001146 -0.002799 0.008245 0.000000 -0.003292 0.000000
# 4 0.000000 0.000000 0.000000 0.025676 0.000000 0.003716
# 5 -0.002555 0.002567 -0.003292 0.000000 0.032971 0.000000
# 6 0.000000 0.000000 0.000000 0.003716 0.000000 0.042794
#
#
# Mechanical properties :
#
#
# Convention : Reuss Voigt Hill
#
# Bulk Modulus (GPa) = 79.82865 88.67701 84.25283
# Shear Modulus (GPa) = 33.06000 36.73023 34.89512
#
# Velocity S-wave (km/s) = 3.88868 4.09886 3.99515
# Velocity P-wave (km/s) = 7.52839 7.93488 7.73431
#
# Compressibility (1/GPa) = 0.01252683
#
# Stress axis : x y z
#
# Youngs Moduli (GPa) = 80.52973 118.86733 121.29293
#
# Poissons Ratio (x) = 0.51462 0.13899
# Poissons Ratio (y) = 0.34864 0.33947
# Poissons Ratio (z) = 0.09228 0.33268
#
# Static dielectric constant tensor:
#      x y z
#    x 3.852670 0.000000 0.185610 
#    y 0.000000 3.997940 0.000000 
#    z 0.185610 0.000000 4.285060 
# 
# 
# High freq. dielectric constant tensor:
#      x y z
#    x 1.839030 0.000000 0.003740 
#    y 0.000000 1.868350 0.000000 
#    z 0.003740 0.000000 1.873990 
# 
# From -- ./inp_files/7604.got.cif
#   From: 2010.06.25/outbox.cif.g09.slc.cpg/sg12_4_cif.got.tgz:7604.got - 2010.06.28 00:19:55.
