data_PCOD8112327
_publ_section_title
;
Structure prediction by ZEFSAII (Michael W. Deem and Ramdas Pophale) SiO2 
 PCOD8112327
Probable space group: C 2/M
;
_chemical_formula_sum "Si O2"
_cell_formula_units_Z 48
_cell_length_a 11.717245
_cell_length_b 25.963429
_cell_length_c 14.488668
_cell_angle_alpha 90.000000
_cell_angle_beta 30.622532
_cell_angle_gamma 90.000000
_cell_volume 2245.214297
_symmetry_space_group_name_H-M "C 2/M"
_symmetry_group_IT_number 12
_symmetry_cell_setting 'monoclinic'
loop_
_space_group_symop_operation_xyz
x,y,z
-x,y,-z
-x,-y,-z
x,-y,z
1/2+x,1/2+y,z
1/2-x,1/2+y,-z
1/2-x,1/2-y,-z
1/2+x,1/2-y,z
loop_
_atom_site_type_symbol
_atom_site_label
_atom_site_fract_x
_atom_site_fract_y
_atom_site_fract_z
Si Si1 0.262978 0.152217 0.800903
Si Si2 0.992894 0.258791 0.284366
Si Si3 0.500000 0.910848 0.500000
Si Si4 0.908813 0.586550 0.863800
Si Si5 0.768347 0.000000 0.609177
Si Si6 0.301578 0.000000 0.543425
Si Si7 0.568285 0.500000 0.057818
Si Si8 0.118258 0.314190 0.013458
O O1 0.354871 0.210243 0.746986
O O2 0.302812 0.127311 0.672121
O O3 0.415021 0.121093 0.768106
O O4 0.000000 0.150772 0.000000
O O5 0.123765 0.205357 0.172201
O O6 0.750000 0.250000 0.500000
O O7 0.979851 0.287582 0.194067
O O8 0.444318 0.947227 0.450282
O O9 0.129322 0.551790 0.727232
O O10 0.695696 0.550335 0.001300
O O11 0.877436 0.624140 0.973359
O O12 0.000000 0.000000 0.500000
O O13 0.836008 0.000000 0.454620
O O14 0.166177 0.000000 0.730664
O O15 0.500000 0.500000 0.000000
O O16 0.000000 0.301401 0.000000
#
# Coordination Sequence:
#
# PCOD8112327 Si02
#       8
#     8   8   4   8   4   4   4   8
#     4  11  22  39  66  98 133 172 218 283 358 410
#     4  10  24  44  68  99 139 175 227 294 353 429
#     4  11  22  36  64 102 136 168 224 287 358 422
#     4  10  22  43  61  92 132 177 229 278 343 421
#     4  11  24  44  65  89 144 187 240 291 340 426
#     4  11  22  37  60 100 137 174 228 287 352 421
#     4  11  22  37  69  98 135 174 216 289 362 415
#     4  10  23  45  68  95 133 183 235 284 349 419
#
# _framework density 21.378805
#
# number of rings (size 3 to 8) (size 9 to 14) (size 15 to 20)
#    0.000    1.500    1.667    3.000    2.333    8.667 
#    6.000    2.917    0.000    0.000    0.000    0.000 
#    0.000    0.000    0.000    0.000    0.000    0.000 
#
# Total GULP energy -297399.784708 kJ/mol
# GULP energy per Si atom -12391.657696 kJ/mol
# Density = 2.133015 g / cm^3
# Si number density = 21.378805 Si / 1000 Ang^3
#
#
#
# Elastic Constant Matrix: (Units=GPa)
#
#
# Indices 1 2 3 4 5 6 
#
# 1 130.1329 54.2467 54.6970 -0.0026 -5.6396 -0.0189
# 2 54.2467 132.0457 66.0615 -0.0005 -4.6638 -0.0035
# 3 54.6970 66.0615 170.2748 -0.0048 -5.8884 -0.0207
# 4 -0.0026 -0.0005 -0.0048 41.3293 0.0051 16.2344
# 5 -5.6396 -4.6638 -5.8884 0.0051 34.1107 0.0188
# 6 -0.0189 -0.0035 -0.0207 16.2344 0.0188 34.7377
#
#
#
# Elastic Compliance Matrix: (Units=1/GPa)
#
#
# Indices 1 2 3 4 5 6 
#
# 1 0.009800 -0.003022 -0.001945 -0.000001 0.000871 0.000004
# 2 -0.003022 0.010344 -0.003029 0.000001 0.000392 -0.000003
# 3 -0.001945 -0.003029 0.007693 -0.000001 0.000592 0.000003
# 4 -0.000001 0.000001 -0.000001 0.029636 0.000003 -0.013850
# 5 0.000871 0.000392 0.000592 0.000003 0.029616 -0.000017
# 6 0.000004 -0.000003 0.000003 -0.013850 -0.000017 0.035260
#
#
# Mechanical properties :
#
#
# Convention : Reuss Voigt Hill
#
# Bulk Modulus (GPa) = 84.42677 86.94041 85.68359
# Shear Modulus (GPa) = 35.13965 39.19875 37.16920
#
# Velocity S-wave (km/s) = 4.05862 4.28662 4.17418
# Velocity P-wave (km/s) = 7.84473 8.07806 7.96225
#
# Compressibility (1/GPa) = 0.01184458
#
# Stress axis : x y z
#
# Youngs Moduli (GPa) = 102.04561 96.67753 129.98256
#
# Poissons Ratio (x) = 0.29214 0.25287
# Poissons Ratio (y) = 0.30836 0.39369
# Poissons Ratio (z) = 0.19852 0.29282
#
# Static dielectric constant tensor:
#      x y z
#    x 4.662530 0.000700 -1.363290 
#    y 0.000700 4.337950 -0.001090 
#    z -1.363290 -0.001090 6.136260 
# 
# 
# High freq. dielectric constant tensor:
#      x y z
#    x 1.825030 0.000000 0.007000 
#    y 0.000000 1.856750 0.000000 
#    z 0.007000 0.000000 1.833490 
# 
# From -- ./inp_files/209358.got.cif
#   From: 2010.06.25/outbox.cif.g09.slc.cpg/sg12_105_cif.got.tgz:209358.got - 2010.06.28 00:19:55.
