data_PCOD8112291
_publ_section_title
;
Structure prediction by ZEFSAII (Michael W. Deem and Ramdas Pophale) SiO2 
 PCOD8112291
Probable space group: C 2/M
;
_chemical_formula_sum "Si O2"
_cell_formula_units_Z 64
_cell_length_a 9.588846
_cell_length_b 29.556288
_cell_length_c 18.328785
_cell_angle_alpha 90.000000
_cell_angle_beta 36.455820
_cell_angle_gamma 90.000000
_cell_volume 3086.630051
_symmetry_space_group_name_H-M "C 2/M"
_symmetry_group_IT_number 12
_symmetry_cell_setting 'monoclinic'
loop_
_space_group_symop_operation_xyz
x,y,z
-x,y,-z
-x,-y,-z
x,-y,z
1/2+x,1/2+y,z
1/2-x,1/2+y,-z
1/2-x,1/2-y,-z
1/2+x,1/2-y,z
loop_
_atom_site_type_symbol
_atom_site_label
_atom_site_fract_x
_atom_site_fract_y
_atom_site_fract_z
Si Si1 0.904264 0.762370 0.366988
Si Si2 0.603431 0.741935 0.786788
Si Si3 0.565674 0.834500 0.128597
Si Si4 0.644522 0.391170 0.268171
Si Si5 0.098073 0.375538 0.265486
Si Si6 0.188898 0.354134 0.481851
Si Si7 0.255865 0.552395 0.643458
Si Si8 0.930759 0.139085 0.861035
O O1 0.750000 0.750000 0.500000
O O2 0.805369 0.743052 0.332337
O O3 0.871486 0.816276 0.376655
O O4 0.169562 0.744107 0.257744
O O5 0.417417 0.780211 0.892001
O O6 0.488236 0.692613 0.829033
O O7 0.292964 0.848641 0.237003
O O8 0.661192 0.845538 0.168940
O O9 0.713924 0.863245 0.007886
O O10 0.374234 0.394703 0.409658
O O11 0.746487 0.435051 0.268397
O O12 0.651072 0.387929 0.177113
O O13 0.343629 0.387329 0.201877
O O14 0.940625 0.344619 0.387072
O O15 0.957743 0.421042 0.305832
O O16 0.000000 0.364990 0.500000
O O17 0.500000 0.564567 0.500000
O O18 0.196265 0.500000 0.661035
#
# Coordination Sequence:
#
# PCOD8112291 Si02
#       8
#     8   8   8   8   8   8   8   8
#     4  12  23  33  51  79 121 164 208 262 309 359
#     4  12  22  38  52  84 120 167 218 264 297 337
#     4  11  24  39  59  87 122 173 224 255 294 347
#     4  11  22  40  65  88 121 162 201 252 309 373
#     4  11  23  38  65  90 124 161 199 256 314 371
#     4  12  20  38  59  87 124 162 202 250 318 370
#     4  10  22  42  69 100 128 152 189 250 322 399
#     4  12  23  41  60  86 127 171 216 256 299 353
#
# _framework density 20.734587000000001
#
# number of rings (size 3 to 8) (size 9 to 14) (size 15 to 20)
#    0.000    0.625    5.000    4.500    0.000    0.000 
#    0.000    4.375    0.000   14.250    0.000    0.000 
#    0.000    0.000    0.000    0.000    0.000    0.000 
#
# Total GULP energy -396458.668447 kJ/mol
# GULP energy per Si atom -12389.333389 kJ/mol
# Density = 2.068739 g / cm^3
# Si number density = 20.734587 Si / 1000 Ang^3
#
#
#
# Elastic Constant Matrix: (Units=GPa)
#
#
# Indices 1 2 3 4 5 6 
#
# 1 129.1600 35.6398 32.6553 0.0000 9.4304 0.0000
# 2 35.6398 79.2503 17.1736 0.0000 -2.2075 0.0000
# 3 32.6553 17.1736 92.2808 0.0000 13.2910 0.0000
# 4 0.0000 0.0000 0.0000 23.7060 0.0000 0.4473
# 5 9.4304 -2.2075 13.2910 0.0000 29.7387 0.0000
# 6 0.0000 0.0000 0.0000 0.4473 0.0000 20.9361
#
#
#
# Elastic Compliance Matrix: (Units=1/GPa)
#
#
# Indices 1 2 3 4 5 6 
#
# 1 0.009564 -0.003858 -0.002339 0.000000 -0.002274 0.000000
# 2 -0.003858 0.014842 -0.001851 0.000000 0.003152 0.000000
# 3 -0.002339 -0.001851 0.012742 0.000000 -0.005090 0.000000
# 4 0.000000 0.000000 0.000000 0.042200 0.000000 -0.000902
# 5 -0.002274 0.003152 -0.005090 0.000000 0.036856 0.000000
# 6 0.000000 0.000000 0.000000 -0.000902 0.000000 0.047784
#
#
# Mechanical properties :
#
#
# Convention : Reuss Voigt Hill
#
# Bulk Modulus (GPa) = 47.50008 52.40318 49.95163
# Shear Modulus (GPa) = 26.72350 29.22432 27.97391
#
# Velocity S-wave (km/s) = 3.59393 3.75833 3.67705
# Velocity P-wave (km/s) = 6.33878 6.64542 6.49391
#
# Compressibility (1/GPa) = 0.02105260
#
# Stress axis : x y z
#
# Youngs Moduli (GPa) = 104.55676 67.37648 78.48149
#
# Poissons Ratio (x) = 0.25991 0.18357
# Poissons Ratio (y) = 0.40334 0.14527
# Poissons Ratio (z) = 0.24457 0.12472
#
# Static dielectric constant tensor:
#      x y z
#    x 3.973080 0.000000 0.051890 
#    y 0.000000 5.924970 0.000000 
#    z 0.051890 0.000000 3.814620 
# 
# 
# High freq. dielectric constant tensor:
#      x y z
#    x 1.833160 0.000000 0.003770 
#    y 0.000000 1.759490 0.000000 
#    z 0.003770 0.000000 1.814270 
# 
# From -- ./inp_files/260333.got.cif
#   From: 2010.06.25/outbox.cif.g09.slc.cpg/sg12_131_cif.got.tgz:260333.got - 2010.06.28 00:19:55.
