data_PCOD8112572
_publ_section_title
;
Structure prediction by ZEFSAII (Michael W. Deem and Ramdas Pophale) SiO2 
 PCOD8112572
Probable space group: C 2/M
;
_chemical_formula_sum "Si O2"
_cell_formula_units_Z 36
_cell_length_a 10.564117
_cell_length_b 22.084917
_cell_length_c 12.526349
_cell_angle_alpha 90.000000
_cell_angle_beta 35.280314
_cell_angle_gamma 90.000000
_cell_volume 1687.965264
_symmetry_space_group_name_H-M "C 2/M"
_symmetry_group_IT_number 12
_symmetry_cell_setting 'monoclinic'
loop_
_space_group_symop_operation_xyz
x,y,z
-x,y,-z
-x,-y,-z
x,-y,z
1/2+x,1/2+y,z
1/2-x,1/2+y,-z
1/2-x,1/2-y,-z
1/2+x,1/2-y,z
loop_
_atom_site_type_symbol
_atom_site_label
_atom_site_fract_x
_atom_site_fract_y
_atom_site_fract_z
Si Si1 0.345679 0.144531 0.250785
Si Si2 0.081287 0.777806 0.823932
Si Si3 0.316646 0.368599 0.868960
Si Si4 0.228101 0.930030 0.526876
Si Si5 0.500000 0.142315 0.500000
O O1 0.379367 0.214123 0.263670
O O2 0.209915 0.149565 0.235644
O O3 0.206769 0.106161 0.430675
O O4 0.581160 0.110460 0.076107
O O5 0.302429 0.816494 0.676730
O O6 0.897146 0.811100 0.881040
O O7 0.000000 0.765713 0.000000
O O8 0.499081 0.421860 0.749430
O O9 0.430127 0.901406 0.451757
O O10 0.273676 0.000000 0.473920
#
# Coordination Sequence:
#
# PCOD8112572 Si02
#       5
#     8   8   8   8   4
#     4  11  23  37  65  91 126 163 201 251 314 368
#     4  11  22  38  65  95 130 157 198 257 317 373
#     4  10  23  39  60  95 125 162 205 250 310 369
#     4  11  25  44  63  88 126 168 214 254 295 360
#     4  10  25  40  68  94 119 164 208 256 314 362
#
# _framework density 21.327455
#
# number of rings (size 3 to 8) (size 9 to 14) (size 15 to 20)
#    0.000    1.333    2.222    3.000    6.222    4.444 
#    0.000    2.222    0.000    7.333    0.000    0.000 
#    0.000    0.000    0.000    0.000    0.000    0.000 
#
# Total GULP energy -223204.226889 kJ/mol
# GULP energy per Si atom -12400.234827 kJ/mol
# Density = 2.127891 g / cm^3
# Si number density = 21.327455 Si / 1000 Ang^3
#
#
#
# Elastic Constant Matrix: (Units=GPa)
#
#
# Indices 1 2 3 4 5 6 
#
# 1 88.5168 32.2193 26.9914 -0.0009 -4.8646 -0.0006
# 2 32.2193 138.6338 50.2746 0.0003 9.1190 -0.0004
# 3 26.9914 50.2746 88.6892 -0.0022 -11.1282 -0.0012
# 4 -0.0009 0.0003 -0.0022 24.0473 0.0010 2.1211
# 5 -4.8646 9.1190 -11.1282 0.0010 33.8070 0.0003
# 6 -0.0006 -0.0004 -0.0012 2.1211 0.0003 15.0781
#
#
#
# Elastic Compliance Matrix: (Units=1/GPa)
#
#
# Indices 1 2 3 4 5 6 
#
# 1 0.012951 -0.002220 -0.002476 0.000000 0.001647 0.000000
# 2 -0.002220 0.010109 -0.005671 -0.000001 -0.004913 0.000000
# 3 -0.002476 -0.005671 0.016054 0.000001 0.006458 0.000001
# 4 0.000000 -0.000001 0.000001 0.042107 -0.000001 -0.005923
# 5 0.001647 -0.004913 0.006458 -0.000001 0.033268 0.000000
# 6 0.000000 0.000000 0.000001 -0.005923 0.000000 0.067155
#
#
# Mechanical properties :
#
#
# Convention : Reuss Voigt Hill
#
# Bulk Modulus (GPa) = 54.41054 59.42339 56.91697
# Shear Modulus (GPa) = 23.98022 28.34345 26.16184
#
# Velocity S-wave (km/s) = 3.35682 3.64945 3.50619
# Velocity P-wave (km/s) = 6.37116 6.75876 6.56782
#
# Compressibility (1/GPa) = 0.01837879
#
# Stress axis : x y z
#
# Youngs Moduli (GPa) = 77.21385 98.92135 62.28975
#
# Poissons Ratio (x) = 0.21963 0.15424
# Poissons Ratio (y) = 0.17144 0.35326
# Poissons Ratio (z) = 0.19119 0.56100
#
# Static dielectric constant tensor:
#      x y z
#    x 3.932100 0.000000 -0.162810 
#    y 0.000000 3.564130 0.000000 
#    z -0.162810 0.000000 4.059150 
# 
# 
# High freq. dielectric constant tensor:
#      x y z
#    x 1.849460 0.000000 -0.016670 
#    y 0.000000 1.814140 0.000000 
#    z -0.016670 0.000000 1.845830 
# 
# From -- ./inp_files/207469.got.cif
#   From: 2010.06.25/outbox.cif.g09.slc.cpg/sg12_104_cif.got.tgz:207469.got - 2010.06.28 00:19:55.
