data_PCOD8112610
_publ_section_title
;
Structure prediction by ZEFSAII (Michael W. Deem and Ramdas Pophale) SiO2 
 PCOD8112610
Probable space group: C 2/M
;
_chemical_formula_sum "Si O2"
_cell_formula_units_Z 64
_cell_length_a 31.673690
_cell_length_b 8.558900
_cell_length_c 18.008918
_cell_angle_alpha 90.000000
_cell_angle_beta 41.237303
_cell_angle_gamma 90.000000
_cell_volume 3218.160661
_symmetry_space_group_name_H-M "C 2/M"
_symmetry_group_IT_number 12
_symmetry_cell_setting 'monoclinic'
loop_
_space_group_symop_operation_xyz
x,y,z
-x,y,-z
-x,-y,-z
x,-y,z
1/2+x,1/2+y,z
1/2-x,1/2+y,-z
1/2-x,1/2-y,-z
1/2+x,1/2-y,z
loop_
_atom_site_type_symbol
_atom_site_label
_atom_site_fract_x
_atom_site_fract_y
_atom_site_fract_z
Si Si1 0.547363 0.319714 0.168481
Si Si2 0.203622 0.813916 0.497968
Si Si3 0.575134 0.676508 0.891028
Si Si4 0.854993 0.318478 0.068194
Si Si5 0.419674 0.816901 0.273453
Si Si6 0.901880 0.319330 0.590235
Si Si7 0.466039 0.181376 0.658471
Si Si8 0.275095 0.682783 0.695071
O O1 0.530998 0.500000 0.176161
O O2 0.490324 0.216630 0.210495
O O3 0.556072 0.287071 0.243949
O O4 0.613853 0.277804 0.040323
O O5 0.250000 0.750000 0.500000
O O6 0.132522 0.743301 0.599007
O O7 0.228047 0.753286 0.385274
O O8 0.200510 0.000000 0.506542
O O9 0.599507 0.500000 0.873220
O O10 0.605130 0.796012 0.909413
O O11 0.595282 0.727510 0.782596
O O12 0.500000 0.686796 0.000000
O O13 0.854826 0.500000 0.046550
O O14 0.783571 0.250729 0.177975
O O15 0.412320 0.000000 0.269736
O O16 0.885340 0.500000 0.600801
O O17 0.917955 0.284014 0.654585
O O18 0.841527 0.218350 0.647011
O O19 0.961998 0.272041 0.459749
O O20 0.463536 0.000000 0.684355
O O21 0.265695 0.500000 0.702661
#
# Coordination Sequence:
#
# PCOD8112610 Si02
#       8
#     8   8   8   8   8   8   8   8
#     4  12  24  38  57  87 118 150 194 244 294 345
#     4  11  23  40  60  87 121 156 196 246 295 349
#     4  11  22  37  58  85 115 148 195 250 295 343
#     4  11  23  40  60  83 115 158 200 241 291 353
#     4  12  24  38  59  85 116 157 198 241 295 352
#     4   9  19  37  64  92 118 150 190 233 287 351
#     4   9  19  38  62  91 121 149 186 236 290 351
#     4  10  23  40  59  85 118 154 196 239 288 348
#
# _framework density 19.887136999999999
#
# number of rings (size 3 to 8) (size 9 to 14) (size 15 to 20)
#    0.000    1.375    1.250    5.625    0.000    6.500 
#    0.000    1.875    0.000    0.000    0.000    0.000 
#    0.000    0.000    0.000    0.000    0.000    0.000 
#
# Total GULP energy -396928.725937 kJ/mol
# GULP energy per Si atom -12404.022686 kJ/mol
# Density = 1.984187 g / cm^3
# Si number density = 19.887137 Si / 1000 Ang^3
#
#
#
# Elastic Constant Matrix: (Units=GPa)
#
#
# Indices 1 2 3 4 5 6 
#
# 1 87.8698 14.5230 49.6696 0.0061 2.7588 -0.0017
# 2 14.5230 52.8333 30.5085 0.0213 -4.2692 0.0012
# 3 49.6696 30.5085 141.2983 0.0219 4.9943 -0.0088
# 4 0.0061 0.0213 0.0219 28.6399 -0.0173 -2.7454
# 5 2.7588 -4.2692 4.9943 -0.0173 32.1346 0.0034
# 6 -0.0017 0.0012 -0.0088 -2.7454 0.0034 33.4439
#
#
#
# Elastic Compliance Matrix: (Units=1/GPa)
#
#
# Indices 1 2 3 4 5 6 
#
# 1 0.014279 -0.001249 -0.004727 0.000001 -0.000657 0.000000
# 2 -0.001249 0.022159 -0.004478 -0.000011 0.003747 -0.000003
# 3 -0.004727 -0.004478 0.009766 -0.000004 -0.001707 0.000002
# 4 0.000001 -0.000011 -0.000004 0.035193 0.000018 0.002889
# 5 -0.000657 0.003747 -0.001707 0.000018 0.031939 -0.000002
# 6 0.000000 -0.000003 0.000002 0.002889 -0.000002 0.030138
#
#
# Mechanical properties :
#
#
# Convention : Reuss Voigt Hill
#
# Bulk Modulus (GPa) = 39.52936 52.37818 45.95377
# Shear Modulus (GPa) = 28.93283 31.33037 30.13160
#
# Velocity S-wave (km/s) = 3.81839 3.97345 3.89669
# Velocity P-wave (km/s) = 6.27377 6.88810 6.58810
#
# Compressibility (1/GPa) = 0.02529765
#
# Stress axis : x y z
#
# Youngs Moduli (GPa) = 70.03141 45.12765 102.39658
#
# Poissons Ratio (x) = 0.05636 0.48399
# Poissons Ratio (y) = 0.08746 0.45853
# Poissons Ratio (z) = 0.33101 0.20208
#
# Static dielectric constant tensor:
#      x y z
#    x 3.537920 -0.000040 0.079580 
#    y -0.000040 3.563320 0.000000 
#    z 0.079580 0.000000 3.904890 
# 
# 
# High freq. dielectric constant tensor:
#      x y z
#    x 1.766530 0.000000 0.004630 
#    y 0.000000 1.775140 0.000000 
#    z 0.004630 0.000000 1.787240 
# 
# From -- ./inp_files/295567.got.cif
#   From: 2010.06.25/outbox.cif.g09.slc.cpg/sg12_148_cif.got.tgz:295567.got - 2010.06.28 00:19:55.
