data_PCOD8112016
_publ_section_title
;
Structure prediction by ZEFSAII (Michael W. Deem and Ramdas Pophale) SiO2 
 PCOD8112016
Probable space group: C 2/M
;
_chemical_formula_sum "Si O2"
_cell_formula_units_Z 48
_cell_length_a 19.531849
_cell_length_b 14.377882
_cell_length_c 12.342903
_cell_angle_alpha 90.000000
_cell_angle_beta 45.604290
_cell_angle_gamma 90.000000
_cell_volume 2476.698020
_symmetry_space_group_name_H-M "C 2/M"
_symmetry_group_IT_number 12
_symmetry_cell_setting 'monoclinic'
loop_
_space_group_symop_operation_xyz
x,y,z
-x,y,-z
-x,-y,-z
x,-y,z
1/2+x,1/2+y,z
1/2-x,1/2+y,-z
1/2-x,1/2-y,-z
1/2+x,1/2-y,z
loop_
_atom_site_type_symbol
_atom_site_label
_atom_site_fract_x
_atom_site_fract_y
_atom_site_fract_z
Si Si1 0.784117 0.303135 0.217668
Si Si2 0.566642 0.313130 0.823347
Si Si3 0.893949 0.305699 0.651695
Si Si4 0.521756 0.000000 0.761192
Si Si5 0.669642 0.500000 0.657654
Si Si6 0.645769 0.000000 0.408265
Si Si7 0.793626 0.500000 0.306298
Si Si8 0.580614 0.807142 0.129605
O O1 0.844282 0.253055 0.245600
O O2 0.678615 0.259579 0.333279
O O3 0.773966 0.411418 0.253687
O O4 0.833355 0.286498 0.047580
O O5 0.602909 0.410260 0.737207
O O6 0.507448 0.262803 0.794152
O O7 0.500000 0.331905 0.000000
O O8 0.873347 0.412196 0.645830
O O9 0.879523 0.290886 0.795026
O O10 0.000000 0.276025 0.500000
O O11 0.596861 0.000000 0.775981
O O12 0.454778 0.088482 0.848578
O O13 0.572818 0.000000 0.588742
O O14 0.744571 0.500000 0.673798
O O15 0.723011 0.500000 0.485304
#
# Coordination Sequence:
#
# PCOD8112016 Si02
#       8
#     8   8   8   4   4   4   4   8
#     4  11  24  43  61  93 127 166 205 249 313 365
#     4  10  22  41  66  91 123 163 207 255 305 367
#     4  12  24  41  65  91 128 161 209 256 308 364
#     4  11  20  38  65  98 122 151 207 262 314 350
#     4  11  23  39  64  93 127 158 209 253 308 367
#     4  11  22  39  62  96 119 161 199 270 311 347
#     4  11  25  37  65  95 127 161 203 257 306 369
#     4  11  23  39  67  94 125 161 205 256 307 370
#
# _framework density 19.380642999999999
#
# number of rings (size 3 to 8) (size 9 to 14) (size 15 to 20)
#    0.000    1.000    5.000    2.000    2.333    1.333 
#    0.000    1.250    0.000    0.000    0.000    0.000 
#    0.000    0.000    0.000    0.000    0.000    0.000 
#
# Total GULP energy -297778.450220 kJ/mol
# GULP energy per Si atom -12407.435426 kJ/mol
# Density = 1.933653 g / cm^3
# Si number density = 19.380643 Si / 1000 Ang^3
#
#
#
# Elastic Constant Matrix: (Units=GPa)
#
#
# Indices 1 2 3 4 5 6 
#
# 1 104.8203 40.0189 39.3940 0.0000 -8.0949 0.0000
# 2 40.0189 119.5361 28.3775 0.0000 -14.1599 0.0000
# 3 39.3940 28.3775 57.0528 0.0000 -6.7908 0.0000
# 4 0.0000 0.0000 0.0000 24.6992 0.0000 -4.7070
# 5 -8.0949 -14.1599 -6.7908 0.0000 34.3192 0.0000
# 6 0.0000 0.0000 0.0000 -4.7070 0.0000 32.3262
#
#
#
# Elastic Compliance Matrix: (Units=1/GPa)
#
#
# Indices 1 2 3 4 5 6 
#
# 1 0.013585 -0.002576 -0.008034 0.000000 0.000552 0.000000
# 2 -0.002576 0.010297 -0.002980 0.000000 0.003051 0.000000
# 3 -0.008034 -0.002980 0.024768 0.000000 0.001777 0.000000
# 4 0.000000 0.000000 0.000000 0.041643 0.000000 0.006064
# 5 0.000552 0.003051 0.001777 0.000000 0.030879 0.000000
# 6 0.000000 0.000000 0.000000 0.006064 0.000000 0.031818
#
#
# Mechanical properties :
#
#
# Convention : Reuss Voigt Hill
#
# Bulk Modulus (GPa) = 46.57203 55.22112 50.89657
# Shear Modulus (GPa) = 26.69152 29.84352 28.26752
#
# Velocity S-wave (km/s) = 3.71512 3.92837 3.82323
# Velocity P-wave (km/s) = 6.51807 7.00934 6.76816
#
# Compressibility (1/GPa) = 0.02147212
#
# Stress axis : x y z
#
# Youngs Moduli (GPa) = 73.60871 97.11738 40.37404
#
# Poissons Ratio (x) = 0.25014 0.32435
# Poissons Ratio (y) = 0.18959 0.12031
# Poissons Ratio (z) = 0.59135 0.28940
#
# Static dielectric constant tensor:
#      x y z
#    x 3.626720 0.000000 -0.051710 
#    y 0.000000 3.548310 0.000000 
#    z -0.051710 0.000000 3.519470 
# 
# 
# High freq. dielectric constant tensor:
#      x y z
#    x 1.759020 0.000000 -0.001830 
#    y 0.000000 1.759980 0.000000 
#    z -0.001830 0.000000 1.758560 
# 
# From -- ./inp_files/167604.got.cif
#   From: 2010.06.25/outbox.cif.g09.slc.cpg/sg12_84_cif.got.tgz:167604.got - 2010.06.28 00:19:55.
