data_PCOD8112651
_publ_section_title
;
Structure prediction by ZEFSAII (Michael W. Deem and Ramdas Pophale) SiO2 
 PCOD8112651
Probable space group: C 2/M
;
_chemical_formula_sum "Si O2"
_cell_formula_units_Z 56
_cell_length_a 15.399006
_cell_length_b 17.740137
_cell_length_c 12.342397
_cell_angle_alpha 90.000000
_cell_angle_beta 127.413467
_cell_angle_gamma 90.000000
_cell_volume 2678.047859
_symmetry_space_group_name_H-M "C 2/M"
_symmetry_group_IT_number 12
_symmetry_cell_setting 'monoclinic'
loop_
_space_group_symop_operation_xyz
x,y,z
-x,y,-z
-x,-y,-z
x,-y,z
1/2+x,1/2+y,z
1/2-x,1/2+y,-z
1/2-x,1/2-y,-z
1/2+x,1/2-y,z
loop_
_atom_site_type_symbol
_atom_site_label
_atom_site_fract_x
_atom_site_fract_y
_atom_site_fract_z
Si Si1 0.229926 0.914572 0.860569
Si Si2 0.243377 0.686560 0.326518
Si Si3 0.373049 0.822615 0.387392
Si Si4 0.503910 0.416890 0.796248
Si Si5 0.240773 0.085556 0.456923
Si Si6 0.167645 0.313776 0.894912
Si Si7 0.977297 0.239056 0.864144
O O1 0.263481 0.861596 0.787427
O O2 0.100051 0.907113 0.781324
O O3 0.262058 0.000000 0.856448
O O4 0.297577 0.890942 0.019140
O O5 0.353368 0.737006 0.415836
O O6 0.224945 0.632715 0.413069
O O7 0.149236 0.750149 0.259164
O O8 0.500000 0.842308 0.500000
O O9 0.301538 0.883630 0.397216
O O10 0.329655 0.827079 0.231169
O O11 0.514058 0.500000 0.860204
O O12 0.389854 0.410000 0.647941
O O13 0.511588 0.349247 0.888319
O O14 0.279448 0.000000 0.503006
O O15 0.045158 0.288688 0.830562
O O16 0.250000 0.250000 0.000000
O O17 0.000000 0.271024 0.000000
#
# Coordination Sequence:
#
# PCOD8112651 Si02
#       7
#     8   8   8   8   8   8   8
#     4  11  24  43  68 101 136 175 221 278 346 394
#     4  12  24  42  68 100 133 177 223 284 330 403
#     4  12  26  43  71  99 133 179 230 274 331 400
#     4  10  23  40  64  98 136 172 216 276 338 397
#     4  11  26  45  65  97 137 179 225 275 337 400
#     4  12  23  43  67 102 136 175 225 275 328 402
#     4  12  22  40  67  99 130 170 222 271 336 396
#
# _framework density 20.910754000000001
#
# number of rings (size 3 to 8) (size 9 to 14) (size 15 to 20)
#    0.000    0.571    5.714    1.714    4.000    1.143 
#    0.000    8.571    0.000    0.000    0.000    0.000 
#    0.000    0.000    0.000    0.000    0.000    0.000 
#
# Total GULP energy -347240.814210 kJ/mol
# GULP energy per Si atom -12401.457650 kJ/mol
# Density = 2.086316 g / cm^3
# Si number density = 20.910754 Si / 1000 Ang^3
#
#
#
# Elastic Constant Matrix: (Units=GPa)
#
#
# Indices 1 2 3 4 5 6 
#
# 1 116.3391 51.8988 44.8122 0.0000 -5.1989 0.0000
# 2 51.8988 124.1651 24.7036 0.0000 -7.7720 0.0000
# 3 44.8122 24.7036 90.1811 0.0000 -13.2934 0.0000
# 4 0.0000 0.0000 0.0000 24.7003 0.0000 5.6669
# 5 -5.1989 -7.7720 -13.2934 0.0000 39.9468 0.0000
# 6 0.0000 0.0000 0.0000 5.6669 0.0000 28.9836
#
#
#
# Elastic Compliance Matrix: (Units=1/GPa)
#
#
# Indices 1 2 3 4 5 6 
#
# 1 0.012424 -0.004226 -0.005152 0.000000 -0.000920 0.000000
# 2 -0.004226 0.009988 -0.000453 0.000000 0.001243 0.000000
# 3 -0.005152 -0.000453 0.014366 0.000000 0.004022 0.000000
# 4 0.000000 0.000000 0.000000 0.042387 0.000000 -0.008287
# 5 -0.000920 0.001243 0.004022 0.000000 0.026494 0.000000
# 6 0.000000 0.000000 0.000000 -0.008287 0.000000 0.036123
#
#
# Mechanical properties :
#
#
# Convention : Reuss Voigt Hill
#
# Bulk Modulus (GPa) = 58.42185 63.72382 61.07284
# Shear Modulus (GPa) = 29.91387 32.67753 31.29570
#
# Velocity S-wave (km/s) = 3.78636 3.95741 3.87283
# Velocity P-wave (km/s) = 6.86402 7.17090 7.01913
#
# Compressibility (1/GPa) = 0.01711688
#
# Stress axis : x y z
#
# Youngs Moduli (GPa) = 80.49070 100.12087 69.61035
#
# Poissons Ratio (x) = 0.42307 0.35860
# Poissons Ratio (y) = 0.34012 0.03154
# Poissons Ratio (z) = 0.41465 0.04537
#
# Static dielectric constant tensor:
#      x y z
#    x 3.973120 0.000000 0.019750 
#    y 0.000000 3.991130 0.000000 
#    z 0.019750 0.000000 3.594990 
# 
# 
# High freq. dielectric constant tensor:
#      x y z
#    x 1.832850 0.000000 0.000490 
#    y 0.000000 1.825980 0.000000 
#    z 0.000490 0.000000 1.806530 
# 
# From -- ./inp_files/146219.got.cif
#   From: 2010.06.25/outbox.cif.g09.slc.cpg/sg12_74_cif.got.tgz:146219.got - 2010.06.28 00:19:55.
