data_PCOD8112035
_publ_section_title
;
Structure prediction by ZEFSAII (Michael W. Deem and Ramdas Pophale) SiO2 
 PCOD8112035
Probable space group: C 2/M
;
_chemical_formula_sum "Si O2"
_cell_formula_units_Z 48
_cell_length_a 28.279930
_cell_length_b 8.564942
_cell_length_c 15.735128
_cell_angle_alpha 90.000000
_cell_angle_beta 142.489209
_cell_angle_gamma 90.000000
_cell_volume 2320.741349
_symmetry_space_group_name_H-M "C 2/M"
_symmetry_group_IT_number 12
_symmetry_cell_setting 'monoclinic'
loop_
_space_group_symop_operation_xyz
x,y,z
-x,y,-z
-x,-y,-z
x,-y,z
1/2+x,1/2+y,z
1/2-x,1/2+y,-z
1/2-x,1/2-y,-z
1/2+x,1/2-y,z
loop_
_atom_site_type_symbol
_atom_site_label
_atom_site_fract_x
_atom_site_fract_y
_atom_site_fract_z
Si Si1 0.185877 0.818254 0.801900
Si Si2 0.273900 0.684272 0.624384
Si Si3 0.861202 0.681960 0.439719
Si Si4 0.515965 0.681188 0.265595
Si Si5 0.565824 0.818135 0.160983
Si Si6 0.141408 0.681260 0.911147
O O1 0.145270 0.779312 0.655617
O O2 0.142316 0.721576 0.812750
O O3 0.176579 0.000000 0.809967
O O4 0.276801 0.771170 0.929195
O O5 0.284353 0.500000 0.633732
O O6 0.250000 0.750000 0.500000
O O7 0.209123 0.732698 0.599749
O O8 0.353744 0.765210 0.767226
O O9 0.858462 0.500000 0.413951
O O10 0.942319 0.722279 0.600257
O O11 0.528425 0.500000 0.301334
O O12 0.553197 0.721921 0.228500
O O13 0.425016 0.722517 0.135234
O O14 0.567582 0.000000 0.186977
O O15 0.500000 0.777079 0.000000
O O16 0.123266 0.500000 0.897549
#
# Coordination Sequence:
#
# PCOD8112035 Si02
#       6
#     8   8   8   8   8   8
#     4  10  22  41  66  95 124 160 206 252 305 368
#     4  11  23  40  64  91 124 165 207 254 305 363
#     4  11  24  41  63  92 126 164 207 253 308 367
#     4  12  25  41  64  92 125 162 207 257 306 365
#     4  11  25  43  63  90 126 165 207 254 308 366
#     4  10  22  42  66  92 127 163 200 252 310 366
#
# _framework density 20.683045
#
# number of rings (size 3 to 8) (size 9 to 14) (size 15 to 20)
#    0.000    1.167    1.667    4.000    2.333    6.000 
#    0.000    3.333    0.000    0.000    0.000    0.000 
#    0.000    0.000    0.000    0.000    0.000    0.000 
#
# Total GULP energy -297794.922234 kJ/mol
# GULP energy per Si atom -12408.121760 kJ/mol
# Density = 2.063597 g / cm^3
# Si number density = 20.683045 Si / 1000 Ang^3
#
#
#
# Elastic Constant Matrix: (Units=GPa)
#
#
# Indices 1 2 3 4 5 6 
#
# 1 43.2851 11.3113 9.2470 0.0000 4.3555 0.0000
# 2 11.3113 57.6298 19.5146 0.0000 2.8540 0.0000
# 3 9.2470 19.5146 81.2193 0.0000 0.7887 0.0000
# 4 0.0000 0.0000 0.0000 34.8172 0.0000 1.1576
# 5 4.3555 2.8540 0.7887 0.0000 37.7574 0.0000
# 6 0.0000 0.0000 0.0000 1.1576 0.0000 36.1798
#
#
#
# Elastic Compliance Matrix: (Units=1/GPa)
#
#
# Indices 1 2 3 4 5 6 
#
# 1 0.024822 -0.004135 -0.001808 0.000000 -0.002513 0.000000
# 2 -0.004135 0.019645 -0.004240 0.000000 -0.000919 0.000000
# 3 -0.001808 -0.004240 0.013535 0.000000 0.000246 0.000000
# 4 0.000000 0.000000 0.000000 0.028752 0.000000 -0.000920
# 5 -0.002513 -0.000919 0.000246 0.000000 0.026839 0.000000
# 6 0.000000 0.000000 0.000000 -0.000920 0.000000 0.027669
#
#
# Mechanical properties :
#
#
# Convention : Reuss Voigt Hill
#
# Bulk Modulus (GPa) = 26.57127 29.14222 27.85674
# Shear Modulus (GPa) = 28.70674 31.22163 29.96419
#
# Velocity S-wave (km/s) = 3.72954 3.88948 3.81035
# Velocity P-wave (km/s) = 5.60542 5.85587 5.73201
#
# Compressibility (1/GPa) = 0.03763463
#
# Stress axis : x y z
#
# Youngs Moduli (GPa) = 40.28616 50.90298 73.88436
#
# Poissons Ratio (x) = 0.21050 0.13359
# Poissons Ratio (y) = 0.16660 0.31330
# Poissons Ratio (z) = 0.07284 0.21585
#
# Static dielectric constant tensor:
#      x y z
#    x 3.831840 0.000000 0.179000 
#    y 0.000000 3.774420 0.000000 
#    z 0.179000 0.000000 3.802980 
# 
# 
# High freq. dielectric constant tensor:
#      x y z
#    x 1.810950 0.000000 0.006400 
#    y 0.000000 1.820000 0.000000 
#    z 0.006400 0.000000 1.815910 
# 
# From -- ./inp_files/244613.got.cif
#   From: 2010.06.25/outbox.cif.g09.slc.cpg/sg12_123_cif.got.tgz:244613.got - 2010.06.28 00:19:55.
