data_PCOD8112838
_publ_section_title
;
Structure prediction by ZEFSAII (Michael W. Deem and Ramdas Pophale) SiO2 
 PCOD8112838
Probable space group: C 2/M
;
_chemical_formula_sum "Si O2"
_cell_formula_units_Z 36
_cell_length_a 19.963426
_cell_length_b 15.387157
_cell_length_c 5.416717
_cell_angle_alpha 90.000000
_cell_angle_beta 83.308734
_cell_angle_gamma 90.000000
_cell_volume 1652.575288
_symmetry_space_group_name_H-M "C 2/M"
_symmetry_group_IT_number 12
_symmetry_cell_setting 'monoclinic'
loop_
_space_group_symop_operation_xyz
x,y,z
-x,y,-z
-x,-y,-z
x,-y,z
1/2+x,1/2+y,z
1/2-x,1/2+y,-z
1/2-x,1/2-y,-z
1/2+x,1/2-y,z
loop_
_atom_site_type_symbol
_atom_site_label
_atom_site_fract_x
_atom_site_fract_y
_atom_site_fract_z
Si Si1 0.613115 0.903971 0.762701
Si Si2 0.500000 0.842855 0.500000
Si Si3 0.572861 0.251381 0.089844
Si Si4 0.246796 0.352790 0.495723
Si Si5 0.677415 0.401844 0.036490
O O1 0.537306 0.903199 0.682730
O O2 0.670312 0.888064 0.531287
O O3 0.622723 0.000000 0.879054
O O4 0.618498 0.825607 0.955011
O O5 0.441163 0.779493 0.626479
O O6 0.500000 0.264506 0.000000
O O7 0.612177 0.341017 0.063722
O O8 0.250000 0.250000 0.500000
O O9 0.278766 0.386025 0.227584
O O10 0.281514 0.388316 0.729458
O O11 0.650531 0.500000 0.041731
#
# Coordination Sequence:
#
# PCOD8112838 Si02
#       5
#     8   4   8   8   8
#     4  11  23  40  65  97 133 174 224 281 342 409
#     4  10  23  42  63  94 130 180 229 276 339 404
#     4  10  24  43  65  94 132 178 229 276 344 399
#     4  12  25  46  72 103 138 182 225 282 346 408
#     4  12  26  46  71 105 140 178 230 284 338 407
#
# _framework density 21.784182999999999
#
# number of rings (size 3 to 8) (size 9 to 14) (size 15 to 20)
#    0.000    0.889    2.222    4.333    6.222    5.333 
#    0.000    0.556    0.000    0.000    0.000    0.000 
#    0.000    0.000    0.000    0.000    0.000    0.000 
#
# Total GULP energy -223122.623368 kJ/mol
# GULP energy per Si atom -12395.701298 kJ/mol
# Density = 2.173460 g / cm^3
# Si number density = 21.784183 Si / 1000 Ang^3
#
#
#
# Elastic Constant Matrix: (Units=GPa)
#
#
# Indices 1 2 3 4 5 6 
#
# 1 92.1439 51.0001 31.3374 0.0000 -17.2002 0.0000
# 2 51.0001 204.0411 40.1777 0.0000 -14.6009 0.0000
# 3 31.3374 40.1777 127.5218 0.0000 -14.7243 0.0000
# 4 0.0000 0.0000 0.0000 16.2892 0.0000 5.0223
# 5 -17.2002 -14.6009 -14.7243 0.0000 36.7478 0.0000
# 6 0.0000 0.0000 0.0000 5.0223 0.0000 28.8853
#
#
#
# Elastic Compliance Matrix: (Units=1/GPa)
#
#
# Indices 1 2 3 4 5 6 
#
# 1 0.013925 -0.002752 -0.002022 0.000000 0.004614 0.000000
# 2 -0.002752 0.005848 -0.001097 0.000000 0.000596 0.000000
# 3 -0.002022 -0.001097 0.008938 0.000000 0.002199 0.000000
# 4 0.000000 0.000000 0.000000 0.064868 0.000000 -0.011279
# 5 0.004614 0.000596 0.002199 0.000000 0.030490 0.000000
# 6 0.000000 0.000000 0.000000 -0.011279 0.000000 0.036581
#
#
# Mechanical properties :
#
#
# Convention : Reuss Voigt Hill
#
# Bulk Modulus (GPa) = 58.93547 74.30413 66.61980
# Shear Modulus (GPa) = 28.08230 36.46389 32.27309
#
# Velocity S-wave (km/s) = 3.59432 4.09573 3.85319
# Velocity P-wave (km/s) = 6.65871 7.51997 7.10241
#
# Compressibility (1/GPa) = 0.01696771
#
# Stress axis : x y z
#
# Youngs Moduli (GPa) = 71.81414 171.01134 111.87782
#
# Poissons Ratio (x) = 0.47066 0.22622
# Poissons Ratio (y) = 0.19765 0.12276
# Poissons Ratio (z) = 0.14521 0.18765
#
# Static dielectric constant tensor:
#      x y z
#    x 3.959810 0.000000 -0.161430 
#    y 0.000000 4.075640 0.000000 
#    z -0.161430 0.000000 4.381080 
# 
# 
# High freq. dielectric constant tensor:
#      x y z
#    x 1.859290 0.000000 -0.009760 
#    y 0.000000 1.863300 0.000000 
#    z -0.009760 0.000000 1.862300 
# 
# From -- ./inp_files/19671.got.cif
#   From: 2010.06.25/outbox.cif.g09.slc.cpg/sg12_10_cif.got.tgz:19671.got - 2010.06.28 00:19:55.
