data_PCOD8112860
_publ_section_title
;
Structure prediction by ZEFSAII (Michael W. Deem and Ramdas Pophale) SiO2 
 PCOD8112860
Probable space group: C 2/M
;
_chemical_formula_sum "Si O2"
_cell_formula_units_Z 64
_cell_length_a 15.254730
_cell_length_b 8.610588
_cell_length_c 28.627125
_cell_angle_alpha 90.000000
_cell_angle_beta 56.115788
_cell_angle_gamma 90.000000
_cell_volume 3121.619617
_symmetry_space_group_name_H-M "C 2/M"
_symmetry_group_IT_number 12
_symmetry_cell_setting 'monoclinic'
loop_
_space_group_symop_operation_xyz
x,y,z
-x,y,-z
-x,-y,-z
x,-y,z
1/2+x,1/2+y,z
1/2-x,1/2+y,-z
1/2-x,1/2-y,-z
1/2+x,1/2-y,z
loop_
_atom_site_type_symbol
_atom_site_label
_atom_site_fract_x
_atom_site_fract_y
_atom_site_fract_z
Si Si1 0.804540 0.681055 0.938841
Si Si2 0.541955 0.180538 0.857005
Si Si3 0.797260 0.183820 0.438949
Si Si4 0.224782 0.821199 0.365901
Si Si5 0.594248 0.680599 0.747048
Si Si6 0.895693 0.320269 0.757033
Si Si7 0.461788 0.322154 0.643794
Si Si8 0.277860 0.177572 0.128301
O O1 0.810507 0.500000 0.944645
O O2 0.737050 0.718178 0.912915
O O3 0.923502 0.746365 0.898230
O O4 0.750000 0.750000 0.000000
O O5 0.601160 0.279493 0.799678
O O6 0.604203 0.204586 0.887070
O O7 0.541931 0.000000 0.842160
O O8 0.750000 0.250000 0.500000
O O9 0.731345 0.256198 0.416095
O O10 0.919225 0.236122 0.399591
O O11 0.785758 0.000000 0.441454
O O12 0.295997 0.720721 0.309964
O O13 0.103677 0.804700 0.384778
O O14 0.261696 0.000000 0.353838
O O15 0.569138 0.500000 0.746997
O O16 0.504263 0.784451 0.750727
O O17 0.867294 0.500000 0.771959
O O18 0.905859 0.281556 0.699577
O O19 0.803485 0.218651 0.806730
O O20 0.462346 0.500000 0.661155
O O21 0.260255 0.000000 0.118696
#
# Coordination Sequence:
#
# PCOD8112860 Si02
#       8
#     8   8   8   8   8   8   8   8
#     4  11  24  43  65  89 122 164 210 260 308 362
#     4  10  23  42  64  91 126 165 204 250 310 371
#     4  11  24  43  65  89 122 164 210 260 308 362
#     4  11  23  41  65  93 125 163 205 253 309 369
#     4  12  23  37  62  94 128 164 203 250 308 368
#     4  12  23  37  62  94 128 164 203 250 308 368
#     4  10  23  42  64  91 126 165 204 250 310 371
#     4  11  23  41  65  93 125 163 205 253 309 369
#
# _framework density 20.502177
#
# number of rings (size 3 to 8) (size 9 to 14) (size 15 to 20)
#    0.000    1.000    2.500    4.500    0.000    7.000 
#    0.000    5.000    0.000    0.000    0.000    0.000 
#    0.000    0.000    0.000    0.000    0.000    0.000 
#
# Total GULP energy -397004.759975 kJ/mol
# GULP energy per Si atom -12406.398749 kJ/mol
# Density = 2.045551 g / cm^3
# Si number density = 20.502177 Si / 1000 Ang^3
#
#
#
# Elastic Constant Matrix: (Units=GPa)
#
#
# Indices 1 2 3 4 5 6 
#
# 1 122.1013 25.4937 39.6543 -0.0001 16.1660 -0.0001
# 2 25.4937 60.4518 23.2343 -0.0001 6.6643 -0.0003
# 3 39.6543 23.2343 117.8531 0.0000 25.5582 -0.0001
# 4 -0.0001 -0.0001 0.0000 36.6958 0.0000 4.5059
# 5 16.1660 6.6643 25.5582 0.0000 20.8859 0.0000
# 6 -0.0001 -0.0003 -0.0001 4.5059 0.0000 32.6660
#
#
#
# Elastic Compliance Matrix: (Units=1/GPa)
#
#
# Indices 1 2 3 4 5 6 
#
# 1 0.010008 -0.003032 -0.001769 0.000000 -0.004614 0.000000
# 2 -0.003032 0.018872 -0.002591 0.000000 -0.000504 0.000000
# 3 -0.001769 -0.002591 0.012408 0.000000 -0.012987 0.000000
# 4 0.000000 0.000000 0.000000 0.027721 0.000000 -0.003824
# 5 -0.004614 -0.000504 -0.012987 0.000000 0.067504 0.000000
# 6 0.000000 0.000000 0.000000 -0.003824 0.000000 0.031140
#
#
# Mechanical properties :
#
#
# Convention : Reuss Voigt Hill
#
# Bulk Modulus (GPa) = 37.73031 53.01898 45.37464
# Shear Modulus (GPa) = 26.14069 32.18448 29.16258
#
# Velocity S-wave (km/s) = 3.57462 3.96638 3.77558
# Velocity P-wave (km/s) = 5.95653 6.84781 6.41766
#
# Compressibility (1/GPa) = 0.02650389
#
# Stress axis : x y z
#
# Youngs Moduli (GPa) = 99.91529 52.98788 80.59521
#
# Poissons Ratio (x) = 0.16067 0.14258
# Poissons Ratio (y) = 0.30296 0.20882
# Poissons Ratio (z) = 0.17676 0.13729
#
# Static dielectric constant tensor:
#      x y z
#    x 4.056950 0.000000 -0.101690 
#    y 0.000000 3.913480 0.000000 
#    z -0.101690 0.000000 3.684170 
# 
# 
# High freq. dielectric constant tensor:
#      x y z
#    x 1.816170 0.000000 0.002900 
#    y 0.000000 1.806490 0.000000 
#    z 0.002900 0.000000 1.793660 
# 
# From -- ./inp_files/375420.got.cif
#   From: 2010.06.25/outbox.cif.g09.slc.cpg/sg12_188_cif.got.tgz:375420.got - 2010.06.28 00:19:55.
