data_PCOD8112597
_publ_section_title
;
Structure prediction by ZEFSAII (Michael W. Deem and Ramdas Pophale) SiO2 
 PCOD8112597
Probable space group: C 2/M
;
_chemical_formula_sum "Si O2"
_cell_formula_units_Z 40
_cell_length_a 27.054532
_cell_length_b 13.496949
_cell_length_c 18.091235
_cell_angle_alpha 90.000000
_cell_angle_beta 161.108791
_cell_angle_gamma 90.000000
_cell_volume 2138.865510
_symmetry_space_group_name_H-M "C 2/M"
_symmetry_group_IT_number 12
_symmetry_cell_setting 'monoclinic'
loop_
_space_group_symop_operation_xyz
x,y,z
-x,y,-z
-x,-y,-z
x,-y,z
1/2+x,1/2+y,z
1/2-x,1/2+y,-z
1/2-x,1/2-y,-z
1/2+x,1/2-y,z
loop_
_atom_site_type_symbol
_atom_site_label
_atom_site_fract_x
_atom_site_fract_y
_atom_site_fract_z
Si Si1 0.662336 0.614773 0.697315
Si Si2 0.931901 0.249582 0.102839
Si Si3 0.122052 0.885542 0.469571
Si Si4 0.005309 0.889322 0.926556
Si Si5 0.183570 0.391215 0.391687
O O1 0.500000 0.646929 0.500000
O O2 0.695489 0.500000 0.761392
O O3 0.668790 0.637326 0.619378
O O4 0.789512 0.679826 0.919823
O O5 0.985957 0.189196 0.252117
O O6 0.883382 0.172132 0.970050
O O7 0.070779 0.311416 0.264889
O O8 0.271220 0.867688 0.629520
O O9 0.065365 0.000000 0.380984
O O10 0.836709 0.889680 0.655362
O O11 0.073271 0.000000 0.028355
O O12 0.000000 0.840221 0.000000
O O13 0.106227 0.500000 0.286868
#
# Coordination Sequence:
#
# PCOD8112597 Si02
#       5
#     8   8   8   8   8
#     4  10  23  40  55  75 104 141 184 228 271 307
#     4  11  20  30  58  79 105 137 180 216 255 321
#     4   9  19  36  55  76 109 141 169 214 270 323
#     4   9  18  30  47  75 113 142 161 200 259 321
#     4   9  18  31  48  80 112 135 166 209 264 319
#
# _framework density 18.701502999999999
#
# number of rings (size 3 to 8) (size 9 to 14) (size 15 to 20)
#    0.000    2.400    0.000    4.800    5.600    0.800 
#    0.000    3.000    0.000    2.400    0.000    0.000 
#    0.000    0.000    0.000    0.000    0.000    0.000 
#
# Total GULP energy -247925.003410 kJ/mol
# GULP energy per Si atom -12396.250171 kJ/mol
# Density = 1.865894 g / cm^3
# Si number density = 18.701503 Si / 1000 Ang^3
#
#
#
# Elastic Constant Matrix: (Units=GPa)
#
#
# Indices 1 2 3 4 5 6 
#
# 1 39.4947 10.1784 11.9888 0.0000 2.4881 0.0000
# 2 10.1784 92.9621 36.5621 0.0000 6.8296 0.0000
# 3 11.9888 36.5621 52.9724 0.0000 13.6014 0.0000
# 4 0.0000 0.0000 0.0000 30.3346 0.0000 3.9882
# 5 2.4881 6.8296 13.6014 0.0000 22.2473 0.0000
# 6 0.0000 0.0000 0.0000 3.9882 0.0000 19.3859
#
#
#
# Elastic Compliance Matrix: (Units=1/GPa)
#
#
# Indices 1 2 3 4 5 6 
#
# 1 0.027238 -0.000737 -0.005850 0.000000 0.000757 0.000000
# 2 -0.000737 0.014862 -0.010605 0.000000 0.002004 0.000000
# 3 -0.005850 -0.010605 0.031456 0.000000 -0.015321 0.000000
# 4 0.000000 0.000000 0.000000 0.033882 0.000000 -0.006970
# 5 0.000757 0.002004 -0.015321 0.000000 0.053617 0.000000
# 6 0.000000 0.000000 0.000000 -0.006970 0.000000 0.053018
#
#
# Mechanical properties :
#
#
# Convention : Reuss Voigt Hill
#
# Bulk Modulus (GPa) = 25.52960 33.65420 29.59190
# Shear Modulus (GPa) = 19.11946 22.84021 20.97984
#
# Velocity S-wave (km/s) = 3.20089 3.49851 3.35300
# Velocity P-wave (km/s) = 5.22892 5.86122 5.55408
#
# Compressibility (1/GPa) = 0.03917022
#
# Stress axis : x y z
#
# Youngs Moduli (GPa) = 36.71345 67.28714 31.79074
#
# Poissons Ratio (x) = 0.04959 0.18598
# Poissons Ratio (y) = 0.02706 0.33715
# Poissons Ratio (z) = 0.21478 0.71361
#
# Static dielectric constant tensor:
#      x y z
#    x 3.414760 0.000000 -0.152850 
#    y 0.000000 3.971190 0.000000 
#    z -0.152850 0.000000 3.118820 
# 
# 
# High freq. dielectric constant tensor:
#      x y z
#    x 1.708840 0.000000 -0.019770 
#    y 0.000000 1.745620 0.000000 
#    z -0.019770 0.000000 1.695070 
# 
# From -- ./inp_files/96631.got.cif
#   From: 2010.06.25/outbox.cif.g09.slc.cpg/sg12_49_cif.got.tgz:96631.got - 2010.06.28 00:19:55.
