data_PCOD8112402
_publ_section_title
;
Structure prediction by ZEFSAII (Michael W. Deem and Ramdas Pophale) SiO2 
 PCOD8112402
Probable space group: C 2/M
;
_chemical_formula_sum "Si O2"
_cell_formula_units_Z 28
_cell_length_a 14.487592
_cell_length_b 11.904328
_cell_length_c 11.019688
_cell_angle_alpha 90.000000
_cell_angle_beta 50.183519
_cell_angle_gamma 90.000000
_cell_volume 1459.781301
_symmetry_space_group_name_H-M "C 2/M"
_symmetry_group_IT_number 12
_symmetry_cell_setting 'monoclinic'
loop_
_space_group_symop_operation_xyz
x,y,z
-x,y,-z
-x,-y,-z
x,-y,z
1/2+x,1/2+y,z
1/2-x,1/2+y,-z
1/2-x,1/2-y,-z
1/2+x,1/2-y,z
loop_
_atom_site_type_symbol
_atom_site_label
_atom_site_fract_x
_atom_site_fract_y
_atom_site_fract_z
Si Si1 0.240710 0.500000 0.009900
Si Si2 0.637965 0.877392 0.886492
Si Si3 0.638748 0.000000 0.365671
Si Si4 0.983853 0.000000 0.157674
Si Si5 0.790049 0.812830 0.346490
O O1 0.184740 0.500000 0.189587
O O2 0.192136 0.389619 0.977823
O O3 0.385754 0.500000 0.889671
O O4 0.706763 0.780534 0.760076
O O5 0.651800 0.000000 0.809033
O O6 0.500000 0.841065 0.000000
O O7 0.500000 0.000000 0.500000
O O8 0.682237 0.891109 0.398625
O O9 0.912020 0.887038 0.257988
O O10 0.000000 0.000000 0.000000
O O11 0.750000 0.750000 0.500000
#
# Coordination Sequence:
#
# PCOD8112402 Si02
#       5
#     4   8   4   4   8
#     4  10  22  43  69  93 126 171 224 273 314 402
#     4   9  22  41  67  94 124 172 219 263 324 390
#     4  11  27  42  60 102 130 168 222 274 339 377
#     4  11  22  46  65  97 130 173 224 271 325 392
#     4  11  25  41  68  92 136 174 212 274 335 392
#
# _framework density 19.180956999999999
#
# number of rings (size 3 to 8) (size 9 to 14) (size 15 to 20)
#    0.857    0.857    2.857    0.857    8.000    3.429 
#    0.000    1.429    0.000    0.000    0.000    0.000 
#    0.000    0.000    0.000    0.000    0.000    0.000 
#
# Total GULP energy -173472.960495 kJ/mol
# GULP energy per Si atom -12390.925750 kJ/mol
# Density = 1.913730 g / cm^3
# Si number density = 19.180957 Si / 1000 Ang^3
#
#
#
# Elastic Constant Matrix: (Units=GPa)
#
#
# Indices 1 2 3 4 5 6 
#
# 1 163.2298 52.5898 84.4289 0.0000 -13.5711 0.0000
# 2 52.5898 134.3683 82.0131 0.0000 6.6557 0.0000
# 3 84.4289 82.0131 138.7440 0.0000 -1.0322 0.0000
# 4 0.0000 0.0000 0.0000 33.5768 0.0000 17.9812
# 5 -13.5711 6.6557 -1.0322 0.0000 42.5901 0.0000
# 6 0.0000 0.0000 0.0000 17.9812 0.0000 14.6909
#
#
#
# Elastic Compliance Matrix: (Units=1/GPa)
#
#
# Indices 1 2 3 4 5 6 
#
# 1 0.009291 -0.000537 -0.005314 0.000000 0.002915 0.000000
# 2 -0.000537 0.011844 -0.006691 0.000000 -0.002184 0.000000
# 3 -0.005314 -0.006691 0.014394 0.000000 -0.000299 0.000000
# 4 0.000000 0.000000 0.000000 0.086443 0.000000 -0.105803
# 5 0.002915 -0.002184 -0.000299 0.000000 0.024743 0.000000
# 6 0.000000 0.000000 0.000000 -0.105803 0.000000 0.197569
#
#
# Mechanical properties :
#
#
# Convention : Reuss Voigt Hill
#
# Bulk Modulus (GPa) = 95.74138 97.15617 96.44877
# Shear Modulus (GPa) = 13.41021 32.65889 23.03455
#
# Velocity S-wave (km/s) = 2.64700 4.13082 3.46917
# Velocity P-wave (km/s) = 7.70489 8.57403 8.15105
#
# Compressibility (1/GPa) = 0.01044481
#
# Stress axis : x y z
#
# Youngs Moduli (GPa) = 107.63621 84.42793 69.47159
#
# Poissons Ratio (x) = 0.04532 0.36921
# Poissons Ratio (y) = 0.05778 0.46483
# Poissons Ratio (z) = 0.57203 0.56490
#
# Static dielectric constant tensor:
#      x y z
#    x 3.482630 0.000000 0.007550 
#    y 0.000000 3.683050 0.000000 
#    z 0.007550 0.000000 3.412920 
# 
# 
# High freq. dielectric constant tensor:
#      x y z
#    x 1.748460 0.000000 -0.006580 
#    y 0.000000 1.759210 0.000000 
#    z -0.006580 0.000000 1.740390 
# 
# From -- ./inp_files/139382.got.cif
#   From: 2010.06.25/outbox.cif.g09.slc.cpg/sg12_70_cif.got.tgz:139382.got - 2010.06.28 00:19:55.
