data_PCOD8112736
_publ_section_title
;
Structure prediction by ZEFSAII (Michael W. Deem and Ramdas Pophale) SiO2 
 PCOD8112736
Probable space group: C 2/M
;
_chemical_formula_sum "Si O2"
_cell_formula_units_Z 48
_cell_length_a 31.350417
_cell_length_b 16.744145
_cell_length_c 9.072155
_cell_angle_alpha 90.000000
_cell_angle_beta 151.836169
_cell_angle_gamma 90.000000
_cell_volume 2247.778656
_symmetry_space_group_name_H-M "C 2/M"
_symmetry_group_IT_number 12
_symmetry_cell_setting 'monoclinic'
loop_
_space_group_symop_operation_xyz
x,y,z
-x,y,-z
-x,-y,-z
x,-y,z
1/2+x,1/2+y,z
1/2-x,1/2+y,-z
1/2-x,1/2-y,-z
1/2+x,1/2-y,z
loop_
_atom_site_type_symbol
_atom_site_label
_atom_site_fract_x
_atom_site_fract_y
_atom_site_fract_z
Si Si1 0.489538 0.658366 0.794953
Si Si2 0.495054 0.812177 0.651627
Si Si3 0.827140 0.909562 0.151858
Si Si4 0.699740 0.168790 0.292866
Si Si5 0.149850 0.908946 0.098924
Si Si6 0.176564 0.405364 0.911608
O O1 0.453720 0.744425 0.631873
O O2 0.414522 0.593765 0.522667
O O3 0.500000 0.655653 0.000000
O O4 0.583951 0.642059 0.001525
O O5 0.500000 0.778826 0.500000
O O6 0.427806 0.888374 0.449804
O O7 0.594281 0.834349 0.015737
O O8 0.804758 0.000000 0.043344
O O9 0.848380 0.868182 0.058798
O O10 0.739767 0.875318 0.969913
O O11 0.750000 0.250000 0.500000
O O12 0.749337 0.096500 0.528399
O O13 0.707483 0.150032 0.142402
O O14 0.115737 0.000000 0.992021
O O15 0.188191 0.500000 0.980933
#
# Coordination Sequence:
#
# PCOD8112736 Si02
#       6
#     8   8   8   8   8   8
#     4  12  24  38  62  95 130 168 213 267 328 389
#     4  10  23  41  64  92 129 170 211 269 320 382
#     4  10  23  41  63  91 127 169 215 265 321 387
#     4  11  22  39  65  95 131 165 208 271 320 382
#     4  11  23  41  65  91 127 172 212 264 330 393
#     4  10  23  44  67  95 127 172 225 269 316 385
#
# _framework density 21.354414999999999
#
# number of rings (size 3 to 8) (size 9 to 14) (size 15 to 20)
#    0.000    1.333    1.667    3.500    2.333    9.667 
#    0.000    0.000    0.000    3.500    0.000    0.000 
#    0.000    0.000    0.000    0.000    0.000    0.000 
#
# Total GULP energy -297526.758379 kJ/mol
# GULP energy per Si atom -12396.948266 kJ/mol
# Density = 2.130581 g / cm^3
# Si number density = 21.354415 Si / 1000 Ang^3
#
#
#
# Elastic Constant Matrix: (Units=GPa)
#
#
# Indices 1 2 3 4 5 6 
#
# 1 171.9805 41.6292 67.1131 0.0000 -7.6568 0.0000
# 2 41.6292 70.3473 27.5508 0.0000 0.1166 0.0000
# 3 67.1131 27.5508 147.9106 0.0000 3.4510 0.0000
# 4 0.0000 0.0000 0.0000 39.2673 0.0000 -0.2151
# 5 -7.6568 0.1166 3.4510 0.0000 28.8447 0.0000
# 6 0.0000 0.0000 0.0000 -0.2151 0.0000 27.3191
#
#
#
# Elastic Compliance Matrix: (Units=1/GPa)
#
#
# Indices 1 2 3 4 5 6 
#
# 1 0.007955 -0.003533 -0.003009 0.000000 0.002486 0.000000
# 2 -0.003533 0.016905 -0.001527 0.000000 -0.000824 0.000000
# 3 -0.003009 -0.001527 0.008453 0.000000 -0.001804 0.000000
# 4 0.000000 0.000000 0.000000 0.025468 0.000000 0.000201
# 5 0.002486 -0.000824 -0.001804 0.000000 0.035547 0.000000
# 6 0.000000 0.000000 0.000000 0.000201 0.000000 0.036606
#
#
# Mechanical properties :
#
#
# Convention : Reuss Voigt Hill
#
# Bulk Modulus (GPa) = 58.22457 73.64719 65.93588
# Shear Modulus (GPa) = 32.72328 36.01593 34.36960
#
# Velocity S-wave (km/s) = 3.91882 4.11125 4.01619
# Velocity P-wave (km/s) = 6.91384 7.55642 7.24226
#
# Compressibility (1/GPa) = 0.01717488
#
# Stress axis : x y z
#
# Youngs Moduli (GPa) = 125.70982 59.15372 118.30464
#
# Poissons Ratio (x) = 0.20899 0.35602
# Poissons Ratio (y) = 0.44413 0.18060
# Poissons Ratio (z) = 0.37831 0.09030
#
# Static dielectric constant tensor:
#      x y z
#    x 3.959500 0.000000 -0.006120 
#    y 0.000000 3.702410 0.000000 
#    z -0.006120 0.000000 4.006350 
# 
# 
# High freq. dielectric constant tensor:
#      x y z
#    x 1.839070 0.000000 0.001610 
#    y 0.000000 1.825180 0.000000 
#    z 0.001610 0.000000 1.847460 
# 
# From -- ./inp_files/112954.got.cif
#   From: 2010.06.25/outbox.cif.g09.slc.cpg/sg12_57_cif.got.tgz:112954.got - 2010.06.28 00:19:55.
