data_PCOD8112563
_publ_section_title
;
Structure prediction by ZEFSAII (Michael W. Deem and Ramdas Pophale) SiO2 
 PCOD8112563
Probable space group: C 2/M
;
_chemical_formula_sum "Si O2"
_cell_formula_units_Z 48
_cell_length_a 15.938433
_cell_length_b 22.704710
_cell_length_c 12.086333
_cell_angle_alpha 90.000000
_cell_angle_beta 35.035714
_cell_angle_gamma 90.000000
_cell_volume 2510.925292
_symmetry_space_group_name_H-M "C 2/M"
_symmetry_group_IT_number 12
_symmetry_cell_setting 'monoclinic'
loop_
_space_group_symop_operation_xyz
x,y,z
-x,y,-z
-x,-y,-z
x,-y,z
1/2+x,1/2+y,z
1/2-x,1/2+y,-z
1/2-x,1/2-y,-z
1/2+x,1/2-y,z
loop_
_atom_site_type_symbol
_atom_site_label
_atom_site_fract_x
_atom_site_fract_y
_atom_site_fract_z
Si Si1 0.423934 0.500000 0.249343
Si Si2 0.144297 0.377141 0.280342
Si Si3 0.577532 0.628016 0.659210
Si Si4 0.343013 0.303491 0.213033
Si Si5 0.237030 0.818715 0.042502
Si Si6 0.763789 0.000000 0.201379
Si Si7 0.337382 0.306917 0.637878
O O1 0.414768 0.557851 0.334887
O O2 0.290657 0.500000 0.304757
O O3 0.578910 0.500000 0.023203
O O4 0.285893 0.346979 0.180299
O O5 0.165079 0.446487 0.266502
O O6 0.000000 0.356583 0.500000
O O7 0.137114 0.354589 0.160210
O O8 0.659103 0.660854 0.670613
O O9 0.415113 0.653316 0.831237
O O10 0.658036 0.640459 0.455782
O O11 0.237501 0.248014 0.341651
O O12 0.500000 0.282024 0.000000
O O13 0.256249 0.827052 0.153734
O O14 0.250000 0.750000 0.000000
O O15 0.500000 0.287691 0.500000
#
# Coordination Sequence:
#
# PCOD8112563 Si02
#       7
#     4   8   8   8   8   4   8
#     4  11  20  38  66  88 123 155 202 263 297 355
#     4  12  24  38  63  91 121 161 197 250 312 357
#     4  11  22  38  63  90 119 160 207 248 304 360
#     4  12  20  38  60  92 122 157 199 251 311 357
#     4  11  21  39  59  86 125 159 198 248 304 364
#     4  11  21  40  61  91 122 155 205 253 304 356
#     4  10  23  39  58  87 126 162 198 244 301 371
#
# _framework density 19.116458999999999
#
# number of rings (size 3 to 8) (size 9 to 14) (size 15 to 20)
#    0.000    0.833    6.667    1.250    2.333    0.000 
#    3.000    4.583    0.000    0.000    0.000    1.750 
#    0.000    0.000    0.000    0.000    0.000    0.000 
#
# Total GULP energy -297600.951518 kJ/mol
# GULP energy per Si atom -12400.039647 kJ/mol
# Density = 1.907295 g / cm^3
# Si number density = 19.116459 Si / 1000 Ang^3
#
#
#
# Elastic Constant Matrix: (Units=GPa)
#
#
# Indices 1 2 3 4 5 6 
#
# 1 74.6491 55.6120 44.2650 0.0138 19.6086 -0.0141
# 2 55.6120 162.0979 54.7119 0.0144 16.8300 -0.0128
# 3 44.2650 54.7119 117.1499 0.0210 31.5548 -0.0191
# 4 0.0138 0.0144 0.0210 24.3905 0.0006 6.2982
# 5 19.6086 16.8300 31.5548 0.0006 36.2353 0.0038
# 6 -0.0141 -0.0128 -0.0191 6.2982 0.0038 30.7512
#
#
#
# Elastic Compliance Matrix: (Units=1/GPa)
#
#
# Indices 1 2 3 4 5 6 
#
# 1 0.021214 -0.005344 -0.004045 -0.000007 -0.005475 0.000007
# 2 -0.005344 0.008678 -0.002256 0.000000 0.000826 0.000000
# 3 -0.004045 -0.002256 0.013386 -0.000010 -0.008420 0.000009
# 4 -0.000007 0.000000 -0.000010 0.043289 0.000013 -0.008866
# 5 -0.005475 0.000826 -0.008420 0.000013 0.037509 -0.000015
# 6 0.000007 0.000000 0.000009 -0.008866 -0.000015 0.034335
#
#
# Mechanical properties :
#
#
# Convention : Reuss Voigt Hill
#
# Bulk Modulus (GPa) = 50.03079 73.67498 61.85288
# Shear Modulus (GPa) = 26.54410 31.56260 29.05335
#
# Velocity S-wave (km/s) = 3.73036 4.06774 3.90270
# Velocity P-wave (km/s) = 6.69198 7.79011 7.26183
#
# Compressibility (1/GPa) = 0.01998769
#
# Stress axis : x y z
#
# Youngs Moduli (GPa) = 47.13814 115.22907 74.70361
#
# Poissons Ratio (x) = 0.61582 0.30218
# Poissons Ratio (y) = 0.25192 0.16854
# Poissons Ratio (z) = 0.19068 0.25997
#
# Static dielectric constant tensor:
#      x y z
#    x 3.638180 -0.000040 0.228660 
#    y -0.000040 4.031730 -0.000580 
#    z 0.228660 -0.000580 3.631570 
# 
# 
# High freq. dielectric constant tensor:
#      x y z
#    x 1.735880 0.000000 0.011450 
#    y 0.000000 1.739100 0.000000 
#    z 0.011450 0.000000 1.743980 
# 
# From -- ./inp_files/78916.got.cif
#   From: 2010.06.25/outbox.cif.g09.slc.cpg/sg12_40_cif.got.tgz:78916.got - 2010.06.28 00:19:55.
