data_PCOD8112805
_publ_section_title
;
Structure prediction by ZEFSAII (Michael W. Deem and Ramdas Pophale) SiO2 
 PCOD8112805
Probable space group: C 2/M
;
_chemical_formula_sum "Si O2"
_cell_formula_units_Z 40
_cell_length_a 9.785951
_cell_length_b 9.560563
_cell_length_c 21.172505
_cell_angle_alpha 90.000000
_cell_angle_beta 88.488415
_cell_angle_gamma 90.000000
_cell_volume 1980.193328
_symmetry_space_group_name_H-M "C 2/M"
_symmetry_group_IT_number 12
_symmetry_cell_setting 'monoclinic'
loop_
_space_group_symop_operation_xyz
x,y,z
-x,y,-z
-x,-y,-z
x,-y,z
1/2+x,1/2+y,z
1/2-x,1/2+y,-z
1/2-x,1/2-y,-z
1/2+x,1/2-y,z
loop_
_atom_site_type_symbol
_atom_site_label
_atom_site_fract_x
_atom_site_fract_y
_atom_site_fract_z
Si Si1 0.236109 0.227840 0.350494
Si Si2 0.316998 0.000000 0.443549
Si Si3 0.521131 0.660748 0.869222
Si Si4 0.363692 0.000000 0.583000
Si Si5 0.017078 0.842336 0.725443
Si Si6 0.205127 0.662825 0.060948
O O1 0.174507 0.371545 0.373517
O O2 0.382726 0.243127 0.315423
O O3 0.134109 0.158902 0.301641
O O4 0.250407 0.135133 0.412723
O O5 0.279219 0.000000 0.518222
O O6 0.477797 0.000000 0.433193
O O7 0.469844 0.500000 0.878534
O O8 0.509619 0.710985 0.797224
O O9 0.678404 0.673676 0.887493
O O10 0.432493 0.766411 0.911942
O O11 0.075121 0.000000 0.723202
O O12 0.177012 0.500000 0.043900
O O13 0.250000 0.750000 0.000000
#
# Coordination Sequence:
#
# PCOD8112805 Si02
#       6
#     8   4   8   4   8   8
#     4  12  22  42  63  91 119 167 203 255 314 367
#     4  11  24  41  61  95 123 159 208 258 311 370
#     4  10  23  42  61  91 124 166 203 254 304 359
#     4  11  24  41  63  89 129 159 202 262 311 370
#     4  11  23  40  64  89 126 158 208 253 306 368
#     4  11  23  41  65  94 127 163 206 251 305 362
#
# _framework density 20.200047999999999
#
# number of rings (size 3 to 8) (size 9 to 14) (size 15 to 20)
#    0.000    1.000    4.000    3.000    0.000    4.000 
#    3.600    1.000    0.000    0.000    0.000    0.000 
#    0.000    0.000    0.000    0.000    0.000    0.000 
#
# Total GULP energy -248092.285367 kJ/mol
# GULP energy per Si atom -12404.614268 kJ/mol
# Density = 2.015407 g / cm^3
# Si number density = 20.200048 Si / 1000 Ang^3
#
#
#
# Elastic Constant Matrix: (Units=GPa)
#
#
# Indices 1 2 3 4 5 6 
#
# 1 68.0360 11.5447 -0.2730 0.0000 2.9682 0.0000
# 2 11.5447 101.2436 18.5272 0.0000 -7.7037 0.0000
# 3 -0.2730 18.5272 91.2685 0.0000 7.1768 0.0000
# 4 0.0000 0.0000 0.0000 15.5737 0.0000 24.3590
# 5 2.9682 -7.7037 7.1768 0.0000 35.8114 0.0000
# 6 0.0000 0.0000 0.0000 24.3590 0.0000 -1.3461
#
#
#
# Elastic Compliance Matrix: (Units=1/GPa)
#
#
# Indices 1 2 3 4 5 6 
#
# 1 0.015112 -0.001967 0.000585 0.000000 -0.001793 0.000000
# 2 -0.001967 0.010771 -0.002426 0.000000 0.002966 0.000000
# 3 0.000585 -0.002426 0.011680 0.000000 -0.002911 0.000000
# 4 0.000000 0.000000 0.000000 0.002191 0.000000 0.039652
# 5 -0.001793 0.002966 -0.002911 0.000000 0.029294 0.000000
# 6 0.000000 0.000000 0.000000 0.039652 0.000000 -0.025351
#
#
# Mechanical properties :
#
#
# Convention : Reuss Voigt Hill
#
# Bulk Modulus (GPa) = 33.38985 35.57176 34.48080
# Shear Modulus (GPa) = 81.57342 25.39107 53.48225
#
# Velocity S-wave (km/s) = 6.36164 3.54924 5.15109
# Velocity P-wave (km/s) = 8.39798 5.86891 7.24466
#
# Compressibility (1/GPa) = 0.02994922
#
# Stress axis : x y z
#
# Youngs Moduli (GPa) = 66.17075 92.84174 85.61843
#
# Poissons Ratio (x) = 0.18260 -0.05013
# Poissons Ratio (y) = 0.13015 0.20768
# Poissons Ratio (z) = -0.03874 0.22520
#
# Static dielectric constant tensor:
#      x y z
#    x 3.649880 0.000000 0.080390 
#    y 0.000000 3.720680 0.000000 
#    z 0.080390 0.000000 3.872450 
# 
# 
# High freq. dielectric constant tensor:
#      x y z
#    x 1.788180 0.000000 0.008290 
#    y 0.000000 1.795740 0.000000 
#    z 0.008290 0.000000 1.802930 
# 
# From -- ./inp_files/331761.got.cif
#   From: 2010.06.25/outbox.cif.g09.slc.cpg/sg12_166_cif.got.tgz:331761.got - 2010.06.28 00:19:55.
