data_PCOD8112904
_publ_section_title
;
Structure prediction by ZEFSAII (Michael W. Deem and Ramdas Pophale) SiO2 
 PCOD8112904
Probable space group: C 2/M
;
_chemical_formula_sum "Si O2"
_cell_formula_units_Z 48
_cell_length_a 17.770416
_cell_length_b 15.049425
_cell_length_c 17.393093
_cell_angle_alpha 90.000000
_cell_angle_beta 29.883785
_cell_angle_gamma 90.000000
_cell_volume 2317.581360
_symmetry_space_group_name_H-M "C 2/M"
_symmetry_group_IT_number 12
_symmetry_cell_setting 'monoclinic'
loop_
_space_group_symop_operation_xyz
x,y,z
-x,y,-z
-x,-y,-z
x,-y,z
1/2+x,1/2+y,z
1/2-x,1/2+y,-z
1/2-x,1/2-y,-z
1/2+x,1/2-y,z
loop_
_atom_site_type_symbol
_atom_site_label
_atom_site_fract_x
_atom_site_fract_y
_atom_site_fract_z
Si Si1 0.023964 0.601163 0.805432
Si Si2 0.943842 0.100276 0.224220
Si Si3 0.398235 0.897505 0.436103
Si Si4 0.091090 0.743453 0.350774
Si Si5 0.605596 0.750641 0.840459
Si Si6 0.299392 0.330240 0.900841
O O1 0.076770 0.500000 0.773266
O O2 0.041829 0.628351 0.700964
O O3 0.131165 0.667468 0.758929
O O4 0.848868 0.611377 0.984317
O O5 0.779644 0.124924 0.403826
O O6 0.981393 0.168803 0.122885
O O7 0.071970 0.109680 0.174959
O O8 0.946830 0.000000 0.189643
O O9 0.491868 0.841592 0.414973
O O10 0.429430 0.000000 0.427085
O O11 0.243593 0.710900 0.256590
O O12 0.129538 0.802990 0.243606
O O13 0.000000 0.795139 0.500000
O O14 0.500000 0.789907 0.000000
O O15 0.250000 0.250000 0.000000
#
# Coordination Sequence:
#
# PCOD8112904 Si02
#       6
#     8   8   8   8   8   8
#     4  11  24  44  69  92 124 173 225 268 313 381
#     4  11  24  42  67  96 129 169 215 267 317 381
#     4  10  23  42  65  95 127 170 219 262 319 388
#     4  12  24  39  65  96 130 174 208 264 330 383
#     4  12  24  42  63  95 130 167 214 262 327 386
#     4  12  22  43  67  94 128 170 221 264 315 384
#
# _framework density 20.711245999999999
#
# number of rings (size 3 to 8) (size 9 to 14) (size 15 to 20)
#    0.000    0.667    6.667    0.500    2.333    3.000 
#    0.000    0.000    0.000    2.500    0.000    0.000 
#    0.000    0.000    0.000    0.000    0.000    0.000 
#
# Total GULP energy -297589.882434 kJ/mol
# GULP energy per Si atom -12399.578435 kJ/mol
# Density = 2.066411 g / cm^3
# Si number density = 20.711246 Si / 1000 Ang^3
#
#
#
# Elastic Constant Matrix: (Units=GPa)
#
#
# Indices 1 2 3 4 5 6 
#
# 1 105.8611 49.0125 32.6050 -0.0025 -3.4632 0.0006
# 2 49.0125 99.0602 19.3319 -0.0020 5.7948 0.0000
# 3 32.6050 19.3319 88.2700 -0.0017 7.5708 -0.0004
# 4 -0.0025 -0.0020 -0.0017 28.4722 0.0013 -5.1178
# 5 -3.4632 5.7948 7.5708 0.0013 49.1842 0.0000
# 6 0.0006 0.0000 -0.0004 -5.1178 0.0000 15.4008
#
#
#
# Elastic Compliance Matrix: (Units=1/GPa)
#
#
# Indices 1 2 3 4 5 6 
#
# 1 0.013518 -0.006068 -0.003858 0.000000 0.002261 0.000000
# 2 -0.006068 0.013308 -0.000509 0.000000 -0.001917 0.000000
# 3 -0.003858 -0.000509 0.013056 0.000001 -0.002221 0.000001
# 4 0.000000 0.000000 0.000001 0.037353 -0.000001 0.012413
# 5 0.002261 -0.001917 -0.002221 -0.000001 0.021059 0.000000
# 6 0.000000 0.000000 0.000001 0.012413 0.000000 0.069056
#
#
# Mechanical properties :
#
#
# Convention : Reuss Voigt Hill
#
# Bulk Modulus (GPa) = 52.59660 55.00999 53.80330
# Shear Modulus (GPa) = 25.69932 31.42758 28.56345
#
# Velocity S-wave (km/s) = 3.52638 3.89963 3.71769
# Velocity P-wave (km/s) = 6.48311 6.84794 6.66802
#
# Compressibility (1/GPa) = 0.01901264
#
# Stress axis : x y z
#
# Youngs Moduli (GPa) = 73.97628 75.14035 76.59294
#
# Poissons Ratio (x) = 0.45592 0.29551
# Poissons Ratio (y) = 0.44886 0.03899
# Poissons Ratio (z) = 0.28542 0.03825
#
# Static dielectric constant tensor:
#      x y z
#    x 3.881370 0.000000 0.016170 
#    y 0.000000 3.565320 0.000000 
#    z 0.016170 0.000000 4.047720 
# 
# 
# High freq. dielectric constant tensor:
#      x y z
#    x 1.819740 0.000000 -0.000550 
#    y 0.000000 1.793070 0.000000 
#    z -0.000550 0.000000 1.822590 
# 
# From -- ./inp_files/88149.got.cif
#   From: 2010.06.25/outbox.cif.g09.slc.cpg/sg12_45_cif.got.tgz:88149.got - 2010.06.28 00:19:55.
