data_PCOD8112466
_publ_section_title
;
Structure prediction by ZEFSAII (Michael W. Deem and Ramdas Pophale) SiO2 
 PCOD8112466
Probable space group: C 2/M
;
_chemical_formula_sum "Si O2"
_cell_formula_units_Z 56
_cell_length_a 9.665601
_cell_length_b 21.951674
_cell_length_c 19.308101
_cell_angle_alpha 90.000000
_cell_angle_beta 137.385630
_cell_angle_gamma 90.000000
_cell_volume 2773.726199
_symmetry_space_group_name_H-M "C 2/M"
_symmetry_group_IT_number 12
_symmetry_cell_setting 'monoclinic'
loop_
_space_group_symop_operation_xyz
x,y,z
-x,y,-z
-x,-y,-z
x,-y,z
1/2+x,1/2+y,z
1/2-x,1/2+y,-z
1/2-x,1/2-y,-z
1/2+x,1/2-y,z
loop_
_atom_site_type_symbol
_atom_site_label
_atom_site_fract_x
_atom_site_fract_y
_atom_site_fract_z
Si Si1 0.573680 0.431937 0.242677
Si Si2 0.964270 0.571129 0.624146
Si Si3 0.798463 0.646115 0.683344
Si Si4 0.228623 0.265842 0.571387
Si Si5 0.540832 0.796465 0.124971
Si Si6 0.897700 0.886306 0.604132
Si Si7 0.331150 0.316482 0.107859
O O1 0.524601 0.500000 0.196302
O O2 0.545495 0.434909 0.315845
O O3 0.422914 0.383886 0.151207
O O4 0.806264 0.413235 0.312853
O O5 0.920676 0.500000 0.611366
O O6 0.927989 0.598569 0.686709
O O7 0.813649 0.599859 0.512089
O O8 0.792880 0.710657 0.643329
O O9 0.570897 0.619123 0.609267
O O10 0.902341 0.653972 0.796143
O O11 0.250000 0.250000 0.500000
O O12 0.377775 0.322951 0.640413
O O13 0.000000 0.287075 0.500000
O O14 0.505861 0.730316 0.146943
O O15 0.726607 0.790650 0.139133
O O16 0.337545 0.822028 0.014303
#
# Coordination Sequence:
#
# PCOD8112466 Si02
#       7
#     8   8   8   8   8   8   8
#     4  11  24  43  67  93 124 171 217 258 318 379
#     4  11  25  42  61  87 125 170 216 259 303 378
#     4  12  24  39  59  93 128 165 209 260 321 376
#     4  12  22  36  55  89 128 165 205 255 315 372
#     4  10  23  41  68 101 125 161 208 262 330 378
#     4  12  23  40  62  88 127 170 211 260 312 375
#     4  10  22  45  69  97 128 160 208 268 324 383
#
# _framework density 20.189447999999999
#
# number of rings (size 3 to 8) (size 9 to 14) (size 15 to 20)
#    0.000    0.857    4.286    3.000    2.000    2.857 
#    0.000    2.143    0.000    1.714    0.000    0.000 
#    0.000    0.000    0.000    0.000    0.000    0.000 
#
# Total GULP energy -347302.909479 kJ/mol
# GULP energy per Si atom -12403.675339 kJ/mol
# Density = 2.014350 g / cm^3
# Si number density = 20.189448 Si / 1000 Ang^3
#
#
#
# Elastic Constant Matrix: (Units=GPa)
#
#
# Indices 1 2 3 4 5 6 
#
# 1 113.5151 63.0525 41.0661 -0.0001 -6.5644 0.0000
# 2 63.0525 107.5356 40.7392 0.0000 7.3885 0.0000
# 3 41.0661 40.7392 85.5053 -0.0001 -6.7800 -0.0001
# 4 -0.0001 0.0000 -0.0001 26.2436 -0.0001 6.8487
# 5 -6.5644 7.3885 -6.7800 -0.0001 29.0255 0.0000
# 6 0.0000 0.0000 -0.0001 6.8487 0.0000 28.0123
#
#
#
# Elastic Compliance Matrix: (Units=1/GPa)
#
#
# Indices 1 2 3 4 5 6 
#
# 1 0.014358 -0.007629 -0.002903 0.000000 0.004511 0.000000
# 2 -0.007629 0.015934 -0.004469 0.000000 -0.006825 0.000000
# 3 -0.002903 -0.004469 0.015545 0.000000 0.004112 0.000000
# 4 0.000000 0.000000 0.000000 0.040701 0.000000 -0.009951
# 5 0.004511 -0.006825 0.004112 0.000000 0.038171 0.000000
# 6 0.000000 0.000000 0.000000 -0.009951 0.000000 0.038131
#
#
# Mechanical properties :
#
#
# Convention : Reuss Voigt Hill
#
# Bulk Modulus (GPa) = 63.15255 66.25241 64.70248
# Shear Modulus (GPa) = 25.23696 27.43616 26.33656
#
# Velocity S-wave (km/s) = 3.53938 3.69037 3.61567
# Velocity P-wave (km/s) = 6.93187 7.14458 7.03903
#
# Compressibility (1/GPa) = 0.01583467
#
# Stress axis : x y z
#
# Youngs Moduli (GPa) = 69.64756 62.75733 64.32892
#
# Poissons Ratio (x) = 0.47876 0.18677
# Poissons Ratio (y) = 0.53132 0.28751
# Poissons Ratio (z) = 0.20222 0.28048
#
# Static dielectric constant tensor:
#      x y z
#    x 4.285330 0.000000 -0.313750 
#    y 0.000000 0.009470 0.000000 
#    z -0.313750 0.000000 3.780120 
# 
# 
# High freq. dielectric constant tensor:
#      x y z
#    x 1.805460 0.000000 -0.003850 
#    y 0.000000 1.783040 0.000000 
#    z -0.003850 0.000000 1.783060 
# 
# From -- ./inp_files/259231.got.cif
#   From: 2010.06.25/outbox.cif.g09.slc.cpg/sg12_130_cif.got.tgz:259231.got - 2010.06.28 00:19:55.
