data_PCOD8112269
_publ_section_title
;
Structure prediction by ZEFSAII (Michael W. Deem and Ramdas Pophale) SiO2 
 PCOD8112269
Probable space group: C 2/M
;
_chemical_formula_sum "Si O2"
_cell_formula_units_Z 40
_cell_length_a 8.889970
_cell_length_b 23.595683
_cell_length_c 15.029640
_cell_angle_alpha 90.000000
_cell_angle_beta 143.564448
_cell_angle_gamma 90.000000
_cell_volume 1872.440675
_symmetry_space_group_name_H-M "C 2/M"
_symmetry_group_IT_number 12
_symmetry_cell_setting 'monoclinic'
loop_
_space_group_symop_operation_xyz
x,y,z
-x,y,-z
-x,-y,-z
x,-y,z
1/2+x,1/2+y,z
1/2-x,1/2+y,-z
1/2-x,1/2-y,-z
1/2+x,1/2-y,z
loop_
_atom_site_type_symbol
_atom_site_label
_atom_site_fract_x
_atom_site_fract_y
_atom_site_fract_z
Si Si1 0.052748 0.677123 0.746029
Si Si2 0.501094 0.435033 0.806427
Si Si3 0.281211 0.849122 0.453078
Si Si4 0.500000 0.394684 0.000000
Si Si5 0.000000 0.369902 0.000000
Si Si6 0.275618 0.286902 0.257128
O O1 0.248313 0.642396 0.900383
O O2 0.232881 0.722441 0.780349
O O3 0.917471 0.634247 0.611275
O O4 0.829195 0.709831 0.692315
O O5 0.488017 0.500000 0.770948
O O6 0.307633 0.402534 0.648264
O O7 0.779336 0.411196 0.925597
O O8 0.437509 0.430420 0.881336
O O9 0.500000 0.816487 0.500000
O O10 0.060335 0.807127 0.376171
O O11 0.918169 0.328519 0.883068
#
# Coordination Sequence:
#
# PCOD8112269 Si02
#       6
#     8   8   8   4   4   8
#     4  12  24  41  64  98 135 174 214 261 321 392
#     4  11  24  45  70  95 126 171 220 275 328 373
#     4  11  23  43  64  95 132 171 218 264 318 385
#     4  12  24  42  68  94 134 164 220 272 320 386
#     4  10  22  42  68 100 130 168 216 272 322 392
#     4  11  24  39  68  95 138 176 212 258 326 389
#
# _framework density 21.362493000000001
#
# number of rings (size 3 to 8) (size 9 to 14) (size 15 to 20)
#    0.000    0.800    4.000    3.600    2.800    2.000 
#    0.000    0.000    0.000    2.400    0.000    0.000 
#    0.000    0.000    0.000    0.000    0.000    0.000 
#
# Total GULP energy -247831.422274 kJ/mol
# GULP energy per Si atom -12391.571114 kJ/mol
# Density = 2.131387 g / cm^3
# Si number density = 21.362493 Si / 1000 Ang^3
#
#
#
# Elastic Constant Matrix: (Units=GPa)
#
#
# Indices 1 2 3 4 5 6 
#
# 1 123.2262 28.9965 47.5243 0.0000 0.3563 0.0000
# 2 28.9965 90.5508 34.1324 0.0000 -3.8683 0.0000
# 3 47.5243 34.1324 92.8062 0.0000 6.5152 0.0000
# 4 0.0000 0.0000 0.0000 40.4859 0.0000 -1.2280
# 5 0.3563 -3.8683 6.5152 0.0000 36.4337 0.0000
# 6 0.0000 0.0000 0.0000 -1.2280 0.0000 25.3636
#
#
#
# Elastic Compliance Matrix: (Units=1/GPa)
#
#
# Indices 1 2 3 4 5 6 
#
# 1 0.010302 -0.001473 -0.004775 0.000000 0.000597 0.000000
# 2 -0.001473 0.013213 -0.004258 0.000000 0.002179 0.000000
# 3 -0.004775 -0.004258 0.015003 0.000000 -0.003088 0.000000
# 4 0.000000 0.000000 0.000000 0.024736 0.000000 0.001198
# 5 0.000597 0.002179 -0.003088 0.000000 0.028225 0.000000
# 6 0.000000 0.000000 0.000000 0.001198 0.000000 0.039485
#
#
# Mechanical properties :
#
#
# Convention : Reuss Voigt Hill
#
# Bulk Modulus (GPa) = 57.12677 58.65439 57.89058
# Shear Modulus (GPa) = 31.68304 33.51866 32.60085
#
# Velocity S-wave (km/s) = 3.85530 3.96541 3.91074
# Velocity P-wave (km/s) = 6.82770 6.96292 6.89564
#
# Compressibility (1/GPa) = 0.01750493
#
# Stress axis : x y z
#
# Youngs Moduli (GPa) = 97.07008 75.68032 66.65155
#
# Poissons Ratio (x) = 0.11150 0.31829
# Poissons Ratio (y) = 0.14302 0.28381
# Poissons Ratio (z) = 0.46355 0.32226
#
# Static dielectric constant tensor:
#      x y z
#    x 3.912650 0.000000 0.054950 
#    y 0.000000 3.460740 0.000000 
#    z 0.054950 0.000000 3.966550 
# 
# 
# High freq. dielectric constant tensor:
#      x y z
#    x 1.855720 0.000000 0.002690 
#    y 0.000000 1.802990 0.000000 
#    z 0.002690 0.000000 1.857040 
# 
# From -- ./inp_files/199520.got.cif
#   From: 2010.06.25/outbox.cif.g09.slc.cpg/sg12_100_cif.got.tgz:199520.got - 2010.06.28 00:19:55.
