data_PCOD8112141
_publ_section_title
;
Structure prediction by ZEFSAII (Michael W. Deem and Ramdas Pophale) SiO2 
 PCOD8112141
Probable space group: C 2/M
;
_chemical_formula_sum "Si O2"
_cell_formula_units_Z 48
_cell_length_a 18.434467
_cell_length_b 14.013443
_cell_length_c 17.622033
_cell_angle_alpha 90.000000
_cell_angle_beta 30.303991
_cell_angle_gamma 90.000000
_cell_volume 2297.037901
_symmetry_space_group_name_H-M "C 2/M"
_symmetry_group_IT_number 12
_symmetry_cell_setting 'monoclinic'
loop_
_space_group_symop_operation_xyz
x,y,z
-x,y,-z
-x,-y,-z
x,-y,z
1/2+x,1/2+y,z
1/2-x,1/2+y,-z
1/2-x,1/2-y,-z
1/2+x,1/2-y,z
loop_
_atom_site_type_symbol
_atom_site_label
_atom_site_fract_x
_atom_site_fract_y
_atom_site_fract_z
Si Si1 0.473643 0.104221 0.254985
Si Si2 0.304801 0.843434 0.822806
Si Si3 0.008209 0.795703 0.839514
Si Si4 0.657820 0.609282 0.564318
Si Si5 0.758150 0.391633 0.697005
Si Si6 0.539989 0.269515 0.543257
O O1 0.602808 0.100165 0.198479
O O2 0.488946 0.181429 0.173986
O O3 0.325068 0.122942 0.436010
O O4 0.465487 0.000000 0.222867
O O5 0.280613 0.901570 0.766908
O O6 0.393112 0.747260 0.723087
O O7 0.154182 0.821950 0.997085
O O8 0.056126 0.843177 0.717765
O O9 0.109869 0.834282 0.815043
O O10 0.612055 0.500000 0.597066
O O11 0.642616 0.660849 0.496902
O O12 0.751964 0.500000 0.669015
O O13 0.886094 0.333220 0.541407
O O14 0.500000 0.320368 0.500000
#
# Coordination Sequence:
#
# PCOD8112141 Si02
#       6
#     8   8   8   8   8   8
#     4  11  23  40  65  91 124 167 210 252 304 372
#     4  11  24  40  63  94 133 160 201 256 317 367
#     4  12  23  42  62  95 131 163 202 260 315 365
#     4  11  23  41  65  91 122 167 214 255 307 371
#     4  11  24  42  66  92 126 168 207 253 311 375
#     4  10  22  42  63  91 125 165 210 257 307 369
#
# _framework density 20.896477999999998
#
# number of rings (size 3 to 8) (size 9 to 14) (size 15 to 20)
#    0.000    1.000    3.333    3.500    0.000    8.667 
#    0.000    0.000    0.000    3.000    0.000    0.000 
#    0.000    0.000    0.000    0.000    0.000    0.000 
#
# Total GULP energy -297547.730417 kJ/mol
# GULP energy per Si atom -12397.822101 kJ/mol
# Density = 2.084892 g / cm^3
# Si number density = 20.896478 Si / 1000 Ang^3
#
#
#
# Elastic Constant Matrix: (Units=GPa)
#
#
# Indices 1 2 3 4 5 6 
#
# 1 111.5419 52.8315 36.4661 0.0001 -22.7049 0.0000
# 2 52.8315 123.3181 41.6200 0.0001 -2.9106 -0.0001
# 3 36.4661 41.6200 141.9858 0.0000 -21.9621 0.0000
# 4 0.0001 0.0001 0.0000 14.7228 -0.0002 -1.4836
# 5 -22.7049 -2.9106 -21.9621 -0.0002 27.0951 0.0000
# 6 0.0000 -0.0001 0.0000 -1.4836 0.0000 15.0354
#
#
#
# Elastic Compliance Matrix: (Units=1/GPa)
#
#
# Indices 1 2 3 4 5 6 
#
# 1 0.013921 -0.005624 -0.000247 0.000000 0.010861 0.000000
# 2 -0.005624 0.011314 -0.002759 0.000000 -0.005734 0.000000
# 3 -0.000247 -0.002759 0.008961 0.000000 0.006760 0.000000
# 4 0.000000 0.000000 0.000000 0.068604 0.000000 0.006769
# 5 0.010861 -0.005734 0.006760 0.000000 0.050872 0.000000
# 6 0.000000 0.000000 0.000000 0.006769 0.000000 0.067177
#
#
# Mechanical properties :
#
#
# Convention : Reuss Voigt Hill
#
# Bulk Modulus (GPa) = 59.04596 70.96453 65.00525
# Shear Modulus (GPa) = 20.51251 27.76589 24.13920
#
# Velocity S-wave (km/s) = 3.13649 3.64914 3.40248
# Velocity P-wave (km/s) = 6.43696 7.19644 6.82727
#
# Compressibility (1/GPa) = 0.01693596
#
# Stress axis : x y z
#
# Youngs Moduli (GPa) = 71.83619 88.38260 111.59868
#
# Poissons Ratio (x) = 0.49708 0.02753
# Poissons Ratio (y) = 0.40402 0.30790
# Poissons Ratio (z) = 0.01772 0.24385
#
# Static dielectric constant tensor:
#      x y z
#    x 4.018240 0.000000 -0.206620 
#    y 0.000000 3.758120 0.000000 
#    z -0.206620 0.000000 3.741750 
# 
# 
# High freq. dielectric constant tensor:
#      x y z
#    x 1.825970 0.000000 -0.015640 
#    y 0.000000 1.807220 0.000000 
#    z -0.015640 0.000000 1.817230 
# 
# From -- ./inp_files/278041.got.cif
#   From: 2010.06.25/outbox.cif.g09.slc.cpg/sg12_140_cif.got.tgz:278041.got - 2010.06.28 00:19:55.
