data_PCOD8112259
_publ_section_title
;
Structure prediction by ZEFSAII (Michael W. Deem and Ramdas Pophale) SiO2 
 PCOD8112259
Probable space group: C 2/M
;
_chemical_formula_sum "Si O2"
_cell_formula_units_Z 48
_cell_length_a 9.261821
_cell_length_b 15.724326
_cell_length_c 26.080502
_cell_angle_alpha 90.000000
_cell_angle_beta 141.973432
_cell_angle_gamma 90.000000
_cell_volume 2339.828258
_symmetry_space_group_name_H-M "C 2/M"
_symmetry_group_IT_number 12
_symmetry_cell_setting 'monoclinic'
loop_
_space_group_symop_operation_xyz
x,y,z
-x,y,-z
-x,-y,-z
x,-y,z
1/2+x,1/2+y,z
1/2-x,1/2+y,-z
1/2-x,1/2-y,-z
1/2+x,1/2-y,z
loop_
_atom_site_type_symbol
_atom_site_label
_atom_site_fract_x
_atom_site_fract_y
_atom_site_fract_z
Si Si1 0.594444 0.093798 0.336680
Si Si2 0.490641 0.174887 0.151149
Si Si3 0.667976 0.344422 0.157060
Si Si4 0.844226 0.596948 0.004052
Si Si5 0.235058 0.245075 0.436553
Si Si6 0.397737 0.404524 0.323969
O O1 0.347939 0.097096 0.238301
O O2 0.619937 0.166891 0.385661
O O3 0.804322 0.106653 0.355329
O O4 0.612994 0.000000 0.367572
O O5 0.616135 0.264861 0.179195
O O6 0.279112 0.181775 0.133096
O O7 0.391433 0.150325 0.068110
O O8 0.686679 0.108558 0.224644
O O9 0.431102 0.397512 0.084036
O O10 0.915416 0.500000 0.034240
O O11 0.000000 0.632752 0.000000
O O12 0.500000 0.230189 0.500000
O O13 0.250000 0.250000 0.500000
O O14 0.097457 0.165980 0.372621
O O15 0.497127 0.500000 0.342986
#
# Coordination Sequence:
#
# PCOD8112259 Si02
#       6
#     8   8   8   8   8   8
#     4  10  22  42  68  96 128 173 217 261 319 389
#     4  11  22  39  66  92 127 171 216 263 318 376
#     4  11  22  39  66  93 127 169 217 264 315 382
#     4  11  24  41  60  91 131 168 214 268 317 374
#     4  12  24  42  69  96 130 165 209 269 326 389
#     4  10  22  42  67  96 131 170 215 265 321 384
#
# _framework density 20.514327000000002
#
# number of rings (size 3 to 8) (size 9 to 14) (size 15 to 20)
#    0.000    1.167    3.333    3.000    0.000    4.000 
#    3.000    0.000    0.000    0.000    0.000    0.000 
#    0.000    0.000    0.000    0.000    0.000    0.000 
#
# Total GULP energy -297544.719703 kJ/mol
# GULP energy per Si atom -12397.696654 kJ/mol
# Density = 2.046764 g / cm^3
# Si number density = 20.514327 Si / 1000 Ang^3
#
#
#
# Elastic Constant Matrix: (Units=GPa)
#
#
# Indices 1 2 3 4 5 6 
#
# 1 124.3674 32.9372 46.3154 -0.0001 6.4259 0.0000
# 2 32.9372 136.6059 45.5846 0.0000 -0.2678 0.0000
# 3 46.3154 45.5846 109.6659 -0.0003 10.0484 -0.0002
# 4 -0.0001 0.0000 -0.0003 26.4528 -0.0001 -0.4200
# 5 6.4259 -0.2678 10.0484 -0.0001 33.5152 0.0000
# 6 0.0000 0.0000 -0.0002 -0.4200 0.0000 29.7179
#
#
#
# Elastic Compliance Matrix: (Units=1/GPa)
#
#
# Indices 1 2 3 4 5 6 
#
# 1 0.009710 -0.001160 -0.003545 0.000000 -0.000808 0.000000
# 2 -0.001160 0.008682 -0.003234 0.000000 0.001261 0.000000
# 3 -0.003545 -0.003234 0.012236 0.000000 -0.003015 0.000000
# 4 0.000000 0.000000 0.000000 0.037812 0.000000 0.000534
# 5 -0.000808 0.001261 -0.003015 0.000000 0.030906 0.000000
# 6 0.000000 0.000000 0.000000 0.000534 0.000000 0.033657
#
#
# Mechanical properties :
#
#
# Convention : Reuss Voigt Hill
#
# Bulk Modulus (GPa) = 67.79679 68.92372 68.36026
# Shear Modulus (GPa) = 32.51033 34.32396 33.41715
#
# Velocity S-wave (km/s) = 3.98523 4.09488 4.04042
# Velocity P-wave (km/s) = 7.36860 7.48520 7.42713
#
# Compressibility (1/GPa) = 0.01474996
#
# Stress axis : x y z
#
# Youngs Moduli (GPa) = 102.99039 115.18363 81.72422
#
# Poissons Ratio (x) = 0.13360 0.28967
# Poissons Ratio (y) = 0.11946 0.26433
# Poissons Ratio (z) = 0.36505 0.37256
#
# Static dielectric constant tensor:
#      x y z
#    x 3.713180 0.000000 0.064170 
#    y 0.000000 3.747920 0.000000 
#    z 0.064170 0.000000 3.762930 
# 
# 
# High freq. dielectric constant tensor:
#      x y z
#    x 1.798250 0.000000 0.003230 
#    y 0.000000 1.810320 0.000000 
#    z 0.003230 0.000000 1.811430 
# 
# From -- ./inp_files/255748.got.cif
#   From: 2010.06.25/outbox.cif.g09.slc.cpg/sg12_128_cif.got.tgz:255748.got - 2010.06.28 00:19:55.
