data_PCOD8112916
_publ_section_title
;
Structure prediction by ZEFSAII (Michael W. Deem and Ramdas Pophale) SiO2 
 PCOD8112916
Probable space group: C 2/M
;
_chemical_formula_sum "Si O2"
_cell_formula_units_Z 48
_cell_length_a 17.099001
_cell_length_b 18.179957
_cell_length_c 14.126387
_cell_angle_alpha 90.000000
_cell_angle_beta 148.841407
_cell_angle_gamma 90.000000
_cell_volume 2272.105152
_symmetry_space_group_name_H-M "C 2/M"
_symmetry_group_IT_number 12
_symmetry_cell_setting 'monoclinic'
loop_
_space_group_symop_operation_xyz
x,y,z
-x,y,-z
-x,-y,-z
x,-y,z
1/2+x,1/2+y,z
1/2-x,1/2+y,-z
1/2-x,1/2-y,-z
1/2+x,1/2-y,z
loop_
_atom_site_type_symbol
_atom_site_label
_atom_site_fract_x
_atom_site_fract_y
_atom_site_fract_z
Si Si1 0.156779 0.417378 0.079369
Si Si2 0.338490 0.142600 0.717351
Si Si3 0.784280 0.702877 0.360143
Si Si4 0.846937 0.138047 0.117885
Si Si5 0.344092 0.584487 0.645943
Si Si6 0.625947 0.792207 0.755467
O O1 0.092039 0.500000 0.016229
O O2 0.223148 0.395227 0.250660
O O3 0.294010 0.413758 0.148511
O O4 0.021417 0.362335 0.907809
O O5 0.283511 0.226824 0.655446
O O6 0.275685 0.101679 0.560581
O O7 0.686136 0.632990 0.291481
O O8 0.777683 0.718476 0.241118
O O9 0.955639 0.682319 0.563384
O O10 0.888154 0.217260 0.201326
O O11 0.988290 0.099828 0.216483
O O12 0.711250 0.144829 0.902231
O O13 0.328517 0.500000 0.659986
#
# Coordination Sequence:
#
# PCOD8112916 Si02
#       6
#     8   8   8   8   8   8
#     4  11  23  39  61  95 136 172 209 258 329 387
#     4  11  22  39  64  96 127 172 215 265 310 383
#     4  11  23  44  67  97 123 171 220 264 316 380
#     4  11  23  40  64  94 130 166 211 266 326 375
#     4  12  26  42  65  97 133 169 213 268 326 380
#     4  10  23  42  66  93 124 166 219 269 310 375
#
# _framework density 21.125783999999999
#
# number of rings (size 3 to 8) (size 9 to 14) (size 15 to 20)
#    0.000    1.000    3.333    4.000    4.667    1.333 
#    0.000    6.667    0.000    0.000    0.000    0.000 
#    0.000    0.000    0.000    0.000    0.000    0.000 
#
# Total GULP energy -297671.181294 kJ/mol
# GULP energy per Si atom -12402.965887 kJ/mol
# Density = 2.107770 g / cm^3
# Si number density = 21.125784 Si / 1000 Ang^3
#
#
#
# Elastic Constant Matrix: (Units=GPa)
#
#
# Indices 1 2 3 4 5 6 
#
# 1 82.9129 29.6682 2.1950 0.0000 22.7968 0.0000
# 2 29.6682 112.6663 6.8122 0.0000 11.0951 0.0000
# 3 2.1950 6.8122 40.3202 0.0000 2.7511 0.0000
# 4 0.0000 0.0000 0.0000 22.4970 0.0000 1.8665
# 5 22.7968 11.0951 2.7511 0.0000 28.7223 0.0000
# 6 0.0000 0.0000 0.0000 1.8665 0.0000 19.5075
#
#
#
# Elastic Compliance Matrix: (Units=1/GPa)
#
#
# Indices 1 2 3 4 5 6 
#
# 1 0.016455 -0.003191 0.000453 0.000000 -0.011871 0.000000
# 2 -0.003191 0.009917 -0.001422 0.000000 -0.001161 0.000000
# 3 0.000453 -0.001422 0.025169 0.000000 -0.002221 0.000000
# 4 0.000000 0.000000 0.000000 0.044806 0.000000 -0.004287
# 5 -0.011871 -0.001161 -0.002221 0.000000 0.044899 0.000000
# 6 0.000000 0.000000 0.000000 -0.004287 0.000000 0.051673
#
#
# Mechanical properties :
#
#
# Convention : Reuss Voigt Hill
#
# Bulk Modulus (GPa) = 23.13802 34.80558 28.97180
# Shear Modulus (GPa) = 23.18626 27.29360 25.23993
#
# Velocity S-wave (km/s) = 3.31650 3.59828 3.46026
# Velocity P-wave (km/s) = 5.06378 5.81160 5.45053
#
# Compressibility (1/GPa) = 0.04321891
#
# Stress axis : x y z
#
# Youngs Moduli (GPa) = 60.77324 100.84172 39.73190
#
# Poissons Ratio (x) = 0.32183 -0.01801
# Poissons Ratio (y) = 0.19395 0.05652
# Poissons Ratio (z) = -0.02755 0.14344
#
# Static dielectric constant tensor:
#      x y z
#    x 4.002030 0.000000 -0.101730 
#    y 0.000000 3.654770 0.000000 
#    z -0.101730 0.000000 3.808020 
# 
# 
# High freq. dielectric constant tensor:
#      x y z
#    x 1.841590 0.000000 0.002390 
#    y 0.000000 1.814410 0.000000 
#    z 0.002390 0.000000 1.825650 
# 
# From -- ./inp_files/226917.got.cif
#   From: 2010.06.25/outbox.cif.g09.slc.cpg/sg12_114_cif.got.tgz:226917.got - 2010.06.28 00:19:55.
