data_PCOD8112056
_publ_section_title
;
Structure prediction by ZEFSAII (Michael W. Deem and Ramdas Pophale) SiO2 
 PCOD8112056
Probable space group: C 2/M
;
_chemical_formula_sum "Si O2"
_cell_formula_units_Z 56
_cell_length_a 8.376860
_cell_length_b 26.942160
_cell_length_c 12.027827
_cell_angle_alpha 90.000000
_cell_angle_beta 75.884612
_cell_angle_gamma 90.000000
_cell_volume 2632.606535
_symmetry_space_group_name_H-M "C 2/M"
_symmetry_group_IT_number 12
_symmetry_cell_setting 'monoclinic'
loop_
_space_group_symop_operation_xyz
x,y,z
-x,y,-z
-x,-y,-z
x,-y,z
1/2+x,1/2+y,z
1/2-x,1/2+y,-z
1/2-x,1/2-y,-z
1/2+x,1/2-y,z
loop_
_atom_site_type_symbol
_atom_site_label
_atom_site_fract_x
_atom_site_fract_y
_atom_site_fract_z
Si Si1 0.235714 0.855231 0.733033
Si Si2 0.813401 0.194835 0.495329
Si Si3 0.859052 0.053912 0.593824
Si Si4 0.485293 0.444441 0.818613
Si Si5 0.807423 0.198677 0.043976
Si Si6 0.827198 0.390225 0.070524
Si Si7 0.389956 0.128518 0.313732
O O1 0.191105 0.835513 0.619198
O O2 0.229387 0.808039 0.818248
O O3 0.418473 0.876061 0.698443
O O4 0.123375 0.901119 0.797127
O O5 0.750000 0.250000 0.500000
O O6 0.693064 0.174615 0.611204
O O7 0.000000 0.193923 0.500000
O O8 0.919032 0.049765 0.707618
O O9 0.684686 0.080138 0.614200
O O10 0.000000 0.083293 0.500000
O O11 0.834110 0.000000 0.543053
O O12 0.546565 0.500000 0.847899
O O13 0.326466 0.428045 0.919668
O O14 0.750000 0.250000 0.000000
O O15 0.703296 0.157018 0.000378
O O16 0.000000 0.191511 0.000000
O O17 0.840732 0.370105 0.193257
O O18 0.000000 0.415059 0.000000
#
# Coordination Sequence:
#
# PCOD8112056 Si02
#       7
#     8   8   8   8   8   8   8
#     4  12  25  44  68  99 139 178 229 283 336 416
#     4  12  27  45  67  97 135 179 225 281 351 408
#     4   9  18  36  64  94 128 174 222 270 332 392
#     4  10  22  41  66  98 138 183 227 284 345 402
#     4  12  27  44  70  99 133 178 228 280 340 404
#     4  11  22  44  68  98 137 176 229 280 339 405
#     4  11  23  40  67  94 135 170 221 275 334 401
#
# _framework density 21.271694
#
# number of rings (size 3 to 8) (size 9 to 14) (size 15 to 20)
#    0.000    1.000    2.857    4.714    2.000    0.857 
#    0.000    1.429    0.000    4.286    0.000    0.000 
#    0.000    0.000    0.000    0.000    0.000    0.000 
#
# Total GULP energy -347014.274856 kJ/mol
# GULP energy per Si atom -12393.366959 kJ/mol
# Density = 2.122328 g / cm^3
# Si number density = 21.271694 Si / 1000 Ang^3
#
#
#
# Elastic Constant Matrix: (Units=GPa)
#
#
# Indices 1 2 3 4 5 6 
#
# 1 147.8620 43.6172 36.9868 0.0000 -30.8147 0.0000
# 2 43.6172 108.3915 37.2914 0.0000 -10.1243 0.0000
# 3 36.9868 37.2914 107.0059 0.0000 -19.6760 0.0000
# 4 0.0000 0.0000 0.0000 27.9247 0.0000 -6.6217
# 5 -30.8147 -10.1243 -19.6760 0.0000 44.3609 0.0000
# 6 0.0000 0.0000 0.0000 -6.6217 0.0000 24.4823
#
#
#
# Elastic Compliance Matrix: (Units=1/GPa)
#
#
# Indices 1 2 3 4 5 6 
#
# 1 0.008912 -0.002698 -0.001214 0.000000 0.005037 0.000000
# 2 -0.002698 0.011328 -0.003141 0.000000 -0.000682 0.000000
# 3 -0.001214 -0.003141 0.011511 0.000000 0.003546 0.000000
# 4 0.000000 0.000000 0.000000 0.038265 0.000000 0.010349
# 5 0.005037 -0.000682 0.003546 0.000000 0.027458 0.000000
# 6 0.000000 0.000000 0.000000 0.010349 0.000000 0.043645
#
#
# Mechanical properties :
#
#
# Convention : Reuss Voigt Hill
#
# Bulk Modulus (GPa) = 56.66964 66.56114 61.61539
# Shear Modulus (GPa) = 31.03509 35.71117 33.37313
#
# Velocity S-wave (km/s) = 3.82381 4.10178 3.96523
# Velocity P-wave (km/s) = 6.79662 7.33428 7.07056
#
# Compressibility (1/GPa) = 0.01764613
#
# Stress axis : x y z
#
# Youngs Moduli (GPa) = 112.20418 88.27346 86.87015
#
# Poissons Ratio (x) = 0.23818 0.10547
# Poissons Ratio (y) = 0.30275 0.27283
# Poissons Ratio (z) = 0.13623 0.27724
#
# Static dielectric constant tensor:
#      x y z
#    x 4.090490 0.000000 -0.029550 
#    y 0.000000 4.369220 0.000000 
#    z -0.029550 0.000000 4.324250 
# 
# 
# High freq. dielectric constant tensor:
#      x y z
#    x 1.841550 0.000000 -0.010010 
#    y 0.000000 1.832600 0.000000 
#    z -0.010010 0.000000 1.850680 
# 
# From -- ./inp_files/125166.got.cif
#   From: 2010.06.25/outbox.cif.g09.slc.cpg/sg12_63_cif.got.tgz:125166.got - 2010.06.28 00:19:55.
