data_PCOD8112969
_publ_section_title
;
Structure prediction by ZEFSAII (Michael W. Deem and Ramdas Pophale) SiO2 
 PCOD8112969
Probable space group: C 2/M
;
_chemical_formula_sum "Si O2"
_cell_formula_units_Z 64
_cell_length_a 20.142387
_cell_length_b 8.833294
_cell_length_c 31.435163
_cell_angle_alpha 90.000000
_cell_angle_beta 142.677914
_cell_angle_gamma 90.000000
_cell_volume 3391.043156
_symmetry_space_group_name_H-M "C 2/M"
_symmetry_group_IT_number 12
_symmetry_cell_setting 'monoclinic'
loop_
_space_group_symop_operation_xyz
x,y,z
-x,y,-z
-x,-y,-z
x,-y,z
1/2+x,1/2+y,z
1/2-x,1/2+y,-z
1/2-x,1/2-y,-z
1/2+x,1/2-y,z
loop_
_atom_site_type_symbol
_atom_site_label
_atom_site_fract_x
_atom_site_fract_y
_atom_site_fract_z
Si Si1 0.353311 0.821942 0.574829
Si Si2 0.267177 0.178799 0.054223
Si Si3 0.603920 0.824731 0.581258
Si Si4 0.332794 0.325300 0.653801
Si Si5 0.032980 0.674039 0.787678
Si Si6 0.687530 0.825146 0.786834
Si Si7 0.878590 0.819806 0.943873
Si Si8 0.071283 0.822711 0.652729
O O1 0.250000 0.750000 0.500000
O O2 0.355518 0.778977 0.625056
O O3 0.460695 0.766588 0.605615
O O4 0.346713 0.000000 0.566483
O O5 0.385900 0.225055 0.133142
O O6 0.173440 0.240375 0.038540
O O7 0.258590 0.000000 0.046174
O O8 0.250000 0.250000 0.000000
O O9 0.500000 0.777045 0.500000
O O10 0.712307 0.792424 0.609491
O O11 0.611486 0.720294 0.626373
O O12 0.595900 0.000000 0.590874
O O13 0.346854 0.500000 0.648377
O O14 0.424638 0.278155 0.735254
O O15 0.998717 0.500000 0.776036
O O16 0.091911 0.697848 0.772471
O O17 0.802911 0.770363 0.865584
O O18 0.664686 0.723442 0.734020
O O19 0.693129 0.000000 0.775603
O O20 0.881367 0.000000 0.946902
O O21 0.000000 0.750962 0.000000
O O22 0.048931 0.000000 0.644339
#
# Coordination Sequence:
#
# PCOD8112969 Si02
#       8
#     8   8   8   8   8   8   8   8
#     4  12  24  39  61  88 118 149 187 236 285 336
#     4   9  18  33  54  81 112 148 189 228 282 337
#     4  10  23  43  62  80 111 152 189 234 292 346
#     4  11  22  37  60  89 114 145 194 240 285 343
#     4   9  18  34  56  80 112 156 191 228 284 343
#     4   9  17  33  58  83 111 151 191 233 286 336
#     4   8  15  31  56  83 109 143 191 236 275 329
#     4  12  24  38  59  87 117 151 194 236 282 342
#
# _framework density 18.873246999999999
#
# number of rings (size 3 to 8) (size 9 to 14) (size 15 to 20)
#    0.000    2.000    1.250    4.875    0.000    2.750 
#    2.250    1.875    0.000    0.750    0.000    0.000 
#    0.000    0.000    0.000    0.000    0.000    0.000 
#
# Total GULP energy -396852.620677 kJ/mol
# GULP energy per Si atom -12401.644396 kJ/mol
# Density = 1.883029 g / cm^3
# Si number density = 18.873247 Si / 1000 Ang^3
#
#
#
# Elastic Constant Matrix: (Units=GPa)
#
#
# Indices 1 2 3 4 5 6 
#
# 1 53.5962 26.1728 41.3999 -0.0002 3.5081 0.0004
# 2 26.1728 84.9185 36.6917 -0.0003 0.8916 0.0008
# 3 41.3999 36.6917 136.9762 -0.0001 8.0487 0.0002
# 4 -0.0002 -0.0003 -0.0001 31.0237 0.0000 -4.1088
# 5 3.5081 0.8916 8.0487 0.0000 39.0297 -0.0001
# 6 0.0004 0.0008 0.0002 -4.1088 -0.0001 27.8257
#
#
#
# Elastic Compliance Matrix: (Units=1/GPa)
#
#
# Indices 1 2 3 4 5 6 
#
# 1 0.026310 -0.005300 -0.006479 0.000000 -0.000908 0.000000
# 2 -0.005300 0.014392 -0.002290 0.000000 0.000620 0.000000
# 3 -0.006479 -0.002290 0.009955 0.000000 -0.001418 0.000000
# 4 0.000000 0.000000 0.000000 0.032876 0.000000 0.004855
# 5 -0.000908 0.000620 -0.001418 0.000000 0.025981 0.000000
# 6 0.000000 0.000000 0.000000 0.004855 0.000000 0.036655
#
#
# Mechanical properties :
#
#
# Convention : Reuss Voigt Hill
#
# Bulk Modulus (GPa) = 44.40421 53.77996 49.09209
# Shear Modulus (GPa) = 27.50042 30.99093 29.24568
#
# Velocity S-wave (km/s) = 3.82135 4.05663 3.94075
# Velocity P-wave (km/s) = 6.56117 7.10625 6.83915
#
# Compressibility (1/GPa) = 0.02252039
#
# Stress axis : x y z
#
# Youngs Moduli (GPa) = 38.00788 69.48101 100.44730
#
# Poissons Ratio (x) = 0.36826 0.65080
# Poissons Ratio (y) = 0.20145 0.23000
# Poissons Ratio (z) = 0.24625 0.15910
#
# Static dielectric constant tensor:
#      x y z
#    x 3.811180 0.000040 -0.019900 
#    y 0.000040 4.041650 -0.000070 
#    z -0.019900 -0.000070 3.413550 
# 
# 
# High freq. dielectric constant tensor:
#      x y z
#    x 1.721220 0.000000 0.002110 
#    y 0.000000 1.718370 0.000000 
#    z 0.002110 0.000000 1.750190 
# 
# From -- ./inp_files/378498.got.cif
#   From: 2010.06.25/outbox.cif.g09.slc.cpg/sg12_190_cif.got.tgz:378498.got - 2010.06.28 00:19:55.
