data_PCOD8112389
_publ_section_title
;
Structure prediction by ZEFSAII (Michael W. Deem and Ramdas Pophale) SiO2 
 PCOD8112389
Probable space group: C 2/M
;
_chemical_formula_sum "Si O2"
_cell_formula_units_Z 48
_cell_length_a 15.220241
_cell_length_b 15.462130
_cell_length_c 11.288438
_cell_angle_alpha 90.000000
_cell_angle_beta 56.029477
_cell_angle_gamma 90.000000
_cell_volume 2203.177756
_symmetry_space_group_name_H-M "C 2/M"
_symmetry_group_IT_number 12
_symmetry_cell_setting 'monoclinic'
loop_
_space_group_symop_operation_xyz
x,y,z
-x,y,-z
-x,-y,-z
x,-y,z
1/2+x,1/2+y,z
1/2-x,1/2+y,-z
1/2-x,1/2-y,-z
1/2+x,1/2-y,z
loop_
_atom_site_type_symbol
_atom_site_label
_atom_site_fract_x
_atom_site_fract_y
_atom_site_fract_z
Si Si1 0.051399 0.749535 0.339308
Si Si2 0.881214 0.644439 0.071505
Si Si3 0.617906 0.655229 0.896347
Si Si4 0.846178 0.187059 0.395442
Si Si5 0.817916 0.902033 0.653730
Si Si6 0.316513 0.094879 0.865575
O O1 0.119023 0.837098 0.306821
O O2 0.123773 0.671081 0.245727
O O3 0.000000 0.719602 0.500000
O O4 0.959198 0.762963 0.311577
O O5 0.881648 0.746977 0.058095
O O6 0.808121 0.614841 0.236871
O O7 0.828270 0.602692 0.996763
O O8 0.000000 0.608511 0.000000
O O9 0.664216 0.647531 0.727590
O O10 0.692753 0.600303 0.925875
O O11 0.500000 0.616505 0.000000
O O12 0.750000 0.250000 0.500000
O O13 0.849008 0.112764 0.493190
O O14 0.848819 0.000000 0.663506
O O15 0.358856 0.000000 0.794959
#
# Coordination Sequence:
#
# PCOD8112389 Si02
#       6
#     8   8   8   8   8   8
#     4  10  22  43  68  93 135 174 225 281 332 395
#     4  11  23  44  70  98 135 174 225 283 335 395
#     4  11  23  42  73  97 133 184 224 270 339 397
#     4  11  22  43  66  98 134 175 221 277 334 400
#     4  11  24  42  70 101 132 175 226 280 336 390
#     4  12  26  43  66 100 138 178 224 275 334 402
#
# _framework density 21.786711
#
# number of rings (size 3 to 8) (size 9 to 14) (size 15 to 20)
#    0.000    1.000    3.333    4.000    2.333    5.667 
#    0.000    0.000    0.000    0.000    0.000    0.000 
#    0.000    0.000    0.000    0.000    0.000    0.000 
#
# Total GULP energy -297660.242881 kJ/mol
# GULP energy per Si atom -12402.510120 kJ/mol
# Density = 2.173712 g / cm^3
# Si number density = 21.786711 Si / 1000 Ang^3
#
#
#
# Elastic Constant Matrix: (Units=GPa)
#
#
# Indices 1 2 3 4 5 6 
#
# 1 155.9551 43.6754 52.0353 0.0000 -5.9633 0.0000
# 2 43.6754 136.5037 29.8954 0.0000 -8.7764 0.0000
# 3 52.0353 29.8954 102.4204 0.0000 -12.5904 0.0000
# 4 0.0000 0.0000 0.0000 23.6016 0.0000 5.5744
# 5 -5.9633 -8.7764 -12.5904 0.0000 38.1942 0.0000
# 6 0.0000 0.0000 0.0000 5.5744 0.0000 1.4851
#
#
#
# Elastic Compliance Matrix: (Units=1/GPa)
#
#
# Indices 1 2 3 4 5 6 
#
# 1 0.008124 -0.001825 -0.003638 0.000000 -0.000350 0.000000
# 2 -0.001825 0.008280 -0.001345 0.000000 0.001174 0.000000
# 3 -0.003638 -0.001345 0.012399 0.000000 0.003210 0.000000
# 4 0.000000 0.000000 0.000000 0.373429 0.000000 -1.401675
# 5 -0.000350 0.001174 0.003210 0.000000 0.027455 0.000000
# 6 0.000000 0.000000 0.000000 -1.401675 0.000000 5.934582
#
#
# Mechanical properties :
#
#
# Convention : Reuss Voigt Hill
#
# Bulk Modulus (GPa) = 65.84673 71.78795 68.81734
# Shear Modulus (GPa) = 0.78334 30.60772 15.69553
#
# Velocity S-wave (km/s) = 0.60027 3.75224 2.68697
# Velocity P-wave (km/s) = 5.54702 7.19682 6.42509
#
# Compressibility (1/GPa) = 0.01518678
#
# Stress axis : x y z
#
# Youngs Moduli (GPa) = 123.09963 120.77506 80.65147
#
# Poissons Ratio (x) = 0.22042 0.29337
# Poissons Ratio (y) = 0.22466 0.10850
# Poissons Ratio (z) = 0.44778 0.16247
#
# Static dielectric constant tensor:
#      x y z
#    x 4.257060 0.000000 -0.122770 
#    y 0.000000 3.709320 0.000000 
#    z -0.122770 0.000000 4.080440 
# 
# 
# High freq. dielectric constant tensor:
#      x y z
#    x 1.868750 0.000000 -0.007320 
#    y 0.000000 1.838350 0.000000 
#    z -0.007320 0.000000 1.862440 
# 
# From -- ./inp_files/143511.got.cif
#   From: 2010.06.25/outbox.cif.g09.slc.cpg/sg12_72_cif.got.tgz:143511.got - 2010.06.28 00:19:55.
