data_PCOD8112971
_publ_section_title
;
Structure prediction by ZEFSAII (Michael W. Deem and Ramdas Pophale) SiO2 
 PCOD8112971
Probable space group: C 2/M
;
_chemical_formula_sum "Si O2"
_cell_formula_units_Z 40
_cell_length_a 12.675885
_cell_length_b 20.323168
_cell_length_c 12.292363
_cell_angle_alpha 90.000000
_cell_angle_beta 145.466358
_cell_angle_gamma 90.000000
_cell_volume 1795.163040
_symmetry_space_group_name_H-M "C 2/M"
_symmetry_group_IT_number 12
_symmetry_cell_setting 'monoclinic'
loop_
_space_group_symop_operation_xyz
x,y,z
-x,y,-z
-x,-y,-z
x,-y,z
1/2+x,1/2+y,z
1/2-x,1/2+y,-z
1/2-x,1/2-y,-z
1/2+x,1/2-y,z
loop_
_atom_site_type_symbol
_atom_site_label
_atom_site_fract_x
_atom_site_fract_y
_atom_site_fract_z
Si Si1 0.315430 0.325371 0.164778
Si Si2 0.779833 0.928181 0.311187
Si Si3 0.271917 0.630769 0.528022
Si Si4 0.114996 0.679903 0.771207
Si Si5 0.201522 0.074667 0.217818
O O1 0.221302 0.372624 0.174496
O O2 0.534670 0.334079 0.333157
O O3 0.295806 0.249809 0.188259
O O4 0.204524 0.340974 0.961383
O O5 0.705195 0.911806 0.367791
O O6 0.000000 0.930998 0.500000
O O7 0.701097 0.000000 0.209222
O O8 0.299044 0.582669 0.653125
O O9 0.109383 0.684406 0.410885
O O10 0.154680 0.624749 0.714714
O O11 0.260107 0.000000 0.238811
O O12 0.000000 0.091640 0.000000
#
# Coordination Sequence:
#
# PCOD8112971 Si02
#       5
#     8   8   8   8   8
#     4  10  23  43  62  95 131 164 208 257 311 372
#     4   9  20  39  64  91 124 165 204 252 310 369
#     4  11  22  40  67  94 124 166 209 262 311 376
#     4  11  24  41  65  95 126 167 211 257 311 376
#     4  11  24  43  66  92 126 168 212 268 325 378
#
# _framework density 22.2821
#
# number of rings (size 3 to 8) (size 9 to 14) (size 15 to 20)
#    0.000    1.600    2.000    1.800    0.000   11.200 
#    0.000    1.000    0.000    0.000    0.000    0.000 
#    0.000    0.000    0.000    0.000    0.000    0.000 
#
# Total GULP energy -248002.872550 kJ/mol
# GULP energy per Si atom -12400.143627 kJ/mol
# Density = 2.223138 g / cm^3
# Si number density = 22.282100 Si / 1000 Ang^3
#
#
#
# Elastic Constant Matrix: (Units=GPa)
#
#
# Indices 1 2 3 4 5 6 
#
# 1 106.8414 57.9477 46.5641 0.0000 -28.9343 0.0000
# 2 57.9477 144.3037 38.9725 0.0000 -32.3035 0.0000
# 3 46.5641 38.9725 89.8742 0.0000 -17.3650 0.0000
# 4 0.0000 0.0000 0.0000 18.9993 0.0000 -3.1257
# 5 -28.9343 -32.3035 -17.3650 0.0000 41.3040 0.0000
# 6 0.0000 0.0000 0.0000 -3.1257 0.0000 12.5334
#
#
#
# Elastic Compliance Matrix: (Units=1/GPa)
#
#
# Indices 1 2 3 4 5 6 
#
# 1 0.014984 -0.003333 -0.005217 0.000000 0.005696 0.000000
# 2 -0.003333 0.009732 -0.001604 0.000000 0.004602 0.000000
# 3 -0.005217 -0.001604 0.014777 0.000000 0.001303 0.000000
# 4 0.000000 0.000000 0.000000 0.054886 0.000000 0.013688
# 5 0.005696 0.004602 0.001303 0.000000 0.032348 0.000000
# 6 0.000000 0.000000 0.000000 0.013688 0.000000 0.083200
#
#
# Mechanical properties :
#
#
# Convention : Reuss Voigt Hill
#
# Bulk Modulus (GPa) = 52.12616 69.77642 60.95129
# Shear Modulus (GPa) = 21.13009 27.73635 24.43322
#
# Velocity S-wave (km/s) = 3.08279 3.53197 3.31500
# Velocity P-wave (km/s) = 6.00966 6.92937 6.48583
#
# Compressibility (1/GPa) = 0.01918423
#
# Stress axis : x y z
#
# Youngs Moduli (GPa) = 66.73887 102.75861 67.67210
#
# Poissons Ratio (x) = 0.34247 0.35307
# Poissons Ratio (y) = 0.22242 0.10855
# Poissons Ratio (z) = 0.34820 0.16483
#
# Static dielectric constant tensor:
#      x y z
#    x 3.975550 0.000000 -0.122410 
#    y 0.000000 4.110780 0.000000 
#    z -0.122410 0.000000 4.040590 
# 
# 
# High freq. dielectric constant tensor:
#      x y z
#    x 1.870600 0.000000 -0.007540 
#    y 0.000000 1.876680 0.000000 
#    z -0.007540 0.000000 1.885860 
# 
# From -- ./inp_files/134165.got.cif
#   From: 2010.06.25/outbox.cif.g09.slc.cpg/sg12_68_cif.got.tgz:134165.got - 2010.06.28 00:19:55.
