data_PCOD8112332
_publ_section_title
;
Structure prediction by ZEFSAII (Michael W. Deem and Ramdas Pophale) SiO2 
 PCOD8112332
Probable space group: C 2/M
;
_chemical_formula_sum "Si O2"
_cell_formula_units_Z 40
_cell_length_a 15.876145
_cell_length_b 20.184278
_cell_length_c 10.307267
_cell_angle_alpha 90.000000
_cell_angle_beta 143.697623
_cell_angle_gamma 90.000000
_cell_volume 1955.499473
_symmetry_space_group_name_H-M "C 2/M"
_symmetry_group_IT_number 12
_symmetry_cell_setting 'monoclinic'
loop_
_space_group_symop_operation_xyz
x,y,z
-x,y,-z
-x,-y,-z
x,-y,z
1/2+x,1/2+y,z
1/2-x,1/2+y,-z
1/2-x,1/2-y,-z
1/2+x,1/2-y,z
loop_
_atom_site_type_symbol
_atom_site_label
_atom_site_fract_x
_atom_site_fract_y
_atom_site_fract_z
Si Si1 0.128889 0.500000 0.560344
Si Si2 0.373151 0.731854 0.053827
Si Si3 0.162295 0.117458 0.195403
Si Si4 0.630581 0.865418 0.076627
Si Si5 0.943331 0.500000 0.076445
Si Si6 0.824787 0.813661 0.532798
O O1 0.227277 0.562994 0.716541
O O2 0.000000 0.500000 0.500000
O O3 0.071240 0.500000 0.341074
O O4 0.321532 0.684191 0.872324
O O5 0.427581 0.803094 0.074774
O O6 0.250000 0.750000 0.000000
O O7 0.508328 0.698156 0.289688
O O8 0.201983 0.130752 0.393260
O O9 0.000000 0.091434 0.000000
O O10 0.767439 0.841110 0.325759
O O11 0.500000 0.888130 0.000000
O O12 0.655900 0.933395 0.024789
O O13 0.000000 0.500000 0.000000
O O14 0.750000 0.750000 0.500000
#
# Coordination Sequence:
#
# PCOD8112332 Si02
#       6
#     4   8   8   8   4   8
#     4  12  27  41  68 101 132 167 213 280 333 372
#     4  11  24  37  62  95 132 162 210 274 321 369
#     4  10  22  43  63  91 124 174 218 258 319 398
#     4  11  20  39  64  90 128 162 215 262 307 392
#     4  10  24  39  64  98 127 175 210 262 323 391
#     4  11  20  38  65  90 119 171 218 260 313 378
#
# _framework density 20.455131999999999
#
# number of rings (size 3 to 8) (size 9 to 14) (size 15 to 20)
#    0.000    1.200    4.000    3.300    2.800    0.800 
#    0.000    1.000    0.000    1.200    0.000    0.000 
#    0.000    0.000    0.000    0.000    0.000    0.000 
#
# Total GULP energy -247774.257332 kJ/mol
# GULP energy per Si atom -12388.712867 kJ/mol
# Density = 2.040858 g / cm^3
# Si number density = 20.455132 Si / 1000 Ang^3
#
#
#
# Elastic Constant Matrix: (Units=GPa)
#
#
# Indices 1 2 3 4 5 6 
#
# 1 81.7197 26.2559 26.6729 0.0000 22.0553 0.0000
# 2 26.2559 170.1705 50.4936 0.0000 9.5938 0.0000
# 3 26.6729 50.4936 100.0452 0.0000 3.3294 0.0000
# 4 0.0000 0.0000 0.0000 29.8707 0.0000 3.5865
# 5 22.0553 9.5938 3.3294 0.0000 30.8976 0.0000
# 6 0.0000 0.0000 0.0000 3.5865 0.0000 18.9338
#
#
#
# Elastic Compliance Matrix: (Units=1/GPa)
#
#
# Indices 1 2 3 4 5 6 
#
# 1 0.016757 -0.000864 -0.003656 0.000000 -0.011300 0.000000
# 2 -0.000864 0.007055 -0.003290 0.000000 -0.001219 0.000000
# 3 -0.003656 -0.003290 0.012555 0.000000 0.002278 0.000000
# 4 0.000000 0.000000 0.000000 0.034257 0.000000 -0.006489
# 5 -0.011300 -0.001219 0.002278 0.000000 0.040564 0.000000
# 6 0.000000 0.000000 0.000000 -0.006489 0.000000 0.054045
#
#
# Mechanical properties :
#
#
# Convention : Reuss Voigt Hill
#
# Bulk Modulus (GPa) = 48.19652 62.08670 55.14161
# Shear Modulus (GPa) = 26.62886 32.50795 29.56841
#
# Velocity S-wave (km/s) = 3.61199 3.99084 3.80613
# Velocity P-wave (km/s) = 6.40379 7.18709 6.80672
#
# Compressibility (1/GPa) = 0.02074839
#
# Stress axis : x y z
#
# Youngs Moduli (GPa) = 59.67550 141.75169 79.65205
#
# Poissons Ratio (x) = 0.12244 0.29118
# Poissons Ratio (y) = 0.05154 0.26203
# Poissons Ratio (z) = 0.21815 0.46631
#
# Static dielectric constant tensor:
#      x y z
#    x 3.432320 0.000000 -0.232880 
#    y 0.000000 -95.138510 0.000000 
#    z -0.232880 0.000000 4.095740 
# 
# 
# High freq. dielectric constant tensor:
#      x y z
#    x 1.769160 0.000000 -0.004670 
#    y 0.000000 1.819000 0.000000 
#    z -0.004670 0.000000 1.805640 
# 
# From -- ./inp_files/48542.got.cif
#   From: 2010.06.25/outbox.cif.g09.slc.cpg/sg12_25_cif.got.tgz:48542.got - 2010.06.28 00:19:55.
