data_PCOD8112346
_publ_section_title
;
Structure prediction by ZEFSAII (Michael W. Deem and Ramdas Pophale) SiO2 
 PCOD8112346
Probable space group: C 2/M
;
_chemical_formula_sum "Si O2"
_cell_formula_units_Z 64
_cell_length_a 31.581680
_cell_length_b 16.398977
_cell_length_c 12.533364
_cell_angle_alpha 90.000000
_cell_angle_beta 27.032916
_cell_angle_gamma 90.000000
_cell_volume 2950.228982
_symmetry_space_group_name_H-M "C 2/M"
_symmetry_group_IT_number 12
_symmetry_cell_setting 'monoclinic'
loop_
_space_group_symop_operation_xyz
x,y,z
-x,y,-z
-x,-y,-z
x,-y,z
1/2+x,1/2+y,z
1/2-x,1/2+y,-z
1/2-x,1/2-y,-z
1/2+x,1/2-y,z
loop_
_atom_site_type_symbol
_atom_site_label
_atom_site_fract_x
_atom_site_fract_y
_atom_site_fract_z
Si Si1 0.040730 0.823526 0.014442
Si Si2 0.774376 0.330023 0.808222
Si Si3 0.603748 0.406571 0.297567
Si Si4 0.804145 0.593303 0.149089
Si Si5 0.603684 0.095848 0.280961
Si Si6 0.832072 0.686205 0.293510
Si Si7 0.133118 0.162019 0.452769
Si Si8 0.226141 0.094415 0.692651
O O1 0.961120 0.808662 0.280388
O O2 0.073029 0.734999 0.896835
O O3 0.127146 0.868469 0.877466
O O4 0.000000 0.870026 0.000000
O O5 0.850647 0.370278 0.714028
O O6 0.802808 0.236441 0.731568
O O7 0.768135 0.369826 0.706473
O O8 0.672319 0.341427 0.088867
O O9 0.500000 0.381948 0.500000
O O10 0.628208 0.500000 0.208985
O O11 0.610048 0.399465 0.409738
O O12 0.829512 0.500000 0.119238
O O13 0.846117 0.654163 0.141806
O O14 0.692877 0.608110 0.401974
O O15 0.839146 0.619235 0.953108
O O16 0.500000 0.132139 0.500000
O O17 0.599972 0.000000 0.304804
O O18 0.750000 0.750000 0.500000
O O19 0.808962 0.609557 0.421117
O O20 0.207924 0.000000 0.748641
#
# Coordination Sequence:
#
# PCOD8112346 Si02
#       8
#     8   8   8   8   8   8   8   8
#     4  11  24  43  66  97 138 176 220 282 338 408
#     4  12  24  43  66 100 141 182 222 281 342 403
#     4  11  24  42  64  94 134 176 222 280 339 400
#     4  11  23  42  69  96 130 175 224 280 337 399
#     4  10  23  42  66  97 136 183 229 280 337 399
#     4  10  22  43  65  91 131 169 219 274 333 396
#     4  12  24  39  64  97 130 175 224 269 337 407
#     4  11  23  42  72 101 133 179 224 278 344 404
#
# _framework density 21.693231000000001
#
# number of rings (size 3 to 8) (size 9 to 14) (size 15 to 20)
#    0.000    1.000    1.250    6.750    1.750    2.750 
#    0.000    0.000    0.000    1.500    0.000    0.000 
#    0.000    0.000    0.000    0.000    0.000    0.000 
#
# Total GULP energy -396658.905330 kJ/mol
# GULP energy per Si atom -12395.590792 kJ/mol
# Density = 2.164386 g / cm^3
# Si number density = 21.693231 Si / 1000 Ang^3
#
#
#
# Elastic Constant Matrix: (Units=GPa)
#
#
# Indices 1 2 3 4 5 6 
#
# 1 139.7194 30.6121 21.0130 0.0000 -2.0308 0.0000
# 2 30.6121 75.0737 22.9485 0.0000 -3.8302 0.0000
# 3 21.0130 22.9485 94.4720 0.0000 -9.3338 0.0000
# 4 0.0000 0.0000 0.0000 -38.0534 0.0000 18.9646
# 5 -2.0308 -3.8302 -9.3338 0.0000 34.0593 0.0000
# 6 0.0000 0.0000 0.0000 18.9646 0.0000 25.8017
#
#
#
# Elastic Compliance Matrix: (Units=1/GPa)
#
#
# Indices 1 2 3 4 5 6 
#
# 1 0.007957 -0.002924 -0.001074 0.000000 -0.000149 0.000000
# 2 -0.002924 0.015478 -0.003037 0.000000 0.000734 0.000000
# 3 -0.001074 -0.003037 0.011842 0.000000 0.002840 0.000000
# 4 0.000000 0.000000 0.000000 -0.019234 0.000000 0.014137
# 5 -0.000149 0.000734 0.002840 0.000000 0.030212 0.000000
# 6 0.000000 0.000000 0.000000 0.014137 0.000000 0.028366
#
#
# Mechanical properties :
#
#
# Convention : Reuss Voigt Hill
#
# Bulk Modulus (GPa) = 47.15315 50.93472 49.04393
# Shear Modulus (GPa) = 52.21237 20.00763 36.11000
#
# Velocity S-wave (km/s) = 4.91129 3.04023 4.08435
# Velocity P-wave (km/s) = 7.34469 5.98786 6.70071
#
# Compressibility (1/GPa) = 0.02120749
#
# Stress axis : x y z
#
# Youngs Moduli (GPa) = 125.67209 64.60671 84.44227
#
# Poissons Ratio (x) = 0.18890 0.09072
# Poissons Ratio (y) = 0.36744 0.25645
# Poissons Ratio (z) = 0.13502 0.19621
#
# Static dielectric constant tensor:
#      x y z
#    x 4.158460 0.000000 0.025380 
#    y 0.000000 3.908940 0.000000 
#    z 0.025380 0.000000 4.215900 
# 
# 
# High freq. dielectric constant tensor:
#      x y z
#    x 1.866730 0.000000 0.002990 
#    y 0.000000 1.846920 0.000000 
#    z 0.002990 0.000000 1.856470 
# 
# From -- ./inp_files/190054.got.cif
#   From: 2010.06.25/outbox.cif.g09.slc.cpg/sg12_96_cif.got.tgz:190054.got - 2010.06.28 00:19:55.
