data_PCOD8112353
_publ_section_title
;
Structure prediction by ZEFSAII (Michael W. Deem and Ramdas Pophale) SiO2 
 PCOD8112353
Probable space group: C 2/M
;
_chemical_formula_sum "Si O2"
_cell_formula_units_Z 44
_cell_length_a 9.386851
_cell_length_b 26.033963
_cell_length_c 13.065796
_cell_angle_alpha 90.000000
_cell_angle_beta 47.206954
_cell_angle_gamma 90.000000
_cell_volume 2343.047437
_symmetry_space_group_name_H-M "C 2/M"
_symmetry_group_IT_number 12
_symmetry_cell_setting 'monoclinic'
loop_
_space_group_symop_operation_xyz
x,y,z
-x,y,-z
-x,-y,-z
x,-y,z
1/2+x,1/2+y,z
1/2-x,1/2+y,-z
1/2-x,1/2-y,-z
1/2+x,1/2-y,z
loop_
_atom_site_type_symbol
_atom_site_label
_atom_site_fract_x
_atom_site_fract_y
_atom_site_fract_z
Si Si1 0.368143 0.139605 0.973459
Si Si2 0.000619 0.823073 0.273979
Si Si3 0.436390 0.207346 0.287507
Si Si4 0.133454 0.631695 0.347662
Si Si5 0.500000 0.316820 0.500000
Si Si6 0.270921 0.441916 0.117362
O O1 0.479202 0.186547 0.861972
O O2 0.331899 0.091147 0.919482
O O3 0.500000 0.118737 0.000000
O O4 0.166215 0.157432 0.118503
O O5 0.006626 0.847845 0.387223
O O6 0.028386 0.761880 0.271198
O O7 0.801826 0.834047 0.313676
O O8 0.501142 0.167117 0.340983
O O9 0.202253 0.214865 0.402059
O O10 0.216608 0.581659 0.252619
O O11 0.000000 0.608039 0.500000
O O12 0.193521 0.500000 0.146565
O O13 0.500000 0.439660 0.000000
#
# Coordination Sequence:
#
# PCOD8112353 Si02
#       6
#     8   8   8   8   4   8
#     4  11  23  41  60  88 117 158 198 251 299 347
#     4  12  23  38  56  85 126 164 200 240 283 346
#     4  11  24  36  57  86 124 164 206 233 284 349
#     4  11  23  38  60  90 121 159 198 241 296 351
#     4  12  22  36  56  84 117 168 199 240 278 346
#     4  10  22  43  66  88 112 148 202 254 303 359
#
# _framework density 18.778963000000001
#
# number of rings (size 3 to 8) (size 9 to 14) (size 15 to 20)
#    0.000    0.909    5.455    2.182    2.545    0.727 
#    0.000    0.000    0.000    0.000    0.000    5.091 
#    0.000    0.000    0.000    0.000    0.000    0.000 
#
# Total GULP energy -272687.819143 kJ/mol
# GULP energy per Si atom -12394.900870 kJ/mol
# Density = 1.873622 g / cm^3
# Si number density = 18.778963 Si / 1000 Ang^3
#
#
#
# Elastic Constant Matrix: (Units=GPa)
#
#
# Indices 1 2 3 4 5 6 
#
# 1 94.2304 24.4422 30.2886 0.0000 7.9723 0.0000
# 2 24.4422 102.8905 51.1055 0.0000 3.1258 0.0000
# 3 30.2886 51.1055 138.1175 0.0000 10.8209 0.0000
# 4 0.0000 0.0000 0.0000 -11.7021 0.0000 12.7546
# 5 7.9723 3.1258 10.8209 0.0000 35.3481 0.0000
# 6 0.0000 0.0000 0.0000 12.7546 0.0000 12.9048
#
#
#
# Elastic Compliance Matrix: (Units=1/GPa)
#
#
# Indices 1 2 3 4 5 6 
#
# 1 0.011828 -0.001885 -0.001742 0.000000 -0.001968 0.000000
# 2 -0.001885 0.012211 -0.004153 0.000000 0.000617 0.000000
# 3 -0.001742 -0.004153 0.009323 0.000000 -0.002094 0.000000
# 4 0.000000 0.000000 0.000000 -0.041138 0.000000 0.040660
# 5 -0.001968 0.000617 -0.002094 0.000000 0.029320 0.000000
# 6 0.000000 0.000000 0.000000 0.040660 0.000000 0.037304
#
#
# Mechanical properties :
#
#
# Convention : Reuss Voigt Hill
#
# Bulk Modulus (GPa) = 56.17525 60.76791 58.47158
# Shear Modulus (GPa) = 62.23405 22.60363 42.41884
#
# Velocity S-wave (km/s) = 5.76301 3.47316 4.75789
# Velocity P-wave (km/s) = 8.61753 6.96517 7.83503
#
# Compressibility (1/GPa) = 0.01780143
#
# Stress axis : x y z
#
# Youngs Moduli (GPa) = 84.54800 81.89382 107.26055
#
# Poissons Ratio (x) = 0.15433 0.18688
# Poissons Ratio (y) = 0.15934 0.44548
# Poissons Ratio (z) = 0.14731 0.34013
#
# Static dielectric constant tensor:
#      x y z
#    x 3.600550 0.000000 0.112980 
#    y 0.000000 3.159250 0.000000 
#    z 0.112980 0.000000 3.857060 
# 
# 
# High freq. dielectric constant tensor:
#      x y z
#    x 1.748640 0.000000 0.002570 
#    y 0.000000 1.686260 0.000000 
#    z 0.002570 0.000000 1.756670 
# 
# From -- ./inp_files/41667.got.cif
#   From: 2010.06.25/outbox.cif.g09.slc.cpg/sg12_21_cif.got.tgz:41667.got - 2010.06.28 00:19:55.
