data_PCOD8112157
_publ_section_title
;
Structure prediction by ZEFSAII (Michael W. Deem and Ramdas Pophale) SiO2 
 PCOD8112157
Probable space group: C 2/M
;
_chemical_formula_sum "Si O2"
_cell_formula_units_Z 40
_cell_length_a 16.067468
_cell_length_b 12.226828
_cell_length_c 18.752336
_cell_angle_alpha 90.000000
_cell_angle_beta 147.355524
_cell_angle_gamma 90.000000
_cell_volume 1987.226424
_symmetry_space_group_name_H-M "C 2/M"
_symmetry_group_IT_number 12
_symmetry_cell_setting 'monoclinic'
loop_
_space_group_symop_operation_xyz
x,y,z
-x,y,-z
-x,-y,-z
x,-y,z
1/2+x,1/2+y,z
1/2-x,1/2+y,-z
1/2-x,1/2-y,-z
1/2+x,1/2-y,z
loop_
_atom_site_type_symbol
_atom_site_label
_atom_site_fract_x
_atom_site_fract_y
_atom_site_fract_z
Si Si1 0.574801 0.126726 0.750001
Si Si2 0.868022 0.224606 0.522314
Si Si3 0.019288 0.000000 0.599456
Si Si4 0.599279 0.201607 0.235535
Si Si5 0.627170 0.000000 0.152417
Si Si6 0.423871 0.372961 0.020276
O O1 0.509253 0.190502 0.633283
O O2 0.476083 0.151293 0.748528
O O3 0.569818 0.000000 0.726787
O O4 0.748020 0.166225 0.889414
O O5 0.750000 0.250000 0.500000
O O6 0.935863 0.102820 0.575325
O O7 0.775609 0.238065 0.380953
O O8 0.000000 0.000000 0.500000
O O9 0.198636 0.000000 0.751802
O O10 0.599817 0.108972 0.177015
O O11 0.507013 0.307206 0.142966
O O12 0.500000 0.000000 0.000000
O O13 0.438170 0.500000 0.050568
O O14 0.500000 0.345713 0.000000
#
# Coordination Sequence:
#
# PCOD8112157 Si02
#       6
#     8   8   4   8   4   8
#     4  10  22  42  64  90 128 172 218 271 332 392
#     4  10  24  40  67  95 130 174 212 270 334 396
#     4  12  24  46  70  98 141 174 223 284 335 381
#     4  11  21  42  63  92 130 165 218 269 329 401
#     4  12  26  40  70 102 133 172 218 279 337 393
#     4  10  23  41  61  87 127 170 217 274 327 388
#
# _framework density 20.128557000000001
#
# number of rings (size 3 to 8) (size 9 to 14) (size 15 to 20)
#    0.000    1.400    3.000    1.200    9.800    0.800 
#    5.400    0.000    0.000    4.200    0.000    0.000 
#    0.000    0.000    0.000    0.000    0.000    0.000 
#
# Total GULP energy -248005.866567 kJ/mol
# GULP energy per Si atom -12400.293328 kJ/mol
# Density = 2.008274 g / cm^3
# Si number density = 20.128557 Si / 1000 Ang^3
#
#
#
# Elastic Constant Matrix: (Units=GPa)
#
#
# Indices 1 2 3 4 5 6 
#
# 1 60.9336 33.9819 40.0892 0.0000 5.8807 0.0000
# 2 33.9819 126.4126 95.6431 -0.0005 -1.4993 -0.0006
# 3 40.0892 95.6431 215.4379 -0.0002 -2.3762 0.0007
# 4 0.0000 -0.0005 -0.0002 56.4659 -0.0001 24.2716
# 5 5.8807 -1.4993 -2.3762 -0.0001 31.8616 0.0003
# 6 0.0000 -0.0006 0.0007 24.2716 0.0003 57.6038
#
#
#
# Elastic Compliance Matrix: (Units=1/GPa)
#
#
# Indices 1 2 3 4 5 6 
#
# 1 0.020382 -0.003951 -0.002084 0.000000 -0.004103 0.000000
# 2 -0.003951 0.012678 -0.004883 0.000000 0.000962 0.000000
# 3 -0.002084 -0.004883 0.007205 0.000000 0.000692 0.000000
# 4 0.000000 0.000000 0.000000 0.021627 0.000000 -0.009113
# 5 -0.004103 0.000962 0.000692 0.000000 0.032240 0.000000
# 6 0.000000 0.000000 0.000000 -0.009113 0.000000 0.021200
#
#
# Mechanical properties :
#
#
# Convention : Reuss Voigt Hill
#
# Bulk Modulus (GPa) = 54.26023 82.46806 68.36415
# Shear Modulus (GPa) = 34.88954 44.72426 39.80690
#
# Velocity S-wave (km/s) = 4.16785 4.71885 4.45188
# Velocity P-wave (km/s) = 7.08355 8.41128 7.77581
#
# Compressibility (1/GPa) = 0.01842970
#
# Stress axis : x y z
#
# Youngs Moduli (GPa) = 49.06352 78.87490 138.79658
#
# Poissons Ratio (x) = 0.31163 0.28924
# Poissons Ratio (y) = 0.19385 0.67770
# Poissons Ratio (z) = 0.10225 0.38512
#
# Static dielectric constant tensor:
#      x y z
#    x 3.528400 0.000000 0.111990 
#    y 0.000000 3.842110 0.000000 
#    z 0.111990 0.000000 4.342700 
# 
# 
# High freq. dielectric constant tensor:
#      x y z
#    x 1.772920 0.000000 0.012320 
#    y 0.000000 1.793570 0.000000 
#    z 0.012320 0.000000 1.808650 
# 
# From -- ./inp_files/315861.got.cif
#   From: 2010.06.25/outbox.cif.g09.slc.cpg/sg12_158_cif.got.tgz:315861.got - 2010.06.28 00:19:55.
