data_PCOD8112349
_publ_section_title
;
Structure prediction by ZEFSAII (Michael W. Deem and Ramdas Pophale) SiO2 
 PCOD8112349
Probable space group: C 2/M
;
_chemical_formula_sum "Si O2"
_cell_formula_units_Z 56
_cell_length_a 20.997259
_cell_length_b 11.625373
_cell_length_c 11.570109
_cell_angle_alpha 90.000000
_cell_angle_beta 104.295276
_cell_angle_gamma 90.000000
_cell_volume 2736.824223
_symmetry_space_group_name_H-M "C 2/M"
_symmetry_group_IT_number 12
_symmetry_cell_setting 'monoclinic'
loop_
_space_group_symop_operation_xyz
x,y,z
-x,y,-z
-x,-y,-z
x,-y,z
1/2+x,1/2+y,z
1/2-x,1/2+y,-z
1/2-x,1/2-y,-z
1/2+x,1/2-y,z
loop_
_atom_site_type_symbol
_atom_site_label
_atom_site_fract_x
_atom_site_fract_y
_atom_site_fract_z
Si Si1 0.429407 0.134979 0.424219
Si Si2 0.656742 0.274253 0.226511
Si Si3 0.922703 0.368432 0.976188
Si Si4 0.529993 0.500000 0.838518
Si Si5 0.673806 0.726844 0.489701
Si Si6 0.401596 0.720691 0.190403
Si Si7 0.607230 0.500000 0.109024
Si Si8 0.714169 0.628532 0.730619
O O1 0.500000 0.180538 0.500000
O O2 0.369320 0.165663 0.483646
O O3 0.418639 0.185840 0.293250
O O4 0.430322 0.000000 0.410344
O O5 0.641433 0.309172 0.352954
O O6 0.652493 0.388833 0.148053
O O7 0.728941 0.222241 0.247645
O O8 0.605707 0.178601 0.157720
O O9 0.899795 0.500000 0.986510
O O10 0.897803 0.285674 0.066624
O O11 0.000000 0.360131 0.000000
O O12 0.544624 0.618331 0.777767
O O13 0.453304 0.500000 0.829942
O O14 0.578666 0.500000 0.968972
O O15 0.750000 0.750000 0.500000
O O16 0.671926 0.631630 0.591232
O O17 0.331193 0.661903 0.181675
O O18 0.742058 0.500000 0.760311
#
# Coordination Sequence:
#
# PCOD8112349 Si02
#       8
#     8   8   8   4   8   8   4   8
#     4  10  23  41  66  97 130 169 214 269 327 378
#     4  11  23  42  64  97 126 166 216 263 314 385
#     4  11  24  40  64  95 127 165 211 267 324 375
#     4  11  22  42  68  87 134 173 206 260 316 378
#     4   9  22  41  63  93 128 169 213 259 313 387
#     4  11  22  43  63  92 128 171 213 259 317 383
#     4  11  24  40  63  98 125 170 213 261 315 375
#     4  10  22  43  65  92 129 167 211 262 322 376
#
# _framework density 20.461670999999999
#
# number of rings (size 3 to 8) (size 9 to 14) (size 15 to 20)
#    0.000    1.571    2.143    1.714    5.000    3.429 
#   11.571    0.357    0.000    0.000    0.000    0.000 
#    0.000    0.000    0.000    0.000    0.000    0.000 
#
# Total GULP energy -347099.369312 kJ/mol
# GULP energy per Si atom -12396.406047 kJ/mol
# Density = 2.041510 g / cm^3
# Si number density = 20.461671 Si / 1000 Ang^3
#
#
#
# Elastic Constant Matrix: (Units=GPa)
#
#
# Indices 1 2 3 4 5 6 
#
# 1 97.5115 41.0660 33.4270 0.0000 -4.1448 0.0000
# 2 41.0660 120.9286 27.9851 0.0000 1.1211 0.0000
# 3 33.4270 27.9851 86.6758 0.0000 1.9739 0.0000
# 4 0.0000 0.0000 0.0000 7.4192 0.0000 3.3713
# 5 -4.1448 1.1211 1.9739 0.0000 28.4270 0.0000
# 6 0.0000 0.0000 0.0000 3.3713 0.0000 36.0480
#
#
#
# Elastic Compliance Matrix: (Units=1/GPa)
#
#
# Indices 1 2 3 4 5 6 
#
# 1 0.013239 -0.003592 -0.003999 0.000000 0.002350 0.000000
# 2 -0.003592 0.009912 -0.001797 0.000000 -0.000790 0.000000
# 3 -0.003999 -0.001797 0.013693 0.000000 -0.001463 0.000000
# 4 0.000000 0.000000 0.000000 0.140767 0.000000 -0.013165
# 5 0.002350 -0.000790 -0.001463 0.000000 0.035653 0.000000
# 6 0.000000 0.000000 0.000000 -0.013165 0.000000 0.028972
#
#
# Mechanical properties :
#
#
# Convention : Reuss Voigt Hill
#
# Bulk Modulus (GPa) = 55.34859 56.67466 56.01163
# Shear Modulus (GPa) = 18.72409 27.88803 23.30606
#
# Velocity S-wave (km/s) = 3.02831 3.69581 3.37858
# Velocity P-wave (km/s) = 6.27186 6.78012 6.53094
#
# Compressibility (1/GPa) = 0.01806731
#
# Stress axis : x y z
#
# Youngs Moduli (GPa) = 75.53563 100.88411 73.02896
#
# Poissons Ratio (x) = 0.36238 0.29207
# Poissons Ratio (y) = 0.27132 0.13124
# Poissons Ratio (z) = 0.30209 0.18130
#
# Static dielectric constant tensor:
#      x y z
#    x 3.778850 0.000000 -0.052170 
#    y 0.000000 3.743270 0.000000 
#    z -0.052170 0.000000 4.072570 
# 
# 
# High freq. dielectric constant tensor:
#      x y z
#    x 1.798930 0.000000 -0.003390 
#    y 0.000000 1.802820 0.000000 
#    z -0.003390 0.000000 1.806140 
# 
# From -- ./inp_files/165742.got.cif
#   From: 2010.06.25/outbox.cif.g09.slc.cpg/sg12_83_cif.got.tgz:165742.got - 2010.06.28 00:19:55.
