data_PCOD8112303
_publ_section_title
;
Structure prediction by ZEFSAII (Michael W. Deem and Ramdas Pophale) SiO2 
 PCOD8112303
Probable space group: C 2/M
;
_chemical_formula_sum "Si O2"
_cell_formula_units_Z 64
_cell_length_a 26.857221
_cell_length_b 11.748298
_cell_length_c 14.903635
_cell_angle_alpha 90.000000
_cell_angle_beta 138.889289
_cell_angle_gamma 90.000000
_cell_volume 3091.965425
_symmetry_space_group_name_H-M "C 2/M"
_symmetry_group_IT_number 12
_symmetry_cell_setting 'monoclinic'
loop_
_space_group_symop_operation_xyz
x,y,z
-x,y,-z
-x,-y,-z
x,-y,z
1/2+x,1/2+y,z
1/2-x,1/2+y,-z
1/2-x,1/2-y,-z
1/2+x,1/2-y,z
loop_
_atom_site_type_symbol
_atom_site_label
_atom_site_fract_x
_atom_site_fract_y
_atom_site_fract_z
Si Si1 0.298019 0.787260 0.269184
Si Si2 0.706007 0.128354 0.921669
Si Si3 0.496846 0.368963 0.226578
Si Si4 0.916412 0.373930 0.896228
Si Si5 0.059000 0.865956 0.502993
Si Si6 0.139505 0.209028 0.321049
Si Si7 0.287961 0.123475 0.449794
Si Si8 0.865150 0.300373 0.008718
O O1 0.324951 0.866090 0.222145
O O2 0.359978 0.690121 0.369455
O O3 0.284826 0.862603 0.338856
O O4 0.218458 0.733364 0.134727
O O5 0.638017 0.129971 0.901999
O O6 0.746000 0.000000 0.986517
O O7 0.750000 0.250000 0.000000
O O8 0.474963 0.500000 0.203151
O O9 0.526099 0.324749 0.362725
O O10 0.560666 0.352543 0.236279
O O11 0.419615 0.307828 0.093770
O O12 0.910932 0.500000 0.847376
O O13 0.861878 0.292788 0.766133
O O14 0.896806 0.381032 0.974266
O O15 0.000000 0.323711 0.000000
O O16 0.000000 0.830092 0.500000
O O17 0.073737 0.000000 0.522761
O O18 0.204843 0.120960 0.383207
O O19 0.160364 0.278726 0.438569
O O20 0.323904 0.000000 0.518447
#
# Coordination Sequence:
#
# PCOD8112303 Si02
#       8
#     8   8   8   8   8   8   8   8
#     4  11  22  41  66  97 133 168 217 270 336 405
#     4  10  23  41  65  94 133 174 219 273 332 397
#     4  11  23  41  67  97 133 176 221 275 333 395
#     4  11  22  38  60  85 122 169 217 262 318 389
#     4  10  22  42  69  98 128 170 224 280 330 391
#     4  11  22  42  60  91 127 167 223 268 326 385
#     4  11  23  39  63  92 128 169 212 269 333 393
#     4  11  23  41  63  97 134 169 217 273 334 392
#
# _framework density 20.698809000000001
#
# number of rings (size 3 to 8) (size 9 to 14) (size 15 to 20)
#    0.000    1.250    3.750    2.250    0.000    5.000 
#    0.000    1.875    0.000    1.500    0.000    0.000 
#    0.000    0.000    0.000    0.000    0.000    0.000 
#
# Total GULP energy -396540.453746 kJ/mol
# GULP energy per Si atom -12391.889180 kJ/mol
# Density = 2.065170 g / cm^3
# Si number density = 20.698809 Si / 1000 Ang^3
#
#
#
# Elastic Constant Matrix: (Units=GPa)
#
#
# Indices 1 2 3 4 5 6 
#
# 1 125.1966 20.5789 37.0693 0.0000 -16.5152 0.0000
# 2 20.5789 91.6260 31.9571 0.0000 0.7469 0.0000
# 3 37.0693 31.9571 90.9589 0.0000 4.2831 0.0000
# 4 0.0000 0.0000 0.0000 -50.5201 0.0000 -16.2394
# 5 -16.5152 0.7469 4.2831 0.0000 46.5838 0.0000
# 6 0.0000 0.0000 0.0000 -16.2394 0.0000 14.5994
#
#
#
# Elastic Compliance Matrix: (Units=1/GPa)
#
#
# Indices 1 2 3 4 5 6 
#
# 1 0.009780 -0.000883 -0.003856 0.000000 0.003836 0.000000
# 2 -0.000883 0.012520 -0.004032 0.000000 -0.000143 0.000000
# 3 -0.003856 -0.004032 0.014105 0.000000 -0.002599 0.000000
# 4 0.000000 0.000000 0.000000 -0.014581 0.000000 -0.016219
# 5 0.003836 -0.000143 -0.002599 0.000000 0.023068 0.000000
# 6 0.000000 0.000000 0.000000 -0.016219 0.000000 0.050456
#
#
# Mechanical properties :
#
#
# Convention : Reuss Voigt Hill
#
# Bulk Modulus (GPa) = 53.01641 54.11021 53.56331
# Shear Modulus (GPa) = 41.95423 16.67771 29.31597
#
# Velocity S-wave (km/s) = 4.50698 2.84162 3.76747
# Velocity P-wave (km/s) = 7.26311 6.07987 6.69767
#
# Compressibility (1/GPa) = 0.01886208
#
# Stress axis : x y z
#
# Youngs Moduli (GPa) = 102.24501 79.87422 70.89887
#
# Poissons Ratio (x) = 0.07052 0.27341
# Poissons Ratio (y) = 0.09027 0.28587
# Poissons Ratio (z) = 0.39429 0.32206
#
# Static dielectric constant tensor:
#      x y z
#    x 4.553290 0.000000 -0.508920 
#    y 0.000000 3.612980 0.000000 
#    z -0.508920 0.000000 3.777290 
# 
# 
# High freq. dielectric constant tensor:
#      x y z
#    x 1.831860 0.000000 -0.017920 
#    y 0.000000 1.803590 0.000000 
#    z -0.017920 0.000000 1.796880 
# 
# From -- ./inp_files/245959.got.cif
#   From: 2010.06.25/outbox.cif.g09.slc.cpg/sg12_123_cif.got.tgz:245959.got - 2010.06.28 00:19:55.
