data_PCOD8112967
_publ_section_title
;
Structure prediction by ZEFSAII (Michael W. Deem and Ramdas Pophale) SiO2 
 PCOD8112967
Probable space group: C 2/M
;
_chemical_formula_sum "Si O2"
_cell_formula_units_Z 48
_cell_length_a 14.215812
_cell_length_b 23.236357
_cell_length_c 8.737329
_cell_angle_alpha 90.000000
_cell_angle_beta 60.668302
_cell_angle_gamma 90.000000
_cell_volume 2516.138056
_symmetry_space_group_name_H-M "C 2/M"
_symmetry_group_IT_number 12
_symmetry_cell_setting 'monoclinic'
loop_
_space_group_symop_operation_xyz
x,y,z
-x,y,-z
-x,-y,-z
x,-y,z
1/2+x,1/2+y,z
1/2-x,1/2+y,-z
1/2-x,1/2-y,-z
1/2+x,1/2-y,z
loop_
_atom_site_type_symbol
_atom_site_label
_atom_site_fract_x
_atom_site_fract_y
_atom_site_fract_z
Si Si1 0.117354 0.109385 0.861841
Si Si2 0.544870 0.716923 0.298536
Si Si3 0.887658 0.700483 0.003494
Si Si4 0.426869 0.500000 0.312118
Si Si5 0.323369 0.280063 0.314314
Si Si6 0.655702 0.500000 0.294793
Si Si7 0.206668 0.885651 0.113046
O O1 0.202537 0.154396 0.715187
O O2 0.096072 0.055390 0.771471
O O3 0.176644 0.090907 0.969783
O O4 0.000000 0.137004 0.000000
O O5 0.500000 0.735184 0.500000
O O6 0.443661 0.708121 0.271827
O O7 0.616242 0.658993 0.249604
O O8 0.607512 0.769419 0.167304
O O9 0.815328 0.740540 0.171241
O O10 0.825239 0.641613 0.023597
O O11 0.000000 0.687107 0.000000
O O12 0.546825 0.500000 0.282472
O O13 0.350402 0.500000 0.518126
O O14 0.250000 0.250000 0.500000
O O15 0.718350 0.441340 0.209882
#
# Coordination Sequence:
#
# PCOD8112967 Si02
#       7
#     8   8   8   4   8   4   8
#     4  12  21  39  59  88 127 165 195 248 303 369
#     4  11  22  35  59  91 123 156 201 248 301 366
#     4  10  23  43  59  89 124 159 205 257 303 365
#     4  11  24  39  58  92 130 154 203 252 300 369
#     4  11  22  36  57  88 127 163 200 245 305 359
#     4  11  25  38  60  93 121 163 203 248 305 361
#     4  12  23  39  65  86 123 166 206 246 309 363
#
# _framework density 19.076854999999998
#
# number of rings (size 3 to 8) (size 9 to 14) (size 15 to 20)
#    0.000    0.833    5.000    2.750    9.333    0.000 
#    0.000    0.417    0.000    0.000    0.000    1.750 
#    0.000    0.000    0.000    0.000    0.000    0.000 
#
# Total GULP energy -297414.650439 kJ/mol
# GULP energy per Si atom -12392.277102 kJ/mol
# Density = 1.903343 g / cm^3
# Si number density = 19.076855 Si / 1000 Ang^3
#
#
#
# Elastic Constant Matrix: (Units=GPa)
#
#
# Indices 1 2 3 4 5 6 
#
# 1 52.8153 38.1213 27.0130 0.0000 5.4753 0.0000
# 2 38.1213 127.0025 74.5393 0.0000 -9.6129 0.0000
# 3 27.0130 74.5393 159.0563 0.0000 7.8573 0.0000
# 4 0.0000 0.0000 0.0000 26.8344 0.0000 1.6833
# 5 5.4753 -9.6129 7.8573 0.0000 27.3116 0.0000
# 6 0.0000 0.0000 0.0000 1.6833 0.0000 31.4525
#
#
#
# Elastic Compliance Matrix: (Units=1/GPa)
#
#
# Indices 1 2 3 4 5 6 
#
# 1 0.025812 -0.008304 -0.000094 0.000000 -0.008070 0.000000
# 2 -0.008304 0.014366 -0.005736 0.000000 0.008371 0.000000
# 3 -0.000094 -0.005736 0.009221 0.000000 -0.004653 0.000000
# 4 0.000000 0.000000 0.000000 0.037391 0.000000 -0.002001
# 5 -0.008070 0.008371 -0.004653 0.000000 0.042517 0.000000
# 6 0.000000 0.000000 0.000000 -0.002001 0.000000 0.031901
#
#
# Mechanical properties :
#
#
# Convention : Reuss Voigt Hill
#
# Bulk Modulus (GPa) = 47.31983 68.69123 58.00553
# Shear Modulus (GPa) = 25.44279 30.39975 27.92127
#
# Velocity S-wave (km/s) = 3.65595 3.99625 3.82988
# Velocity P-wave (km/s) = 6.53299 7.57490 7.07316
#
# Compressibility (1/GPa) = 0.02113279
#
# Stress axis : x y z
#
# Youngs Moduli (GPa) = 38.74182 69.60692 108.44947
#
# Poissons Ratio (x) = 0.57799 0.01016
# Poissons Ratio (y) = 0.32170 0.62206
# Poissons Ratio (z) = 0.00363 0.39926
#
# Static dielectric constant tensor:
#      x y z
#    x 3.449610 0.000000 0.210660 
#    y 0.000000 3.445150 0.000000 
#    z 0.210660 0.000000 3.982190 
# 
# 
# High freq. dielectric constant tensor:
#      x y z
#    x 1.727040 0.000000 0.024130 
#    y 0.000000 1.733990 0.000000 
#    z 0.024130 0.000000 1.751410 
# 
# From -- ./inp_files/63411.got.cif
#   From: 2010.06.25/outbox.cif.g09.slc.cpg/sg12_32_cif.got.tgz:63411.got - 2010.06.28 00:19:55.
