data_PCOD8112387
_publ_section_title
;
Structure prediction by ZEFSAII (Michael W. Deem and Ramdas Pophale) SiO2 
 PCOD8112387
Probable space group: C 2/M
;
_chemical_formula_sum "Si O2"
_cell_formula_units_Z 44
_cell_length_a 25.965683
_cell_length_b 13.674473
_cell_length_c 14.270906
_cell_angle_alpha 90.000000
_cell_angle_beta 28.137605
_cell_angle_gamma 90.000000
_cell_volume 2389.610785
_symmetry_space_group_name_H-M "C 2/M"
_symmetry_group_IT_number 12
_symmetry_cell_setting 'monoclinic'
loop_
_space_group_symop_operation_xyz
x,y,z
-x,y,-z
-x,-y,-z
x,-y,z
1/2+x,1/2+y,z
1/2-x,1/2+y,-z
1/2-x,1/2-y,-z
1/2+x,1/2-y,z
loop_
_atom_site_type_symbol
_atom_site_label
_atom_site_fract_x
_atom_site_fract_y
_atom_site_fract_z
Si Si1 0.875397 0.000000 0.161213
Si Si2 0.332836 0.283131 0.446670
Si Si3 0.802463 0.000000 0.475868
Si Si4 0.453409 0.113070 0.478197
Si Si5 0.587398 0.000000 0.941372
Si Si6 0.048962 0.684087 0.132838
Si Si7 0.224086 0.176896 0.788417
O O1 0.786735 0.000000 0.388190
O O2 0.852344 0.903448 0.138345
O O3 0.000000 0.000000 0.000000
O O4 0.250000 0.250000 0.500000
O O5 0.364143 0.398569 0.400079
O O6 0.445139 0.228176 0.245542
O O7 0.277563 0.253861 0.632142
O O8 0.694639 0.000000 0.708259
O O9 0.500000 0.158244 0.500000
O O10 0.516093 0.162662 0.291836
O O11 0.322590 0.126572 0.686844
O O12 0.482144 0.000000 0.425948
O O13 0.500000 0.000000 0.000000
O O14 0.583383 0.908271 0.016483
O O15 0.147501 0.761585 0.980947
#
# Coordination Sequence:
#
# PCOD8112387 Si02
#       7
#     4   8   4   8   4   8   8
#     4  12  24  36  58  86 131 174 203 242 292 362
#     4  11  22  35  56  83 124 166 204 240 291 357
#     4  12  22  38  56  82 123 171 203 240 283 348
#     4  10  22  43  68  88 114 155 209 269 315 358
#     4  12  24  34  58  88 127 168 198 242 291 356
#     4  11  24  39  59  91 122 159 206 249 306 371
#     4  11  23  38  59  91 120 159 209 249 304 371
#
# _framework density 18.413041
#
# number of rings (size 3 to 8) (size 9 to 14) (size 15 to 20)
#    0.000    0.909    5.455    2.182    2.545    0.727 
#    0.000    0.000    0.000    0.000    0.000    3.818 
#    0.000    0.000    0.000    0.000    0.000    0.000 
#
# Total GULP energy -272716.794818 kJ/mol
# GULP energy per Si atom -12396.217946 kJ/mol
# Density = 1.837113 g / cm^3
# Si number density = 18.413041 Si / 1000 Ang^3
#
#
#
# Elastic Constant Matrix: (Units=GPa)
#
#
# Indices 1 2 3 4 5 6 
#
# 1 107.7197 34.6823 49.0563 0.0000 -1.4945 0.0000
# 2 34.6823 123.4754 45.0820 0.0000 3.7610 0.0000
# 3 49.0563 45.0820 128.1575 0.0000 2.9782 0.0000
# 4 0.0000 0.0000 0.0000 46.0356 0.0000 -1.0773
# 5 -1.4945 3.7610 2.9782 0.0000 23.1502 0.0000
# 6 0.0000 0.0000 0.0000 -1.0773 0.0000 18.6261
#
#
#
# Elastic Compliance Matrix: (Units=1/GPa)
#
#
# Indices 1 2 3 4 5 6 
#
# 1 0.011667 -0.001929 -0.003824 0.000000 0.001558 0.000000
# 2 -0.001929 0.009639 -0.002621 0.000000 -0.001353 0.000000
# 3 -0.003824 -0.002621 0.010215 0.000000 -0.001135 0.000000
# 4 0.000000 0.000000 0.000000 0.021752 0.000000 0.001258
# 5 0.001558 -0.001353 -0.001135 0.000000 0.043663 0.000000
# 6 0.000000 0.000000 0.000000 0.001258 0.000000 0.053761
#
#
# Mechanical properties :
#
#
# Convention : Reuss Voigt Hill
#
# Bulk Modulus (GPa) = 67.68523 68.55488 68.12006
# Shear Modulus (GPa) = 29.00781 32.93119 30.96950
#
# Velocity S-wave (km/s) = 3.97343 4.23362 4.10559
# Velocity P-wave (km/s) = 7.60855 7.82372 7.71689
#
# Compressibility (1/GPa) = 0.01477427
#
# Stress axis : x y z
#
# Youngs Moduli (GPa) = 85.70956 103.74938 97.89574
#
# Poissons Ratio (x) = 0.20008 0.37434
# Poissons Ratio (y) = 0.16529 0.25658
# Poissons Ratio (z) = 0.32774 0.27192
#
# Static dielectric constant tensor:
#      x y z
#    x 3.344510 0.000000 0.000850 
#    y 0.000000 3.742300 0.000000 
#    z 0.000850 0.000000 3.545010 
# 
# 
# High freq. dielectric constant tensor:
#      x y z
#    x 1.686460 0.000000 0.002920 
#    y 0.000000 1.730410 0.000000 
#    z 0.002920 0.000000 1.728770 
# 
# From -- ./inp_files/245572.got.cif
#   From: 2010.06.25/outbox.cif.g09.slc.cpg/sg12_123_cif.got.tgz:245572.got - 2010.06.28 00:19:55.
