data_PCOD8112818
_publ_section_title
;
Structure prediction by ZEFSAII (Michael W. Deem and Ramdas Pophale) SiO2 
 PCOD8112818
Probable space group: C 2/M
;
_chemical_formula_sum "Si O2"
_cell_formula_units_Z 36
_cell_length_a 9.145208
_cell_length_b 26.174832
_cell_length_c 12.836803
_cell_angle_alpha 90.000000
_cell_angle_beta 144.436882
_cell_angle_gamma 90.000000
_cell_volume 1787.139079
_symmetry_space_group_name_H-M "C 2/M"
_symmetry_group_IT_number 12
_symmetry_cell_setting 'monoclinic'
loop_
_space_group_symop_operation_xyz
x,y,z
-x,y,-z
-x,-y,-z
x,-y,z
1/2+x,1/2+y,z
1/2-x,1/2+y,-z
1/2-x,1/2-y,-z
1/2+x,1/2-y,z
loop_
_atom_site_type_symbol
_atom_site_label
_atom_site_fract_x
_atom_site_fract_y
_atom_site_fract_z
Si Si1 0.960634 0.312514 0.268842
Si Si2 0.057402 0.126376 0.416376
Si Si3 0.000000 0.118193 0.000000
Si Si4 0.704531 0.559721 0.318506
Si Si5 0.704935 0.779021 0.205594
O O1 0.726922 0.346028 0.092956
O O2 0.884465 0.270674 0.311358
O O3 0.166813 0.349918 0.435813
O O4 0.072476 0.280083 0.239364
O O5 0.049345 0.080654 0.328484
O O6 0.000000 0.105539 0.500000
O O7 0.853281 0.168936 0.269024
O O8 0.907751 0.083883 0.850969
O O9 0.652694 0.500000 0.283442
O O10 0.000000 0.571865 0.500000
O O11 0.500000 0.770091 0.000000
#
# Coordination Sequence:
#
# PCOD8112818 Si02
#       5
#     8   8   4   8   8
#     4  11  23  37  59  92 129 173 206 256 309 375
#     4  10  23  42  62  92 131 167 210 261 318 375
#     4  12  23  42  68  94 132 164 215 260 320 374
#     4  11  24  43  69  94 123 165 216 270 318 373
#     4  11  22  36  58  90 130 171 212 251 307 380
#
# _framework density 20.143927999999999
#
# number of rings (size 3 to 8) (size 9 to 14) (size 15 to 20)
#    0.000    1.111    3.333    3.000    3.111    0.444 
#    0.000    0.000    0.000    6.000    0.000    0.000 
#    0.000    0.000    0.000    0.000    0.000    0.000 
#
# Total GULP energy -223239.592503 kJ/mol
# GULP energy per Si atom -12402.199584 kJ/mol
# Density = 2.009808 g / cm^3
# Si number density = 20.143928 Si / 1000 Ang^3
#
#
#
# Elastic Constant Matrix: (Units=GPa)
#
#
# Indices 1 2 3 4 5 6 
#
# 1 134.2341 88.0036 56.4961 0.0000 -5.4206 0.0000
# 2 88.0036 119.8494 37.4009 0.0000 -13.0123 0.0000
# 3 56.4961 37.4009 74.6935 0.0000 -7.9675 0.0000
# 4 0.0000 0.0000 0.0000 28.0966 0.0000 11.6661
# 5 -5.4206 -13.0123 -7.9675 0.0000 35.0612 0.0000
# 6 0.0000 0.0000 0.0000 11.6661 0.0000 28.0616
#
#
#
# Elastic Compliance Matrix: (Units=1/GPa)
#
#
# Indices 1 2 3 4 5 6 
#
# 1 0.018121 -0.010988 -0.008547 0.000000 -0.003219 0.000000
# 2 -0.010988 0.016790 0.000397 0.000000 0.004623 0.000000
# 3 -0.008547 0.000397 0.020014 0.000000 0.003374 0.000000
# 4 0.000000 0.000000 0.000000 0.043017 0.000000 -0.017883
# 5 -0.003219 0.004623 0.003374 0.000000 0.030506 0.000000
# 6 0.000000 0.000000 0.000000 -0.017883 0.000000 0.043070
#
#
# Mechanical properties :
#
#
# Convention : Reuss Voigt Hill
#
# Bulk Modulus (GPa) = 60.06699 76.95315 68.51007
# Shear Modulus (GPa) = 23.21850 28.03564 25.62707
#
# Velocity S-wave (km/s) = 3.39872 3.73469 3.57066
# Velocity P-wave (km/s) = 6.72944 7.54200 7.14728
#
# Compressibility (1/GPa) = 0.01664808
#
# Stress axis : x y z
#
# Youngs Moduli (GPa) = 55.18523 59.55874 49.96424
#
# Poissons Ratio (x) = 0.65443 0.42707
# Poissons Ratio (y) = 0.60637 -0.01983
# Poissons Ratio (z) = 0.47169 -0.02363
#
# Static dielectric constant tensor:
#      x y z
#    x 3.947360 0.000000 0.009480 
#    y 0.000000 3.591190 0.000000 
#    z 0.009480 0.000000 4.248260 
# 
# 
# High freq. dielectric constant tensor:
#      x y z
#    x 1.797460 0.000000 0.005560 
#    y 0.000000 1.780840 0.000000 
#    z 0.005560 0.000000 1.793870 
# 
# From -- ./inp_files/38880.got.cif
#   From: 2010.06.25/outbox.cif.g09.slc.cpg/sg12_20_cif.got.tgz:38880.got - 2010.06.28 00:19:55.
