data_PCOD8112306
_publ_section_title
;
Structure prediction by ZEFSAII (Michael W. Deem and Ramdas Pophale) SiO2 
 PCOD8112306
Probable space group: C 2/M
;
_chemical_formula_sum "Si O2"
_cell_formula_units_Z 64
_cell_length_a 9.542264
_cell_length_b 29.704114
_cell_length_c 14.930500
_cell_angle_alpha 90.000000
_cell_angle_beta 132.106656
_cell_angle_gamma 90.000000
_cell_volume 3139.688451
_symmetry_space_group_name_H-M "C 2/M"
_symmetry_group_IT_number 12
_symmetry_cell_setting 'monoclinic'
loop_
_space_group_symop_operation_xyz
x,y,z
-x,y,-z
-x,-y,-z
x,-y,z
1/2+x,1/2+y,z
1/2-x,1/2+y,-z
1/2-x,1/2-y,-z
1/2+x,1/2-y,z
loop_
_atom_site_type_symbol
_atom_site_label
_atom_site_fract_x
_atom_site_fract_y
_atom_site_fract_z
Si Si1 0.334497 0.552283 0.358338
Si Si2 0.619830 0.168595 0.133617
Si Si3 0.188262 0.647794 0.522841
Si Si4 0.155949 0.762131 0.367713
Si Si5 0.382690 0.364403 0.860865
Si Si6 0.246715 0.762326 0.216869
Si Si7 0.027979 0.891430 0.735597
Si Si8 0.532056 0.875766 0.274566
O O1 0.500000 0.564976 0.500000
O O2 0.286905 0.500000 0.341901
O O3 0.378118 0.564961 0.272401
O O4 0.144919 0.578375 0.306470
O O5 0.621376 0.222653 0.120340
O O6 0.833012 0.150195 0.228013
O O7 0.513938 0.155406 0.179673
O O8 0.500000 0.147782 0.000000
O O9 0.339336 0.683859 0.626270
O O10 0.322038 0.605367 0.598550
O O11 0.136812 0.653712 0.396687
O O12 0.000000 0.646970 0.500000
O O13 0.250000 0.750000 0.500000
O O14 0.281192 0.748714 0.335740
O O15 0.954369 0.738903 0.263296
O O16 0.357474 0.310317 0.836820
O O17 0.494487 0.389888 0.828523
O O18 0.178004 0.387699 0.781703
O O19 0.500000 0.373486 0.000000
#
# Coordination Sequence:
#
# PCOD8112306 Si02
#       8
#     8   8   8   8   8   8   8   8
#     4  10  22  42  70 101 126 148 185 244 314 387
#     4  11  23  39  57  84 123 168 221 259 295 345
#     4  12  20  38  59  88 126 162 202 250 314 365
#     4  12  23  33  51  79 121 163 207 257 307 359
#     4  12  24  41  62  87 124 172 218 253 297 354
#     4  12  22  38  52  84 118 165 217 265 298 334
#     4  11  22  40  64  89 125 162 197 251 311 366
#     4  11  23  38  66  91 123 164 199 254 309 365
#
# _framework density 20.384187000000001
#
# number of rings (size 3 to 8) (size 9 to 14) (size 15 to 20)
#    0.000    0.625    5.000    4.500    0.000    0.000 
#    0.000    4.375    0.000   16.500    0.000    0.000 
#    0.000    0.000    0.000    0.000    0.000    0.000 
#
# Total GULP energy -396450.382386 kJ/mol
# GULP energy per Si atom -12389.074450 kJ/mol
# Density = 2.033779 g / cm^3
# Si number density = 20.384187 Si / 1000 Ang^3
#
#
#
# Elastic Constant Matrix: (Units=GPa)
#
#
# Indices 1 2 3 4 5 6 
#
# 1 111.8331 33.9094 29.9936 0.0000 -16.7476 0.0000
# 2 33.9094 75.5035 17.0174 0.0000 -1.0850 0.0000
# 3 29.9936 17.0174 108.6535 0.0000 -15.2596 0.0000
# 4 0.0000 0.0000 0.0000 17.7330 0.0000 -1.7923
# 5 -16.7476 -1.0850 -15.2596 0.0000 31.0890 0.0000
# 6 0.0000 0.0000 0.0000 -1.7923 0.0000 19.9684
#
#
#
# Elastic Compliance Matrix: (Units=1/GPa)
#
#
# Indices 1 2 3 4 5 6 
#
# 1 0.011636 -0.004761 -0.001729 0.000000 0.005254 0.000000
# 2 -0.004761 0.015688 -0.001532 0.000000 -0.002769 0.000000
# 3 -0.001729 -0.001532 0.010507 0.000000 0.004172 0.000000
# 4 0.000000 0.000000 0.000000 0.056908 0.000000 0.005108
# 5 0.005254 -0.002769 0.004172 0.000000 0.036947 0.000000
# 6 0.000000 0.000000 0.000000 0.005108 0.000000 0.050538
#
#
# Mechanical properties :
#
#
# Convention : Reuss Voigt Hill
#
# Bulk Modulus (GPa) = 45.89616 50.87012 48.38314
# Shear Modulus (GPa) = 24.32758 28.09607 26.21182
#
# Velocity S-wave (km/s) = 3.45839 3.71661 3.58982
# Velocity P-wave (km/s) = 6.20578 6.58995 6.40075
#
# Compressibility (1/GPa) = 0.02178832
#
# Stress axis : x y z
#
# Youngs Moduli (GPa) = 85.94203 63.74331 95.17804
#
# Poissons Ratio (x) = 0.30346 0.16452
# Poissons Ratio (y) = 0.40914 0.14579
# Poissons Ratio (z) = 0.14856 0.09764
#
# Static dielectric constant tensor:
#      x y z
#    x 3.918220 0.000000 -0.038860 
#    y 0.000000 6.943460 0.000000 
#    z -0.038860 0.000000 3.742840 
# 
# 
# High freq. dielectric constant tensor:
#      x y z
#    x 1.814960 0.000000 -0.006560 
#    y 0.000000 1.748890 0.000000 
#    z -0.006560 0.000000 1.802300 
# 
# From -- ./inp_files/200954.got.cif
#   From: 2010.06.25/outbox.cif.g09.slc.cpg/sg12_101_cif.got.tgz:200954.got - 2010.06.28 00:19:55.
