data_PCOD8112895
_publ_section_title
;
Structure prediction by ZEFSAII (Michael W. Deem and Ramdas Pophale) SiO2 
 PCOD8112895
Probable space group: C 2/M
;
_chemical_formula_sum "Si O2"
_cell_formula_units_Z 40
_cell_length_a 15.539349
_cell_length_b 8.635078
_cell_length_c 30.800163
_cell_angle_alpha 90.000000
_cell_angle_beta 27.924564
_cell_angle_gamma 90.000000
_cell_volume 1935.460404
_symmetry_space_group_name_H-M "C 2/M"
_symmetry_group_IT_number 12
_symmetry_cell_setting 'monoclinic'
loop_
_space_group_symop_operation_xyz
x,y,z
-x,y,-z
-x,-y,-z
x,-y,z
1/2+x,1/2+y,z
1/2-x,1/2+y,-z
1/2-x,1/2-y,-z
1/2+x,1/2-y,z
loop_
_atom_site_type_symbol
_atom_site_label
_atom_site_fract_x
_atom_site_fract_y
_atom_site_fract_z
Si Si1 0.929190 0.181627 0.898612
Si Si2 0.283433 0.321742 0.782821
Si Si3 0.448289 0.181357 0.402512
Si Si4 0.630807 0.320271 0.402085
Si Si5 0.493664 0.320614 0.772524
O O1 0.943530 0.242493 0.842733
O O2 0.106915 0.225268 0.847337
O O3 0.908026 0.000000 0.907800
O O4 0.750000 0.250000 0.000000
O O5 0.247659 0.500000 0.786952
O O6 0.466650 0.263447 0.677307
O O7 0.318848 0.299423 0.818566
O O8 0.250000 0.250000 0.500000
O O9 0.581228 0.213048 0.383570
O O10 0.432259 0.000000 0.400599
O O11 0.500000 0.275119 0.500000
O O12 0.607952 0.500000 0.399917
O O13 0.839797 0.280945 0.321172
O O14 0.553957 0.500000 0.747236
#
# Coordination Sequence:
#
# PCOD8112895 Si02
#       5
#     8   8   8   8   8
#     4  11  24  44  68  96 129 171 217 271 329 385
#     4  11  23  42  67  96 129 169 214 268 325 383
#     4  12  24  39  60  90 129 172 216 264 320 383
#     4  11  23  38  60  92 128 168 216 265 316 378
#     4  10  23  42  65  93 129 170 213 263 324 386
#
# _framework density 20.666917000000002
#
# number of rings (size 3 to 8) (size 9 to 14) (size 15 to 20)
#    0.000    1.000    2.000    4.800    0.000    8.000 
#    0.000    4.000    0.000    0.000    0.000    0.000 
#    0.000    0.000    0.000    0.000    0.000    0.000 
#
# Total GULP energy -248114.338399 kJ/mol
# GULP energy per Si atom -12405.716920 kJ/mol
# Density = 2.061988 g / cm^3
# Si number density = 20.666917 Si / 1000 Ang^3
#
#
#
# Elastic Constant Matrix: (Units=GPa)
#
#
# Indices 1 2 3 4 5 6 
#
# 1 125.2433 20.7237 49.1372 0.0028 4.5236 -0.0034
# 2 20.7237 54.0736 24.8950 0.0064 10.3443 -0.0066
# 3 49.1372 24.8950 144.5010 -0.0032 2.9680 0.0059
# 4 0.0028 0.0064 -0.0032 37.9315 0.0021 -4.6907
# 5 4.5236 10.3443 2.9680 0.0021 28.2308 0.0014
# 6 -0.0034 -0.0066 0.0059 -4.6907 0.0014 35.0643
#
#
#
# Elastic Compliance Matrix: (Units=1/GPa)
#
#
# Indices 1 2 3 4 5 6 
#
# 1 0.009481 -0.002256 -0.002827 0.000000 -0.000395 0.000001
# 2 -0.002256 0.022111 -0.002889 -0.000003 -0.007437 0.000004
# 3 -0.002827 -0.002889 0.008367 0.000001 0.000632 -0.000002
# 4 0.000000 -0.000003 0.000001 0.026807 -0.000001 0.003586
# 5 -0.000395 -0.007437 0.000632 -0.000001 0.038144 -0.000003
# 6 0.000001 0.000004 -0.000002 0.003586 -0.000003 0.028999
#
#
# Mechanical properties :
#
#
# Convention : Reuss Voigt Hill
#
# Bulk Modulus (GPa) = 41.64443 57.03663 49.34053
# Shear Modulus (GPa) = 31.67391 35.51612 33.59501
#
# Velocity S-wave (km/s) = 3.91908 4.14998 4.03618
# Velocity P-wave (km/s) = 6.37753 7.11485 6.75625
#
# Compressibility (1/GPa) = 0.02401282
#
# Stress axis : x y z
#
# Youngs Moduli (GPa) = 105.47047 45.22655 119.52361
#
# Poissons Ratio (x) = 0.10205 0.33792
# Poissons Ratio (y) = 0.23799 0.34533
# Poissons Ratio (z) = 0.29819 0.13067
#
# Static dielectric constant tensor:
#      x y z
#    x 4.023320 -0.000010 0.164670 
#    y -0.000010 3.750180 0.000000 
#    z 0.164670 0.000000 3.817230 
# 
# 
# High freq. dielectric constant tensor:
#      x y z
#    x 1.821940 0.000000 0.000520 
#    y 0.000000 1.814620 0.000000 
#    z 0.000520 0.000000 1.806470 
# 
# From -- ./inp_files/211198.got.cif
#   From: 2010.06.25/outbox.cif.g09.slc.cpg/sg12_106_cif.got.tgz:211198.got - 2010.06.28 00:19:55.
