data_PCOD8112341
_publ_section_title
;
Structure prediction by ZEFSAII (Michael W. Deem and Ramdas Pophale) SiO2 
 PCOD8112341
Probable space group: C 2/M
;
_chemical_formula_sum "Si O2"
_cell_formula_units_Z 48
_cell_length_a 10.669696
_cell_length_b 25.177492
_cell_length_c 14.921461
_cell_angle_alpha 90.000000
_cell_angle_beta 144.503396
_cell_angle_gamma 90.000000
_cell_volume 2327.522066
_symmetry_space_group_name_H-M "C 2/M"
_symmetry_group_IT_number 12
_symmetry_cell_setting 'monoclinic'
loop_
_space_group_symop_operation_xyz
x,y,z
-x,y,-z
-x,-y,-z
x,-y,z
1/2+x,1/2+y,z
1/2-x,1/2+y,-z
1/2-x,1/2-y,-z
1/2+x,1/2-y,z
loop_
_atom_site_type_symbol
_atom_site_label
_atom_site_fract_x
_atom_site_fract_y
_atom_site_fract_z
Si Si1 0.220837 0.057602 0.679773
Si Si2 0.213772 0.686804 0.073071
Si Si3 0.019259 0.000000 0.861312
Si Si4 0.014327 0.095279 0.292426
Si Si5 0.741155 0.306216 0.110897
Si Si6 0.063902 0.607214 0.345818
Si Si7 0.322088 0.000000 0.188426
O O1 0.170637 0.070685 0.752406
O O2 0.353999 0.104900 0.710007
O O3 0.000000 0.051070 0.500000
O O4 0.342619 0.000000 0.743878
O O5 0.424250 0.651299 0.208435
O O6 0.265746 0.744070 0.147932
O O7 0.189589 0.687852 0.952052
O O8 0.000000 0.664633 0.000000
O O9 0.887086 0.000000 0.873841
O O10 0.962604 0.053216 0.773698
O O11 0.261489 0.000000 0.045729
O O12 0.241597 0.109318 0.470289
O O13 0.907257 0.342023 0.265926
O O14 0.500000 0.324944 0.000000
O O15 0.949193 0.551653 0.294687
#
# Coordination Sequence:
#
# PCOD8112341 Si02
#       7
#     8   8   4   8   8   8   4
#     4   9  17  34  56  84 121 154 186 235 301 354
#     4  10  22  43  65  88 120 162 208 252 301 370
#     4  11  25  40  57  88 123 165 206 244 293 370
#     4  11  22  38  64  93 121 153 206 257 298 356
#     4  10  23  42  64  87 122 165 203 250 313 366
#     4  11  22  38  63  91 123 161 198 252 308 355
#     4  11  25  40  57  82 127 170 201 238 305 369
#
# _framework density 20.622790999999999
#
# number of rings (size 3 to 8) (size 9 to 14) (size 15 to 20)
#    0.000    1.667    1.667    2.500    4.667    2.000 
#    0.000    1.250    0.000    6.000    0.000    0.000 
#    0.000    0.000    0.000    0.000    0.000    0.000 
#
# Total GULP energy -297355.527280 kJ/mol
# GULP energy per Si atom -12389.813637 kJ/mol
# Density = 2.057585 g / cm^3
# Si number density = 20.622791 Si / 1000 Ang^3
#
#
#
# Elastic Constant Matrix: (Units=GPa)
#
#
# Indices 1 2 3 4 5 6 
#
# 1 93.5049 17.6079 31.1138 0.0002 3.3087 -0.0001
# 2 17.6079 129.6460 72.0817 0.0001 14.7503 0.0000
# 3 31.1138 72.0817 109.6775 0.0005 12.1923 -0.0002
# 4 0.0002 0.0001 0.0005 145.2809 0.0003 -41.0001
# 5 3.3087 14.7503 12.1923 0.0003 27.9601 -0.0002
# 6 -0.0001 0.0000 -0.0002 -41.0001 -0.0002 44.5876
#
#
#
# Elastic Compliance Matrix: (Units=1/GPa)
#
#
# Indices 1 2 3 4 5 6 
#
# 1 0.011823 0.000411 -0.003620 0.000000 -0.000037 0.000000
# 2 0.000411 0.012426 -0.007934 0.000000 -0.003145 0.000000
# 3 -0.003620 -0.007934 0.015602 0.000000 -0.002190 0.000000
# 4 0.000000 0.000000 0.000000 0.009295 0.000000 0.008548
# 5 -0.000037 -0.003145 -0.002190 0.000000 0.038383 0.000000
# 6 0.000000 0.000000 0.000000 0.008548 0.000000 0.030288
#
#
# Mechanical properties :
#
#
# Convention : Reuss Voigt Hill
#
# Bulk Modulus (GPa) = 56.92749 63.82615 60.37682
# Shear Modulus (GPa) = 34.25613 57.70073 45.97843
#
# Velocity S-wave (km/s) = 4.08006 5.29527 4.72688
# Velocity P-wave (km/s) = 7.06116 8.27061 7.68970
#
# Compressibility (1/GPa) = 0.01756621
#
# Stress axis : x y z
#
# Youngs Moduli (GPa) = 84.58011 80.47390 64.09298
#
# Poissons Ratio (x) = -0.03310 0.23203
# Poissons Ratio (y) = -0.03479 0.50851
# Poissons Ratio (z) = 0.30619 0.63847
#
# Static dielectric constant tensor:
#      x y z
#    x 4.152730 0.000000 0.090430 
#    y 0.000000 3.848560 0.000000 
#    z 0.090430 0.000000 3.559410 
# 
# 
# High freq. dielectric constant tensor:
#      x y z
#    x 1.820220 0.000000 0.008330 
#    y 0.000000 1.807500 0.000000 
#    z 0.008330 0.000000 1.794080 
# 
# From -- ./inp_files/209489.got.cif
#   From: 2010.06.25/outbox.cif.g09.slc.cpg/sg12_105_cif.got.tgz:209489.got - 2010.06.28 00:19:55.
