data_PCOD8112533
_publ_section_title
;
Structure prediction by ZEFSAII (Michael W. Deem and Ramdas Pophale) SiO2 
 PCOD8112533
Probable space group: C 2/M
;
_chemical_formula_sum "Si O2"
_cell_formula_units_Z 64
_cell_length_a 14.921809
_cell_length_b 26.088684
_cell_length_c 8.445766
_cell_angle_alpha 90.000000
_cell_angle_beta 93.078951
_cell_angle_gamma 90.000000
_cell_volume 3283.109167
_symmetry_space_group_name_H-M "C 2/M"
_symmetry_group_IT_number 12
_symmetry_cell_setting 'monoclinic'
loop_
_space_group_symop_operation_xyz
x,y,z
-x,y,-z
-x,-y,-z
x,-y,z
1/2+x,1/2+y,z
1/2-x,1/2+y,-z
1/2-x,1/2-y,-z
1/2+x,1/2-y,z
loop_
_atom_site_type_symbol
_atom_site_label
_atom_site_fract_x
_atom_site_fract_y
_atom_site_fract_z
Si Si1 0.226819 0.440876 0.852537
Si Si2 0.577111 0.839959 0.386026
Si Si3 0.316927 0.784428 0.104665
Si Si4 0.067331 0.942067 0.145490
Si Si5 0.899350 0.620234 0.939391
Si Si6 0.503623 0.746373 0.814762
Si Si7 0.236708 0.352219 0.627168
Si Si8 0.562237 0.649749 0.360478
O O1 0.204899 0.500000 0.813775
O O2 0.331401 0.432556 0.906781
O O3 0.206108 0.408155 0.690974
O O4 0.167305 0.422651 0.996133
O O5 0.500000 0.859422 0.500000
O O6 0.599270 0.881829 0.252334
O O7 0.547203 0.787659 0.298755
O O8 0.668386 0.831290 0.490765
O O9 0.389367 0.750158 0.209670
O O10 0.256983 0.814752 0.222845
O O11 0.250000 0.750000 0.000000
O O12 0.369080 0.823765 0.995015
O O13 0.041608 0.906149 0.289405
O O14 0.054740 0.000000 0.204154
O O15 0.000000 0.928384 0.000000
O O16 0.000000 0.607773 0.000000
O O17 0.459424 0.691596 0.776326
O O18 0.500000 0.758388 0.000000
O O19 0.336165 0.350840 0.564920
O O20 0.500000 0.663231 0.500000
#
# Coordination Sequence:
#
# PCOD8112533 Si02
#       8
#     8   8   8   8   8   8   8   8
#     4   9  20  41  65  91 119 152 208 261 299 362
#     4  12  21  38  60  86 125 160 201 245 298 374
#     4  11  21  38  60  86 114 159 212 244 290 358
#     4   9  19  40  68  90 117 160 203 253 311 364
#     4  11  21  39  61  88 119 163 206 242 307 362
#     4  12  22  40  58  84 120 166 205 254 291 350
#     4  10  23  38  61  87 117 166 199 243 316 359
#     4  11  25  39  55  90 131 155 202 254 301 363
#
# _framework density 19.493717
#
# number of rings (size 3 to 8) (size 9 to 14) (size 15 to 20)
#    0.000    1.375    3.750    2.250    0.000    5.000 
#    0.000    0.625    0.000    1.500    0.000    0.000 
#    0.000    0.000    0.000    0.000    0.000    0.000 
#
# Total GULP energy -396718.125170 kJ/mol
# GULP energy per Si atom -12397.441412 kJ/mol
# Density = 1.944935 g / cm^3
# Si number density = 19.493717 Si / 1000 Ang^3
#
#
#
# Elastic Constant Matrix: (Units=GPa)
#
#
# Indices 1 2 3 4 5 6 
#
# 1 110.7764 49.3740 56.8570 0.0000 11.5771 0.0000
# 2 49.3740 91.6156 43.2770 0.0000 12.9973 0.0000
# 3 56.8570 43.2770 116.8451 0.0000 8.0448 0.0000
# 4 0.0000 0.0000 0.0000 20.1813 0.0000 0.3748
# 5 11.5771 12.9973 8.0448 0.0000 43.8025 0.0000
# 6 0.0000 0.0000 0.0000 0.3748 0.0000 27.3003
#
#
#
# Elastic Compliance Matrix: (Units=1/GPa)
#
#
# Indices 1 2 3 4 5 6 
#
# 1 0.013862 -0.005022 -0.004797 0.000000 -0.001293 0.000000
# 2 -0.005022 0.015468 -0.003100 0.000000 -0.002693 0.000000
# 3 -0.004797 -0.003100 0.012042 0.000000 -0.000024 0.000000
# 4 0.000000 0.000000 0.000000 0.049563 0.000000 -0.000680
# 5 -0.001293 -0.002693 -0.000024 0.000000 0.023975 0.000000
# 6 0.000000 0.000000 0.000000 -0.000680 0.000000 0.036639
#
#
# Mechanical properties :
#
#
# Convention : Reuss Voigt Hill
#
# Bulk Modulus (GPa) = 64.36625 68.69477 66.53051
# Shear Modulus (GPa) = 27.38754 29.57211 28.47982
#
# Velocity S-wave (km/s) = 3.75232 3.89910 3.82642
# Velocity P-wave (km/s) = 7.20166 7.45564 7.32975
#
# Compressibility (1/GPa) = 0.01553609
#
# Stress axis : x y z
#
# Youngs Moduli (GPa) = 72.13800 64.65010 83.04139
#
# Poissons Ratio (x) = 0.32465 0.39831
# Poissons Ratio (y) = 0.36225 0.25743
# Poissons Ratio (z) = 0.34601 0.20042
#
# Static dielectric constant tensor:
#      x y z
#    x 3.898530 0.000000 -0.045450 
#    y 0.000000 3.522410 0.000000 
#    z -0.045450 0.000000 3.556980 
# 
# 
# High freq. dielectric constant tensor:
#      x y z
#    x 1.777290 0.000000 0.001810 
#    y 0.000000 1.746460 0.000000 
#    z 0.001810 0.000000 1.749600 
# 
# From -- ./inp_files/66986.got.cif
#   From: 2010.06.25/outbox.cif.g09.slc.cpg/sg12_34_cif.got.tgz:66986.got - 2010.06.28 00:19:55.
