data_PCOD8112944
_publ_section_title
;
Structure prediction by ZEFSAII (Michael W. Deem and Ramdas Pophale) SiO2 
 PCOD8112944
Probable space group: C 2/M
;
_chemical_formula_sum "Si O2"
_cell_formula_units_Z 44
_cell_length_a 18.609870
_cell_length_b 7.537176
_cell_length_c 18.197329
_cell_angle_alpha 90.000000
_cell_angle_beta 50.919443
_cell_angle_gamma 90.000000
_cell_volume 1981.376751
_symmetry_space_group_name_H-M "C 2/M"
_symmetry_group_IT_number 12
_symmetry_cell_setting 'monoclinic'
loop_
_space_group_symop_operation_xyz
x,y,z
-x,y,-z
-x,-y,-z
x,-y,z
1/2+x,1/2+y,z
1/2-x,1/2+y,-z
1/2-x,1/2-y,-z
1/2+x,1/2-y,z
loop_
_atom_site_type_symbol
_atom_site_label
_atom_site_fract_x
_atom_site_fract_y
_atom_site_fract_z
Si Si1 0.314099 0.000000 0.658995
Si Si2 0.870909 0.500000 0.770906
Si Si3 0.998658 0.706473 0.083354
Si Si4 0.651985 0.697973 0.097054
Si Si5 0.043592 0.500000 0.554190
Si Si6 0.824750 0.702995 0.288762
Si Si7 0.356379 0.704359 0.424550
O O1 0.424377 0.000000 0.555412
O O2 0.265661 0.173954 0.656475
O O3 0.288492 0.000000 0.763675
O O4 0.874629 0.326348 0.818663
O O5 0.944154 0.500000 0.657158
O O6 0.024237 0.500000 0.069451
O O7 0.894952 0.742800 0.177558
O O8 0.075166 0.803364 0.083165
O O9 0.000000 0.781884 0.000000
O O10 0.658715 0.500000 0.125460
O O11 0.750000 0.750000 0.000000
O O12 0.088723 0.319463 0.553108
O O13 0.790017 0.500000 0.310400
O O14 0.884897 0.743740 0.323079
O O15 0.377854 0.500000 0.427241
O O16 0.250000 0.750000 0.500000
#
# Coordination Sequence:
#
# PCOD8112944 Si02
#       7
#     4   4   8   8   4   8   8
#     4  12  27  44  68  97 134 194 234 285 342 421
#     4  12  29  50  68  98 142 184 235 290 342 414
#     4  10  23  42  68 104 139 172 219 289 345 402
#     4  12  26  48  76 102 138 188 233 276 349 425
#     4  12  25  44  68  98 141 180 236 283 355 414
#     4  11  22  39  65 101 138 172 226 286 351 406
#     4  12  20  36  66 100 134 172 219 284 348 410
#
# _framework density 22.206780999999999
#
# number of rings (size 3 to 8) (size 9 to 14) (size 15 to 20)
#    0.000    0.545    6.364    1.364    3.818    3.273 
#    0.000    0.000    0.000    3.273    0.000    0.000 
#    0.000    0.000    0.000    0.000    0.000    0.000 
#
# Total GULP energy -272683.913608 kJ/mol
# GULP energy per Si atom -12394.723346 kJ/mol
# Density = 2.215624 g / cm^3
# Si number density = 22.206781 Si / 1000 Ang^3
#
#
#
# Elastic Constant Matrix: (Units=GPa)
#
#
# Indices 1 2 3 4 5 6 
#
# 1 69.5711 40.9072 59.0117 -0.0004 21.1205 0.0006
# 2 40.9072 182.6326 65.6040 -0.0010 6.5271 0.0016
# 3 59.0117 65.6040 152.9527 -0.0003 24.7533 0.0002
# 4 -0.0004 -0.0010 -0.0003 16.0367 0.0001 -11.5016
# 5 21.1205 6.5271 24.7533 0.0001 47.2637 -0.0001
# 6 0.0006 0.0016 0.0002 -11.5016 -0.0001 15.2042
#
#
#
# Elastic Compliance Matrix: (Units=1/GPa)
#
#
# Indices 1 2 3 4 5 6 
#
# 1 0.023866 -0.002585 -0.007027 0.000000 -0.006628 -0.000001
# 2 -0.002585 0.006769 -0.002122 0.000000 0.001331 -0.000001
# 3 -0.007027 -0.002122 0.010493 0.000000 -0.002062 0.000000
# 4 0.000000 0.000000 0.000000 0.136313 0.000000 0.103117
# 5 -0.006628 0.001331 -0.002062 0.000000 0.025016 0.000000
# 6 -0.000001 -0.000001 0.000000 0.103117 0.000000 0.143777
#
#
# Mechanical properties :
#
#
# Convention : Reuss Voigt Hill
#
# Bulk Modulus (GPa) = 56.61958 81.80023 69.20991
# Shear Modulus (GPa) = 13.31253 31.67647 22.49450
#
# Velocity S-wave (km/s) = 2.45109 3.78091 3.18615
# Velocity P-wave (km/s) = 5.79330 7.48171 6.69098
#
# Compressibility (1/GPa) = 0.01766173
#
# Stress axis : x y z
#
# Youngs Moduli (GPa) = 41.90107 147.73422 95.30458
#
# Poissons Ratio (x) = 0.38185 0.66966
# Poissons Ratio (y) = 0.10830 0.20219
# Poissons Ratio (z) = 0.29442 0.31342
#
# Static dielectric constant tensor:
#      x y z
#    x 4.683300 0.000000 0.548610 
#    y 0.000000 4.312080 0.000000 
#    z 0.548610 0.000000 4.533000 
# 
# 
# High freq. dielectric constant tensor:
#      x y z
#    x 1.871880 0.000000 0.009300 
#    y 0.000000 1.878700 0.000000 
#    z 0.009300 0.000000 1.900640 
# 
# From -- ./inp_files/274860.got.cif
#   From: 2010.06.25/outbox.cif.g09.slc.cpg/sg12_138_cif.got.tgz:274860.got - 2010.06.28 00:19:55.
