data_PCOD8112052
_publ_section_title
;
Structure prediction by ZEFSAII (Michael W. Deem and Ramdas Pophale) SiO2 
 PCOD8112052
Probable space group: C 2/M
;
_chemical_formula_sum "Si O2"
_cell_formula_units_Z 32
_cell_length_a 8.149950
_cell_length_b 17.727498
_cell_length_c 12.186582
_cell_angle_alpha 90.000000
_cell_angle_beta 48.431067
_cell_angle_gamma 90.000000
_cell_volume 1317.278533
_symmetry_space_group_name_H-M "C 2/M"
_symmetry_group_IT_number 12
_symmetry_cell_setting 'monoclinic'
loop_
_space_group_symop_operation_xyz
x,y,z
-x,y,-z
-x,-y,-z
x,-y,z
1/2+x,1/2+y,z
1/2-x,1/2+y,-z
1/2-x,1/2-y,-z
1/2+x,1/2-y,z
loop_
_atom_site_type_symbol
_atom_site_label
_atom_site_fract_x
_atom_site_fract_y
_atom_site_fract_z
Si Si1 0.527783 0.321805 0.314087
Si Si2 0.564660 0.843669 0.595776
Si Si3 0.423106 0.413194 0.914814
Si Si4 0.442932 0.916653 0.189304
O O1 0.547599 0.231657 0.305020
O O2 0.669740 0.340157 0.514486
O O3 0.466395 0.356998 0.222132
O O4 0.759864 0.354611 0.248369
O O5 0.500000 0.860866 0.500000
O O6 0.486991 0.909709 0.712765
O O7 0.492652 0.500000 0.861961
O O8 0.500000 0.386561 0.000000
O O9 0.159110 0.405033 0.019332
O O10 0.345513 0.000000 0.211589
#
# Coordination Sequence:
#
# PCOD8112052 Si02
#       4
#     8   8   8   8
#     4  11  22  40  65  92 131 174 215 267 323 382
#     4  11  24  42  63  92 131 173 217 267 323 385
#     4  10  22  41  66  98 134 171 216 270 327 390
#     4  11  24  42  68 101 132 169 220 271 323 388
#
# _framework density 24.292508999999999
#
# number of rings (size 3 to 8) (size 9 to 14) (size 15 to 20)
#    0.000    1.250    0.000    6.750    0.000    6.500 
#    0.000    2.500    0.000    0.000    0.000    0.000 
#    0.000    0.000    0.000    0.000    0.000    0.000 
#
# Total GULP energy -198404.574453 kJ/mol
# GULP energy per Si atom -12400.285903 kJ/mol
# Density = 2.423722 g / cm^3
# Si number density = 24.292509 Si / 1000 Ang^3
#
#
#
# Elastic Constant Matrix: (Units=GPa)
#
#
# Indices 1 2 3 4 5 6 
#
# 1 66.1515 33.8036 2.1168 0.0002 -9.6486 -0.0003
# 2 33.8036 72.3012 49.6127 0.0000 -15.5416 0.0000
# 3 2.1168 49.6127 93.0814 0.0001 0.3936 -0.0002
# 4 0.0002 0.0000 0.0001 31.6771 -0.0001 0.7332
# 5 -9.6486 -15.5416 0.3936 -0.0001 44.6992 0.0003
# 6 -0.0003 0.0000 -0.0002 0.7332 0.0003 34.8890
#
#
#
# Elastic Compliance Matrix: (Units=1/GPa)
#
#
# Indices 1 2 3 4 5 6 
#
# 1 0.023387 -0.016985 0.008525 0.000000 -0.000932 0.000000
# 2 -0.016985 0.037145 -0.019452 0.000000 0.009420 0.000000
# 3 0.008525 -0.019452 0.020939 0.000000 -0.005107 0.000000
# 4 0.000000 0.000000 0.000000 0.031584 0.000000 -0.000664
# 5 -0.000932 0.009420 -0.005107 0.000000 0.025491 0.000000
# 6 0.000000 0.000000 0.000000 -0.000664 0.000000 0.028676
#
#
# Mechanical properties :
#
#
# Convention : Reuss Voigt Hill
#
# Bulk Modulus (GPa) = 38.98968 44.73337 41.86152
# Shear Modulus (GPa) = 21.58956 31.98648 26.78802
#
# Velocity S-wave (km/s) = 2.98440 3.63260 3.32434
# Velocity P-wave (km/s) = 5.28776 6.00407 5.65726
#
# Compressibility (1/GPa) = 0.02564781
#
# Stress axis : x y z
#
# Youngs Moduli (GPa) = 42.75848 26.92188 47.75812
#
# Poissons Ratio (x) = 0.45726 -0.40713
# Poissons Ratio (y) = 0.72623 0.92898
# Poissons Ratio (z) = -0.36451 0.52368
#
# Static dielectric constant tensor:
#      x y z
#    x 4.388750 0.000000 0.057460 
#    y 0.000000 4.062620 0.000000 
#    z 0.057460 0.000000 4.570580 
# 
# 
# High freq. dielectric constant tensor:
#      x y z
#    x 1.980760 0.000000 0.004450 
#    y 0.000000 1.943220 0.000000 
#    z 0.004450 0.000000 1.977790 
# 
# From -- ./inp_files/37550.got.cif
#   From: 2010.06.25/outbox.cif.g09.slc.cpg/sg12_19_cif.got.tgz:37550.got - 2010.06.28 00:19:55.
