data_PCOD8112267
_publ_section_title
;
Structure prediction by ZEFSAII (Michael W. Deem and Ramdas Pophale) SiO2 
 PCOD8112267
Probable space group: C 2/M
;
_chemical_formula_sum "Si O2"
_cell_formula_units_Z 48
_cell_length_a 10.473685
_cell_length_b 13.040221
_cell_length_c 17.900673
_cell_angle_alpha 90.000000
_cell_angle_beta 106.321750
_cell_angle_gamma 90.000000
_cell_volume 2346.327961
_symmetry_space_group_name_H-M "C 2/M"
_symmetry_group_IT_number 12
_symmetry_cell_setting 'monoclinic'
loop_
_space_group_symop_operation_xyz
x,y,z
-x,y,-z
-x,-y,-z
x,-y,z
1/2+x,1/2+y,z
1/2-x,1/2+y,-z
1/2-x,1/2-y,-z
1/2+x,1/2-y,z
loop_
_atom_site_type_symbol
_atom_site_label
_atom_site_fract_x
_atom_site_fract_y
_atom_site_fract_z
Si Si1 0.542370 0.000000 0.125847
Si Si2 0.599348 0.267680 0.450569
Si Si3 0.384466 0.303830 0.039101
Si Si4 0.984502 0.711381 0.798847
Si Si5 0.056563 0.614309 0.664359
Si Si6 0.147083 0.883892 0.314848
Si Si7 0.724186 0.000000 0.010524
O O1 0.575983 0.105138 0.176567
O O2 0.641350 0.000000 0.072618
O O3 0.385243 0.000000 0.074802
O O4 0.500000 0.302552 0.500000
O O5 0.750000 0.250000 0.500000
O O6 0.553562 0.159191 0.409179
O O7 0.583135 0.354184 0.383883
O O8 0.424912 0.270518 0.128082
O O9 0.340780 0.418650 0.025030
O O10 0.500000 0.272548 0.000000
O O11 0.250000 0.250000 0.000000
O O12 0.879725 0.797777 0.753374
O O13 0.073116 0.678997 0.742961
O O14 0.010958 0.500000 0.678098
O O15 0.195936 0.615590 0.644945
O O16 0.099514 0.000000 0.283827
#
# Coordination Sequence:
#
# PCOD8112267 Si02
#       7
#     4   8   8   8   8   8   4
#     4  11  22  44  68  94 133 180 232 291 340 409
#     4  11  22  42  71 101 135 172 218 270 324 395
#     4  12  26  44  68  97 135 178 233 292 346 408
#     4  11  24  41  66  96 132 181 225 281 336 404
#     4  10  22  42  67  98 131 181 226 265 328 404
#     4  10  24  43  67  99 140 176 219 275 334 400
#     4  11  25  42  64 100 130 173 234 293 357 398
#
# _framework density 20.457498000000001
#
# number of rings (size 3 to 8) (size 9 to 14) (size 15 to 20)
#    0.000    1.167    4.167    1.250    5.833    1.333 
#    0.000    0.000    0.000    0.000    0.000    0.000 
#    0.000    0.000    0.000    0.000    0.000    0.000 
#
# Total GULP energy -297326.555034 kJ/mol
# GULP energy per Si atom -12388.606460 kJ/mol
# Density = 2.041094 g / cm^3
# Si number density = 20.457498 Si / 1000 Ang^3
#
#
#
# Elastic Constant Matrix: (Units=GPa)
#
#
# Indices 1 2 3 4 5 6 
#
# 1 120.1654 42.7150 51.9917 0.0000 0.7128 0.0000
# 2 42.7150 163.6310 58.5850 0.0000 13.2935 0.0000
# 3 51.9917 58.5850 127.0176 0.0000 5.8207 0.0000
# 4 0.0000 0.0000 0.0000 34.0101 0.0000 2.1522
# 5 0.7128 13.2935 5.8207 0.0000 32.5498 0.0000
# 6 0.0000 0.0000 0.0000 2.1522 0.0000 32.2134
#
#
#
# Elastic Compliance Matrix: (Units=1/GPa)
#
#
# Indices 1 2 3 4 5 6 
#
# 1 0.010416 -0.001509 -0.003615 0.000000 0.001035 0.000000
# 2 -0.001509 0.007730 -0.002828 0.000000 -0.002618 0.000000
# 3 -0.003615 -0.002828 0.010688 0.000000 -0.000677 0.000000
# 4 0.000000 0.000000 0.000000 0.029528 0.000000 -0.001973
# 5 0.001035 -0.002618 -0.000677 0.000000 0.031890 0.000000
# 6 0.000000 0.000000 0.000000 -0.001973 0.000000 0.031175
#
#
# Mechanical properties :
#
#
# Convention : Reuss Voigt Hill
#
# Bulk Modulus (GPa) = 77.33410 79.71082 78.52246
# Shear Modulus (GPa) = 35.30042 36.92282 36.11162
#
# Velocity S-wave (km/s) = 4.15848 4.25297 4.20599
# Velocity P-wave (km/s) = 7.80651 7.94768 7.87742
#
# Compressibility (1/GPa) = 0.01293091
#
# Stress axis : x y z
#
# Youngs Moduli (GPa) = 96.00422 129.35956 93.56224
#
# Poissons Ratio (x) = 0.19518 0.33824
# Poissons Ratio (y) = 0.14485 0.26459
# Poissons Ratio (z) = 0.34707 0.36582
#
# Static dielectric constant tensor:
#      x y z
#    x 3.575690 0.000000 -0.082550 
#    y 0.000000 3.898050 0.000000 
#    z -0.082550 0.000000 3.770010 
# 
# 
# High freq. dielectric constant tensor:
#      x y z
#    x 1.791510 0.000000 -0.007130 
#    y 0.000000 1.817920 0.000000 
#    z -0.007130 0.000000 1.805010 
# 
# From -- ./inp_files/262184.got.cif
#   From: 2010.06.25/outbox.cif.g09.slc.cpg/sg12_132_cif.got.tgz:262184.got - 2010.06.28 00:19:55.
