data_PCOD8112858
_publ_section_title
;
Structure prediction by ZEFSAII (Michael W. Deem and Ramdas Pophale) SiO2 
 PCOD8112858
Probable space group: C 2/M
;
_chemical_formula_sum "Si O2"
_cell_formula_units_Z 48
_cell_length_a 26.546939
_cell_length_b 8.516387
_cell_length_c 15.047174
_cell_angle_alpha 90.000000
_cell_angle_beta 138.955285
_cell_angle_gamma 90.000000
_cell_volume 2233.866893
_symmetry_space_group_name_H-M "C 2/M"
_symmetry_group_IT_number 12
_symmetry_cell_setting 'monoclinic'
loop_
_space_group_symop_operation_xyz
x,y,z
-x,y,-z
-x,-y,-z
x,-y,z
1/2+x,1/2+y,z
1/2-x,1/2+y,-z
1/2-x,1/2-y,-z
1/2+x,1/2-y,z
loop_
_atom_site_type_symbol
_atom_site_label
_atom_site_fract_x
_atom_site_fract_y
_atom_site_fract_z
Si Si1 0.177965 0.818781 0.558118
Si Si2 0.341168 0.681442 0.801594
Si Si3 0.085032 0.316104 0.588500
Si Si4 0.431752 0.318455 0.097200
Si Si5 0.331721 0.684092 0.134536
Si Si6 0.095027 0.319600 0.287268
O O1 0.251133 0.716015 0.681626
O O2 0.108316 0.776426 0.530844
O O3 0.151500 0.784267 0.422720
O O4 0.200342 0.000000 0.595917
O O5 0.355338 0.500000 0.798536
O O6 0.387188 0.783345 0.791325
O O7 0.373286 0.725961 0.940954
O O8 0.087639 0.500000 0.571532
O O9 0.142858 0.275470 0.744130
O O10 0.000000 0.258896 0.500000
O O11 0.456303 0.500000 0.124277
O O12 0.391426 0.278718 0.136086
O O13 0.506702 0.212911 0.190224
O O14 0.326445 0.500000 0.147641
O O15 0.250000 0.750000 0.000000
O O16 0.112645 0.500000 0.331158
#
# Coordination Sequence:
#
# PCOD8112858 Si02
#       6
#     8   8   8   8   8   8
#     4  12  25  42  65  92 124 162 207 256 308 367
#     4  11  23  42  66  92 126 164 205 254 308 365
#     4  11  24  42  64  92 126 163 205 254 309 369
#     4  10  23  42  64  91 124 163 205 253 308 364
#     4  11  23  40  64  93 126 164 208 257 309 366
#     4  12  25  41  63  92 126 163 206 255 307 366
#
# _framework density 21.487404999999999
#
# number of rings (size 3 to 8) (size 9 to 14) (size 15 to 20)
#    0.000    0.833    0.000    7.500    0.000   10.000 
#    0.000    0.000    0.000    0.000    0.000    0.000 
#    0.000    0.000    0.000    0.000    0.000    0.000 
#
# Total GULP energy -297843.954976 kJ/mol
# GULP energy per Si atom -12410.164791 kJ/mol
# Density = 2.143850 g / cm^3
# Si number density = 21.487405 Si / 1000 Ang^3
#
#
#
# Elastic Constant Matrix: (Units=GPa)
#
#
# Indices 1 2 3 4 5 6 
#
# 1 77.8647 26.2881 -6.9182 0.0000 1.1272 0.0000
# 2 26.2881 67.1587 17.7941 0.0000 -0.5567 0.0000
# 3 -6.9182 17.7941 80.2109 0.0000 3.5817 0.0000
# 4 0.0000 0.0000 0.0000 33.3501 0.0000 0.5158
# 5 1.1272 -0.5567 3.5817 0.0000 43.3293 0.0000
# 6 0.0000 0.0000 0.0000 0.5158 0.0000 35.4511
#
#
#
# Elastic Compliance Matrix: (Units=1/GPa)
#
#
# Indices 1 2 3 4 5 6 
#
# 1 0.015402 -0.006795 0.002868 0.000000 -0.000725 0.000000
# 2 -0.006795 0.018828 -0.004799 0.000000 0.000815 0.000000
# 3 0.002868 -0.004799 0.013836 0.000000 -0.001280 0.000000
# 4 0.000000 0.000000 0.000000 0.029992 0.000000 -0.000436
# 5 -0.000725 0.000815 -0.001280 0.000000 0.023214 0.000000
# 6 0.000000 0.000000 0.000000 -0.000436 0.000000 0.028214
#
#
# Mechanical properties :
#
#
# Convention : Reuss Voigt Hill
#
# Bulk Modulus (GPa) = 32.66404 33.28470 32.97437
# Shear Modulus (GPa) = 31.81799 34.96411 33.39105
#
# Velocity S-wave (km/s) = 3.85226 4.03822 3.94634
# Velocity P-wave (km/s) = 5.91785 6.10467 6.01199
#
# Compressibility (1/GPa) = 0.03061471
#
# Stress axis : x y z
#
# Youngs Moduli (GPa) = 64.92595 53.11178 72.27331
#
# Poissons Ratio (x) = 0.36089 -0.20729
# Poissons Ratio (y) = 0.44116 0.34686
# Poissons Ratio (z) = -0.18622 0.25490
#
# Static dielectric constant tensor:
#      x y z
#    x 4.053030 0.000000 -0.088880 
#    y 0.000000 3.849290 0.000000 
#    z -0.088880 0.000000 3.949590 
# 
# 
# High freq. dielectric constant tensor:
#      x y z
#    x 1.858010 0.000000 -0.001360 
#    y 0.000000 1.847650 0.000000 
#    z -0.001360 0.000000 1.857150 
# 
# From -- ./inp_files/244875.got.cif
#   From: 2010.06.25/outbox.cif.g09.slc.cpg/sg12_123_cif.got.tgz:244875.got - 2010.06.28 00:19:55.
