data_PCOD8112027
_publ_section_title
;
Structure prediction by ZEFSAII (Michael W. Deem and Ramdas Pophale) SiO2 
 PCOD8112027
Probable space group: C 2/M
;
_chemical_formula_sum "Si O2"
_cell_formula_units_Z 56
_cell_length_a 12.212577
_cell_length_b 31.181257
_cell_length_c 8.680786
_cell_angle_alpha 90.000000
_cell_angle_beta 50.960760
_cell_angle_gamma 90.000000
_cell_volume 2567.565623
_symmetry_space_group_name_H-M "C 2/M"
_symmetry_group_IT_number 12
_symmetry_cell_setting 'monoclinic'
loop_
_space_group_symop_operation_xyz
x,y,z
-x,y,-z
-x,-y,-z
x,-y,z
1/2+x,1/2+y,z
1/2-x,1/2+y,-z
1/2-x,1/2-y,-z
1/2+x,1/2-y,z
loop_
_atom_site_type_symbol
_atom_site_label
_atom_site_fract_x
_atom_site_fract_y
_atom_site_fract_z
Si Si1 0.100462 0.548539 0.548323
Si Si2 0.812775 0.311842 0.867928
Si Si3 0.378961 0.578818 0.392370
Si Si4 0.884685 0.166100 0.222781
Si Si5 0.936998 0.393873 0.898955
Si Si6 0.673793 0.551000 0.214245
Si Si7 0.554928 0.721818 0.280926
O O1 0.061874 0.500000 0.622289
O O2 0.269785 0.553671 0.374708
O O3 0.000000 0.564664 0.500000
O O4 0.067482 0.578885 0.720182
O O5 0.752092 0.319721 0.750932
O O6 0.903047 0.353341 0.825283
O O7 0.918496 0.272061 0.762294
O O8 0.696118 0.304479 0.106123
O O9 0.361601 0.629056 0.369354
O O10 0.538086 0.561737 0.227192
O O11 0.342609 0.570477 0.602139
O O12 0.933722 0.208876 0.268032
O O13 0.000000 0.148804 0.000000
O O14 0.805678 0.426259 0.018724
O O15 0.000000 0.375530 0.000000
O O16 0.696965 0.500000 0.203118
O O17 0.500000 0.709758 0.500000
#
# Coordination Sequence:
#
# PCOD8112027 Si02
#       7
#     8   8   8   8   8   8   8
#     4  11  24  42  64  95 136 179 222 278 345 408
#     4  10  24  44  61  98 134 169 223 277 342 414
#     4  11  22  38  66  98 131 176 222 279 328 397
#     4  10  22  41  66  93 135 173 215 281 341 400
#     4  12  25  42  67  94 132 179 223 286 334 414
#     4  11  23  40  65  99 132 173 231 288 331 388
#     4  10  23  41  68  93 127 173 221 279 338 409
#
# _framework density 21.810542999999999
#
# number of rings (size 3 to 8) (size 9 to 14) (size 15 to 20)
#    0.000    1.286    1.429    4.714    4.000    5.714 
#    0.000    0.000    0.000    6.429    0.000    0.000 
#    0.000    0.000    0.000    0.000    0.000    0.000 
#
# Total GULP energy -347154.517462 kJ/mol
# GULP energy per Si atom -12398.375624 kJ/mol
# Density = 2.176090 g / cm^3
# Si number density = 21.810543 Si / 1000 Ang^3
#
#
#
# Elastic Constant Matrix: (Units=GPa)
#
#
# Indices 1 2 3 4 5 6 
#
# 1 173.0301 60.7135 26.1483 0.0000 4.6471 0.0000
# 2 60.7135 144.3797 24.3411 0.0000 6.6477 0.0000
# 3 26.1483 24.3411 51.3471 0.0000 2.9763 0.0000
# 4 0.0000 0.0000 0.0000 25.7414 0.0000 9.3092
# 5 4.6471 6.6477 2.9763 0.0000 28.2346 0.0000
# 6 0.0000 0.0000 0.0000 9.3092 0.0000 7.7330
#
#
#
# Elastic Compliance Matrix: (Units=1/GPa)
#
#
# Indices 1 2 3 4 5 6 
#
# 1 0.007038 -0.002548 -0.002358 0.000000 -0.000310 0.000000
# 2 -0.002548 0.008506 -0.002659 0.000000 -0.001303 0.000000
# 3 -0.002358 -0.002659 0.022013 0.000000 -0.001306 0.000000
# 4 0.000000 0.000000 0.000000 0.068800 0.000000 -0.082823
# 5 -0.000310 -0.001303 -0.001306 0.000000 0.035913 0.000000
# 6 0.000000 0.000000 0.000000 -0.082823 0.000000 0.229019
#
#
# Mechanical properties :
#
#
# Convention : Reuss Voigt Hill
#
# Bulk Modulus (GPa) = 44.59150 65.68476 55.13813
# Shear Modulus (GPa) = 12.69374 29.51209 21.10291
#
# Velocity S-wave (km/s) = 2.41508 3.68246 3.11393
# Velocity P-wave (km/s) = 5.31659 6.94709 6.18580
#
# Compressibility (1/GPa) = 0.02242580
#
# Stress axis : x y z
#
# Youngs Moduli (GPa) = 142.08564 117.56624 45.42847
#
# Poissons Ratio (x) = 0.29952 0.10714
# Poissons Ratio (y) = 0.36199 0.12081
# Poissons Ratio (z) = 0.33509 0.31264
#
# Static dielectric constant tensor:
#      x y z
#    x 4.242800 0.000000 -0.062860 
#    y 0.000000 3.846800 0.000000 
#    z -0.062860 0.000000 3.842440 
# 
# 
# High freq. dielectric constant tensor:
#      x y z
#    x 1.875550 0.000000 -0.003390 
#    y 0.000000 1.861360 0.000000 
#    z -0.003390 0.000000 1.840700 
# 
# From -- ./inp_files/54579.got.cif
#   From: 2010.06.25/outbox.cif.g09.slc.cpg/sg12_28_cif.got.tgz:54579.got - 2010.06.28 00:19:55.
