data_PCOD8112026
_publ_section_title
;
Structure prediction by ZEFSAII (Michael W. Deem and Ramdas Pophale) SiO2 
 PCOD8112026
Probable space group: C 2/M
;
_chemical_formula_sum "Si O2"
_cell_formula_units_Z 40
_cell_length_a 24.852455
_cell_length_b 8.437219
_cell_length_c 18.861657
_cell_angle_alpha 90.000000
_cell_angle_beta 28.984009
_cell_angle_gamma 90.000000
_cell_volume 1916.465255
_symmetry_space_group_name_H-M "C 2/M"
_symmetry_group_IT_number 12
_symmetry_cell_setting 'monoclinic'
loop_
_space_group_symop_operation_xyz
x,y,z
-x,y,-z
-x,-y,-z
x,-y,z
1/2+x,1/2+y,z
1/2-x,1/2+y,-z
1/2-x,1/2-y,-z
1/2+x,1/2-y,z
loop_
_atom_site_type_symbol
_atom_site_label
_atom_site_fract_x
_atom_site_fract_y
_atom_site_fract_z
Si Si1 0.041475 0.183979 0.797370
Si Si2 0.318001 0.182698 0.110563
Si Si3 0.318052 0.183909 0.855695
Si Si4 0.951953 0.818605 0.372399
Si Si5 0.732838 0.683752 0.682351
O O1 0.077547 0.216351 0.675233
O O2 0.140888 0.243500 0.732628
O O3 0.013999 0.000000 0.842897
O O4 0.932986 0.286348 0.938019
O O5 0.216902 0.226447 0.175422
O O6 0.313382 0.289077 0.185933
O O7 0.309092 0.000000 0.142508
O O8 0.448557 0.207341 0.716522
O O9 0.289866 0.000000 0.879623
O O10 0.250000 0.250000 0.000000
O O11 0.844546 0.783201 0.543232
O O12 0.988509 0.000000 0.341009
O O13 0.759316 0.500000 0.639610
#
# Coordination Sequence:
#
# PCOD8112026 Si02
#       5
#     8   8   8   8   8
#     4  10  22  41  66  93 128 171 212 259 314 374
#     4  12  25  41  65  95 127 168 214 263 315 373
#     4  12  24  42  67  95 125 163 210 260 314 376
#     4  11  23  41  66  96 129 167 211 260 314 376
#     4  11  24  42  63  93 132 171 211 260 318 375
#
# _framework density 20.871758
#
# number of rings (size 3 to 8) (size 9 to 14) (size 15 to 20)
#    0.000    0.800    2.000    6.000    0.000    5.600 
#    0.000    4.000    0.000    0.000    0.000    0.000 
#    0.000    0.000    0.000    0.000    0.000    0.000 
#
# Total GULP energy -248197.212693 kJ/mol
# GULP energy per Si atom -12409.860635 kJ/mol
# Density = 2.082425 g / cm^3
# Si number density = 20.871758 Si / 1000 Ang^3
#
#
#
# Elastic Constant Matrix: (Units=GPa)
#
#
# Indices 1 2 3 4 5 6 
#
# 1 96.9773 27.1317 12.2141 -0.0024 -14.6533 0.0007
# 2 27.1317 64.3333 22.8529 0.0001 -2.0680 -0.0001
# 3 12.2141 22.8529 71.8341 -0.0068 -5.2273 0.0034
# 4 -0.0024 0.0001 -0.0068 36.3980 0.0005 0.3059
# 5 -14.6533 -2.0680 -5.2273 0.0005 34.8121 0.0001
# 6 0.0007 -0.0001 0.0034 0.3059 0.0001 31.5159
#
#
#
# Elastic Compliance Matrix: (Units=1/GPa)
#
#
# Indices 1 2 3 4 5 6 
#
# 1 0.012491 -0.005053 -0.000157 0.000001 0.004934 0.000000
# 2 -0.005053 0.019570 -0.005497 -0.000001 -0.001790 0.000001
# 3 -0.000157 -0.005497 0.015841 0.000003 0.001986 -0.000002
# 4 0.000001 -0.000001 0.000003 0.027476 0.000000 -0.000267
# 5 0.004934 -0.001790 0.001986 0.000000 0.030994 0.000000
# 6 0.000000 0.000001 -0.000002 -0.000267 0.000000 0.031733
#
#
# Mechanical properties :
#
#
# Convention : Reuss Voigt Hill
#
# Bulk Modulus (GPa) = 37.75430 39.72691 38.74060
# Shear Modulus (GPa) = 29.70009 31.94159 30.82084
#
# Velocity S-wave (km/s) = 3.77633 3.91624 3.84692
# Velocity P-wave (km/s) = 6.09444 6.28684 6.19139
#
# Compressibility (1/GPa) = 0.02648705
#
# Stress axis : x y z
#
# Youngs Moduli (GPa) = 80.05885 51.09754 63.12741
#
# Poissons Ratio (x) = 0.25822 0.00992
# Poissons Ratio (y) = 0.40457 0.34701
# Poissons Ratio (z) = 0.01258 0.28088
#
# Static dielectric constant tensor:
#      x y z
#    x 3.937320 0.000000 -0.081560 
#    y 0.000000 3.735130 0.000010 
#    z -0.081560 0.000010 3.541280 
# 
# 
# High freq. dielectric constant tensor:
#      x y z
#    x 1.830640 0.000000 -0.002280 
#    y 0.000000 1.821780 0.000000 
#    z -0.002280 0.000000 1.817580 
# 
# From -- ./inp_files/151934.got.cif
#   From: 2010.06.25/outbox.cif.g09.slc.cpg/sg12_76_cif.got.tgz:151934.got - 2010.06.28 00:19:55.
