data_PCOD8112148
_publ_section_title
;
Structure prediction by ZEFSAII (Michael W. Deem and Ramdas Pophale) SiO2 
 PCOD8112148
Probable space group: C 2/M
;
_chemical_formula_sum "Si O2"
_cell_formula_units_Z 56
_cell_length_a 9.199924
_cell_length_b 15.031234
_cell_length_c 26.479299
_cell_angle_alpha 90.000000
_cell_angle_beta 47.463180
_cell_angle_gamma 90.000000
_cell_volume 2698.114269
_symmetry_space_group_name_H-M "C 2/M"
_symmetry_group_IT_number 12
_symmetry_cell_setting 'monoclinic'
loop_
_space_group_symop_operation_xyz
x,y,z
-x,y,-z
-x,-y,-z
x,-y,z
1/2+x,1/2+y,z
1/2-x,1/2+y,-z
1/2-x,1/2-y,-z
1/2+x,1/2-y,z
loop_
_atom_site_type_symbol
_atom_site_label
_atom_site_fract_x
_atom_site_fract_y
_atom_site_fract_z
Si Si1 0.777293 0.180818 0.539554
Si Si2 0.450579 0.901415 0.565637
Si Si3 0.933744 0.396556 0.120357
Si Si4 0.044612 0.895395 0.146999
Si Si5 0.150475 0.237212 0.671242
Si Si6 0.862368 0.894972 0.987776
Si Si7 0.791761 0.268937 0.234523
O O1 0.750000 0.250000 0.500000
O O2 0.652015 0.095400 0.550918
O O3 0.668366 0.208806 0.615878
O O4 0.000000 0.154286 0.500000
O O5 0.500000 0.852800 0.500000
O O6 0.276405 0.852670 0.636059
O O7 0.373856 0.000000 0.572516
O O8 0.941773 0.500000 0.133631
O O9 0.753730 0.377339 0.124797
O O10 0.924509 0.340577 0.174313
O O11 0.135377 0.364511 0.046396
O O12 0.060232 0.864882 0.085066
O O13 0.874988 0.832282 0.210242
O O14 0.985337 0.000000 0.166443
O O15 0.227683 0.292542 0.701446
O O16 0.924440 0.218392 0.737780
O O17 0.871864 0.000000 0.988874
O O18 0.000000 0.853761 0.000000
#
# Coordination Sequence:
#
# PCOD8112148 Si02
#       7
#     8   8   8   8   8   8   8
#     4  12  20  40  71  94 123 166 207 259 313 372
#     4  11  24  42  67  97 125 161 213 266 313 370
#     4  10  22  42  64  88 123 168 217 262 314 379
#     4  10  22  42  65  89 124 169 213 261 316 382
#     4  12  23  41  63  91 125 170 206 248 318 383
#     4   9  19  36  63  94 123 159 210 272 324 361
#     4  12  25  40  62  94 128 169 215 258 314 389
#
# _framework density 20.755237000000001
#
# number of rings (size 3 to 8) (size 9 to 14) (size 15 to 20)
#    0.000    1.143    5.714    0.429    2.000    3.714 
#    0.000    0.714    0.000    0.000    0.000    0.000 
#    0.000    0.000    0.000    0.000    0.000    0.000 
#
# Total GULP energy -347091.930934 kJ/mol
# GULP energy per Si atom -12396.140390 kJ/mol
# Density = 2.070800 g / cm^3
# Si number density = 20.755237 Si / 1000 Ang^3
#
#
#
# Elastic Constant Matrix: (Units=GPa)
#
#
# Indices 1 2 3 4 5 6 
#
# 1 133.7132 35.3105 47.9341 0.0007 -5.0856 0.0004
# 2 35.3105 53.5775 32.5723 0.0017 1.9368 -0.0003
# 3 47.9341 32.5723 111.7114 0.0060 8.4192 -0.0002
# 4 0.0007 0.0017 0.0060 28.4845 -0.0005 1.9331
# 5 -5.0856 1.9368 8.4192 -0.0005 52.3469 -0.0005
# 6 0.0004 -0.0003 -0.0002 1.9331 -0.0005 16.9253
#
#
#
# Elastic Compliance Matrix: (Units=1/GPa)
#
#
# Indices 1 2 3 4 5 6 
#
# 1 0.009858 -0.004752 -0.002966 0.000001 0.001611 0.000000
# 2 -0.004752 0.024979 -0.005203 0.000000 -0.000549 0.000001
# 3 -0.002966 -0.005203 0.011893 -0.000002 -0.002008 0.000000
# 4 0.000001 0.000000 -0.000002 0.035381 0.000001 -0.004041
# 5 0.001611 -0.000549 -0.002008 0.000001 0.019603 0.000000
# 6 0.000000 0.000001 0.000000 -0.004041 0.000000 0.059545
#
#
# Mechanical properties :
#
#
# Convention : Reuss Voigt Hill
#
# Bulk Modulus (GPa) = 47.87337 58.95954 53.41645
# Shear Modulus (GPa) = 25.76478 31.76370 28.76424
#
# Velocity S-wave (km/s) = 3.52712 3.91627 3.72678
# Velocity P-wave (km/s) = 6.30105 6.99416 6.65663
#
# Compressibility (1/GPa) = 0.02088844
#
# Stress axis : x y z
#
# Youngs Moduli (GPa) = 101.43982 40.03293 84.08594
#
# Poissons Ratio (x) = 0.19024 0.24938
# Poissons Ratio (y) = 0.48206 0.43749
# Poissons Ratio (z) = 0.30084 0.20829
#
# Static dielectric constant tensor:
#      x y z
#    x 4.057110 -0.000010 0.088350 
#    y -0.000010 3.463600 0.000010 
#    z 0.088350 0.000010 3.791240 
# 
# 
# High freq. dielectric constant tensor:
#      x y z
#    x 1.829270 0.000000 0.006150 
#    y 0.000000 1.783580 0.000000 
#    z 0.006150 0.000000 1.822980 
# 
# From -- ./inp_files/333306.got.cif
#   From: 2010.06.25/outbox.cif.g09.slc.cpg/sg12_167_cif.got.tgz:333306.got - 2010.06.28 00:19:55.
