data_PCOD8112019
_publ_section_title
;
Structure prediction by ZEFSAII (Michael W. Deem and Ramdas Pophale) SiO2 
 PCOD8112019
Probable space group: C 2/M
;
_chemical_formula_sum "Si O2"
_cell_formula_units_Z 64
_cell_length_a 31.745463
_cell_length_b 17.268788
_cell_length_c 12.585559
_cell_angle_alpha 90.000000
_cell_angle_beta 153.073370
_cell_angle_gamma 90.000000
_cell_volume 3124.421311
_symmetry_space_group_name_H-M "C 2/M"
_symmetry_group_IT_number 12
_symmetry_cell_setting 'monoclinic'
loop_
_space_group_symop_operation_xyz
x,y,z
-x,y,-z
-x,-y,-z
x,-y,z
1/2+x,1/2+y,z
1/2-x,1/2+y,-z
1/2-x,1/2-y,-z
1/2+x,1/2-y,z
loop_
_atom_site_type_symbol
_atom_site_label
_atom_site_fract_x
_atom_site_fract_y
_atom_site_fract_z
Si Si1 0.395061 0.842069 0.293322
Si Si2 0.275538 0.407597 0.212729
Si Si3 0.306010 0.586716 0.897932
Si Si4 0.969398 0.711839 0.817260
Si Si5 0.899352 0.414424 0.523713
Si Si6 0.206133 0.808103 0.542300
Si Si7 0.394945 0.660276 0.296259
Si Si8 0.640409 0.309435 0.164534
O O1 0.500000 0.864055 0.500000
O O2 0.369597 0.889760 0.339851
O O3 0.385968 0.751335 0.296373
O O4 0.322437 0.869219 0.040887
O O5 0.267684 0.500000 0.195924
O O6 0.294380 0.378037 0.374844
O O7 0.360055 0.382561 0.324691
O O8 0.342572 0.500000 0.001848
O O9 0.196399 0.586593 0.625207
O O10 0.357986 0.619287 0.911967
O O11 0.327136 0.638891 0.047647
O O12 0.975989 0.642194 0.747498
O O13 0.864223 0.741211 0.579911
O O14 0.000000 0.677976 0.000000
O O15 0.033472 0.783953 0.929978
O O16 0.943543 0.500000 0.622223
O O17 0.305356 0.765868 0.757224
O O18 0.177422 0.839788 0.361498
O O19 0.500000 0.636153 0.500000
#
# Coordination Sequence:
#
# PCOD8112019 Si02
#       8
#     8   8   8   8   8   8   8   8
#     4  11  25  42  64  91 123 167 211 255 310 374
#     4  12  25  42  64  94 135 168 203 260 320 376
#     4  11  23  40  63  91 126 164 207 264 319 366
#     4  10  22  41  66  92 121 162 213 260 306 367
#     4  11  23  40  62  91 129 163 202 260 320 372
#     4  10  22  42  64  92 125 166 216 260 302 373
#     4  11  25  42  66  93 121 168 219 259 306 375
#     4  10  22  41  67  91 122 167 215 260 308 368
#
# _framework density 20.483795000000001
#
# number of rings (size 3 to 8) (size 9 to 14) (size 15 to 20)
#    0.000    1.250    2.500    2.625    7.000    2.750 
#    0.000    0.000    0.000    2.250    0.000    0.000 
#    0.000    0.000    0.000    0.000    0.000    0.000 
#
# Total GULP energy -396887.825535 kJ/mol
# GULP energy per Si atom -12402.744548 kJ/mol
# Density = 2.043717 g / cm^3
# Si number density = 20.483795 Si / 1000 Ang^3
#
#
#
# Elastic Constant Matrix: (Units=GPa)
#
#
# Indices 1 2 3 4 5 6 
#
# 1 110.2809 37.1290 29.0084 0.0000 -10.6220 0.0000
# 2 37.1290 88.5799 23.9104 0.0000 -7.8489 0.0000
# 3 29.0084 23.9104 69.6390 0.0000 -1.7429 0.0000
# 4 0.0000 0.0000 0.0000 16.6313 0.0000 2.8752
# 5 -10.6220 -7.8489 -1.7429 0.0000 32.8329 0.0000
# 6 0.0000 0.0000 0.0000 2.8752 0.0000 18.7969
#
#
#
# Elastic Compliance Matrix: (Units=1/GPa)
#
#
# Indices 1 2 3 4 5 6 
#
# 1 0.011456 -0.003633 -0.003458 0.000000 0.002654 0.000000
# 2 -0.003633 0.013848 -0.003192 0.000000 0.001966 0.000000
# 3 -0.003458 -0.003192 0.016872 0.000000 -0.000986 0.000000
# 4 0.000000 0.000000 0.000000 0.061761 0.000000 -0.009447
# 5 0.002654 0.001966 -0.000986 0.000000 0.031733 0.000000
# 6 0.000000 0.000000 0.000000 -0.009447 0.000000 0.054645
#
#
# Mechanical properties :
#
#
# Convention : Reuss Voigt Hill
#
# Bulk Modulus (GPa) = 46.27762 49.84393 48.06077
# Shear Modulus (GPa) = 22.92677 25.54902 24.23790
#
# Velocity S-wave (km/s) = 3.34917 3.53552 3.44360
# Velocity P-wave (km/s) = 6.13166 6.40724 6.27096
#
# Compressibility (1/GPa) = 0.02160872
#
# Stress axis : x y z
#
# Youngs Moduli (GPa) = 87.28806 72.21280 59.27122
#
# Poissons Ratio (x) = 0.26237 0.20497
# Poissons Ratio (y) = 0.31715 0.18919
# Poissons Ratio (z) = 0.30186 0.23050
#
# Static dielectric constant tensor:
#      x y z
#    x 3.888120 0.000000 0.041040 
#    y 0.000000 3.568320 0.000000 
#    z 0.041040 0.000000 3.693310 
# 
# 
# High freq. dielectric constant tensor:
#      x y z
#    x 1.810070 0.000000 0.001550 
#    y 0.000000 1.790750 0.000000 
#    z 0.001550 0.000000 1.802220 
# 
# From -- ./inp_files/190087.got.cif
#   From: 2010.06.25/outbox.cif.g09.slc.cpg/sg12_96_cif.got.tgz:190087.got - 2010.06.28 00:19:55.
