data_PCOD8112614
_publ_section_title
;
Structure prediction by ZEFSAII (Michael W. Deem and Ramdas Pophale) SiO2 
 PCOD8112614
Probable space group: C 2/M
;
_chemical_formula_sum "Si O2"
_cell_formula_units_Z 48
_cell_length_a 11.899927
_cell_length_b 13.605222
_cell_length_c 19.371460
_cell_angle_alpha 90.000000
_cell_angle_beta 43.788997
_cell_angle_gamma 90.000000
_cell_volume 2170.307331
_symmetry_space_group_name_H-M "C 2/M"
_symmetry_group_IT_number 12
_symmetry_cell_setting 'monoclinic'
loop_
_space_group_symop_operation_xyz
x,y,z
-x,y,-z
-x,-y,-z
x,-y,z
1/2+x,1/2+y,z
1/2-x,1/2+y,-z
1/2-x,1/2-y,-z
1/2+x,1/2-y,z
loop_
_atom_site_type_symbol
_atom_site_label
_atom_site_fract_x
_atom_site_fract_y
_atom_site_fract_z
Si Si1 0.708941 0.887024 0.090750
Si Si2 0.399201 0.611970 0.744032
Si Si3 0.293953 0.887041 0.748997
Si Si4 0.879187 0.724497 0.384966
Si Si5 0.552459 0.385664 0.127164
Si Si6 0.148854 0.381817 0.740057
O O1 0.757373 0.874326 0.148382
O O2 0.529636 0.839205 0.161172
O O3 0.694775 0.000000 0.074842
O O4 0.841521 0.836327 0.981417
O O5 0.436462 0.500000 0.709828
O O6 0.568028 0.668090 0.663012
O O7 0.343391 0.626921 0.848366
O O8 0.266046 0.653678 0.749659
O O9 0.459612 0.829946 0.656723
O O10 0.132829 0.843443 0.782184
O O11 0.329840 0.000000 0.714284
O O12 0.750000 0.750000 0.500000
O O13 0.798951 0.662495 0.357625
O O14 0.524038 0.500000 0.121874
O O15 0.146152 0.500000 0.733539
#
# Coordination Sequence:
#
# PCOD8112614 Si02
#       6
#     8   8   8   8   8   8
#     4   8  14  29  59  91 118 158 200 235 288 360
#     4  10  23  40  59  87 125 161 196 247 301 358
#     4   9  18  35  60  91 124 155 197 253 302 354
#     4  11  24  40  63  85 112 154 210 257 306 356
#     4   9  17  32  58  90 124 158 192 238 301 361
#     4   9  20  41  64  89 123 159 200 245 295 361
#
# _framework density 22.116682000000001
#
# number of rings (size 3 to 8) (size 9 to 14) (size 15 to 20)
#    0.000    2.667    0.000    2.000    2.333    4.667 
#    0.000    8.333    7.333    3.000    0.000    0.000 
#    0.000    0.000    0.000    0.000    0.000    0.000 
#
# Total GULP energy -297403.502390 kJ/mol
# GULP energy per Si atom -12391.812600 kJ/mol
# Density = 2.206634 g / cm^3
# Si number density = 22.116682 Si / 1000 Ang^3
#
#
#
# Elastic Constant Matrix: (Units=GPa)
#
#
# Indices 1 2 3 4 5 6 
#
# 1 145.5933 30.9448 59.5514 0.0000 -0.5517 0.0000
# 2 30.9448 29.5450 31.8717 0.0000 -8.5237 0.0000
# 3 59.5514 31.8717 159.9603 -0.0002 1.8093 0.0000
# 4 0.0000 0.0000 -0.0002 28.9051 0.0000 -3.1401
# 5 -0.5517 -8.5237 1.8093 0.0000 16.4206 0.0000
# 6 0.0000 0.0000 0.0000 -3.1401 0.0000 16.2134
#
#
#
# Elastic Compliance Matrix: (Units=1/GPa)
#
#
# Indices 1 2 3 4 5 6 
#
# 1 0.009534 -0.009552 -0.001596 0.000000 -0.004462 0.000000
# 2 -0.009552 0.063971 -0.009574 0.000000 0.033940 0.000000
# 3 -0.001596 -0.009574 0.008821 0.000000 -0.005995 0.000000
# 4 0.000000 0.000000 0.000000 0.035339 0.000000 0.006844
# 5 -0.004462 0.033940 -0.005995 0.000000 0.079028 0.000000
# 6 0.000000 0.000000 0.000000 0.006844 0.000000 0.063003
#
#
# Mechanical properties :
#
#
# Convention : Reuss Voigt Hill
#
# Bulk Modulus (GPa) = 24.46012 64.42604 44.44308
# Shear Modulus (GPa) = 15.88476 26.48989 21.18732
#
# Velocity S-wave (km/s) = 2.68288 3.46458 3.09848
# Velocity P-wave (km/s) = 4.54761 6.72293 5.73927
#
# Compressibility (1/GPa) = 0.04088288
#
# Stress axis : x y z
#
# Youngs Moduli (GPa) = 104.88228 15.63219 113.36512
#
# Poissons Ratio (x) = 0.14932 0.18092
# Poissons Ratio (y) = 1.00183 1.08533
# Poissons Ratio (z) = 0.16738 0.14966
#
# Static dielectric constant tensor:
#      x y z
#    x 4.183310 0.000000 -0.097120 
#    y 0.000000 4.085400 0.000000 
#    z -0.097120 0.000000 3.720870 
# 
# 
# High freq. dielectric constant tensor:
#      x y z
#    x 1.874200 0.000000 -0.003650 
#    y 0.000000 1.881460 0.000000 
#    z -0.003650 0.000000 1.837940 
# 
# From -- ./inp_files/305642.got.cif
#   From: 2010.06.25/outbox.cif.g09.slc.cpg/sg12_153_cif.got.tgz:305642.got - 2010.06.28 00:19:55.
