data_PCOD8112540
_publ_section_title
;
Structure prediction by ZEFSAII (Michael W. Deem and Ramdas Pophale) SiO2 
 PCOD8112540
Probable space group: C 2/M
;
_chemical_formula_sum "Si O2"
_cell_formula_units_Z 56
_cell_length_a 14.558928
_cell_length_b 21.458950
_cell_length_c 8.272069
_cell_angle_alpha 90.000000
_cell_angle_beta 83.591159
_cell_angle_gamma 90.000000
_cell_volume 2568.203687
_symmetry_space_group_name_H-M "C 2/M"
_symmetry_group_IT_number 12
_symmetry_cell_setting 'monoclinic'
loop_
_space_group_symop_operation_xyz
x,y,z
-x,y,-z
-x,-y,-z
x,-y,z
1/2+x,1/2+y,z
1/2-x,1/2+y,-z
1/2-x,1/2-y,-z
1/2+x,1/2-y,z
loop_
_atom_site_type_symbol
_atom_site_label
_atom_site_fract_x
_atom_site_fract_y
_atom_site_fract_z
Si Si1 0.769334 0.176323 0.010886
Si Si2 0.584023 0.872219 0.589104
Si Si3 0.189844 0.568512 0.837458
Si Si4 0.126874 0.931763 0.405153
Si Si5 0.436143 0.263519 0.363887
Si Si6 0.275625 0.342209 0.382731
Si Si7 0.462383 0.639507 0.843368
O O1 0.776905 0.152572 0.190808
O O2 0.750000 0.250000 0.000000
O O3 0.690531 0.129245 0.953955
O O4 0.861034 0.166965 0.889672
O O5 0.500000 0.900702 0.500000
O O6 0.609494 0.922296 0.719578
O O7 0.548492 0.808818 0.680060
O O8 0.671854 0.851431 0.464003
O O9 0.171939 0.500000 0.924694
O O10 0.286889 0.564881 0.730619
O O11 0.153695 0.893453 0.559558
O O12 0.041316 0.904638 0.314999
O O13 0.097602 0.000000 0.470487
O O14 0.500000 0.284150 0.500000
O O15 0.326700 0.276937 0.421923
O O16 0.467215 0.303355 0.202122
O O17 0.500000 0.605521 0.000000
#
# Coordination Sequence:
#
# PCOD8112540 Si02
#       7
#     8   8   8   8   8   8   8
#     4  11  24  37  62  95 127 166 201 253 315 376
#     4  10  23  38  63  91 112 159 207 257 307 362
#     4   9  20  41  62  86 123 163 204 256 313 367
#     4   9  20  39  62  86 121 167 210 247 297 369
#     4  11  21  36  60  90 126 157 199 252 305 367
#     4  11  21  39  60  87 124 158 205 254 305 364
#     4  11  22  38  58  91 130 161 197 252 311 370
#
# _framework density 21.805122999999998
#
# number of rings (size 3 to 8) (size 9 to 14) (size 15 to 20)
#    0.000    1.714    2.857    1.286    4.000    1.143 
#    0.000    2.143    0.000    0.857    0.000    0.000 
#    0.000    0.000    0.000    0.000    0.000    0.000 
#
# Total GULP energy -346929.277216 kJ/mol
# GULP energy per Si atom -12390.331329 kJ/mol
# Density = 2.175549 g / cm^3
# Si number density = 21.805123 Si / 1000 Ang^3
#
#
#
# Elastic Constant Matrix: (Units=GPa)
#
#
# Indices 1 2 3 4 5 6 
#
# 1 103.9999 19.4533 20.2437 0.0000 26.1873 0.0000
# 2 19.4533 141.0726 49.4966 0.0000 29.5228 0.0000
# 3 20.2437 49.4966 94.8448 0.0000 27.0160 0.0000
# 4 0.0000 0.0000 0.0000 20.7221 0.0000 5.2234
# 5 26.1873 29.5228 27.0160 0.0000 28.7571 0.0000
# 6 0.0000 0.0000 0.0000 5.2234 0.0000 9.9997
#
#
#
# Elastic Compliance Matrix: (Units=1/GPa)
#
#
# Indices 1 2 3 4 5 6 
#
# 1 0.012575 0.000734 0.000559 0.000000 -0.012729 0.000000
# 2 0.000734 0.009663 -0.002981 0.000000 -0.007788 0.000000
# 3 0.000559 -0.002981 0.015365 0.000000 -0.011883 0.000000
# 4 0.000000 0.000000 0.000000 0.055575 0.000000 -0.029030
# 5 -0.012729 -0.007788 -0.011883 0.000000 0.065525 0.000000
# 6 0.000000 0.000000 0.000000 -0.029030 0.000000 0.115167
#
#
# Mechanical properties :
#
#
# Convention : Reuss Voigt Hill
#
# Bulk Modulus (GPa) = 29.21758 57.58938 43.40348
# Shear Modulus (GPa) = 17.32174 28.61069 22.96621
#
# Velocity S-wave (km/s) = 2.82155 3.62623 3.24890
# Velocity P-wave (km/s) = 4.90340 6.63333 5.83285
#
# Compressibility (1/GPa) = 0.03422597
#
# Stress axis : x y z
#
# Youngs Moduli (GPa) = 79.52529 103.48586 65.08368
#
# Poissons Ratio (x) = -0.07594 -0.03638
# Poissons Ratio (y) = -0.05836 0.19402
# Poissons Ratio (z) = -0.04446 0.30851
#
# Static dielectric constant tensor:
#      x y z
#    x 4.031750 0.000000 0.268010 
#    y 0.000000 4.144370 0.000000 
#    z 0.268010 0.000000 3.830350 
# 
# 
# High freq. dielectric constant tensor:
#      x y z
#    x 1.862430 0.000000 0.017880 
#    y 0.000000 1.846820 0.000000 
#    z 0.017880 0.000000 1.844330 
# 
# From -- ./inp_files/64100.got.cif
#   From: 2010.06.25/outbox.cif.g09.slc.cpg/sg12_33_cif.got.tgz:64100.got - 2010.06.28 00:19:55.
