data_PCOD8112937
_publ_section_title
;
Structure prediction by ZEFSAII (Michael W. Deem and Ramdas Pophale) SiO2 
 PCOD8112937
Probable space group: C 2/M
;
_chemical_formula_sum "Si O2"
_cell_formula_units_Z 40
_cell_length_a 19.805158
_cell_length_b 18.807010
_cell_length_c 5.217964
_cell_angle_alpha 90.000000
_cell_angle_beta 65.083264
_cell_angle_gamma 90.000000
_cell_volume 1762.660205
_symmetry_space_group_name_H-M "C 2/M"
_symmetry_group_IT_number 12
_symmetry_cell_setting 'monoclinic'
loop_
_space_group_symop_operation_xyz
x,y,z
-x,y,-z
-x,-y,-z
x,-y,z
1/2+x,1/2+y,z
1/2-x,1/2+y,-z
1/2-x,1/2-y,-z
1/2+x,1/2-y,z
loop_
_atom_site_type_symbol
_atom_site_label
_atom_site_fract_x
_atom_site_fract_y
_atom_site_fract_z
Si Si1 0.916635 0.654234 0.221340
Si Si2 0.637647 0.081492 0.200514
Si Si3 0.669410 0.705744 0.503465
Si Si4 0.087482 0.918359 0.835041
Si Si5 0.289332 0.351801 0.065566
O O1 0.914113 0.603562 0.475616
O O2 0.883675 0.728387 0.365759
O O3 0.873969 0.623930 0.043753
O O4 0.000000 0.667061 0.000000
O O5 0.723410 0.092017 0.140656
O O6 0.621043 0.000000 0.167056
O O7 0.618493 0.633789 0.565794
O O8 0.728303 0.695564 0.647319
O O9 0.708107 0.706414 0.165368
O O10 0.132784 0.894734 0.020897
O O11 0.105281 0.000000 0.737069
O O12 0.000000 0.906264 0.000000
#
# Coordination Sequence:
#
# PCOD8112937 Si02
#       5
#     8   8   8   8   8
#     4  12  27  47  71 102 136 180 233 289 349 405
#     4  12  27  46  72 101 137 181 230 290 349 405
#     4  10  23  42  69  96 138 175 225 273 335 407
#     4   9  20  39  63  96 137 181 226 275 328 398
#     4  10  23  42  67  98 137 173 227 269 337 406
#
# _framework density 22.692971
#
# number of rings (size 3 to 8) (size 9 to 14) (size 15 to 20)
#    1.200    0.200    0.000    4.800    0.000    9.600 
#    0.000    2.000    0.000    0.000    0.000    0.000 
#    0.000    0.000    0.000    0.000    0.000    0.000 
#
# Total GULP energy -247896.769010 kJ/mol
# GULP energy per Si atom -12394.838450 kJ/mol
# Density = 2.264132 g / cm^3
# Si number density = 22.692971 Si / 1000 Ang^3
#
#
#
# Elastic Constant Matrix: (Units=GPa)
#
#
# Indices 1 2 3 4 5 6 
#
# 1 67.5249 30.0409 17.4741 0.0000 -3.2418 0.0000
# 2 30.0409 121.6180 56.3510 0.0000 7.6510 0.0000
# 3 17.4741 56.3510 130.3388 0.0000 9.0011 0.0000
# 4 0.0000 0.0000 0.0000 31.6044 0.0000 1.4239
# 5 -3.2418 7.6510 9.0011 0.0000 29.2387 0.0000
# 6 0.0000 0.0000 0.0000 1.4239 0.0000 11.4931
#
#
#
# Elastic Compliance Matrix: (Units=1/GPa)
#
#
# Indices 1 2 3 4 5 6 
#
# 1 0.016952 -0.004042 -0.000744 0.000000 0.003166 0.000000
# 2 -0.004042 0.011298 -0.004197 0.000000 -0.002113 0.000000
# 3 -0.000744 -0.004197 0.009723 0.000000 -0.001977 0.000000
# 4 0.000000 0.000000 0.000000 0.031819 0.000000 -0.003942
# 5 0.003166 -0.002113 -0.001977 0.000000 0.035714 0.000000
# 6 0.000000 0.000000 0.000000 -0.003942 0.000000 0.087497
#
#
# Mechanical properties :
#
#
# Convention : Reuss Voigt Hill
#
# Bulk Modulus (GPa) = 49.97977 58.57931 54.27954
# Shear Modulus (GPa) = 22.97392 28.84161 25.90776
#
# Velocity S-wave (km/s) = 3.18524 3.56890 3.38252
# Velocity P-wave (km/s) = 5.96656 6.54620 6.26309
#
# Compressibility (1/GPa) = 0.02000810
#
# Stress axis : x y z
#
# Youngs Moduli (GPa) = 58.98996 88.50805 102.84723
#
# Poissons Ratio (x) = 0.35774 0.07651
# Poissons Ratio (y) = 0.23843 0.43165
# Poissons Ratio (z) = 0.04388 0.37147
#
# Static dielectric constant tensor:
#      x y z
#    x 4.078950 0.000000 0.096250 
#    y 0.000000 4.093030 0.000000 
#    z 0.096250 0.000000 4.199660 
# 
# 
# High freq. dielectric constant tensor:
#      x y z
#    x 1.901720 0.000000 0.002750 
#    y 0.000000 1.907620 0.000000 
#    z 0.002750 0.000000 1.900420 
# 
# From -- ./inp_files/15750.got.cif
#   From: 2010.06.25/outbox.cif.g09.slc.cpg/sg12_8_cif.got.tgz:15750.got - 2010.06.28 00:19:55.
