data_PCOD8112576
_publ_section_title
;
Structure prediction by ZEFSAII (Michael W. Deem and Ramdas Pophale) SiO2 
 PCOD8112576
Probable space group: C 2/M
;
_chemical_formula_sum "Si O2"
_cell_formula_units_Z 28
_cell_length_a 4.987257
_cell_length_b 33.555469
_cell_length_c 7.054585
_cell_angle_alpha 90.000000
_cell_angle_beta 68.067343
_cell_angle_gamma 90.000000
_cell_volume 1095.136565
_symmetry_space_group_name_H-M "C 2/M"
_symmetry_group_IT_number 12
_symmetry_cell_setting 'monoclinic'
loop_
_space_group_symop_operation_xyz
x,y,z
-x,y,-z
-x,-y,-z
x,-y,z
1/2+x,1/2+y,z
1/2-x,1/2+y,-z
1/2-x,1/2-y,-z
1/2+x,1/2-y,z
loop_
_atom_site_type_symbol
_atom_site_label
_atom_site_fract_x
_atom_site_fract_y
_atom_site_fract_z
Si Si1 0.860289 0.593733 0.241089
Si Si2 0.400289 0.275850 0.235619
Si Si3 0.142072 0.956138 0.758511
Si Si4 0.000000 0.658911 0.500000
O O1 0.531452 0.577590 0.313664
O O2 0.029275 0.558513 0.306068
O O3 0.876762 0.633910 0.356555
O O4 0.000000 0.602692 0.000000
O O5 0.669268 0.260412 0.289510
O O6 0.271479 0.315124 0.362317
O O7 0.500000 0.287893 0.000000
O O8 0.138114 0.000000 0.663370
O O9 0.000000 0.959689 0.000000
#
# Coordination Sequence:
#
# PCOD8112576 Si02
#       4
#     8   8   8   4
#     4  10  23  39  61  97 133 172 223 275 334 396
#     4  10  24  46  72 100 130 173 226 272 324 400
#     4   9  18  38  64  88 126 179 228 276 327 383
#     4  12  26  44  71 102 142 180 214 276 349 404
#
# _framework density 25.567585999999999
#
# number of rings (size 3 to 8) (size 9 to 14) (size 15 to 20)
#    0.000    2.000    0.000    1.714    0.000   16.000 
#    0.000    4.286    0.000    0.000    0.000    0.000 
#    0.000    0.000    0.000    0.000    0.000    0.000 
#
# Total GULP energy -173675.299849 kJ/mol
# GULP energy per Si atom -12405.378561 kJ/mol
# Density = 2.550939 g / cm^3
# Si number density = 25.567586 Si / 1000 Ang^3
#
#
#
# Elastic Constant Matrix: (Units=GPa)
#
#
# Indices 1 2 3 4 5 6 
#
# 1 131.5739 40.1348 5.6987 0.0000 -6.6038 0.0000
# 2 40.1348 167.4336 59.6443 0.0000 6.6836 0.0000
# 3 5.6987 59.6443 77.5357 0.0000 18.4015 0.0000
# 4 0.0000 0.0000 0.0000 -70.6499 0.0000 -72.7981
# 5 -6.6038 6.6836 18.4015 0.0000 29.0218 0.0000
# 6 0.0000 0.0000 0.0000 -72.7981 0.0000 9.3284
#
#
#
# Elastic Compliance Matrix: (Units=1/GPa)
#
#
# Indices 1 2 3 4 5 6 
#
# 1 0.008384 -0.002343 0.000713 0.000000 0.001996 0.000000
# 2 -0.002343 0.009038 -0.007251 0.000000 0.001983 0.000000
# 3 0.000713 -0.007251 0.021174 0.000000 -0.011594 0.000000
# 4 0.000000 0.000000 0.000000 -0.001566 0.000000 -0.012217
# 5 0.001996 0.001983 -0.011594 0.000000 0.041805 0.000000
# 6 0.000000 0.000000 0.000000 -0.012217 0.000000 0.011857
#
#
# Mechanical properties :
#
#
# Convention : Reuss Voigt Hill
#
# Bulk Modulus (GPa) = 47.99919 65.27768 56.63844
# Shear Modulus (GPa) = 43.32738 11.61108 27.46923
#
# Velocity S-wave (km/s) = 4.12104 2.13335 3.28133
# Velocity P-wave (km/s) = 6.43881 5.62629 6.04621
#
# Compressibility (1/GPa) = 0.02083368
#
# Stress axis : x y z
#
# Youngs Moduli (GPa) = 119.26931 110.64357 47.22749
#
# Poissons Ratio (x) = 0.25928 -0.03366
# Poissons Ratio (y) = 0.27949 0.34244
# Poissons Ratio (z) = -0.08501 0.80226
#
# Static dielectric constant tensor:
#      x y z
#    x 4.792050 0.000000 -0.178500 
#    y 0.000000 4.476730 0.000000 
#    z -0.178500 0.000000 5.309450 
# 
# 
# High freq. dielectric constant tensor:
#      x y z
#    x 2.025600 0.000000 0.001120 
#    y 0.000000 2.015220 0.000000 
#    z 0.001120 0.000000 2.053540 
# 
# From -- ./inp_files/34209.got.cif
#   From: 2010.06.25/outbox.cif.g09.slc.cpg/sg12_18_cif.got.tgz:34209.got - 2010.06.28 00:19:55.
