data_PCOD8112316
_publ_section_title
;
Structure prediction by ZEFSAII (Michael W. Deem and Ramdas Pophale) SiO2 
 PCOD8112316
Probable space group: C 2/M
;
_chemical_formula_sum "Si O2"
_cell_formula_units_Z 44
_cell_length_a 22.110463
_cell_length_b 14.474185
_cell_length_c 17.751792
_cell_angle_alpha 90.000000
_cell_angle_beta 22.629299
_cell_angle_gamma 90.000000
_cell_volume 2185.910571
_symmetry_space_group_name_H-M "C 2/M"
_symmetry_group_IT_number 12
_symmetry_cell_setting 'monoclinic'
loop_
_space_group_symop_operation_xyz
x,y,z
-x,y,-z
-x,-y,-z
x,-y,z
1/2+x,1/2+y,z
1/2-x,1/2+y,-z
1/2-x,1/2-y,-z
1/2+x,1/2-y,z
loop_
_atom_site_type_symbol
_atom_site_label
_atom_site_fract_x
_atom_site_fract_y
_atom_site_fract_z
Si Si1 0.410318 0.236872 0.945582
Si Si2 0.046255 0.607924 0.666933
Si Si3 0.623661 0.395939 0.649771
Si Si4 0.955316 0.730296 0.631398
Si Si5 0.000000 0.669367 0.000000
Si Si6 0.826309 0.897322 0.579044
O O1 0.459270 0.148489 0.840037
O O2 0.477001 0.329733 0.831645
O O3 0.478262 0.233268 0.951749
O O4 0.224318 0.240939 0.158745
O O5 0.004717 0.500000 0.711041
O O6 0.233364 0.624711 0.457704
O O7 0.990318 0.656659 0.655510
O O8 0.561034 0.500000 0.731755
O O9 0.692419 0.378296 0.487953
O O10 0.000000 0.683719 0.500000
O O11 0.056697 0.823432 0.520207
O O12 0.154268 0.606763 0.814049
O O13 0.894368 0.000000 0.515716
#
# Coordination Sequence:
#
# PCOD8112316 Si02
#       6
#     8   8   8   8   4   8
#     4  12  24  42  68  95 130 168 212 262 320 383
#     4  11  24  43  67  94 127 169 216 262 313 378
#     4  10  22  42  70  96 121 166 220 266 311 374
#     4  12  26  44  62  94 133 171 211 260 323 376
#     4  12  23  40  69  98 130 168 207 264 317 378
#     4  11  23  42  67  97 131 165 209 264 319 381
#
# _framework density 20.128912
#
# number of rings (size 3 to 8) (size 9 to 14) (size 15 to 20)
#    0.000    0.727    5.455    2.455    0.000    2.909 
#    0.000    0.455    0.000    0.000    0.000    0.000 
#    0.000    0.000    0.000    0.000    0.000    0.000 
#
# Total GULP energy -272891.012828 kJ/mol
# GULP energy per Si atom -12404.136947 kJ/mol
# Density = 2.008310 g / cm^3
# Si number density = 20.128912 Si / 1000 Ang^3
#
#
#
# Elastic Constant Matrix: (Units=GPa)
#
#
# Indices 1 2 3 4 5 6 
#
# 1 111.3388 54.8586 47.4696 0.0018 9.6768 -0.0013
# 2 54.8586 121.8288 66.8858 0.0022 2.1141 -0.0019
# 3 47.4696 66.8858 136.8625 0.0043 -6.2665 -0.0055
# 4 0.0018 0.0022 0.0043 10.9576 -0.0020 -3.9011
# 5 9.6768 2.1141 -6.2665 -0.0020 36.6870 0.0021
# 6 -0.0013 -0.0019 -0.0055 -3.9011 0.0021 1.3093
#
#
#
# Elastic Compliance Matrix: (Units=1/GPa)
#
#
# Indices 1 2 3 4 5 6 
#
# 1 0.012368 -0.004194 -0.002397 0.000005 -0.003430 0.000016
# 2 -0.004194 0.012733 -0.004789 0.000031 -0.000446 0.000087
# 3 -0.002397 -0.004789 0.010603 -0.000143 0.002719 -0.000394
# 4 0.000005 0.000031 -0.000143 -1.500996 0.000151 -4.472424
# 5 -0.003430 -0.000446 0.002719 0.000151 0.028653 0.000410
# 6 0.000016 0.000087 -0.000394 -4.472424 0.000410-12.562406
#
#
# Mechanical properties :
#
#
# Convention : Reuss Voigt Hill
#
# Bulk Modulus (GPa) = 77.25027 78.71756 77.98392
# Shear Modulus (GPa) = -0.35786 23.17853 11.41034
#
# Velocity S-wave (km/s) = -0.42210 3.39706 2.38347
# Velocity P-wave (km/s) = 6.18252 7.38772 6.81182
#
# Compressibility (1/GPa) = 0.01294494
#
# Stress axis : x y z
#
# Youngs Moduli (GPa) = 80.85333 78.53350 94.31318
#
# Poissons Ratio (x) = 0.32933 0.22611
# Poissons Ratio (y) = 0.33906 0.45165
# Poissons Ratio (z) = 0.19384 0.37608
#
# Static dielectric constant tensor:
#      x y z
#    x 3.843130 0.000000 0.087070 
#    y 0.000000 3.622150 0.000000 
#    z 0.087070 0.000000 3.674310 
# 
# 
# High freq. dielectric constant tensor:
#      x y z
#    x 1.797300 0.000000 0.001450 
#    y 0.000000 1.783360 0.000000 
#    z 0.001450 0.000000 1.792120 
# 
# From -- ./inp_files/73205.got.cif
#   From: 2010.06.25/outbox.cif.g09.slc.cpg/sg12_37_cif.got.tgz:73205.got - 2010.06.28 00:19:55.
