data_PCOD8112087
_publ_section_title
;
Structure prediction by ZEFSAII (Michael W. Deem and Ramdas Pophale) SiO2 
 PCOD8112087
Probable space group: C 2/M
;
_chemical_formula_sum "Si O2"
_cell_formula_units_Z 44
_cell_length_a 28.477521
_cell_length_b 8.543570
_cell_length_c 24.697337
_cell_angle_alpha 90.000000
_cell_angle_beta 18.868569
_cell_angle_gamma 90.000000
_cell_volume 1943.253770
_symmetry_space_group_name_H-M "C 2/M"
_symmetry_group_IT_number 12
_symmetry_cell_setting 'monoclinic'
loop_
_space_group_symop_operation_xyz
x,y,z
-x,y,-z
-x,-y,-z
x,-y,z
1/2+x,1/2+y,z
1/2-x,1/2+y,-z
1/2-x,1/2-y,-z
1/2+x,1/2-y,z
loop_
_atom_site_type_symbol
_atom_site_label
_atom_site_fract_x
_atom_site_fract_y
_atom_site_fract_z
Si Si1 0.257494 0.829933 0.689701
Si Si2 0.948630 0.746569 0.679140
Si Si3 0.590092 0.819381 0.781936
Si Si4 0.265480 0.500000 0.044038
Si Si5 0.502154 0.500000 0.292239
Si Si6 0.727720 0.169653 0.832301
Si Si7 0.575666 0.500000 0.739015
O O1 0.423948 0.846753 0.489354
O O2 0.167837 0.698339 0.755241
O O3 0.253071 0.796737 0.758382
O O4 0.184187 0.000000 0.760427
O O5 0.835530 0.647391 0.836830
O O6 0.860727 0.837273 0.729004
O O7 0.028620 0.852941 0.636204
O O8 0.641690 0.666060 0.689858
O O9 0.624565 0.000000 0.722734
O O10 0.418704 0.798374 0.974920
O O11 0.329951 0.500000 0.912501
O O12 0.400440 0.500000 0.939149
O O13 0.392055 0.500000 0.361198
O O14 0.719861 0.000000 0.812571
#
# Coordination Sequence:
#
# PCOD8112087 Si02
#       7
#     8   8   8   4   4   8   4
#     4  12  27  40  66  98 140 181 221 274 345 401
#     4  12  23  43  66 100 137 171 217 288 332 404
#     4  11  24  45  71  98 138 179 228 278 330 404
#     4  10  22  41  68 100 129 166 227 276 335 404
#     4  10  24  42  71  98 132 174 226 278 345 391
#     4  11  24  41  66  99 132 180 231 269 332 407
#     4  10  22  45  72 102 129 172 235 280 334 393
#
# _framework density 22.642437000000001
#
# number of rings (size 3 to 8) (size 9 to 14) (size 15 to 20)
#    0.545    0.364    4.545    2.182    5.091    3.636 
#    1.636    0.909    0.000    0.000    0.000    0.000 
#    0.000    0.000    0.000    0.000    0.000    0.000 
#
# Total GULP energy -272572.726667 kJ/mol
# GULP energy per Si atom -12389.669394 kJ/mol
# Density = 2.259090 g / cm^3
# Si number density = 22.642437 Si / 1000 Ang^3
#
#
#
# Elastic Constant Matrix: (Units=GPa)
#
#
# Indices 1 2 3 4 5 6 
#
# 1 115.5847 45.6370 -0.2272 -0.0087 -3.3494 -0.0019
# 2 45.6370 157.6361 11.9964 -0.0291 4.0303 -0.0094
# 3 -0.2272 11.9964 21.8484 -0.0075 -1.9845 -0.0141
# 4 -0.0087 -0.0291 -0.0075 -2.9998 -0.0041 -15.3304
# 5 -3.3494 4.0303 -1.9845 -0.0041 21.4005 0.0028
# 6 -0.0019 -0.0094 -0.0141 -15.3304 0.0028 23.2928
#
#
#
# Elastic Compliance Matrix: (Units=1/GPa)
#
#
# Indices 1 2 3 4 5 6 
#
# 1 0.009944 -0.003091 0.002012 -0.000002 0.002325 -0.000001
# 2 -0.003091 0.007636 -0.004437 -0.000012 -0.002333 -0.000008
# 3 0.002012 -0.004437 0.048742 -0.000053 0.005670 -0.000008
# 4 -0.000002 -0.000012 -0.000053 -0.076396 -0.000011 -0.050281
# 5 0.002325 -0.002333 0.005670 -0.000011 0.048057 -0.000010
# 6 -0.000001 -0.000008 -0.000008 -0.050281 -0.000010 0.009839
#
#
# Mechanical properties :
#
#
# Convention : Reuss Voigt Hill
#
# Bulk Modulus (GPa) = 18.08674 45.54239 31.81456
# Shear Modulus (GPa) = 64.69739 24.18293 44.44016
#
# Velocity S-wave (km/s) = 5.35122 3.27163 4.43504
# Velocity P-wave (km/s) = 6.79603 5.86761 6.34881
#
# Compressibility (1/GPa) = 0.05528912
#
# Stress axis : x y z
#
# Youngs Moduli (GPa) = 100.56777 130.95894 20.51623
#
# Poissons Ratio (x) = 0.40483 -0.04128
# Poissons Ratio (y) = 0.31088 0.09103
# Poissons Ratio (z) = -0.20234 0.58104
#
# Static dielectric constant tensor:
#      x y z
#    x 3.793330 -0.000010 -0.046730 
#    y -0.000010 4.341920 0.000010 
#    z -0.046730 0.000010 3.829420 
# 
# 
# High freq. dielectric constant tensor:
#      x y z
#    x 1.881660 0.000000 -0.005550 
#    y 0.000000 1.905000 0.000000 
#    z -0.005550 0.000000 1.882390 
# 
# From -- ./inp_files/370553.got.cif
#   From: 2010.06.25/outbox.cif.g09.slc.cpg/sg12_186_cif.got.tgz:370553.got - 2010.06.28 00:19:55.
