data_PCOD8112955
_publ_section_title
;
Structure prediction by ZEFSAII (Michael W. Deem and Ramdas Pophale) SiO2 
 PCOD8112955
Probable space group: C 2/M
;
_chemical_formula_sum "Si O2"
_cell_formula_units_Z 40
_cell_length_a 9.651937
_cell_length_b 24.193043
_cell_length_c 7.826188
_cell_angle_alpha 90.000000
_cell_angle_beta 97.545494
_cell_angle_gamma 90.000000
_cell_volume 1811.666610
_symmetry_space_group_name_H-M "C 2/M"
_symmetry_group_IT_number 12
_symmetry_cell_setting 'monoclinic'
loop_
_space_group_symop_operation_xyz
x,y,z
-x,y,-z
-x,-y,-z
x,-y,z
1/2+x,1/2+y,z
1/2-x,1/2+y,-z
1/2-x,1/2-y,-z
1/2+x,1/2-y,z
loop_
_atom_site_type_symbol
_atom_site_label
_atom_site_fract_x
_atom_site_fract_y
_atom_site_fract_z
Si Si1 0.869659 0.341931 0.585143
Si Si2 0.415786 0.339152 0.641218
Si Si3 0.109534 0.436571 0.162720
Si Si4 0.131281 0.257651 0.119891
Si Si5 0.930047 0.937632 0.169410
O O1 0.742608 0.352366 0.436222
O O2 0.917946 0.399715 0.675109
O O3 0.820154 0.298559 0.721878
O O4 0.000000 0.317487 0.500000
O O5 0.500000 0.309385 0.500000
O O6 0.414740 0.300972 0.808203
O O7 0.498872 0.396028 0.686917
O O8 0.086728 0.500000 0.212336
O O9 0.265821 0.425113 0.120469
O O10 0.000000 0.418889 0.000000
O O11 0.250000 0.250000 0.000000
O O12 0.000000 0.284092 0.000000
O O13 0.953798 0.000000 0.241056
O O14 0.000000 0.928584 0.000000
#
# Coordination Sequence:
#
# PCOD8112955 Si02
#       5
#     8   8   8   8   8
#     4  12  26  43  64  99 138 173 218 279 336 395
#     4  12  24  43  69  99 136 171 215 280 341 391
#     4  10  23  44  69  98 136 180 224 268 324 400
#     4  12  26  45  70  95 128 177 228 273 328 404
#     4  10  23  42  69 102 134 175 225 273 326 396
#
# _framework density 22.079117
#
# number of rings (size 3 to 8) (size 9 to 14) (size 15 to 20)
#    0.000    0.800    2.000    4.800    5.600    1.600 
#    0.000    0.000    0.000    0.000    0.000    0.000 
#    0.000    0.000    0.000    0.000    0.000    0.000 
#
# Total GULP energy -248112.474682 kJ/mol
# GULP energy per Si atom -12405.623734 kJ/mol
# Density = 2.202886 g / cm^3
# Si number density = 22.079117 Si / 1000 Ang^3
#
#
#
# Elastic Constant Matrix: (Units=GPa)
#
#
# Indices 1 2 3 4 5 6 
#
# 1 151.1322 32.2062 57.6580 0.0000 -0.6100 0.0000
# 2 32.2062 101.3443 42.2522 0.0000 0.7934 0.0000
# 3 57.6580 42.2522 100.2421 0.0000 -2.0862 0.0000
# 4 0.0000 0.0000 0.0000 29.2452 0.0000 0.0353
# 5 -0.6100 0.7934 -2.0862 0.0000 60.4846 0.0000
# 6 0.0000 0.0000 0.0000 0.0353 0.0000 28.1242
#
#
#
# Elastic Compliance Matrix: (Units=1/GPa)
#
#
# Indices 1 2 3 4 5 6 
#
# 1 0.008531 -0.000806 -0.004569 0.000000 -0.000061 0.000000
# 2 -0.000806 0.012054 -0.004624 0.000000 -0.000326 0.000000
# 3 -0.004569 -0.004624 0.014563 0.000000 0.000517 0.000000
# 4 0.000000 0.000000 0.000000 0.034194 0.000000 -0.000043
# 5 -0.000061 -0.000326 0.000517 0.000000 0.016555 0.000000
# 6 0.000000 0.000000 0.000000 -0.000043 0.000000 0.035557
#
#
# Mechanical properties :
#
#
# Convention : Reuss Voigt Hill
#
# Bulk Modulus (GPa) = 66.00005 68.55015 67.27510
# Shear Modulus (GPa) = 34.12953 38.27760 36.20357
#
# Velocity S-wave (km/s) = 3.93591 4.16824 4.05374
# Velocity P-wave (km/s) = 7.11425 7.36753 7.24200
#
# Compressibility (1/GPa) = 0.01515150
#
# Stress axis : x y z
#
# Youngs Moduli (GPa) = 117.21722 82.96129 68.66533
#
# Poissons Ratio (x) = 0.06686 0.31370
# Poissons Ratio (y) = 0.09447 0.31750
# Poissons Ratio (z) = 0.53552 0.38361
#
# Static dielectric constant tensor:
#      x y z
#    x 2.759350 0.000000 0.054220 
#    y 0.000000 4.032120 0.000000 
#    z 0.054220 0.000000 3.997260 
# 
# 
# High freq. dielectric constant tensor:
#      x y z
#    x 1.883360 0.000000 0.002870 
#    y 0.000000 1.872590 0.000000 
#    z 0.002870 0.000000 1.872130 
# 
# From -- ./inp_files/39329.got.cif
#   From: 2010.06.25/outbox.cif.g09.slc.cpg/sg12_20_cif.got.tgz:39329.got - 2010.06.28 00:19:55.
