data_PCOD8112753
_publ_section_title
;
Structure prediction by ZEFSAII (Michael W. Deem and Ramdas Pophale) SiO2 
 PCOD8112753
Probable space group: C 2/M
;
_chemical_formula_sum "Si O2"
_cell_formula_units_Z 64
_cell_length_a 14.444492
_cell_length_b 24.535840
_cell_length_c 12.517746
_cell_angle_alpha 90.000000
_cell_angle_beta 45.532987
_cell_angle_gamma 90.000000
_cell_volume 3166.044114
_symmetry_space_group_name_H-M "C 2/M"
_symmetry_group_IT_number 12
_symmetry_cell_setting 'monoclinic'
loop_
_space_group_symop_operation_xyz
x,y,z
-x,y,-z
-x,-y,-z
x,-y,z
1/2+x,1/2+y,z
1/2-x,1/2+y,-z
1/2-x,1/2-y,-z
1/2+x,1/2-y,z
loop_
_atom_site_type_symbol
_atom_site_label
_atom_site_fract_x
_atom_site_fract_y
_atom_site_fract_z
Si Si1 0.014720 0.342859 0.370194
Si Si2 0.052151 0.836761 0.714809
Si Si3 0.543432 0.437650 0.084330
Si Si4 0.622107 0.246406 0.824387
Si Si5 0.048885 0.437618 0.846801
Si Si6 0.801213 0.350516 0.385055
Si Si7 0.655329 0.061102 0.173032
Si Si8 0.663034 0.744174 0.173151
O O1 0.108233 0.395855 0.299681
O O2 0.070973 0.296498 0.248058
O O3 0.000000 0.319001 0.500000
O O4 0.874756 0.359411 0.437908
O O5 0.105911 0.802735 0.772671
O O6 0.151904 0.840264 0.534989
O O7 0.026569 0.898008 0.775599
O O8 0.922368 0.810440 0.769566
O O9 0.504438 0.500000 0.143097
O O10 0.500000 0.422643 0.000000
O O11 0.695979 0.428220 0.974486
O O12 0.633912 0.199839 0.727439
O O13 0.753091 0.245094 0.787173
O O14 0.500000 0.236531 0.000000
O O15 0.093761 0.500000 0.818136
O O16 0.175498 0.403980 0.706745
O O17 0.927717 0.429017 0.866294
O O18 0.000000 0.415519 0.000000
O O19 0.635603 0.000000 0.234264
O O20 0.750000 0.750000 0.000000
#
# Coordination Sequence:
#
# PCOD8112753 Si02
#       8
#     8   8   8   8   8   8   8   8
#     4  11  23  38  61  88 124 164 204 255 312 379
#     4  12  25  41  64  93 130 168 208 263 325 374
#     4  10  23  41  64  91 122 166 213 256 312 380
#     4  12  24  42  64  88 127 167 211 262 306 373
#     4   9  19  39  68  93 120 164 211 259 312 372
#     4  11  24  40  58  92 131 160 203 260 318 373
#     4   9  20  39  62  92 124 158 212 265 309 372
#     4  12  25  41  63  91 118 167 216 253 315 378
#
# _framework density 20.214500999999998
#
# number of rings (size 3 to 8) (size 9 to 14) (size 15 to 20)
#    0.000    1.250    2.500    2.625    5.250    3.750 
#    0.000    0.000    0.000    0.000    0.000    5.250 
#    0.000    0.000    0.000    0.000    0.000    0.000 
#
# Total GULP energy -396862.560671 kJ/mol
# GULP energy per Si atom -12401.955021 kJ/mol
# Density = 2.016849 g / cm^3
# Si number density = 20.214501 Si / 1000 Ang^3
#
#
#
# Elastic Constant Matrix: (Units=GPa)
#
#
# Indices 1 2 3 4 5 6 
#
# 1 88.3430 26.8143 29.5405 0.0000 -2.8768 0.0000
# 2 26.8143 115.5201 61.1993 0.0000 -4.8850 0.0000
# 3 29.5405 61.1993 146.1129 0.0000 -5.4559 0.0000
# 4 0.0000 0.0000 0.0000 27.8113 0.0000 -1.5824
# 5 -2.8768 -4.8850 -5.4559 0.0000 25.6282 0.0000
# 6 0.0000 0.0000 0.0000 -1.5824 0.0000 26.9467
#
#
#
# Elastic Compliance Matrix: (Units=1/GPa)
#
#
# Indices 1 2 3 4 5 6 
#
# 1 0.012503 -0.001989 -0.001670 0.000000 0.000669 0.000000
# 2 -0.001989 0.011475 -0.004365 0.000000 0.001035 0.000000
# 3 -0.001670 -0.004365 0.009044 0.000000 0.000906 0.000000
# 4 0.000000 0.000000 0.000000 0.036077 0.000000 0.002119
# 5 0.000669 0.001035 0.000906 0.000000 0.039485 0.000000
# 6 0.000000 0.000000 0.000000 0.002119 0.000000 0.037235
#
#
# Mechanical properties :
#
#
# Convention : Reuss Voigt Hill
#
# Bulk Modulus (GPa) = 58.91673 65.00937 61.96305
# Shear Modulus (GPa) = 29.84632 31.57203 30.70918
#
# Velocity S-wave (km/s) = 3.84667 3.95631 3.90188
# Velocity P-wave (km/s) = 6.99558 7.28694 7.14275
#
# Compressibility (1/GPa) = 0.01697311
#
# Stress axis : x y z
#
# Youngs Moduli (GPa) = 79.97791 87.14860 110.57286
#
# Poissons Ratio (x) = 0.17338 0.18462
# Poissons Ratio (y) = 0.15911 0.48268
# Poissons Ratio (z) = 0.13353 0.38043
#
# Static dielectric constant tensor:
#      x y z
#    x 3.866980 0.000000 -0.078350 
#    y 0.000000 3.810030 0.000000 
#    z -0.078350 0.000000 3.642460 
# 
# 
# High freq. dielectric constant tensor:
#      x y z
#    x 1.792450 0.000000 -0.001680 
#    y 0.000000 1.796540 0.000000 
#    z -0.001680 0.000000 1.785110 
# 
# From -- ./inp_files/149721.got.cif
#   From: 2010.06.25/outbox.cif.g09.slc.cpg/sg12_75_cif.got.tgz:149721.got - 2010.06.28 00:19:55.
