data_PCOD8112049
_publ_section_title
;
Structure prediction by ZEFSAII (Michael W. Deem and Ramdas Pophale) SiO2 
 PCOD8112049
Probable space group: C 2/M
;
_chemical_formula_sum "Si O2"
_cell_formula_units_Z 64
_cell_length_a 26.635590
_cell_length_b 14.797286
_cell_length_c 12.265469
_cell_angle_alpha 90.000000
_cell_angle_beta 139.631104
_cell_angle_gamma 90.000000
_cell_volume 3131.170602
_symmetry_space_group_name_H-M "C 2/M"
_symmetry_group_IT_number 12
_symmetry_cell_setting 'monoclinic'
loop_
_space_group_symop_operation_xyz
x,y,z
-x,y,-z
-x,-y,-z
x,-y,z
1/2+x,1/2+y,z
1/2-x,1/2+y,-z
1/2-x,1/2-y,-z
1/2+x,1/2-y,z
loop_
_atom_site_type_symbol
_atom_site_label
_atom_site_fract_x
_atom_site_fract_y
_atom_site_fract_z
Si Si1 0.413430 0.602783 0.656227
Si Si2 0.256449 0.603847 0.065038
Si Si3 0.629673 0.098232 0.422512
Si Si4 0.750100 0.102018 0.802672
Si Si5 0.578441 0.606716 0.578000
Si Si6 0.002913 0.268808 0.130287
Si Si7 0.255783 0.153237 0.563356
Si Si8 0.669348 0.783732 0.095541
O O1 0.443241 0.500000 0.711945
O O2 0.411897 0.639683 0.529961
O O3 0.473831 0.663467 0.823992
O O4 0.328116 0.608466 0.565860
O O5 0.246956 0.500000 0.089760
O O6 0.345637 0.636413 0.228105
O O7 0.199959 0.670314 0.036442
O O8 0.231806 0.613877 0.899405
O O9 0.670977 0.119075 0.605863
O O10 0.567780 0.175471 0.301001
O O11 0.692419 0.092002 0.429339
O O12 0.588829 0.000000 0.360078
O O13 0.811409 0.177040 0.865303
O O14 0.782428 0.000000 0.833438
O O15 0.500000 0.649830 0.500000
O O16 0.570898 0.500000 0.568788
O O17 0.000000 0.298693 0.000000
O O18 0.922787 0.290758 0.056056
O O19 0.250000 0.250000 0.500000
O O20 0.294635 0.160374 0.745553
#
# Coordination Sequence:
#
# PCOD8112049 Si02
#       8
#     8   8   8   8   8   8   8   8
#     4  11  23  40  65  94 128 168 207 256 326 387
#     4  10  22  41  66  98 130 166 219 268 315 380
#     4  11  24  44  67  90 123 173 221 264 323 377
#     4  10  23  43  67  93 126 168 216 267 316 379
#     4   9  19  36  60  93 129 164 203 255 316 376
#     4  12  26  44  59  92 135 166 207 268 317 382
#     4  12  20  41  66  91 127 162 214 275 310 376
#     4  12  23  40  67  94 129 169 214 261 323 378
#
# _framework density 20.439639
#
# number of rings (size 3 to 8) (size 9 to 14) (size 15 to 20)
#    0.000    1.125    5.000    0.750    1.750    2.000 
#    0.000    0.625    0.000    2.250    0.000    0.000 
#    0.000    0.000    0.000    0.000    0.000    0.000 
#
# Total GULP energy -396877.977960 kJ/mol
# GULP energy per Si atom -12402.436811 kJ/mol
# Density = 2.039312 g / cm^3
# Si number density = 20.439639 Si / 1000 Ang^3
#
#
#
# Elastic Constant Matrix: (Units=GPa)
#
#
# Indices 1 2 3 4 5 6 
#
# 1 108.8106 32.7206 63.8836 0.0000 14.6211 0.0000
# 2 32.7206 87.6762 34.5989 0.0000 3.0170 0.0000
# 3 63.8836 34.5989 101.5837 0.0000 -4.5289 0.0000
# 4 0.0000 0.0000 0.0000 26.4570 0.0000 -3.2154
# 5 14.6211 3.0170 -4.5289 0.0000 37.0956 0.0000
# 6 0.0000 0.0000 0.0000 -3.2154 0.0000 24.7854
#
#
#
# Elastic Compliance Matrix: (Units=1/GPa)
#
#
# Indices 1 2 3 4 5 6 
#
# 1 0.016853 -0.001970 -0.010273 0.000000 -0.007737 0.000000
# 2 -0.001970 0.013505 -0.003394 0.000000 -0.000736 0.000000
# 3 -0.010273 -0.003394 0.017750 0.000000 0.006492 0.000000
# 4 0.000000 0.000000 0.000000 0.038403 0.000000 0.004982
# 5 -0.007737 -0.000736 0.006492 0.000000 0.030859 0.000000
# 6 0.000000 0.000000 0.000000 0.004982 0.000000 0.040993
#
#
# Mechanical properties :
#
#
# Convention : Reuss Voigt Hill
#
# Bulk Modulus (GPa) = 59.39751 62.27521 60.83636
# Shear Modulus (GPa) = 25.60844 28.79208 27.20026
#
# Velocity S-wave (km/s) = 3.54345 3.75726 3.65192
# Velocity P-wave (km/s) = 6.77233 7.02543 6.90004
#
# Compressibility (1/GPa) = 0.01683572
#
# Stress axis : x y z
#
# Youngs Moduli (GPa) = 59.33515 74.04460 56.33836
#
# Poissons Ratio (x) = 0.14584 0.57875
# Poissons Ratio (y) = 0.11686 0.19122
# Poissons Ratio (z) = 0.60954 0.25131
#
# Static dielectric constant tensor:
#      x y z
#    x 3.074280 0.000000 -0.159600 
#    y 0.000000 3.587680 0.000000 
#    z -0.159600 0.000000 3.738730 
# 
# 
# High freq. dielectric constant tensor:
#      x y z
#    x 1.793420 0.000000 -0.011020 
#    y 0.000000 1.799390 0.000000 
#    z -0.011020 0.000000 1.800760 
# 
# From -- ./inp_files/183847.got.cif
#   From: 2010.06.25/outbox.cif.g09.slc.cpg/sg12_92_cif.got.tgz:183847.got - 2010.06.28 00:19:55.
