data_PCOD8112727
_publ_section_title
;
Structure prediction by ZEFSAII (Michael W. Deem and Ramdas Pophale) SiO2 
 PCOD8112727
Probable space group: C 2/M
;
_chemical_formula_sum "Si O2"
_cell_formula_units_Z 56
_cell_length_a 12.722789
_cell_length_b 26.848421
_cell_length_c 9.450693
_cell_angle_alpha 90.000000
_cell_angle_beta 120.534596
_cell_angle_gamma 90.000000
_cell_volume 2780.548945
_symmetry_space_group_name_H-M "C 2/M"
_symmetry_group_IT_number 12
_symmetry_cell_setting 'monoclinic'
loop_
_space_group_symop_operation_xyz
x,y,z
-x,y,-z
-x,-y,-z
x,-y,z
1/2+x,1/2+y,z
1/2-x,1/2+y,-z
1/2-x,1/2-y,-z
1/2+x,1/2-y,z
loop_
_atom_site_type_symbol
_atom_site_label
_atom_site_fract_x
_atom_site_fract_y
_atom_site_fract_z
Si Si1 0.887031 0.500000 0.523340
Si Si2 0.539430 0.444451 0.679516
Si Si3 0.303383 0.798293 0.113485
Si Si4 0.286155 0.312461 0.639304
Si Si5 0.747580 0.589706 0.016936
Si Si6 0.449499 0.237576 0.618354
Si Si7 0.563311 0.000000 0.894723
Si Si8 0.689272 0.423918 0.299297
O O1 0.808325 0.451354 0.437714
O O2 0.000000 0.500000 0.500000
O O3 0.942137 0.500000 0.716449
O O4 0.500000 0.420817 0.500000
O O5 0.588222 0.500000 0.682641
O O6 0.431096 0.448868 0.719774
O O7 0.650387 0.414269 0.824115
O O8 0.233537 0.797767 0.213077
O O9 0.288849 0.852567 0.031956
O O10 0.448364 0.792022 0.225847
O O11 0.250000 0.750000 0.000000
O O12 0.412041 0.287871 0.673036
O O13 0.169525 0.297145 0.466767
O O14 0.303989 0.370092 0.628319
O O15 0.857581 0.550317 0.073596
O O16 0.685198 0.577562 0.125751
O O17 0.500000 0.252660 0.500000
O O18 0.500000 0.000000 0.000000
#
# Coordination Sequence:
#
# PCOD8112727 Si02
#       8
#     4   8   8   8   8   8   4   8
#     4  12  24  41  68  99 129 170 217 260 322 396
#     4  11  25  43  66  94 132 166 214 272 324 388
#     4  10  23  41  62  91 129 167 214 264 319 386
#     4   9  21  39  64  90 122 163 211 264 311 379
#     4  11  24  46  67  95 130 176 216 273 333 387
#     4   9  19  40  62  88 123 164 208 262 319 377
#     4  12  28  45  66  97 139 170 217 276 330 400
#     4  11  23  40  69  98 126 169 217 265 321 386
#
# _framework density 20.139908999999999
#
# number of rings (size 3 to 8) (size 9 to 14) (size 15 to 20)
#    0.000    1.571    2.857    0.429    6.000    2.286 
#    7.714    0.000    0.000    0.000    0.000    0.000 
#    0.000    0.000    0.000    0.000    0.000    0.000 
#
# Total GULP energy -347117.776562 kJ/mol
# GULP energy per Si atom -12397.063449 kJ/mol
# Density = 2.009407 g / cm^3
# Si number density = 20.139909 Si / 1000 Ang^3
#
#
#
# Elastic Constant Matrix: (Units=GPa)
#
#
# Indices 1 2 3 4 5 6 
#
# 1 91.7480 44.1107 41.6136 0.0000 7.0882 0.0000
# 2 44.1107 162.0878 67.0862 0.0000 9.0654 0.0000
# 3 41.6136 67.0862 150.5284 0.0000 13.7975 0.0000
# 4 0.0000 0.0000 0.0000 32.3762 0.0000 3.5513
# 5 7.0882 9.0654 13.7975 0.0000 28.1757 0.0000
# 6 0.0000 0.0000 0.0000 3.5513 0.0000 35.8642
#
#
#
# Elastic Compliance Matrix: (Units=1/GPa)
#
#
# Indices 1 2 3 4 5 6 
#
# 1 0.013329 -0.002548 -0.002426 0.000000 -0.001345 0.000000
# 2 -0.002548 0.008070 -0.002840 0.000000 -0.000565 0.000000
# 3 -0.002426 -0.002840 0.008837 0.000000 -0.002803 0.000000
# 4 0.000000 0.000000 0.000000 0.031226 0.000000 -0.003092
# 5 -0.001345 -0.000565 -0.002803 0.000000 0.037384 0.000000
# 6 0.000000 0.000000 0.000000 -0.003092 0.000000 0.028189
#
#
# Mechanical properties :
#
#
# Convention : Reuss Voigt Hill
#
# Bulk Modulus (GPa) = 68.46074 78.88725 73.67399
# Shear Modulus (GPa) = 33.89082 36.05348 34.97215
#
# Velocity S-wave (km/s) = 4.10661 4.23561 4.17161
# Velocity P-wave (km/s) = 7.52011 7.94828 7.73716
#
# Compressibility (1/GPa) = 0.01460691
#
# Stress axis : x y z
#
# Youngs Moduli (GPa) = 75.02627 123.91382 113.16398
#
# Poissons Ratio (x) = 0.31573 0.27452
# Poissons Ratio (y) = 0.19117 0.32144
# Poissons Ratio (z) = 0.18200 0.35197
#
# Static dielectric constant tensor:
#      x y z
#    x 3.728590 0.000000 -0.012700 
#    y 0.000000 3.834980 0.000000 
#    z -0.012700 0.000000 3.635450 
# 
# 
# High freq. dielectric constant tensor:
#      x y z
#    x 1.790910 0.000000 0.004120 
#    y 0.000000 1.793730 0.000000 
#    z 0.004120 0.000000 1.790180 
# 
# From -- ./inp_files/54855.got.cif
#   From: 2010.06.25/outbox.cif.g09.slc.cpg/sg12_28_cif.got.tgz:54855.got - 2010.06.28 00:19:55.
