data_PCOD8112808
_publ_section_title
;
Structure prediction by ZEFSAII (Michael W. Deem and Ramdas Pophale) SiO2 
 PCOD8112808
Probable space group: C 2/M
;
_chemical_formula_sum "Si O2"
_cell_formula_units_Z 44
_cell_length_a 11.440941
_cell_length_b 19.573105
_cell_length_c 9.633619
_cell_angle_alpha 90.000000
_cell_angle_beta 106.209946
_cell_angle_gamma 90.000000
_cell_volume 2071.538942
_symmetry_space_group_name_H-M "C 2/M"
_symmetry_group_IT_number 12
_symmetry_cell_setting 'monoclinic'
loop_
_space_group_symop_operation_xyz
x,y,z
-x,y,-z
-x,-y,-z
x,-y,z
1/2+x,1/2+y,z
1/2-x,1/2+y,-z
1/2-x,1/2-y,-z
1/2+x,1/2-y,z
loop_
_atom_site_type_symbol
_atom_site_label
_atom_site_fract_x
_atom_site_fract_y
_atom_site_fract_z
Si Si1 0.436078 0.000000 0.332150
Si Si2 0.746487 0.632573 0.875665
Si Si3 0.772530 0.372613 0.197530
Si Si4 0.391313 0.000000 0.855123
Si Si5 0.022110 0.079754 0.226712
Si Si6 0.500000 0.638444 0.500000
Si Si7 0.207878 0.763444 0.643193
O O1 0.500000 0.000000 0.500000
O O2 0.351492 0.064553 0.276242
O O3 0.553861 0.000000 0.277404
O O4 0.805155 0.564538 0.837023
O O5 0.602026 0.620059 0.845253
O O6 0.788953 0.693884 0.783627
O O7 0.799314 0.646729 0.046608
O O8 0.629346 0.388102 0.169518
O O9 0.819938 0.309991 0.304262
O O10 0.500000 0.000000 0.000000
O O11 0.058458 0.090180 0.401047
O O12 0.008031 0.000000 0.186658
O O13 0.407381 0.688330 0.395320
O O14 0.250000 0.750000 0.500000
#
# Coordination Sequence:
#
# PCOD8112808 Si02
#       7
#     4   8   8   4   8   4   8
#     4  12  30  43  71 103 139 187 228 290 347 414
#     4  11  25  45  73 101 136 183 225 288 342 409
#     4  12  24  46  69 103 140 175 236 281 347 412
#     4  12  24  49  69 103 137 177 232 277 345 418
#     4  11  22  40  73 102 134 170 228 286 346 395
#     4  10  23  42  62 101 134 182 224 280 336 405
#     4  11  25  44  67  98 138 183 226 280 340 402
#
# _framework density 21.240247
#
# number of rings (size 3 to 8) (size 9 to 14) (size 15 to 20)
#    0.000    0.727    5.455    1.364    3.818    0.727 
#    0.000    0.000    0.000    0.000    0.000    0.000 
#    0.000    0.000    0.000    0.000    0.000    0.000 
#
# Total GULP energy -272651.951696 kJ/mol
# GULP energy per Si atom -12393.270532 kJ/mol
# Density = 2.119190 g / cm^3
# Si number density = 21.240247 Si / 1000 Ang^3
#
#
#
# Elastic Constant Matrix: (Units=GPa)
#
#
# Indices 1 2 3 4 5 6 
#
# 1 75.8883 1.5771 32.8189 0.0000 -12.4079 0.0000
# 2 1.5771 102.0425 60.0294 0.0000 -13.0439 0.0000
# 3 32.8189 60.0294 180.8798 0.0000 -20.9837 0.0000
# 4 0.0000 0.0000 0.0000 38.2749 0.0000 -0.3890
# 5 -12.4079 -13.0439 -20.9837 0.0000 37.1675 0.0000
# 6 0.0000 0.0000 0.0000 -0.3890 0.0000 14.0640
#
#
#
# Elastic Compliance Matrix: (Units=1/GPa)
#
#
# Indices 1 2 3 4 5 6 
#
# 1 0.015069 0.002012 -0.002928 0.000000 0.004084 0.000000
# 2 0.002012 0.012606 -0.004235 0.000000 0.002705 0.000000
# 3 -0.002928 -0.004235 0.007683 0.000000 0.001874 0.000000
# 4 0.000000 0.000000 0.000000 0.026134 0.000000 0.000723
# 5 0.004084 0.002705 0.001874 0.000000 0.030276 0.000000
# 6 0.000000 0.000000 0.000000 0.000723 0.000000 0.071124
#
#
# Mechanical properties :
#
#
# Convention : Reuss Voigt Hill
#
# Bulk Modulus (GPa) = 39.91171 60.85127 50.38149
# Shear Modulus (GPa) = 27.54137 35.52695 31.53416
#
# Velocity S-wave (km/s) = 3.60482 4.09421 3.85729
# Velocity P-wave (km/s) = 6.01313 7.14572 6.60375
#
# Compressibility (1/GPa) = 0.02505530
#
# Stress axis : x y z
#
# Youngs Moduli (GPa) = 66.35961 79.32927 130.16495
#
# Poissons Ratio (x) = -0.15958 0.38113
# Poissons Ratio (y) = -0.13349 0.55121
# Poissons Ratio (z) = 0.19431 0.33594
#
# Static dielectric constant tensor:
#      x y z
#    x 3.645140 0.000000 -0.672350 
#    y 0.000000 4.058740 0.000000 
#    z -0.672350 0.000000 -0.536160 
# 
# 
# High freq. dielectric constant tensor:
#      x y z
#    x 1.819020 0.000000 -0.007980 
#    y 0.000000 1.843070 0.000000 
#    z -0.007980 0.000000 1.859390 
# 
# From -- ./inp_files/49424.got.cif
#   From: 2010.06.25/outbox.cif.g09.slc.cpg/sg12_25_cif.got.tgz:49424.got - 2010.06.28 00:19:55.
