data_PCOD8112144
_publ_section_title
;
Structure prediction by ZEFSAII (Michael W. Deem and Ramdas Pophale) SiO2 
 PCOD8112144
Probable space group: C 2/M
;
_chemical_formula_sum "Si O2"
_cell_formula_units_Z 52
_cell_length_a 11.505118
_cell_length_b 30.356950
_cell_length_c 8.398433
_cell_angle_alpha 90.000000
_cell_angle_beta 119.204504
_cell_angle_gamma 90.000000
_cell_volume 2560.376722
_symmetry_space_group_name_H-M "C 2/M"
_symmetry_group_IT_number 12
_symmetry_cell_setting 'monoclinic'
loop_
_space_group_symop_operation_xyz
x,y,z
-x,y,-z
-x,-y,-z
x,-y,z
1/2+x,1/2+y,z
1/2-x,1/2+y,-z
1/2-x,1/2-y,-z
1/2+x,1/2-y,z
loop_
_atom_site_type_symbol
_atom_site_label
_atom_site_fract_x
_atom_site_fract_y
_atom_site_fract_z
Si Si1 0.697816 0.949746 0.516139
Si Si2 0.096617 0.449565 0.792573
Si Si3 0.727707 0.210382 0.863176
Si Si4 0.645111 0.131820 0.031156
Si Si5 0.000000 0.743870 0.500000
Si Si6 0.346920 0.375237 0.449916
Si Si7 0.841923 0.789065 0.630161
O O1 0.687740 0.942026 0.698523
O O2 0.556241 0.937570 0.344379
O O3 0.813960 0.920844 0.516367
O O4 0.735042 0.000000 0.504922
O O5 0.109493 0.500000 0.859910
O O6 0.145368 0.417618 0.963917
O O7 0.620476 0.214231 0.645550
O O8 0.857474 0.208645 0.833889
O O9 0.750000 0.250000 0.000000
O O10 0.691003 0.165886 0.927057
O O11 0.756595 0.132996 0.237579
O O12 0.500000 0.145822 0.000000
O O13 0.981365 0.775741 0.641651
O O14 0.500000 0.375469 0.500000
O O15 0.303743 0.337213 0.542575
O O16 0.750000 0.750000 0.500000
#
# Coordination Sequence:
#
# PCOD8112144 Si02
#       7
#     8   8   8   8   4   8   8
#     4   9  19  39  67  97 128 171 214 266 330 390
#     4   9  19  39  67  97 129 163 218 279 328 374
#     4  11  26  40  63  94 126 170 218 274 328 386
#     4  12  25  39  64 100 129 165 228 271 322 387
#     4  10  22  42  66  86 118 170 212 274 330 378
#     4  12  25  43  63  92 137 176 211 264 332 404
#     4  10  22  42  64  84 123 169 216 261 321 386
#
# _framework density 20.309512000000002
#
# number of rings (size 3 to 8) (size 9 to 14) (size 15 to 20)
#    0.000    1.538    2.308    3.692    6.462    2.462 
#    0.000    2.308    0.000    1.846    0.000    0.000 
#    0.000    0.000    0.000    0.000    0.000    0.000 
#
# Total GULP energy -322190.931754 kJ/mol
# GULP energy per Si atom -12391.958914 kJ/mol
# Density = 2.026329 g / cm^3
# Si number density = 20.309512 Si / 1000 Ang^3
#
#
#
# Elastic Constant Matrix: (Units=GPa)
#
#
# Indices 1 2 3 4 5 6 
#
# 1 128.2463 57.5658 49.8599 0.0000 -25.1927 0.0000
# 2 57.5658 126.1834 38.9388 0.0000 -20.5517 0.0000
# 3 49.8599 38.9388 95.8091 0.0000 -14.0102 0.0000
# 4 0.0000 0.0000 0.0000 56.6596 0.0000 -8.4769
# 5 -25.1927 -20.5517 -14.0102 0.0000 39.8044 0.0000
# 6 0.0000 0.0000 0.0000 -8.4769 0.0000 35.8516
#
#
#
# Elastic Compliance Matrix: (Units=1/GPa)
#
#
# Indices 1 2 3 4 5 6 
#
# 1 0.011758 -0.003404 -0.004116 0.000000 0.004235 0.000000
# 2 -0.003404 0.010554 -0.002147 0.000000 0.002539 0.000000
# 3 -0.004116 -0.002147 0.013609 0.000000 0.001077 0.000000
# 4 0.000000 0.000000 0.000000 0.018296 0.000000 0.004326
# 5 0.004235 0.002539 0.001077 0.000000 0.029493 0.000000
# 6 0.000000 0.000000 0.000000 0.004326 0.000000 0.028916
#
#
# Mechanical properties :
#
#
# Convention : Reuss Voigt Hill
#
# Bulk Modulus (GPa) = 60.28543 71.44085 65.86314
# Shear Modulus (GPa) = 36.36665 40.05475 38.21070
#
# Velocity S-wave (km/s) = 4.23616 4.44578 4.34224
# Velocity P-wave (km/s) = 7.32629 7.84893 7.59211
#
# Compressibility (1/GPa) = 0.01658775
#
# Stress axis : x y z
#
# Youngs Moduli (GPa) = 85.05106 94.75222 73.47929
#
# Poissons Ratio (x) = 0.32253 0.30244
# Poissons Ratio (y) = 0.28951 0.15773
# Poissons Ratio (z) = 0.35007 0.20339
#
# Static dielectric constant tensor:
#      x y z
#    x 4.226720 0.000000 -0.352260 
#    y 0.000000 3.756580 0.000000 
#    z -0.352260 0.000000 3.582880 
# 
# 
# High freq. dielectric constant tensor:
#      x y z
#    x 1.801220 0.000000 -0.026070 
#    y 0.000000 1.800670 0.000000 
#    z -0.026070 0.000000 1.784190 
# 
# From -- ./inp_files/53362.got.cif
#   From: 2010.06.25/outbox.cif.g09.slc.cpg/sg12_27_cif.got.tgz:53362.got - 2010.06.28 00:19:55.
