data_PCOD8112588
_publ_section_title
;
Structure prediction by ZEFSAII (Michael W. Deem and Ramdas Pophale) SiO2 
 PCOD8112588
Probable space group: C 2/M
;
_chemical_formula_sum "Si O2"
_cell_formula_units_Z 48
_cell_length_a 8.931799
_cell_length_b 18.265593
_cell_length_c 13.357292
_cell_angle_alpha 90.000000
_cell_angle_beta 93.840033
_cell_angle_gamma 90.000000
_cell_volume 2174.277717
_symmetry_space_group_name_H-M "C 2/M"
_symmetry_group_IT_number 12
_symmetry_cell_setting 'monoclinic'
loop_
_space_group_symop_operation_xyz
x,y,z
-x,y,-z
-x,-y,-z
x,-y,z
1/2+x,1/2+y,z
1/2-x,1/2+y,-z
1/2-x,1/2-y,-z
1/2+x,1/2-y,z
loop_
_atom_site_type_symbol
_atom_site_label
_atom_site_fract_x
_atom_site_fract_y
_atom_site_fract_z
Si Si1 0.847797 0.857988 0.031759
Si Si2 0.104763 0.500000 0.351278
Si Si3 0.284073 0.000000 0.418021
Si Si4 0.587918 0.804268 0.907816
Si Si5 0.873540 0.213946 0.369228
Si Si6 0.323325 0.132313 0.785939
Si Si7 0.310329 0.341311 0.578615
O O1 0.893905 0.782542 0.088394
O O2 0.752990 0.899480 0.114465
O O3 0.750809 0.843283 0.925948
O O4 0.000000 0.898855 0.000000
O O5 0.172981 0.500000 0.464268
O O6 0.161805 0.569336 0.293615
O O7 0.925758 0.500000 0.351001
O O8 0.189145 0.926683 0.389896
O O9 0.488643 0.831178 0.809274
O O10 0.500000 0.832580 0.000000
O O11 0.786900 0.193694 0.264220
O O12 0.840779 0.299833 0.391200
O O13 0.817375 0.163806 0.458896
O O14 0.050787 0.201072 0.363433
#
# Coordination Sequence:
#
# PCOD8112588 Si02
#       7
#     8   4   4   8   8   8   8
#     4   9  18  37  62  93 125 162 202 269 339 394
#     4  11  26  41  64  95 126 176 228 270 339 405
#     4  11  24  46  69  86 138 186 222 279 346 391
#     4   8  17  35  61  89 128 162 205 264 340 390
#     4  10  23  39  65  98 133 169 230 280 326 385
#     4  11  22  39  62  95 127 171 220 274 321 408
#     4  10  23  42  65  94 134 178 222 278 338 388
#
# _framework density 22.076297
#
# number of rings (size 3 to 8) (size 9 to 14) (size 15 to 20)
#    0.000    2.167    1.667    1.000    4.667    3.333 
#    3.000    4.167    0.000    0.000    0.000    0.000 
#    0.000    0.000    0.000    0.000    0.000    0.000 
#
# Total GULP energy -297415.394918 kJ/mol
# GULP energy per Si atom -12392.308122 kJ/mol
# Density = 2.202605 g / cm^3
# Si number density = 22.076297 Si / 1000 Ang^3
#
#
#
# Elastic Constant Matrix: (Units=GPa)
#
#
# Indices 1 2 3 4 5 6 
#
# 1 127.2986 34.2167 33.3013 0.0000 8.7509 0.0000
# 2 34.2167 97.0032 6.7029 0.0000 -0.9488 0.0000
# 3 33.3013 6.7029 74.1366 0.0000 7.4653 0.0000
# 4 0.0000 0.0000 0.0000 4.6589 0.0000 2.5195
# 5 8.7509 -0.9488 7.4653 0.0000 39.9418 0.0000
# 6 0.0000 0.0000 0.0000 2.5195 0.0000 21.7828
#
#
#
# Elastic Compliance Matrix: (Units=1/GPa)
#
#
# Indices 1 2 3 4 5 6 
#
# 1 0.009868 -0.003219 -0.003991 0.000000 -0.001492 0.000000
# 2 -0.003219 0.011431 0.000320 0.000000 0.000917 0.000000
# 3 -0.003991 0.000320 0.015454 0.000000 -0.002006 0.000000
# 4 0.000000 0.000000 0.000000 0.228963 0.000000 -0.026483
# 5 -0.001492 0.000917 -0.002006 0.000000 0.025760 0.000000
# 6 0.000000 0.000000 0.000000 -0.026483 0.000000 0.048971
#
#
# Mechanical properties :
#
#
# Convention : Reuss Voigt Hill
#
# Bulk Modulus (GPa) = 43.52951 49.65333 46.59142
# Shear Modulus (GPa) = 13.81653 28.22455 21.02054
#
# Velocity S-wave (km/s) = 2.50442 3.57949 3.08908
# Velocity P-wave (km/s) = 5.30315 6.29478 5.82012
#
# Compressibility (1/GPa) = 0.02297292
#
# Stress axis : x y z
#
# Youngs Moduli (GPa) = 101.34219 87.47827 64.70634
#
# Poissons Ratio (x) = 0.28163 0.25824
# Poissons Ratio (y) = 0.32627 -0.02072
# Poissons Ratio (z) = 0.40446 -0.02802
#
# Static dielectric constant tensor:
#      x y z
#    x 4.378770 0.000000 -0.018500 
#    y 0.000000 3.522440 0.000000 
#    z -0.018500 0.000000 3.927590 
# 
# 
# High freq. dielectric constant tensor:
#      x y z
#    x 1.878610 0.000000 -0.001630 
#    y 0.000000 1.826130 0.000000 
#    z -0.001630 0.000000 1.865050 
# 
# From -- ./inp_files/196030.got.cif
#   From: 2010.06.25/outbox.cif.g09.slc.cpg/sg12_99_cif.got.tgz:196030.got - 2010.06.28 00:19:55.
