data_PCOD8112660
_publ_section_title
;
Structure prediction by ZEFSAII (Michael W. Deem and Ramdas Pophale) SiO2 
 PCOD8112660
Probable space group: C 2/M
;
_chemical_formula_sum "Si O2"
_cell_formula_units_Z 32
_cell_length_a 14.089305
_cell_length_b 17.513147
_cell_length_c 9.447845
_cell_angle_alpha 90.000000
_cell_angle_beta 140.351980
_cell_angle_gamma 90.000000
_cell_volume 1487.491646
_symmetry_space_group_name_H-M "C 2/M"
_symmetry_group_IT_number 12
_symmetry_cell_setting 'monoclinic'
loop_
_space_group_symop_operation_xyz
x,y,z
-x,y,-z
-x,-y,-z
x,-y,z
1/2+x,1/2+y,z
1/2-x,1/2+y,-z
1/2-x,1/2-y,-z
1/2+x,1/2-y,z
loop_
_atom_site_type_symbol
_atom_site_label
_atom_site_fract_x
_atom_site_fract_y
_atom_site_fract_z
Si Si1 0.151730 0.500000 0.761850
Si Si2 0.889201 0.337666 0.742476
Si Si3 0.456241 0.000000 0.789233
Si Si4 0.939655 0.210163 0.586683
Si Si5 0.566834 0.585012 0.931481
O O1 0.000000 0.500000 0.500000
O O2 0.110077 0.500000 0.878804
O O3 0.253173 0.575493 0.847590
O O4 0.863420 0.422904 0.647909
O O5 0.963876 0.285817 0.707381
O O6 0.734863 0.305756 0.622069
O O7 0.000000 0.341326 0.000000
O O8 0.500000 0.000000 0.000000
O O9 0.000000 0.225254 0.500000
O O10 0.027992 0.139513 0.756846
O O11 0.497141 0.500000 0.824667
O O12 0.500000 0.620440 0.000000
#
# Coordination Sequence:
#
# PCOD8112660 Si02
#       5
#     4   8   4   8   8
#     4  10  23  40  66 104 131 183 226 270 343 405
#     4  10  25  46  67  99 139 179 227 284 339 404
#     4  10  24  42  68 100 137 174 221 288 335 399
#     4  11  25  44  70 101 133 185 227 282 345 402
#     4   9  22  42  66  97 137 182 222 283 332 405
#
# _framework density 21.512726000000001
#
# number of rings (size 3 to 8) (size 9 to 14) (size 15 to 20)
#    0.750    1.250    0.000    0.750   12.250    2.500 
#    4.500    0.000    0.000    0.000    0.000    0.000 
#    0.000    0.000    0.000    0.000    0.000    0.000 
#
# Total GULP energy -198338.639648 kJ/mol
# GULP energy per Si atom -12396.164978 kJ/mol
# Density = 2.146376 g / cm^3
# Si number density = 21.512726 Si / 1000 Ang^3
#
#
#
# Elastic Constant Matrix: (Units=GPa)
#
#
# Indices 1 2 3 4 5 6 
#
# 1 177.1491 42.8159 47.9167 0.0000 -19.9755 0.0000
# 2 42.8159 140.0433 43.1801 0.0000 -17.0922 0.0000
# 3 47.9167 43.1801 108.6383 0.0000 -2.8526 0.0000
# 4 0.0000 0.0000 0.0000 11.9022 0.0000 6.0180
# 5 -19.9755 -17.0922 -2.8526 0.0000 30.9736 0.0000
# 6 0.0000 0.0000 0.0000 6.0180 0.0000 14.7684
#
#
#
# Elastic Compliance Matrix: (Units=1/GPa)
#
#
# Indices 1 2 3 4 5 6 
#
# 1 0.006996 -0.000861 -0.002644 0.000000 0.003793 0.000000
# 2 -0.000861 0.008829 -0.003024 0.000000 0.004039 0.000000
# 3 -0.002644 -0.003024 0.011512 0.000000 -0.002313 0.000000
# 4 0.000000 0.000000 0.000000 0.105821 0.000000 -0.043121
# 5 0.003793 0.004039 -0.002313 0.000000 0.036747 0.000000
# 6 0.000000 0.000000 0.000000 -0.043121 0.000000 0.085284
#
#
# Mechanical properties :
#
#
# Convention : Reuss Voigt Hill
#
# Bulk Modulus (GPa) = 70.02563 77.07292 73.54928
# Shear Modulus (GPa) = 18.31463 30.99006 24.65235
#
# Velocity S-wave (km/s) = 2.92094 3.79957 3.38885
# Velocity P-wave (km/s) = 6.63305 7.42653 7.04098
#
# Compressibility (1/GPa) = 0.01428049
#
# Stress axis : x y z
#
# Youngs Moduli (GPa) = 142.94121 113.26377 86.86565
#
# Poissons Ratio (x) = 0.09748 0.22967
# Poissons Ratio (y) = 0.12303 0.26264
# Poissons Ratio (z) = 0.37793 0.34246
#
# Static dielectric constant tensor:
#      x y z
#    x 3.934020 0.000000 -0.098010 
#    y 0.000000 4.393530 0.000000 
#    z -0.098010 0.000000 3.503870 
# 
# 
# High freq. dielectric constant tensor:
#      x y z
#    x 1.853850 0.000000 -0.003680 
#    y 0.000000 1.849820 0.000000 
#    z -0.003680 0.000000 1.830880 
# 
# From -- ./inp_files/49055.got.cif
#   From: 2010.06.25/outbox.cif.g09.slc.cpg/sg12_25_cif.got.tgz:49055.got - 2010.06.28 00:19:55.
