data_PCOD8112644
_publ_section_title
;
Structure prediction by ZEFSAII (Michael W. Deem and Ramdas Pophale) SiO2 
 PCOD8112644
Probable space group: C 2/M
;
_chemical_formula_sum "Si O2"
_cell_formula_units_Z 48
_cell_length_a 22.085173
_cell_length_b 21.610967
_cell_length_c 6.989455
_cell_angle_alpha 90.000000
_cell_angle_beta 40.062135
_cell_angle_gamma 90.000000
_cell_volume 2147.071387
_symmetry_space_group_name_H-M "C 2/M"
_symmetry_group_IT_number 12
_symmetry_cell_setting 'monoclinic'
loop_
_space_group_symop_operation_xyz
x,y,z
-x,y,-z
-x,-y,-z
x,-y,z
1/2+x,1/2+y,z
1/2-x,1/2+y,-z
1/2-x,1/2-y,-z
1/2+x,1/2-y,z
loop_
_atom_site_type_symbol
_atom_site_label
_atom_site_fract_x
_atom_site_fract_y
_atom_site_fract_z
Si Si1 0.209599 0.432361 0.640287
Si Si2 0.080731 0.070585 0.956126
Si Si3 0.531700 0.724966 0.717760
Si Si4 0.877275 0.821201 0.862589
Si Si5 0.103307 0.431161 0.287993
Si Si6 0.666725 0.161800 0.438738
O O1 0.192745 0.500000 0.582522
O O2 0.320661 0.420295 0.391179
O O3 0.158693 0.376745 0.652854
O O4 0.166176 0.433616 0.951238
O O5 0.066701 0.000000 0.061982
O O6 0.083495 0.114901 0.137423
O O7 0.000000 0.088902 0.000000
O O8 0.600226 0.680980 0.420912
O O9 0.435709 0.734222 0.826373
O O10 0.583398 0.789097 0.636472
O O11 0.500000 0.695337 0.000000
O O12 0.768623 0.806623 0.166758
O O13 0.092526 0.500000 0.403002
O O14 0.160394 0.387535 0.287854
O O15 0.000000 0.403348 0.500000
#
# Coordination Sequence:
#
# PCOD8112644 Si02
#       6
#     8   8   8   8   8   8
#     4   9  20  38  63  97 130 162 207 258 316 384
#     4   9  18  38  70 102 130 164 204 253 317 385
#     4  11  26  43  63  89 126 170 219 267 310 364
#     4  10  24  44  64  94 128 161 211 265 315 371
#     4  10  23  40  63  96 132 164 202 259 321 383
#     4  11  24  41  68  91 123 172 213 261 315 374
#
# _framework density 22.356034000000001
#
# number of rings (size 3 to 8) (size 9 to 14) (size 15 to 20)
#    0.000    2.000    0.000    1.500    4.667    6.667 
#    0.000    4.167    0.000    1.500    0.000    0.000 
#    0.000    0.000    0.000    0.000    0.000    0.000 
#
# Total GULP energy -297401.210099 kJ/mol
# GULP energy per Si atom -12391.717087 kJ/mol
# Density = 2.230515 g / cm^3
# Si number density = 22.356034 Si / 1000 Ang^3
#
#
#
# Elastic Constant Matrix: (Units=GPa)
#
#
# Indices 1 2 3 4 5 6 
#
# 1 102.5776 57.4875 27.3451 0.0000 -8.5520 0.0000
# 2 57.4875 109.3642 29.9083 0.0000 -2.8130 0.0000
# 3 27.3451 29.9083 84.9689 0.0000 8.5877 0.0000
# 4 0.0000 0.0000 0.0000 15.7765 0.0000 -5.5790
# 5 -8.5520 -2.8130 8.5877 0.0000 37.9440 0.0000
# 6 0.0000 0.0000 0.0000 -5.5790 0.0000 46.6577
#
#
#
# Elastic Compliance Matrix: (Units=1/GPa)
#
#
# Indices 1 2 3 4 5 6 
#
# 1 0.014569 -0.006856 -0.002616 0.000000 0.003367 0.000000
# 2 -0.006856 0.013439 -0.002526 0.000000 0.000023 0.000000
# 3 -0.002616 -0.002526 0.013896 0.000000 -0.003922 0.000000
# 4 0.000000 0.000000 0.000000 0.066184 0.000000 0.007914
# 5 0.003367 0.000023 -0.003922 0.000000 0.028003 0.000000
# 6 0.000000 0.000000 0.000000 0.007914 0.000000 0.022379
#
#
# Mechanical properties :
#
#
# Convention : Reuss Voigt Hill
#
# Bulk Modulus (GPa) = 55.84016 58.48806 57.16411
# Shear Modulus (GPa) = 26.53407 32.22031 29.37719
#
# Velocity S-wave (km/s) = 3.44886 3.80048 3.62893
# Velocity P-wave (km/s) = 6.39464 6.74367 6.57147
#
# Compressibility (1/GPa) = 0.01790826
#
# Stress axis : x y z
#
# Youngs Moduli (GPa) = 68.63754 74.40864 71.96103
#
# Poissons Ratio (x) = 0.51018 0.18823
# Poissons Ratio (y) = 0.47061 0.18179
# Poissons Ratio (z) = 0.17954 0.18797
#
# Static dielectric constant tensor:
#      x y z
#    x 8.007320 0.000000 -0.075560 
#    y 0.000000 4.106250 0.000000 
#    z -0.075560 0.000000 4.047840 
# 
# 
# High freq. dielectric constant tensor:
#      x y z
#    x 1.879970 0.000000 -0.009990 
#    y 0.000000 1.878210 0.000000 
#    z -0.009990 0.000000 1.886850 
# 
# From -- ./inp_files/21777.got.cif
#   From: 2010.06.25/outbox.cif.g09.slc.cpg/sg12_11_cif.got.tgz:21777.got - 2010.06.28 00:19:55.
