data_PCOD8112473
_publ_section_title
;
Structure prediction by ZEFSAII (Michael W. Deem and Ramdas Pophale) SiO2 
 PCOD8112473
Probable space group: C 2/M
;
_chemical_formula_sum "Si O2"
_cell_formula_units_Z 48
_cell_length_a 24.077339
_cell_length_b 12.714717
_cell_length_c 10.883834
_cell_angle_alpha 90.000000
_cell_angle_beta 147.311144
_cell_angle_gamma 90.000000
_cell_volume 1799.502630
_symmetry_space_group_name_H-M "C 2/M"
_symmetry_group_IT_number 12
_symmetry_cell_setting 'monoclinic'
loop_
_space_group_symop_operation_xyz
x,y,z
-x,y,-z
-x,-y,-z
x,-y,z
1/2+x,1/2+y,z
1/2-x,1/2+y,-z
1/2-x,1/2-y,-z
1/2+x,1/2-y,z
loop_
_atom_site_type_symbol
_atom_site_label
_atom_site_fract_x
_atom_site_fract_y
_atom_site_fract_z
Si Si1 0.579174 0.373952 0.255563
Si Si2 0.859604 0.383471 0.964881
Si Si3 0.740597 0.299071 0.112178
Si Si4 0.579848 0.121906 0.412960
Si Si5 0.698347 0.881974 0.405804
Si Si6 0.520909 0.620721 0.676883
O O1 0.585266 0.500000 0.279893
O O2 0.690722 0.328464 0.417863
O O3 0.546109 0.329587 0.332157
O O4 0.500000 0.341539 0.000000
O O5 0.829963 0.500000 0.959897
O O6 0.963676 0.335961 0.222383
O O7 0.766944 0.303252 0.814834
O O8 0.876360 0.387351 0.850279
O O9 0.844562 0.363669 0.331286
O O10 0.750000 0.250000 0.000000
O O11 0.641006 0.372983 0.937443
O O12 0.634232 0.175973 0.395181
O O13 0.559792 0.000000 0.347161
O O14 0.723800 0.000000 0.500565
O O15 0.500000 0.671065 0.500000
O O16 0.488606 0.500000 0.608497
#
# Coordination Sequence:
#
# PCOD8112473 Si02
#       6
#     8   8   8   8   8   8
#     4   9  17  32  61  99 135 169 212 270 335 403
#     4  10  24  44  69  99 136 178 221 276 341 406
#     4  12  28  42  66  94 132 178 233 282 324 400
#     4  10  22  45  72 100 135 176 222 277 343 409
#     4   9  18  37  68 100 132 173 221 269 334 414
#     4  10  23  42  67  97 134 175 219 278 346 405
#
# _framework density 26.674036999999998
#
# number of rings (size 3 to 8) (size 9 to 14) (size 15 to 20)
#    0.000    2.000    0.000    2.000    4.667    6.667 
#    0.000    5.000    0.000    0.000    0.000    0.000 
#    0.000    0.000    0.000    0.000    0.000    0.000 
#
# Total GULP energy -297486.928574 kJ/mol
# GULP energy per Si atom -12395.288691 kJ/mol
# Density = 2.661333 g / cm^3
# Si number density = 26.674037 Si / 1000 Ang^3
#
#
#
# Elastic Constant Matrix: (Units=GPa)
#
#
# Indices 1 2 3 4 5 6 
#
# 1 131.9973 -0.5222 26.6921 0.0000 -12.9556 0.0000
# 2 -0.5222 23.7463 -12.0769 0.0000 5.3211 0.0000
# 3 26.6921 -12.0769 147.4089 0.0000 5.4681 0.0000
# 4 0.0000 0.0000 0.0000 22.5596 0.0000 -7.1629
# 5 -12.9556 5.3211 5.4681 0.0000 45.9589 0.0000
# 6 0.0000 0.0000 0.0000 -7.1629 0.0000 24.2134
#
#
#
# Elastic Compliance Matrix: (Units=1/GPa)
#
#
# Indices 1 2 3 4 5 6 
#
# 1 0.008171 -0.001270 -0.001682 0.000000 0.002651 0.000000
# 2 -0.001270 0.045591 0.004193 0.000000 -0.006135 0.000000
# 3 -0.001682 0.004193 0.007501 0.000000 -0.001852 0.000000
# 4 0.000000 0.000000 0.000000 0.048922 0.000000 0.014472
# 5 0.002651 -0.006135 -0.001852 0.000000 0.023436 0.000000
# 6 0.000000 0.000000 0.000000 0.014472 0.000000 0.045581
#
#
# Mechanical properties :
#
#
# Convention : Reuss Voigt Hill
#
# Bulk Modulus (GPa) = 15.68753 36.81539 26.25146
# Shear Modulus (GPa) = 25.25656 37.81700 31.53678
#
# Velocity S-wave (km/s) = 3.08045 3.76938 3.44219
# Velocity P-wave (km/s) = 4.30653 5.72505 5.06569
#
# Compressibility (1/GPa) = 0.06374491
#
# Stress axis : x y z
#
# Youngs Moduli (GPa) = 122.38173 21.93416 133.32266
#
# Poissons Ratio (x) = 0.02785 0.22424
# Poissons Ratio (y) = 0.15538 -0.55898
# Poissons Ratio (z) = 0.20584 -0.09196
#
# Static dielectric constant tensor:
#      x y z
#    x 5.324040 0.000000 0.664840 
#    y 0.000000 4.836820 0.000000 
#    z 0.664840 0.000000 5.241720 
# 
# 
# High freq. dielectric constant tensor:
#      x y z
#    x 2.064760 0.000000 0.006840 
#    y 0.000000 2.100530 0.000000 
#    z 0.006840 0.000000 2.067550 
# 
# From -- ./inp_files/183886.got.cif
#   From: 2010.06.25/outbox.cif.g09.slc.cpg/sg12_92_cif.got.tgz:183886.got - 2010.06.28 00:19:55.
