data_PCOD8112607
_publ_section_title
;
Structure prediction by ZEFSAII (Michael W. Deem and Ramdas Pophale) SiO2 
 PCOD8112607
Probable space group: C 2/M
;
_chemical_formula_sum "Si O2"
_cell_formula_units_Z 40
_cell_length_a 22.953751
_cell_length_b 9.634309
_cell_length_c 8.853454
_cell_angle_alpha 90.000000
_cell_angle_beta 82.963312
_cell_angle_gamma 90.000000
_cell_volume 1943.137114
_symmetry_space_group_name_H-M "C 2/M"
_symmetry_group_IT_number 12
_symmetry_cell_setting 'monoclinic'
loop_
_space_group_symop_operation_xyz
x,y,z
-x,y,-z
-x,-y,-z
x,-y,z
1/2+x,1/2+y,z
1/2-x,1/2+y,-z
1/2-x,1/2-y,-z
1/2+x,1/2-y,z
loop_
_atom_site_type_symbol
_atom_site_label
_atom_site_fract_x
_atom_site_fract_y
_atom_site_fract_z
Si Si1 0.251532 0.661832 0.848039
Si Si2 0.869857 0.157790 0.630391
Si Si3 0.050126 0.344849 0.207480
Si Si4 0.553676 0.725701 0.903047
Si Si5 0.336092 0.654897 0.308018
O O1 0.235275 0.500000 0.881625
O O2 0.316286 0.674771 0.761759
O O3 0.206441 0.729164 0.744697
O O4 0.250000 0.750000 0.000000
O O5 0.924397 0.246919 0.670449
O O6 0.850616 0.207590 0.470754
O O7 0.891764 0.000000 0.615814
O O8 0.063326 0.500000 0.255670
O O9 0.979487 0.321052 0.212466
O O10 0.080674 0.317488 0.032900
O O11 0.604723 0.638421 0.810017
O O12 0.500000 0.634897 0.000000
O O13 0.307416 0.500000 0.319410
#
# Coordination Sequence:
#
# PCOD8112607 Si02
#       5
#     8   8   8   8   8
#     4  11  24  41  63  90 117 153 195 242 291 350
#     4  10  23  40  58  86 123 155 192 238 296 351
#     4   9  19  37  61  85 116 154 198 242 288 341
#     4   8  20  37  58  87 117 148 198 241 291 332
#     4  11  23  40  61  87 119 157 194 241 292 347
#
# _framework density 20.585270000000001
#
# number of rings (size 3 to 8) (size 9 to 14) (size 15 to 20)
#    1.200    0.800    0.000    3.600    0.000   10.000 
#    0.000    3.000    0.000    0.000    0.000    0.000 
#    0.000    0.000    0.000    0.000    0.000    0.000 
#
# Total GULP energy -247764.412318 kJ/mol
# GULP energy per Si atom -12388.220616 kJ/mol
# Density = 2.053842 g / cm^3
# Si number density = 20.585270 Si / 1000 Ang^3
#
#
#
# Elastic Constant Matrix: (Units=GPa)
#
#
# Indices 1 2 3 4 5 6 
#
# 1 39.3295 32.3791 14.0579 0.0000 24.5608 0.0000
# 2 32.3791 122.7582 44.6248 0.0000 35.3926 0.0000
# 3 14.0579 44.6248 76.6542 0.0000 37.6365 0.0000
# 4 0.0000 0.0000 0.0000 25.9400 0.0000 2.8456
# 5 24.5608 35.3926 37.6365 0.0000 42.2430 0.0000
# 6 0.0000 0.0000 0.0000 2.8456 0.0000 18.4989
#
#
#
# Elastic Compliance Matrix: (Units=1/GPa)
#
#
# Indices 1 2 3 4 5 6 
#
# 1 0.046784 -0.007441 0.010748 0.000000 -0.030543 0.000000
# 2 -0.007441 0.012403 -0.005116 0.000000 -0.001507 0.000000
# 3 0.010748 -0.005116 0.026694 0.000000 -0.025746 0.000000
# 4 0.000000 0.000000 0.000000 0.039212 0.000000 -0.006032
# 5 -0.030543 -0.001507 -0.025746 0.000000 0.065632 0.000000
# 6 0.000000 0.000000 0.000000 -0.006032 0.000000 0.054985
#
#
# Mechanical properties :
#
#
# Convention : Reuss Voigt Hill
#
# Bulk Modulus (GPa) = 12.15607 46.76283 29.45945
# Shear Modulus (GPa) = 18.06693 27.18173 22.62433
#
# Velocity S-wave (km/s) = 2.96575 3.63774 3.31880
# Velocity P-wave (km/s) = 4.20067 6.35690 5.38775
#
# Compressibility (1/GPa) = 0.08226344
#
# Stress axis : x y z
#
# Youngs Moduli (GPa) = 21.37467 80.62500 37.46223
#
# Poissons Ratio (x) = 0.59996 -0.40266
# Poissons Ratio (y) = 0.15906 0.19165
# Poissons Ratio (z) = -0.22974 0.41246
#
# Static dielectric constant tensor:
#      x y z
#    x 3.552830 0.000000 0.085740 
#    y 0.000000 3.516520 0.000000 
#    z 0.085740 0.000000 3.749380 
# 
# 
# High freq. dielectric constant tensor:
#      x y z
#    x 1.793690 0.000000 0.012730 
#    y 0.000000 1.792630 0.000000 
#    z 0.012730 0.000000 1.810040 
# 
# From -- ./inp_files/92796.got.cif
#   From: 2010.06.25/outbox.cif.g09.slc.cpg/sg12_47_cif.got.tgz:92796.got - 2010.06.28 00:19:55.
