data_PCOD8112821
_publ_section_title
;
Structure prediction by ZEFSAII (Michael W. Deem and Ramdas Pophale) SiO2 
 PCOD8112821
Probable space group: C 2/M
;
_chemical_formula_sum "Si O2"
_cell_formula_units_Z 56
_cell_length_a 15.263362
_cell_length_b 8.646011
_cell_length_c 26.227152
_cell_angle_alpha 90.000000
_cell_angle_beta 126.006866
_cell_angle_gamma 90.000000
_cell_volume 2799.864084
_symmetry_space_group_name_H-M "C 2/M"
_symmetry_group_IT_number 12
_symmetry_cell_setting 'monoclinic'
loop_
_space_group_symop_operation_xyz
x,y,z
-x,y,-z
-x,-y,-z
x,-y,z
1/2+x,1/2+y,z
1/2-x,1/2+y,-z
1/2-x,1/2-y,-z
1/2+x,1/2-y,z
loop_
_atom_site_type_symbol
_atom_site_label
_atom_site_fract_x
_atom_site_fract_y
_atom_site_fract_z
Si Si1 0.329759 0.316265 0.437400
Si Si2 0.491026 0.682935 0.578063
Si Si3 0.349226 0.681579 0.002976
Si Si4 0.970100 0.819892 0.213210
Si Si5 0.722542 0.822821 0.122951
Si Si6 0.466980 0.822680 0.869962
Si Si7 0.411912 0.181673 0.651931
O O1 0.327400 0.500000 0.435986
O O2 0.398958 0.260065 0.412040
O O3 0.388158 0.260101 0.509339
O O4 0.209105 0.245883 0.393452
O O5 0.490459 0.500000 0.583475
O O6 0.487218 0.755466 0.632630
O O7 0.359574 0.500000 0.016729
O O8 0.332359 0.713093 0.937629
O O9 0.250000 0.750000 0.000000
O O10 0.457445 0.766247 0.058201
O O11 0.845138 0.768530 0.174425
O O12 0.016444 0.783511 0.173402
O O13 0.037862 0.724005 0.276929
O O14 0.983791 0.000000 0.229558
O O15 0.656759 0.806469 0.153241
O O16 0.720333 0.000000 0.102384
O O17 0.494652 0.000000 0.865661
O O18 0.404631 0.000000 0.644554
#
# Coordination Sequence:
#
# PCOD8112821 Si02
#       7
#     8   8   8   8   8   8   8
#     4   8  17  34  58  84 113 149 187 231 284 343
#     4   9  17  35  60  84 110 147 193 232 277 344
#     4  12  23  37  62  92 122 153 189 237 291 344
#     4  11  24  42  60  81 113 157 200 238 279 341
#     4  10  23  42  63  86 116 152 193 239 294 349
#     4  11  23  41  64  89 116 150 190 241 297 348
#     4  11  22  36  55  83 117 150 187 236 291 338
#
# _framework density 20.000969999999999
#
# number of rings (size 3 to 8) (size 9 to 14) (size 15 to 20)
#    0.000    1.714    1.429    4.286    0.000    4.571 
#    0.000    9.286    0.000    0.000    0.000    0.000 
#    0.000    0.000    0.000    0.000    0.000    0.000 
#
# Total GULP energy -347288.212936 kJ/mol
# GULP energy per Si atom -12403.150462 kJ/mol
# Density = 1.995545 g / cm^3
# Si number density = 20.000970 Si / 1000 Ang^3
#
#
#
# Elastic Constant Matrix: (Units=GPa)
#
#
# Indices 1 2 3 4 5 6 
#
# 1 110.3225 20.3789 37.5066 0.0000 -7.8881 0.0000
# 2 20.3789 45.6743 10.6727 0.0000 -2.1097 0.0000
# 3 37.5066 10.6727 82.6195 0.0000 2.6716 0.0000
# 4 0.0000 0.0000 0.0000 31.5763 0.0000 -1.5925
# 5 -7.8881 -2.1097 2.6716 0.0000 12.7396 0.0000
# 6 0.0000 0.0000 0.0000 -1.5925 0.0000 23.4860
#
#
#
# Elastic Compliance Matrix: (Units=1/GPa)
#
#
# Indices 1 2 3 4 5 6 
#
# 1 0.012132 -0.003812 -0.005274 0.000000 0.007987 0.000000
# 2 -0.003812 0.024019 -0.001434 0.000000 0.001918 0.000000
# 3 -0.005274 -0.001434 0.014897 0.000000 -0.006627 0.000000
# 4 0.000000 0.000000 0.000000 0.031778 0.000000 0.002155
# 5 0.007987 0.001918 -0.006627 0.000000 0.085148 0.000000
# 6 0.000000 0.000000 0.000000 0.002155 0.000000 0.042725
#
#
# Mechanical properties :
#
#
# Convention : Reuss Voigt Hill
#
# Bulk Modulus (GPa) = 33.32350 41.74808 37.53579
# Shear Modulus (GPa) = 20.68322 24.89758 22.79040
#
# Velocity S-wave (km/s) = 3.21925 3.53203 3.37926
# Velocity P-wave (km/s) = 5.52406 6.12797 5.83383
#
# Compressibility (1/GPa) = 0.03000885
#
# Stress axis : x y z
#
# Youngs Moduli (GPa) = 82.42374 41.63416 67.12642
#
# Poissons Ratio (x) = 0.15871 0.35400
# Poissons Ratio (y) = 0.31420 0.09627
# Poissons Ratio (z) = 0.43467 0.05971
#
# Static dielectric constant tensor:
#      x y z
#    x 3.896270 0.000000 0.104020 
#    y 0.000000 3.500010 0.000000 
#    z 0.104020 0.000000 3.589140 
# 
# 
# High freq. dielectric constant tensor:
#      x y z
#    x 1.795160 0.000000 -0.001470 
#    y 0.000000 1.767760 0.000000 
#    z -0.001470 0.000000 1.773630 
# 
# From -- ./inp_files/339100.got.cif
#   From: 2010.06.25/outbox.cif.g09.slc.cpg/sg12_170_cif.got.tgz:339100.got - 2010.06.28 00:19:55.
