data_PCOD8112434
_publ_section_title
;
Structure prediction by ZEFSAII (Michael W. Deem and Ramdas Pophale) SiO2 
 PCOD8112434
Probable space group: C 2/M
;
_chemical_formula_sum "Si O2"
_cell_formula_units_Z 48
_cell_length_a 9.731177
_cell_length_b 25.759211
_cell_length_c 11.071530
_cell_angle_alpha 90.000000
_cell_angle_beta 112.871735
_cell_angle_gamma 90.000000
_cell_volume 2557.072589
_symmetry_space_group_name_H-M "C 2/M"
_symmetry_group_IT_number 12
_symmetry_cell_setting 'monoclinic'
loop_
_space_group_symop_operation_xyz
x,y,z
-x,y,-z
-x,-y,-z
x,-y,z
1/2+x,1/2+y,z
1/2-x,1/2+y,-z
1/2-x,1/2-y,-z
1/2+x,1/2-y,z
loop_
_atom_site_type_symbol
_atom_site_label
_atom_site_fract_x
_atom_site_fract_y
_atom_site_fract_z
Si Si1 0.130457 0.293764 0.289049
Si Si2 0.183331 0.696235 0.928740
Si Si3 0.155595 0.178562 0.266409
Si Si4 0.328965 0.645404 0.186435
Si Si5 0.145433 0.378431 0.484203
Si Si6 0.847324 0.060707 0.380760
O O1 0.160447 0.234299 0.334765
O O2 0.279734 0.315609 0.276816
O O3 0.094536 0.326419 0.396525
O O4 0.993505 0.297826 0.148274
O O5 0.260163 0.680715 0.830762
O O6 0.250000 0.750000 0.000000
O O7 0.213240 0.650002 0.035432
O O8 0.228914 0.135407 0.375950
O O9 0.986482 0.162238 0.185983
O O10 0.336209 0.587812 0.245567
O O11 0.208175 0.421993 0.415552
O O12 0.000000 0.401834 0.500000
O O13 0.000000 0.076763 0.500000
O O14 0.838316 0.000000 0.353507
#
# Coordination Sequence:
#
# PCOD8112434 Si02
#       6
#     8   8   8   8   8   8
#     4  11  22  36  55  83 128 166 193 232 284 351
#     4  12  22  36  56  83 127 170 195 225 279 356
#     4  12  21  37  55  86 124 164 196 234 285 348
#     4  11  23  35  60  88 117 154 205 237 284 352
#     4  11  23  39  58  90 117 152 197 253 299 347
#     4  10  22  44  68  85 109 150 201 260 309 346
#
# _framework density 18.771466
#
# number of rings (size 3 to 8) (size 9 to 14) (size 15 to 20)
#    0.000    0.833    6.667    1.500    0.000    0.333 
#    0.000    0.000    0.000   11.000    0.000    0.000 
#    0.000    0.000    0.000    0.000    0.000    0.000 
#
# Total GULP energy -297688.789670 kJ/mol
# GULP energy per Si atom -12403.699570 kJ/mol
# Density = 1.872874 g / cm^3
# Si number density = 18.771466 Si / 1000 Ang^3
#
#
#
# Elastic Constant Matrix: (Units=GPa)
#
#
# Indices 1 2 3 4 5 6 
#
# 1 76.8678 23.4731 3.2705 0.0000 2.3158 0.0000
# 2 23.4731 84.3568 28.6846 0.0000 -5.2721 0.0000
# 3 3.2705 28.6846 76.4494 0.0000 1.2801 0.0000
# 4 0.0000 0.0000 0.0000 25.9683 0.0000 -0.1114
# 5 2.3158 -5.2721 1.2801 0.0000 30.0711 0.0000
# 6 0.0000 0.0000 0.0000 -0.1114 0.0000 18.2532
#
#
#
# Elastic Compliance Matrix: (Units=1/GPa)
#
#
# Indices 1 2 3 4 5 6 
#
# 1 0.014396 -0.004504 0.001107 0.000000 -0.001945 0.000000
# 2 -0.004504 0.015203 -0.005566 0.000000 0.003249 0.000000
# 3 0.001107 -0.005566 0.015150 0.000000 -0.001706 0.000000
# 4 0.000000 0.000000 0.000000 0.038510 0.000000 0.000235
# 5 -0.001945 0.003249 -0.001706 0.000000 0.034047 0.000000
# 6 0.000000 0.000000 0.000000 0.000235 0.000000 0.054786
#
#
# Mechanical properties :
#
#
# Convention : Reuss Voigt Hill
#
# Bulk Modulus (GPa) = 37.28131 38.72560 38.00346
# Shear Modulus (GPa) = 25.13066 27.00824 26.06945
#
# Velocity S-wave (km/s) = 3.66289 3.79726 3.73068
# Velocity P-wave (km/s) = 6.14758 6.31667 6.23270
#
# Compressibility (1/GPa) = 0.02682309
#
# Stress axis : x y z
#
# Youngs Moduli (GPa) = 69.46293 65.77475 66.00537
#
# Poissons Ratio (x) = 0.29623 -0.07304
# Poissons Ratio (y) = 0.31284 0.36740
# Poissons Ratio (z) = -0.07686 0.36612
#
# Static dielectric constant tensor:
#      x y z
#    x 3.569630 0.000000 0.008960 
#    y 0.000000 3.150800 0.000000 
#    z 0.008960 0.000000 3.695960 
# 
# 
# High freq. dielectric constant tensor:
#      x y z
#    x 1.749350 0.000000 -0.001400 
#    y 0.000000 1.690920 0.000000 
#    z -0.001400 0.000000 1.731340 
# 
# From -- ./inp_files/122417.got.cif
#   From: 2010.06.25/outbox.cif.g09.slc.cpg/sg12_62_cif.got.tgz:122417.got - 2010.06.28 00:19:55.
