data_PCOD8112208
_publ_section_title
;
Structure prediction by ZEFSAII (Michael W. Deem and Ramdas Pophale) SiO2 
 PCOD8112208
Probable space group: C 2/M
;
_chemical_formula_sum "Si O2"
_cell_formula_units_Z 56
_cell_length_a 19.788136
_cell_length_b 8.842966
_cell_length_c 16.227885
_cell_angle_alpha 90.000000
_cell_angle_beta 88.136396
_cell_angle_gamma 90.000000
_cell_volume 2838.147703
_symmetry_space_group_name_H-M "C 2/M"
_symmetry_group_IT_number 12
_symmetry_cell_setting 'monoclinic'
loop_
_space_group_symop_operation_xyz
x,y,z
-x,y,-z
-x,-y,-z
x,-y,z
1/2+x,1/2+y,z
1/2-x,1/2+y,-z
1/2-x,1/2-y,-z
1/2+x,1/2-y,z
loop_
_atom_site_type_symbol
_atom_site_label
_atom_site_fract_x
_atom_site_fract_y
_atom_site_fract_z
Si Si1 0.007148 0.823401 0.249003
Si Si2 0.823040 0.322310 0.486479
Si Si3 0.369136 0.823180 0.302789
Si Si4 0.444969 0.323824 0.934445
Si Si5 0.803582 0.677674 0.937585
Si Si6 0.132891 0.177586 0.357820
Si Si7 0.257811 0.821827 0.758972
O O1 0.944965 0.722122 0.278758
O O2 0.026938 0.778061 0.155765
O O3 0.068708 0.778433 0.305760
O O4 0.988817 0.000000 0.256542
O O5 0.816209 0.500000 0.498589
O O6 0.750000 0.250000 0.500000
O O7 0.854344 0.278798 0.397500
O O8 0.874179 0.255664 0.552873
O O9 0.319863 0.729964 0.244407
O O10 0.358583 0.000000 0.287237
O O11 0.426638 0.500000 0.938558
O O12 0.378049 0.231545 0.958699
O O13 0.500000 0.278933 0.000000
O O14 0.798742 0.500000 0.947582
O O15 0.786744 0.729389 0.845681
O O16 0.750000 0.750000 0.000000
O O17 0.201163 0.236420 0.313239
O O18 0.139995 0.000000 0.369652
O O19 0.263925 0.000000 0.745365
#
# Coordination Sequence:
#
# PCOD8112208 Si02
#       7
#     8   8   8   8   8   8   8
#     4  10  23  42  63  90 126 166 207 252 309 373
#     4  11  23  39  61  91 125 164 208 259 312 365
#     4  11  25  41  62  92 126 163 207 258 309 365
#     4  10  22  42  66  91 125 166 205 251 307 370
#     4  11  25  42  64  95 127 163 207 256 309 365
#     4  11  22  39  65  92 122 163 207 255 311 368
#     4  11  23  40  64  91 123 164 208 254 307 368
#
# _framework density 19.731179000000001
#
# number of rings (size 3 to 8) (size 9 to 14) (size 15 to 20)
#    0.000    1.286    2.857    2.143    2.000    6.000 
#    0.000    2.857    0.000    0.000    0.000    0.000 
#    0.000    0.000    0.000    0.000    0.000    0.000 
#
# Total GULP energy -347403.128465 kJ/mol
# GULP energy per Si atom -12407.254588 kJ/mol
# Density = 1.968627 g / cm^3
# Si number density = 19.731179 Si / 1000 Ang^3
#
#
#
# Elastic Constant Matrix: (Units=GPa)
#
#
# Indices 1 2 3 4 5 6 
#
# 1 120.5380 40.9623 65.7168 0.0000 3.1934 0.0000
# 2 40.9623 68.5382 50.5772 0.0000 3.4686 0.0000
# 3 65.7168 50.5772 119.4785 0.0000 12.7807 0.0000
# 4 0.0000 0.0000 0.0000 34.3408 0.0000 -1.2842
# 5 3.1934 3.4686 12.7807 0.0000 37.2252 0.0000
# 6 0.0000 0.0000 0.0000 -1.2842 0.0000 38.8386
#
#
#
# Elastic Compliance Matrix: (Units=1/GPa)
#
#
# Indices 1 2 3 4 5 6 
#
# 1 0.012434 -0.003421 -0.005514 0.000000 0.001145 0.000000
# 2 -0.003421 0.022207 -0.007609 0.000000 0.000837 0.000000
# 3 -0.005514 -0.007609 0.015050 0.000000 -0.003985 0.000000
# 4 0.000000 0.000000 0.000000 0.029156 0.000000 0.000964
# 5 0.001145 0.000837 -0.003985 0.000000 0.028056 0.000000
# 6 0.000000 0.000000 0.000000 0.000964 0.000000 0.025779
#
#
# Mechanical properties :
#
#
# Convention : Reuss Voigt Hill
#
# Bulk Modulus (GPa) = 60.22279 69.22969 64.72624
# Shear Modulus (GPa) = 29.18802 32.16747 30.67775
#
# Velocity S-wave (km/s) = 3.85032 4.04206 3.94735
# Velocity P-wave (km/s) = 7.09609 7.54632 7.32467
#
# Compressibility (1/GPa) = 0.01660501
#
# Stress axis : x y z
#
# Youngs Moduli (GPa) = 80.42286 45.03047 66.44682
#
# Poissons Ratio (x) = 0.15403 0.36637
# Poissons Ratio (y) = 0.27509 0.50558
# Poissons Ratio (z) = 0.44343 0.34263
#
# Static dielectric constant tensor:
#      x y z
#    x 3.499640 0.000000 0.050360 
#    y 0.000000 3.582460 0.000000 
#    z 0.050360 0.000000 3.844330 
# 
# 
# High freq. dielectric constant tensor:
#      x y z
#    x 1.774150 0.000000 0.007950 
#    y 0.000000 1.774990 0.000000 
#    z 0.007950 0.000000 1.782830 
# 
# From -- ./inp_files/231046.got.cif
#   From: 2010.06.25/outbox.cif.g09.slc.cpg/sg12_116_cif.got.tgz:231046.got - 2010.06.28 00:19:55.
