data_PCOD8112537
_publ_section_title
;
Structure prediction by ZEFSAII (Michael W. Deem and Ramdas Pophale) SiO2 
 PCOD8112537
Probable space group: C 2/M
;
_chemical_formula_sum "Si O2"
_cell_formula_units_Z 64
_cell_length_a 29.544194
_cell_length_b 21.848973
_cell_length_c 9.467108
_cell_angle_alpha 90.000000
_cell_angle_beta 151.613614
_cell_angle_gamma 90.000000
_cell_volume 2905.317188
_symmetry_space_group_name_H-M "C 2/M"
_symmetry_group_IT_number 12
_symmetry_cell_setting 'monoclinic'
loop_
_space_group_symop_operation_xyz
x,y,z
-x,y,-z
-x,-y,-z
x,-y,z
1/2+x,1/2+y,z
1/2-x,1/2+y,-z
1/2-x,1/2-y,-z
1/2+x,1/2-y,z
loop_
_atom_site_type_symbol
_atom_site_label
_atom_site_fract_x
_atom_site_fract_y
_atom_site_fract_z
Si Si1 0.140730 0.732641 0.716904
Si Si2 0.779236 0.069261 0.862383
Si Si3 0.138177 0.740932 0.023328
Si Si4 0.001360 0.670194 0.161523
Si Si5 0.786389 0.144222 0.443155
Si Si6 0.583339 0.373379 0.954045
Si Si7 0.629344 0.364864 0.627846
Si Si8 0.644147 0.928333 0.243475
O O1 0.106644 0.677447 0.519943
O O2 0.089761 0.795731 0.534756
O O3 0.250000 0.750000 0.000000
O O4 0.113604 0.714023 0.801061
O O5 0.685007 0.088459 0.512607
O O6 0.769162 0.000000 0.890972
O O7 0.864497 0.071031 0.982003
O O8 0.800723 0.112934 0.054961
O O9 0.245390 0.714124 0.348193
O O10 0.124890 0.814022 0.982334
O O11 0.065422 0.715269 0.935475
O O12 0.000000 0.695897 0.000000
O O13 0.961355 0.601000 0.056961
O O14 0.808799 0.126207 0.343575
O O15 0.708924 0.097690 0.294859
O O16 0.885182 0.136942 0.797973
O O17 0.474008 0.396575 0.652491
O O18 0.634013 0.000000 0.193625
#
# Coordination Sequence:
#
# PCOD8112537 Si02
#       8
#     8   8   8   8   8   8   8   8
#     4  12  25  40  62  94 139 176 211 267 334 405
#     4  10  23  42  65  91 124 173 228 274 328 394
#     4  11  22  40  62  89 134 176 214 270 331 403
#     4  11  26  40  68 102 131 170 223 275 331 399
#     4  10  23  38  62  96 128 170 222 272 338 395
#     4  11  22  37  60  88 129 175 219 270 332 394
#     4  12  23  37  60  94 133 172 219 274 334 399
#     4   9  22  48  72  93 130 175 226 281 328 387
#
# _framework density 22.028576999999999
#
# number of rings (size 3 to 8) (size 9 to 14) (size 15 to 20)
#    0.000    1.250    3.750    1.500    3.500    2.750 
#    0.000    0.000    0.000    9.750    0.000    0.000 
#    0.000    0.000    0.000    0.000    0.000    0.000 
#
# Total GULP energy -396513.817010 kJ/mol
# GULP energy per Si atom -12391.056782 kJ/mol
# Density = 2.197844 g / cm^3
# Si number density = 22.028577 Si / 1000 Ang^3
#
#
#
# Elastic Constant Matrix: (Units=GPa)
#
#
# Indices 1 2 3 4 5 6 
#
# 1 129.5125 27.5061 54.3223 0.0000 -25.6433 0.0000
# 2 27.5061 86.7704 48.6233 0.0000 -8.1283 0.0000
# 3 54.3223 48.6233 123.1589 0.0000 0.4956 0.0000
# 4 0.0000 0.0000 0.0000 33.1243 0.0000 -1.7731
# 5 -25.6433 -8.1283 0.4956 0.0000 36.9405 0.0000
# 6 0.0000 0.0000 0.0000 -1.7731 0.0000 17.6125
#
#
#
# Elastic Compliance Matrix: (Units=1/GPa)
#
#
# Indices 1 2 3 4 5 6 
#
# 1 0.011436 -0.000040 -0.005060 0.000000 0.007997 0.000000
# 2 -0.000040 0.015221 -0.006005 0.000000 0.003402 0.000000
# 3 -0.005060 -0.006005 0.012743 0.000000 -0.005005 0.000000
# 4 0.000000 0.000000 0.000000 0.030353 0.000000 0.003056
# 5 0.007997 0.003402 -0.005005 0.000000 0.033438 0.000000
# 6 0.000000 0.000000 0.000000 0.003056 0.000000 0.057085
#
#
# Mechanical properties :
#
#
# Convention : Reuss Voigt Hill
#
# Bulk Modulus (GPa) = 58.18066 66.70505 62.44286
# Shear Modulus (GPa) = 26.56508 31.46813 29.01660
#
# Velocity S-wave (km/s) = 3.47643 3.78367 3.63330
# Velocity P-wave (km/s) = 6.52555 7.03101 6.78299
#
# Compressibility (1/GPa) = 0.01718784
#
# Stress axis : x y z
#
# Youngs Moduli (GPa) = 87.44476 65.69744 78.47695
#
# Poissons Ratio (x) = 0.00265 0.39712
# Poissons Ratio (y) = 0.00353 0.47128
# Poissons Ratio (z) = 0.44250 0.39453
#
# Static dielectric constant tensor:
#      x y z
#    x 4.077830 0.000000 0.279730 
#    y 0.000000 4.032420 0.000000 
#    z 0.279730 0.000000 5.251140 
# 
# 
# High freq. dielectric constant tensor:
#      x y z
#    x 1.876220 0.000000 -0.002990 
#    y 0.000000 1.839360 0.000000 
#    z -0.002990 0.000000 1.873240 
# 
# From -- ./inp_files/113664.got.cif
#   From: 2010.06.25/outbox.cif.g09.slc.cpg/sg12_57_cif.got.tgz:113664.got - 2010.06.28 00:19:55.
