data_PCOD8112004
_publ_section_title
;
Structure prediction by ZEFSAII (Michael W. Deem and Ramdas Pophale) SiO2 
 PCOD8112004
Probable space group: C 2/M
;
_chemical_formula_sum "Si O2"
_cell_formula_units_Z 56
_cell_length_a 22.861436
_cell_length_b 16.647392
_cell_length_c 17.730816
_cell_angle_alpha 90.000000
_cell_angle_beta 22.897679
_cell_angle_gamma 90.000000
_cell_volume 2625.576925
_symmetry_space_group_name_H-M "C 2/M"
_symmetry_group_IT_number 12
_symmetry_cell_setting 'monoclinic'
loop_
_space_group_symop_operation_xyz
x,y,z
-x,y,-z
-x,-y,-z
x,-y,z
1/2+x,1/2+y,z
1/2-x,1/2+y,-z
1/2-x,1/2-y,-z
1/2+x,1/2-y,z
loop_
_atom_site_type_symbol
_atom_site_label
_atom_site_fract_x
_atom_site_fract_y
_atom_site_fract_z
Si Si1 0.447329 0.089272 0.873067
Si Si2 0.617763 0.141320 0.807094
Si Si3 0.094168 0.908303 0.615903
Si Si4 0.230958 0.156184 0.016073
Si Si5 0.733775 0.911562 0.441788
Si Si6 0.663083 0.093897 0.268806
Si Si7 0.664585 0.683439 0.812735
O O1 0.520752 0.152261 0.845241
O O2 0.561243 0.082639 0.668743
O O3 0.427930 0.000000 0.932544
O O4 0.290876 0.118760 0.023488
O O5 0.776136 0.098122 0.602381
O O6 0.657245 0.221520 0.807235
O O7 0.500000 0.091573 0.000000
O O8 0.162900 0.877421 0.613213
O O9 0.947708 0.857148 0.772528
O O10 0.044064 0.000000 0.681384
O O11 0.250000 0.250000 0.000000
O O12 0.320815 0.118354 0.838141
O O13 0.729906 0.852197 0.376731
O O14 0.791863 0.000000 0.348910
O O15 0.500000 0.107391 0.500000
O O16 0.774593 0.155711 0.178504
O O17 0.709473 0.000000 0.222982
O O18 0.500000 0.645009 0.000000
#
# Coordination Sequence:
#
# PCOD8112004 Si02
#       7
#     8   8   8   8   8   8   8
#     4  10  22  42  66  91 124 171 221 269 326 400
#     4  10  24  41  66  95 129 167 225 284 333 394
#     4  10  22  41  65  94 130 173 221 277 333 401
#     4  12  27  40  67 101 135 178 218 278 337 400
#     4   9  19  36  62  91 125 166 215 263 323 400
#     4  11  25  45  69  96 137 183 221 268 333 411
#     4  11  23  36  61  95 132 165 209 272 332 393
#
# _framework density 21.328645999999999
#
# number of rings (size 3 to 8) (size 9 to 14) (size 15 to 20)
#    0.000    1.571    0.000    4.714   10.000    6.857 
#    0.000    0.714    0.000    1.714    0.000    0.000 
#    0.000    0.000    0.000    0.000    0.000    0.000 
#
# Total GULP energy -346950.694011 kJ/mol
# GULP energy per Si atom -12391.096215 kJ/mol
# Density = 2.128010 g / cm^3
# Si number density = 21.328646 Si / 1000 Ang^3
#
#
#
# Elastic Constant Matrix: (Units=GPa)
#
#
# Indices 1 2 3 4 5 6 
#
# 1 102.5119 34.3540 24.7153 -0.0017 -15.9448 0.0031
# 2 34.3540 84.0582 9.5882 0.0001 0.2996 0.0028
# 3 24.7153 9.5882 105.2748 -0.0010 -1.4657 -0.0044
# 4 -0.0017 0.0001 -0.0010 29.4290 0.0007 6.8681
# 5 -15.9448 0.2996 -1.4657 0.0007 35.7062 0.0047
# 6 0.0031 0.0028 -0.0044 6.8681 0.0047 -32.6933
#
#
#
# Elastic Compliance Matrix: (Units=1/GPa)
#
#
# Indices 1 2 3 4 5 6 
#
# 1 0.012928 -0.005019 -0.002498 0.000000 0.005713 0.000002
# 2 -0.005019 0.013971 -0.000127 0.000000 -0.002364 0.000000
# 3 -0.002498 -0.000127 0.010087 0.000001 -0.000701 -0.000002
# 4 0.000000 0.000000 0.000001 0.032392 -0.000001 0.006805
# 5 0.005713 -0.002364 -0.000701 -0.000001 0.030548 0.000005
# 6 0.000002 0.000000 -0.000002 0.006805 0.000005 -0.029158
#
#
# Mechanical properties :
#
#
# Convention : Reuss Voigt Hill
#
# Bulk Modulus (GPa) = 46.08915 47.68441 46.88678
# Shear Modulus (GPa) = 53.59668 21.36753 37.48211
#
# Velocity S-wave (km/s) = 5.01832 3.16859 4.19664
# Velocity P-wave (km/s) = 7.43196 5.98265 6.74634
#
# Compressibility (1/GPa) = 0.02169708
#
# Stress axis : x y z
#
# Youngs Moduli (GPa) = 77.35271 71.57879 99.13435
#
# Poissons Ratio (x) = 0.35925 0.24768
# Poissons Ratio (y) = 0.38822 0.01259
# Poissons Ratio (z) = 0.19326 0.00909
#
# Static dielectric constant tensor:
#      x y z
#    x 3.834850 0.000000 -0.019240 
#    y 0.000000 3.825250 0.000000 
#    z -0.019240 0.000000 4.113990 
# 
# 
# High freq. dielectric constant tensor:
#      x y z
#    x 1.834580 0.000000 -0.003180 
#    y 0.000000 1.829130 0.000000 
#    z -0.003180 0.000000 1.841960 
# 
# From -- ./inp_files/234646.got.cif
#   From: 2010.06.25/outbox.cif.g09.slc.cpg/sg12_118_cif.got.tgz:234646.got - 2010.06.28 00:19:55.
