data_PCOD8112897
_publ_section_title
;
Structure prediction by ZEFSAII (Michael W. Deem and Ramdas Pophale) SiO2 
 PCOD8112897
Probable space group: C 2/M
;
_chemical_formula_sum "Si O2"
_cell_formula_units_Z 48
_cell_length_a 9.670334
_cell_length_b 31.256300
_cell_length_c 7.545872
_cell_angle_alpha 90.000000
_cell_angle_beta 92.592372
_cell_angle_gamma 90.000000
_cell_volume 2278.472496
_symmetry_space_group_name_H-M "C 2/M"
_symmetry_group_IT_number 12
_symmetry_cell_setting 'monoclinic'
loop_
_space_group_symop_operation_xyz
x,y,z
-x,y,-z
-x,-y,-z
x,-y,z
1/2+x,1/2+y,z
1/2-x,1/2+y,-z
1/2-x,1/2-y,-z
1/2+x,1/2-y,z
loop_
_atom_site_type_symbol
_atom_site_label
_atom_site_fract_x
_atom_site_fract_y
_atom_site_fract_z
Si Si1 0.473231 0.410206 0.800071
Si Si2 0.167880 0.793804 0.480780
Si Si3 0.001459 0.591825 0.709884
Si Si4 0.730883 0.362006 0.770414
Si Si5 0.910129 0.500000 0.319914
Si Si6 0.414885 0.500000 0.672698
Si Si7 0.256842 0.851203 0.177711
O O1 0.595996 0.388362 0.696901
O O2 0.468025 0.460492 0.787345
O O3 0.327083 0.390386 0.736625
O O4 0.500000 0.396048 0.000000
O O5 0.250000 0.750000 0.500000
O O6 0.242081 0.823581 0.631991
O O7 0.208340 0.809822 0.285655
O O8 0.000000 0.789547 0.500000
O O9 0.849200 0.601901 0.771859
O O10 0.000000 0.591924 0.500000
O O11 0.052559 0.544514 0.782863
O O12 0.086932 0.632621 0.788061
O O13 0.724898 0.342383 0.968809
O O14 0.749343 0.500000 0.365527
O O15 0.000000 0.500000 0.500000
O O16 0.500000 0.500000 0.500000
#
# Coordination Sequence:
#
# PCOD8112897 Si02
#       7
#     8   8   8   8   4   4   8
#     4  10  23  42  65  93 130 177 227 278 326 384
#     4  12  28  47  74 103 136 171 213 276 342 406
#     4  11  22  40  69  97 141 184 227 275 329 394
#     4  11  25  44  72 100 132 181 224 275 334 399
#     4  10  24  39  56  97 141 177 228 280 324 388
#     4  12  25  35  65  96 130 179 230 282 328 376
#     4  11  23  46  71  98 135 178 225 272 332 401
#
# _framework density 21.066745000000001
#
# number of rings (size 3 to 8) (size 9 to 14) (size 15 to 20)
#    0.000    1.000    5.000    0.750    9.333    0.667 
#    0.000    2.500    0.000    0.000    0.000    0.000 
#    0.000    0.000    0.000    0.000    0.000    0.000 
#
# Total GULP energy -297397.960707 kJ/mol
# GULP energy per Si atom -12391.581696 kJ/mol
# Density = 2.101880 g / cm^3
# Si number density = 21.066745 Si / 1000 Ang^3
#
#
#
# Elastic Constant Matrix: (Units=GPa)
#
#
# Indices 1 2 3 4 5 6 
#
# 1 97.5733 37.8846 26.1932 0.0000 -9.6075 0.0000
# 2 37.8846 133.2672 34.5160 0.0000 -8.0607 0.0000
# 3 26.1932 34.5160 87.2015 0.0000 -8.5235 0.0000
# 4 0.0000 0.0000 0.0000 19.2106 0.0000 -4.1245
# 5 -9.6075 -8.0607 -8.5235 0.0000 27.3669 0.0000
# 6 0.0000 0.0000 0.0000 -4.1245 0.0000 40.0337
#
#
#
# Elastic Compliance Matrix: (Units=1/GPa)
#
#
# Indices 1 2 3 4 5 6 
#
# 1 0.012192 -0.002697 -0.002325 0.000000 0.002762 0.000000
# 2 -0.002697 0.009016 -0.002673 0.000000 0.000876 0.000000
# 3 -0.002325 -0.002673 0.013478 0.000000 0.002594 0.000000
# 4 0.000000 0.000000 0.000000 0.053232 0.000000 0.005484
# 5 0.002762 0.000876 0.002594 0.000000 0.038576 0.000000
# 6 0.000000 0.000000 0.000000 0.005484 0.000000 0.025544
#
#
# Mechanical properties :
#
#
# Convention : Reuss Voigt Hill
#
# Bulk Modulus (GPa) = 51.82350 57.24772 54.53561
# Shear Modulus (GPa) = 28.75915 31.95212 30.35564
#
# Velocity S-wave (km/s) = 3.69879 3.89872 3.80007
# Velocity P-wave (km/s) = 6.54939 6.89203 6.72290
#
# Compressibility (1/GPa) = 0.01929627
#
# Stress axis : x y z
#
# Youngs Moduli (GPa) = 82.02280 110.91897 74.19751
#
# Poissons Ratio (x) = 0.29911 0.17249
# Poissons Ratio (y) = 0.22119 0.19832
# Poissons Ratio (z) = 0.19068 0.29647
#
# Static dielectric constant tensor:
#      x y z
#    x 4.104960 0.000000 -0.045790 
#    y 0.000000 3.830550 0.000000 
#    z -0.045790 0.000000 3.731750 
# 
# 
# High freq. dielectric constant tensor:
#      x y z
#    x 1.844040 0.000000 -0.000280 
#    y 0.000000 1.818790 0.000000 
#    z -0.000280 0.000000 1.820640 
# 
# From -- ./inp_files/42261.got.cif
#   From: 2010.06.25/outbox.cif.g09.slc.cpg/sg12_22_cif.got.tgz:42261.got - 2010.06.28 00:19:55.
