data_PCOD8112985
_publ_section_title
;
Structure prediction by ZEFSAII (Michael W. Deem and Ramdas Pophale) SiO2 
 PCOD8112985
Probable space group: C 2/M
;
_chemical_formula_sum "Si O2"
_cell_formula_units_Z 64
_cell_length_a 9.325843
_cell_length_b 19.311428
_cell_length_c 23.812138
_cell_angle_alpha 90.000000
_cell_angle_beta 129.964845
_cell_angle_gamma 90.000000
_cell_volume 3286.838022
_symmetry_space_group_name_H-M "C 2/M"
_symmetry_group_IT_number 12
_symmetry_cell_setting 'monoclinic'
loop_
_space_group_symop_operation_xyz
x,y,z
-x,y,-z
-x,-y,-z
x,-y,z
1/2+x,1/2+y,z
1/2-x,1/2+y,-z
1/2-x,1/2-y,-z
1/2+x,1/2-y,z
loop_
_atom_site_type_symbol
_atom_site_label
_atom_site_fract_x
_atom_site_fract_y
_atom_site_fract_z
Si Si1 0.335681 0.708748 0.705537
Si Si2 0.918372 0.418436 0.847622
Si Si3 0.522873 0.184074 0.443209
Si Si4 0.845396 0.305881 0.915686
Si Si5 0.941022 0.812690 0.855359
Si Si6 0.163526 0.080958 0.083269
Si Si7 0.579832 0.652665 0.462524
Si Si8 0.855698 0.841548 0.302485
O O1 0.371423 0.677252 0.774958
O O2 0.285115 0.789817 0.700038
O O3 0.512955 0.700574 0.708505
O O4 0.161544 0.664383 0.637922
O O5 0.902244 0.500000 0.853431
O O6 0.867836 0.381698 0.893815
O O7 0.772628 0.397001 0.762188
O O8 0.130962 0.396286 0.886105
O O9 0.500000 0.160064 0.500000
O O10 0.552461 0.265911 0.445460
O O11 0.701829 0.139400 0.470230
O O12 0.661433 0.300518 0.907204
O O13 0.845462 0.251224 0.864284
O O14 0.000000 0.287423 0.000000
O O15 0.883145 0.883788 0.869787
O O16 0.155464 0.000000 0.091677
O O17 0.000000 0.105534 0.000000
O O18 0.500000 0.622613 0.500000
O O19 0.484623 0.619406 0.382433
#
# Coordination Sequence:
#
# PCOD8112985 Si02
#       8
#     8   8   8   8   8   8   8   8
#     4  11  21  33  55  84 119 158 187 244 294 356
#     4  11  24  42  62  84 116 159 204 251 305 363
#     4   9  16  28  45  74 115 150 183 226 288 344
#     4  12  24  39  61  89 120 155 197 247 302 361
#     4  12  22  38  59  90 122 155 195 243 297 359
#     4  10  23  43  64  86 117 157 200 250 301 353
#     4   9  18  29  49  80 117 153 188 234 287 357
#     4  11  22  37  55  86 122 155 192 240 306 351
#
# _framework density 19.471602000000001
#
# number of rings (size 3 to 8) (size 9 to 14) (size 15 to 20)
#    0.000    1.375    3.750    2.250    7.000    0.750 
#    0.000    0.000    0.000    0.375    0.000    2.625 
#    0.000    0.000    0.000    0.000    0.000    0.000 
#
# Total GULP energy -396610.149932 kJ/mol
# GULP energy per Si atom -12394.067185 kJ/mol
# Density = 1.942728 g / cm^3
# Si number density = 19.471602 Si / 1000 Ang^3
#
#
#
# Elastic Constant Matrix: (Units=GPa)
#
#
# Indices 1 2 3 4 5 6 
#
# 1 95.4703 32.4676 19.1397 0.0000 8.0439 0.0000
# 2 32.4676 44.6740 18.4486 0.0000 -1.4611 0.0000
# 3 19.1397 18.4486 114.1163 0.0000 0.9761 0.0000
# 4 0.0000 0.0000 0.0000 9.9730 -0.0001 1.1689
# 5 8.0439 -1.4611 0.9761 -0.0001 39.8094 0.0000
# 6 0.0000 0.0000 0.0000 1.1689 0.0000 23.3829
#
#
#
# Elastic Compliance Matrix: (Units=1/GPa)
#
#
# Indices 1 2 3 4 5 6 
#
# 1 0.014385 -0.010261 -0.000726 0.000000 -0.003265 0.000000
# 2 -0.010261 0.031344 -0.003374 0.000000 0.003307 0.000000
# 3 -0.000726 -0.003374 0.009432 0.000000 -0.000208 0.000000
# 4 0.000000 0.000000 0.000000 0.100862 0.000000 -0.005042
# 5 -0.003265 0.003307 -0.000208 0.000000 0.025906 0.000000
# 6 0.000000 0.000000 0.000000 -0.005042 0.000000 0.043018
#
#
# Mechanical properties :
#
#
# Convention : Reuss Voigt Hill
#
# Bulk Modulus (GPa) = 37.82545 43.81917 40.82231
# Shear Modulus (GPa) = 19.04891 26.91337 22.98114
#
# Velocity S-wave (km/s) = 3.13116 3.72181 3.43919
# Velocity P-wave (km/s) = 5.70441 6.40485 6.06475
#
# Compressibility (1/GPa) = 0.02643723
#
# Stress axis : x y z
#
# Youngs Moduli (GPa) = 69.51767 31.90431 106.02181
#
# Poissons Ratio (x) = 0.32739 0.07695
# Poissons Ratio (y) = 0.71336 0.35776
# Poissons Ratio (z) = 0.05045 0.10766
#
# Static dielectric constant tensor:
#      x y z
#    x 3.732160 0.000000 0.134290 
#    y 0.000000 3.022150 0.000000 
#    z 0.134290 0.000000 4.000180 
# 
# 
# High freq. dielectric constant tensor:
#      x y z
#    x 1.774970 0.000000 0.006310 
#    y 0.000000 1.696930 0.000000 
#    z 0.006310 0.000000 1.784980 
# 
# From -- ./inp_files/333770.got.cif
#   From: 2010.06.25/outbox.cif.g09.slc.cpg/sg12_167_cif.got.tgz:333770.got - 2010.06.28 00:19:55.
