data_PCOD8112231
_publ_section_title
;
Structure prediction by ZEFSAII (Michael W. Deem and Ramdas Pophale) SiO2 
 PCOD8112231
Probable space group: C 2/M
;
_chemical_formula_sum "Si O2"
_cell_formula_units_Z 48
_cell_length_a 10.005303
_cell_length_b 9.961175
_cell_length_c 25.450866
_cell_angle_alpha 90.000000
_cell_angle_beta 114.647431
_cell_angle_gamma 90.000000
_cell_volume 2305.447692
_symmetry_space_group_name_H-M "C 2/M"
_symmetry_group_IT_number 12
_symmetry_cell_setting 'monoclinic'
loop_
_space_group_symop_operation_xyz
x,y,z
-x,y,-z
-x,-y,-z
x,-y,z
1/2+x,1/2+y,z
1/2-x,1/2+y,-z
1/2-x,1/2-y,-z
1/2+x,1/2-y,z
loop_
_atom_site_type_symbol
_atom_site_label
_atom_site_fract_x
_atom_site_fract_y
_atom_site_fract_z
Si Si1 0.467761 0.153146 0.837544
Si Si2 0.660960 0.268694 0.538363
Si Si3 0.767728 0.500000 0.627993
Si Si4 0.610975 0.844658 0.971458
Si Si5 0.637904 0.267139 0.770269
Si Si6 0.534439 0.500000 0.681819
Si Si7 0.601670 0.000000 0.705329
Si Si8 0.204003 0.500000 0.603262
O O1 0.529961 0.192222 0.904326
O O2 0.542570 0.248365 0.807017
O O3 0.293213 0.169899 0.810963
O O4 0.505654 0.000000 0.829034
O O5 0.500000 0.329814 0.500000
O O6 0.750000 0.250000 0.500000
O O7 0.751374 0.368321 0.590111
O O8 0.636988 0.128709 0.563775
O O9 0.656328 0.500000 0.657400
O O10 0.926115 0.500000 0.680928
O O11 0.661344 0.000000 0.981027
O O12 0.500000 0.812063 0.000000
O O13 0.750000 0.750000 0.000000
O O14 0.546143 0.367197 0.718636
O O15 0.667181 0.129494 0.744590
O O16 0.379425 0.500000 0.626863
O O17 0.653712 0.000000 0.654531
#
# Coordination Sequence:
#
# PCOD8112231 Si02
#       8
#     8   8   4   8   8   4   4   4
#     4  11  23  43  65  97 135 173 219 274 329 386
#     4  12  24  42  64  90 122 164 207 261 321 382
#     4  12  24  43  64  92 128 165 210 266 324 380
#     4  10  22  42  66  96 132 174 220 274 329 386
#     4  12  23  43  66  95 131 175 219 269 331 386
#     4  12  24  41  66  94 126 171 216 264 324 390
#     4  12  24  41  64  94 128 167 210 270 320 382
#     4  12  24  41  60  94 122 159 214 262 314 386
#
# _framework density 20.820252
#
# number of rings (size 3 to 8) (size 9 to 14) (size 15 to 20)
#    0.000    0.500    1.667    8.000    0.000    0.333 
#    3.000    0.000    0.000    0.000    0.000    0.000 
#    0.000    0.000    0.000    0.000    0.000    0.000 
#
# Total GULP energy -297830.336394 kJ/mol
# GULP energy per Si atom -12409.597350 kJ/mol
# Density = 2.077286 g / cm^3
# Si number density = 20.820252 Si / 1000 Ang^3
#
#
#
# Elastic Constant Matrix: (Units=GPa)
#
#
# Indices 1 2 3 4 5 6 
#
# 1 112.5571 2.0279 33.2604 0.0000 -12.0070 0.0000
# 2 2.0279 102.0959 33.2220 0.0000 -10.0149 0.0000
# 3 33.2604 33.2220 109.7994 0.0000 -14.3611 0.0000
# 4 0.0000 0.0000 0.0000 33.7319 0.0000 3.2770
# 5 -12.0070 -10.0149 -14.3611 0.0000 48.4296 0.0000
# 6 0.0000 0.0000 0.0000 3.2770 0.0000 34.6059
#
#
#
# Elastic Compliance Matrix: (Units=1/GPa)
#
#
# Indices 1 2 3 4 5 6 
#
# 1 0.009966 0.000978 -0.003085 0.000000 0.001758 0.000000
# 2 0.000978 0.011043 -0.003441 0.000000 0.001506 0.000000
# 3 -0.003085 -0.003441 0.011329 0.000000 0.001883 0.000000
# 4 0.000000 0.000000 0.000000 0.029921 0.000000 -0.002833
# 5 0.001758 0.001506 0.001883 0.000000 0.021954 0.000000
# 6 0.000000 0.000000 0.000000 -0.002833 0.000000 0.029165
#
#
# Mechanical properties :
#
#
# Convention : Reuss Voigt Hill
#
# Bulk Modulus (GPa) = 47.07308 51.27479 49.17393
# Shear Modulus (GPa) = 38.00738 40.41628 39.21183
#
# Velocity S-wave (km/s) = 4.27722 4.41069 4.34447
# Velocity P-wave (km/s) = 6.85939 7.11475 6.98824
#
# Compressibility (1/GPa) = 0.02124357
#
# Stress axis : x y z
#
# Youngs Moduli (GPa) = 100.34207 90.55880 88.26649
#
# Poissons Ratio (x) = -0.08860 0.27229
# Poissons Ratio (y) = -0.09817 0.30369
# Poissons Ratio (z) = 0.30955 0.31157
#
# Static dielectric constant tensor:
#      x y z
#    x 3.818670 0.000000 0.113330 
#    y 0.000000 3.887170 0.000000 
#    z 0.113330 0.000000 4.148710 
# 
# 
# High freq. dielectric constant tensor:
#      x y z
#    x 1.826280 0.000000 -0.004540 
#    y 0.000000 1.824950 0.000000 
#    z -0.004540 0.000000 1.833480 
# 
# From -- ./inp_files/334834.got.cif
#   From: 2010.06.25/outbox.cif.g09.slc.cpg/sg12_168_cif.got.tgz:334834.got - 2010.06.28 00:19:55.
