data_PCOD8112523
_publ_section_title
;
Structure prediction by ZEFSAII (Michael W. Deem and Ramdas Pophale) SiO2 
 PCOD8112523
Probable space group: C 2/M
;
_chemical_formula_sum "Si O2"
_cell_formula_units_Z 56
_cell_length_a 23.253924
_cell_length_b 17.334323
_cell_length_c 20.963262
_cell_angle_alpha 90.000000
_cell_angle_beta 162.121554
_cell_angle_gamma 90.000000
_cell_volume 2594.169896
_symmetry_space_group_name_H-M "C 2/M"
_symmetry_group_IT_number 12
_symmetry_cell_setting 'monoclinic'
loop_
_space_group_symop_operation_xyz
x,y,z
-x,y,-z
-x,-y,-z
x,-y,z
1/2+x,1/2+y,z
1/2-x,1/2+y,-z
1/2-x,1/2-y,-z
1/2+x,1/2-y,z
loop_
_atom_site_type_symbol
_atom_site_label
_atom_site_fract_x
_atom_site_fract_y
_atom_site_fract_z
Si Si1 0.207705 0.186844 0.508505
Si Si2 0.199708 0.769124 0.279677
Si Si3 0.304991 0.660838 0.050890
Si Si4 0.182771 0.824371 0.078238
Si Si5 0.801693 0.184458 0.264603
Si Si6 0.291488 0.915528 0.305163
Si Si7 0.577840 0.090857 0.923573
O O1 0.250000 0.250000 0.500000
O O2 0.154361 0.230460 0.517857
O O3 0.373165 0.126907 0.698162
O O4 0.021547 0.141473 0.292684
O O5 0.177571 0.715925 0.193341
O O6 0.267928 0.855691 0.337560
O O7 0.006760 0.772892 0.117391
O O8 0.250000 0.750000 0.000000
O O9 0.271759 0.638271 0.941931
O O10 0.187086 0.607598 0.973389
O O11 0.345312 0.761813 0.268446
O O12 0.161258 0.892029 0.107720
O O13 0.000000 0.150673 0.500000
O O14 0.688474 0.122079 0.103039
O O15 0.500000 0.915274 0.500000
O O16 0.231837 0.000000 0.266718
O O17 0.555938 0.000000 0.910160
#
# Coordination Sequence:
#
# PCOD8112523 Si02
#       7
#     8   8   8   8   8   8   8
#     4  12  23  44  73 102 133 180 234 281 339 418
#     4  11  21  37  68  95 124 171 228 273 330 415
#     4  12  23  43  74 101 134 182 234 283 336 413
#     4  11  21  37  66  98 123 170 229 271 329 413
#     4  11  21  39  66  99 132 176 230 280 335 416
#     4  10  23  38  56  91 135 168 206 272 344 399
#     4  12  28  47  67 103 145 180 232 296 347 402
#
# _framework density 21.586867999999999
#
# number of rings (size 3 to 8) (size 9 to 14) (size 15 to 20)
#    0.000    0.714    5.714    4.286    2.000    2.571 
#    0.000    3.571    0.000    0.000    0.000    0.000 
#    0.000    0.000    0.000    0.000    0.000    0.000 
#
# Total GULP energy -347048.741790 kJ/mol
# GULP energy per Si atom -12394.597921 kJ/mol
# Density = 2.153774 g / cm^3
# Si number density = 21.586868 Si / 1000 Ang^3
#
#
#
# Elastic Constant Matrix: (Units=GPa)
#
#
# Indices 1 2 3 4 5 6 
#
# 1 124.5382 46.7240 27.8222 0.0708 -21.9755 0.0050
# 2 46.7240 142.1234 41.3520 0.1764 -13.9578 0.1030
# 3 27.8222 41.3520 114.8492 0.1427 -9.4361 0.0478
# 4 0.0708 0.1764 0.1427 22.8957 0.0951 -1.3987
# 5 -21.9755 -13.9578 -9.4361 0.0951 38.2258 0.0298
# 6 0.0050 0.1030 0.0478 -1.3987 0.0298 20.5625
#
#
#
# Elastic Compliance Matrix: (Units=1/GPa)
#
#
# Indices 1 2 3 4 5 6 
#
# 1 0.010037 -0.002516 -0.001150 -0.000023 0.004567 0.000005
# 2 -0.002516 0.008679 -0.002423 -0.000051 0.001124 -0.000042
# 3 -0.001150 -0.002423 0.009933 -0.000044 0.000906 -0.000015
# 4 -0.000023 -0.000051 -0.000044 0.043860 -0.000154 0.002984
# 5 0.004567 0.001124 0.000906 -0.000154 0.029421 -0.000062
# 6 0.000005 -0.000042 -0.000015 0.002984 -0.000062 0.048836
#
#
# Mechanical properties :
#
#
# Convention : Reuss Voigt Hill
#
# Bulk Modulus (GPa) = 60.71831 68.14524 64.43177
# Shear Modulus (GPa) = 29.68544 34.04430 31.86487
#
# Velocity S-wave (km/s) = 3.71234 3.97556 3.84620
# Velocity P-wave (km/s) = 6.82377 7.26016 7.04534
#
# Compressibility (1/GPa) = 0.01646950
#
# Stress axis : x y z
#
# Youngs Moduli (GPa) = 99.63508 115.22209 100.67936
#
# Poissons Ratio (x) = 0.28995 0.11579
# Poissons Ratio (y) = 0.25072 0.24393
# Poissons Ratio (z) = 0.11458 0.27916
#
# Static dielectric constant tensor:
#      x y z
#    x 3.894600 -0.000530 -0.297420 
#    y -0.000530 3.713180 -0.000270 
#    z -0.297420 -0.000270 4.178010 
# 
# 
# High freq. dielectric constant tensor:
#      x y z
#    x 1.857800 -0.000010 -0.002840 
#    y -0.000010 1.810860 -0.000010 
#    z -0.002840 -0.000010 1.864000 
# 
# From -- ./inp_files/326042.got.cif
#   From: 2010.06.25/outbox.cif.g09.slc.cpg/sg12_164_cif.got.tgz:326042.got - 2010.06.28 00:19:55.
