data_PCOD8112581
_publ_section_title
;
Structure prediction by ZEFSAII (Michael W. Deem and Ramdas Pophale) SiO2 
 PCOD8112581
Probable space group: C 2/M
;
_chemical_formula_sum "Si O2"
_cell_formula_units_Z 40
_cell_length_a 10.373028
_cell_length_b 8.211074
_cell_length_c 22.024830
_cell_angle_alpha 90.000000
_cell_angle_beta 71.680456
_cell_angle_gamma 90.000000
_cell_volume 1780.860667
_symmetry_space_group_name_H-M "C 2/M"
_symmetry_group_IT_number 12
_symmetry_cell_setting 'monoclinic'
loop_
_space_group_symop_operation_xyz
x,y,z
-x,y,-z
-x,-y,-z
x,-y,z
1/2+x,1/2+y,z
1/2-x,1/2+y,-z
1/2-x,1/2-y,-z
1/2+x,1/2-y,z
loop_
_atom_site_type_symbol
_atom_site_label
_atom_site_fract_x
_atom_site_fract_y
_atom_site_fract_z
Si Si1 0.175852 0.000000 0.031190
Si Si2 0.476219 0.186932 0.751419
Si Si3 0.846782 0.190898 0.538720
Si Si4 0.233220 0.313074 0.319784
Si Si5 0.767913 0.823024 0.865382
Si Si6 0.139179 0.000000 0.903691
O O1 0.224843 0.839880 0.061967
O O2 0.014914 0.000000 0.056969
O O3 0.226153 0.000000 0.954298
O O4 0.635942 0.210760 0.719484
O O5 0.395248 0.238266 0.702270
O O6 0.418157 0.294708 0.815504
O O7 0.447820 0.000000 0.771433
O O8 0.750000 0.250000 0.500000
O O9 0.804508 0.283016 0.605422
O O10 0.000000 0.239182 0.500000
O O11 0.829997 0.000000 0.551825
O O12 0.271863 0.500000 0.305353
O O13 0.676150 0.666102 0.861307
O O14 0.712450 0.000000 0.848245
#
# Coordination Sequence:
#
# PCOD8112581 Si02
#       6
#     4   8   8   8   8   4
#     4   9  24  40  65  95 123 169 218 264 324 404
#     4  11  24  42  64  92 132 173 213 272 327 383
#     4  11  24  42  66  95 129 167 213 264 321 385
#     4  11  25  42  65  95 129 169 218 265 322 389
#     4  10  23  39  63  93 124 167 217 264 323 394
#     4  11  20  46  63  87 137 163 208 281 324 377
#
# _framework density 22.46105
#
# number of rings (size 3 to 8) (size 9 to 14) (size 15 to 20)
#    0.600    0.800    1.000    3.600    2.800    8.000 
#    1.800    1.000    0.000    0.000    0.000    0.000 
#    0.000    0.000    0.000    0.000    0.000    0.000 
#
# Total GULP energy -247888.442485 kJ/mol
# GULP energy per Si atom -12394.422124 kJ/mol
# Density = 2.240993 g / cm^3
# Si number density = 22.461050 Si / 1000 Ang^3
#
#
#
# Elastic Constant Matrix: (Units=GPa)
#
#
# Indices 1 2 3 4 5 6 
#
# 1 74.0063 25.8458 -10.6138 0.0000 -8.8593 0.0000
# 2 25.8458 132.0263 12.8845 0.0000 -12.1501 0.0000
# 3 -10.6138 12.8845 52.6869 0.0000 -7.1939 0.0000
# 4 0.0000 0.0000 0.0000 44.9443 0.0000 -4.5057
# 5 -8.8593 -12.1501 -7.1939 0.0000 33.1397 0.0000
# 6 0.0000 0.0000 0.0000 -4.5057 0.0000 23.2426
#
#
#
# Elastic Compliance Matrix: (Units=1/GPa)
#
#
# Indices 1 2 3 4 5 6 
#
# 1 0.015738 -0.003148 0.004490 0.000000 0.004028 0.000000
# 2 -0.003148 0.008597 -0.002495 0.000000 0.001769 0.000000
# 3 0.004490 -0.002495 0.021161 0.000000 0.004879 0.000000
# 4 0.000000 0.000000 0.000000 0.022691 0.000000 0.004399
# 5 0.004028 0.001769 0.004879 0.000000 0.032960 0.000000
# 6 0.000000 0.000000 0.000000 0.004399 0.000000 0.043877
#
#
# Mechanical properties :
#
#
# Convention : Reuss Voigt Hill
#
# Bulk Modulus (GPa) = 23.15383 34.99471 29.07427
# Shear Modulus (GPa) = 30.91641 35.63887 33.27764
#
# Velocity S-wave (km/s) = 3.71407 3.98766 3.85329
# Velocity P-wave (km/s) = 5.35941 6.06761 5.72447
#
# Compressibility (1/GPa) = 0.04318941
#
# Stress axis : x y z
#
# Youngs Moduli (GPa) = 63.54018 116.32155 47.25674
#
# Poissons Ratio (x) = 0.36624 -0.21220
# Poissons Ratio (y) = 0.20005 0.11791
# Poissons Ratio (z) = -0.28532 0.29024
#
# Static dielectric constant tensor:
#      x y z
#    x 3.893140 0.000000 0.166770 
#    y 0.000000 4.074550 0.000000 
#    z 0.166770 0.000000 4.122970 
# 
# 
# High freq. dielectric constant tensor:
#      x y z
#    x 1.872470 0.000000 0.002710 
#    y 0.000000 1.896700 0.000000 
#    z 0.002710 0.000000 1.893700 
# 
# From -- ./inp_files/334603.got.cif
#   From: 2010.06.25/outbox.cif.g09.slc.cpg/sg12_168_cif.got.tgz:334603.got - 2010.06.28 00:19:55.
