data_PCOD8112013
_publ_section_title
;
Structure prediction by ZEFSAII (Michael W. Deem and Ramdas Pophale) SiO2 
 PCOD8112013
Probable space group: C 2/M
;
_chemical_formula_sum "Si O2"
_cell_formula_units_Z 64
_cell_length_a 9.302825
_cell_length_b 23.206128
_cell_length_c 14.418574
_cell_angle_alpha 90.000000
_cell_angle_beta 94.766345
_cell_angle_gamma 90.000000
_cell_volume 3101.954208
_symmetry_space_group_name_H-M "C 2/M"
_symmetry_group_IT_number 12
_symmetry_cell_setting 'monoclinic'
loop_
_space_group_symop_operation_xyz
x,y,z
-x,y,-z
-x,-y,-z
x,-y,z
1/2+x,1/2+y,z
1/2-x,1/2+y,-z
1/2-x,1/2-y,-z
1/2+x,1/2-y,z
loop_
_atom_site_type_symbol
_atom_site_label
_atom_site_fract_x
_atom_site_fract_y
_atom_site_fract_z
Si Si1 0.503187 0.325312 0.390816
Si Si2 0.522683 0.287211 0.111055
Si Si3 0.510960 0.565606 0.280852
Si Si4 0.736204 0.244666 0.389211
Si Si5 0.740745 0.127479 0.802703
Si Si6 0.448336 0.820712 0.755440
Si Si7 0.293937 0.623128 0.149394
Si Si8 0.161866 0.564029 0.975562
O O1 0.500000 0.326454 0.500000
O O2 0.458941 0.388854 0.356473
O O3 0.660062 0.306173 0.355516
O O4 0.388319 0.275067 0.352351
O O5 0.662266 0.326169 0.137900
O O6 0.545852 0.227125 0.163531
O O7 0.383916 0.317428 0.150341
O O8 0.500000 0.276773 0.000000
O O9 0.514312 0.500000 0.318530
O O10 0.669841 0.585162 0.259029
O O11 0.395213 0.571333 0.192462
O O12 0.750000 0.250000 0.500000
O O13 0.619260 0.198044 0.347184
O O14 0.609619 0.157827 0.740104
O O15 0.663881 0.086418 0.871950
O O16 0.345814 0.870422 0.792779
O O17 0.256225 0.606273 0.043295
O O18 0.228140 0.500000 0.983463
O O19 0.000000 0.563737 0.000000
#
# Coordination Sequence:
#
# PCOD8112013 Si02
#       8
#     8   8   8   8   8   8   8   8
#     4  10  22  41  68  99 126 162 204 254 325 390
#     4  11  24  36  57  88 128 165 206 255 318 379
#     4  11  24  43  64  90 126 166 215 267 320 382
#     4  10  22  41  65  98 130 162 203 257 321 386
#     4  11  24  40  59  90 125 168 217 259 318 368
#     4  12  24  37  62  89 128 165 205 261 316 389
#     4  11  22  40  58  86 120 166 220 256 314 369
#     4  11  22  38  58  83 117 167 226 276 311 363
#
# _framework density 20.632155000000001
#
# number of rings (size 3 to 8) (size 9 to 14) (size 15 to 20)
#    0.000    1.125    3.750    3.000    5.250    1.250 
#    0.000    1.875    0.000    0.000    0.000    1.750 
#    0.000    0.000    0.000    0.000    0.000    0.000 
#
# Total GULP energy -396580.160611 kJ/mol
# GULP energy per Si atom -12393.130019 kJ/mol
# Density = 2.058520 g / cm^3
# Si number density = 20.632155 Si / 1000 Ang^3
#
#
#
# Elastic Constant Matrix: (Units=GPa)
#
#
# Indices 1 2 3 4 5 6 
#
# 1 107.4553 40.4760 30.1825 0.0000 5.7685 0.0000
# 2 40.4760 114.5637 23.7931 0.0000 2.3208 0.0000
# 3 30.1825 23.7931 62.7287 0.0000 19.7773 0.0000
# 4 0.0000 0.0000 0.0000 18.3976 0.0000 1.8435
# 5 5.7685 2.3208 19.7773 0.0000 29.8670 0.0000
# 6 0.0000 0.0000 0.0000 1.8435 0.0000 19.2945
#
#
#
# Elastic Compliance Matrix: (Units=1/GPa)
#
#
# Indices 1 2 3 4 5 6 
#
# 1 0.011804 -0.003189 -0.004840 0.000000 0.001173 0.000000
# 2 -0.003189 0.010440 -0.002988 0.000000 0.001783 0.000000
# 3 -0.004840 -0.002988 0.024058 0.000000 -0.014764 0.000000
# 4 0.000000 0.000000 0.000000 0.054880 0.000000 -0.005244
# 5 0.001173 0.001783 -0.014764 0.000000 0.042893 0.000000
# 6 0.000000 0.000000 0.000000 -0.005244 0.000000 0.052329
#
#
# Mechanical properties :
#
#
# Convention : Reuss Voigt Hill
#
# Bulk Modulus (GPa) = 41.20393 52.62788 46.91591
# Shear Modulus (GPa) = 22.07240 26.19822 24.13531
#
# Velocity S-wave (km/s) = 3.27434 3.56726 3.42393
# Velocity P-wave (km/s) = 5.85740 6.52152 6.19836
#
# Compressibility (1/GPa) = 0.02426953
#
# Stress axis : x y z
#
# Youngs Moduli (GPa) = 84.71807 95.78721 41.56555
#
# Poissons Ratio (x) = 0.30546 0.20116
# Poissons Ratio (y) = 0.27017 0.12418
# Poissons Ratio (z) = 0.41001 0.28617
#
# Static dielectric constant tensor:
#      x y z
#    x 4.088630 0.000000 0.138400 
#    y 0.000000 3.731320 0.000000 
#    z 0.138400 0.000000 3.485610 
# 
# 
# High freq. dielectric constant tensor:
#      x y z
#    x 1.823880 0.000000 0.007620 
#    y 0.000000 1.790460 0.000000 
#    z 0.007620 0.000000 1.801490 
# 
# From -- ./inp_files/198876.got.cif
#   From: 2010.06.25/outbox.cif.g09.slc.cpg/sg12_100_cif.got.tgz:198876.got - 2010.06.28 00:19:55.
