data_PCOD8112975
_publ_section_title
;
Structure prediction by ZEFSAII (Michael W. Deem and Ramdas Pophale) SiO2 
 PCOD8112975
Probable space group: C 2/M
;
_chemical_formula_sum "Si O2"
_cell_formula_units_Z 48
_cell_length_a 20.363239
_cell_length_b 7.682840
_cell_length_c 15.055019
_cell_angle_alpha 90.000000
_cell_angle_beta 85.490105
_cell_angle_gamma 90.000000
_cell_volume 2348.027577
_symmetry_space_group_name_H-M "C 2/M"
_symmetry_group_IT_number 12
_symmetry_cell_setting 'monoclinic'
loop_
_space_group_symop_operation_xyz
x,y,z
-x,y,-z
-x,-y,-z
x,-y,z
1/2+x,1/2+y,z
1/2-x,1/2+y,-z
1/2-x,1/2-y,-z
1/2+x,1/2-y,z
loop_
_atom_site_type_symbol
_atom_site_label
_atom_site_fract_x
_atom_site_fract_y
_atom_site_fract_z
Si Si1 0.569135 0.205076 0.032131
Si Si2 0.954001 0.000000 0.640224
Si Si3 0.200888 0.804326 0.928428
Si Si4 0.234538 0.194546 0.247861
Si Si5 0.697187 0.204676 0.579432
Si Si6 0.097932 0.000000 0.545930
Si Si7 0.907605 0.696540 0.769748
O O1 0.575292 0.264989 0.133434
O O2 0.576944 0.000000 0.023719
O O3 0.500000 0.270789 0.000000
O O4 0.625888 0.290023 0.967151
O O5 0.941870 0.824769 0.696881
O O6 0.906327 0.000000 0.560273
O O7 0.028640 0.000000 0.601528
O O8 0.214548 0.690579 0.839650
O O9 0.216456 0.000000 0.899043
O O10 0.250000 0.750000 0.000000
O O11 0.272629 0.262778 0.329840
O O12 0.171136 0.311317 0.233871
O O13 0.208058 0.000000 0.268141
O O14 0.750000 0.250000 0.500000
O O15 0.633309 0.322074 0.570974
O O16 0.677989 0.000000 0.579278
O O17 0.934624 0.500000 0.752248
#
# Coordination Sequence:
#
# PCOD8112975 Si02
#       7
#     8   4   8   8   8   4   8
#     4  10  23  43  63  90 130 174 220 275 333 394
#     4  11  26  46  67  96 136 178 218 274 326 404
#     4  12  24  38  61  93 129 168 218 275 331 390
#     4  11  23  40  65  96 131 170 217 277 336 390
#     4  11  24  42  69 101 134 171 216 276 335 392
#     4  11  26  46  68  98 140 173 215 274 340 394
#     4  11  23  41  69  96 127 176 227 267 328 402
#
# _framework density 20.442691
#
# number of rings (size 3 to 8) (size 9 to 14) (size 15 to 20)
#    0.000    1.000    3.333    3.000    3.500    4.333 
#    0.000    5.000    0.000    0.000    0.000    0.000 
#    0.000    0.000    0.000    0.000    0.000    0.000 
#
# Total GULP energy -297707.865110 kJ/mol
# GULP energy per Si atom -12404.494380 kJ/mol
# Density = 2.039616 g / cm^3
# Si number density = 20.442691 Si / 1000 Ang^3
#
#
#
# Elastic Constant Matrix: (Units=GPa)
#
#
# Indices 1 2 3 4 5 6 
#
# 1 116.7453 35.5645 64.0093 0.0000 11.8181 0.0000
# 2 35.5645 96.3695 41.1015 0.0000 3.8124 0.0000
# 3 64.0093 41.1015 175.2361 0.0000 9.5485 0.0000
# 4 0.0000 0.0000 0.0000 32.7725 0.0000 -0.9613
# 5 11.8181 3.8124 9.5485 0.0000 37.1705 0.0000
# 6 0.0000 0.0000 0.0000 -0.9613 0.0000 30.1358
#
#
#
# Elastic Compliance Matrix: (Units=1/GPa)
#
#
# Indices 1 2 3 4 5 6 
#
# 1 0.011525 -0.002686 -0.003444 0.000000 -0.002504 0.000000
# 2 -0.002686 0.012165 -0.001877 0.000000 0.000088 0.000000
# 3 -0.003444 -0.001877 0.007439 0.000000 -0.000624 0.000000
# 4 0.000000 0.000000 0.000000 0.030542 0.000000 0.000974
# 5 -0.002504 0.000088 -0.000624 0.000000 0.027850 0.000000
# 6 0.000000 0.000000 0.000000 0.000974 0.000000 0.033214
#
#
# Mechanical properties :
#
#
# Convention : Reuss Voigt Hill
#
# Bulk Modulus (GPa) = 66.15326 74.41128 70.28227
# Shear Modulus (GPa) = 34.77373 36.52748 35.65060
#
# Velocity S-wave (km/s) = 4.12883 4.23167 4.18057
# Velocity P-wave (km/s) = 7.42700 7.76885 7.59985
#
# Compressibility (1/GPa) = 0.01511641
#
# Stress axis : x y z
#
# Youngs Moduli (GPa) = 86.76551 82.20361 134.43260
#
# Poissons Ratio (x) = 0.22077 0.46292
# Poissons Ratio (y) = 0.23302 0.25234
# Poissons Ratio (z) = 0.29878 0.15431
#
# Static dielectric constant tensor:
#      x y z
#    x 4.316000 0.000000 -0.946460 
#    y 0.000000 3.958800 0.000000 
#    z -0.946460 0.000000 5.683440 
# 
# 
# High freq. dielectric constant tensor:
#      x y z
#    x 1.793610 0.000000 0.002750 
#    y 0.000000 1.810420 0.000000 
#    z 0.002750 0.000000 1.813080 
# 
# From -- ./inp_files/221783.got.cif
#   From: 2010.06.25/outbox.cif.g09.slc.cpg/sg12_111_cif.got.tgz:221783.got - 2010.06.28 00:19:55.
