data_PCOD8112340
_publ_section_title
;
Structure prediction by ZEFSAII (Michael W. Deem and Ramdas Pophale) SiO2 
 PCOD8112340
Probable space group: C 2/M
;
_chemical_formula_sum "Si O2"
_cell_formula_units_Z 56
_cell_length_a 9.808492
_cell_length_b 25.983584
_cell_length_c 13.872319
_cell_angle_alpha 90.000000
_cell_angle_beta 67.153612
_cell_angle_gamma 90.000000
_cell_volume 3258.133286
_symmetry_space_group_name_H-M "C 2/M"
_symmetry_group_IT_number 12
_symmetry_cell_setting 'monoclinic'
loop_
_space_group_symop_operation_xyz
x,y,z
-x,y,-z
-x,-y,-z
x,-y,z
1/2+x,1/2+y,z
1/2-x,1/2+y,-z
1/2-x,1/2-y,-z
1/2+x,1/2-y,z
loop_
_atom_site_type_symbol
_atom_site_label
_atom_site_fract_x
_atom_site_fract_y
_atom_site_fract_z
Si Si1 0.841949 0.560188 0.088810
Si Si2 0.327692 0.687287 0.549483
Si Si3 0.148211 0.125970 0.004727
Si Si4 0.621580 0.293672 0.170854
Si Si5 0.821225 0.640849 0.249600
Si Si6 0.144254 0.321326 0.197904
Si Si7 0.699673 0.706937 0.653379
O O1 0.816822 0.500000 0.107298
O O2 0.831572 0.584881 0.198016
O O3 0.714430 0.582760 0.056139
O O4 0.000000 0.574011 0.000000
O O5 0.500000 0.700101 0.500000
O O6 0.288258 0.637919 0.627007
O O7 0.270257 0.678192 0.456584
O O8 0.242091 0.733589 0.627174
O O9 0.261258 0.138150 0.888332
O O10 0.103237 0.178022 0.073866
O O11 0.000000 0.102149 0.000000
O O12 0.759891 0.318753 0.188086
O O13 0.658551 0.234087 0.142587
O O14 0.472606 0.298485 0.273991
O O15 0.978132 0.659291 0.245117
O O16 0.199748 0.319100 0.292880
#
# Coordination Sequence:
#
# PCOD8112340 Si02
#       7
#     8   8   8   8   8   8   8
#     4  10  22  43  65  84 105 138 188 240 286 341
#     4  11  21  34  52  78 112 157 200 228 261 315
#     4  11  23  35  56  84 115 145 181 227 288 339
#     4  11  20  35  49  77 118 157 187 217 261 330
#     4  11  22  35  57  81 110 148 192 230 277 325
#     4  12  20  35  49  82 119 155 183 221 268 335
#     4  11  21  32  51  75 114 160 191 224 257 314
#
# _framework density 17.187756
#
# number of rings (size 3 to 8) (size 9 to 14) (size 15 to 20)
#    0.000    1.000    7.143    0.429    2.000    0.286 
#    0.000    0.000    0.000    0.429    0.000    3.000 
#    0.000    0.000    0.000    0.000    0.000    0.000 
#
# Total GULP energy -347237.559884 kJ/mol
# GULP energy per Si atom -12401.341424 kJ/mol
# Density = 1.714864 g / cm^3
# Si number density = 17.187756 Si / 1000 Ang^3
#
#
#
# Elastic Constant Matrix: (Units=GPa)
#
#
# Indices 1 2 3 4 5 6 
#
# 1 94.8792 33.5728 32.6587 0.0000 1.0570 0.0000
# 2 33.5728 70.2921 35.7564 0.0000 7.1613 0.0000
# 3 32.6587 35.7564 109.4836 0.0000 6.4400 0.0000
# 4 0.0000 0.0000 0.0000 18.1768 0.0000 -0.2066
# 5 1.0570 7.1613 6.4400 0.0000 30.1788 0.0000
# 6 0.0000 0.0000 0.0000 -0.2066 0.0000 16.6563
#
#
#
# Elastic Compliance Matrix: (Units=1/GPa)
#
#
# Indices 1 2 3 4 5 6 
#
# 1 0.013173 -0.005258 -0.002287 0.000000 0.001274 0.000000
# 2 -0.005258 0.019413 -0.004569 0.000000 -0.003448 0.000000
# 3 -0.002287 -0.004569 0.011383 0.000000 -0.001265 0.000000
# 4 0.000000 0.000000 0.000000 0.055023 0.000000 0.000682
# 5 0.001274 -0.003448 -0.001265 0.000000 0.034179 0.000000
# 6 0.000000 0.000000 0.000000 0.000682 0.000000 0.060046
#
#
# Mechanical properties :
#
#
# Convention : Reuss Voigt Hill
#
# Bulk Modulus (GPa) = 50.65740 53.18121 51.91931
# Shear Modulus (GPa) = 22.31886 24.51352 23.41619
#
# Velocity S-wave (km/s) = 3.60743 3.78063 3.69504
# Velocity P-wave (km/s) = 6.84750 7.07574 6.96256
#
# Compressibility (1/GPa) = 0.01974045
#
# Stress axis : x y z
#
# Youngs Moduli (GPa) = 75.91024 51.51162 87.85327
#
# Poissons Ratio (x) = 0.27086 0.20095
# Poissons Ratio (y) = 0.39915 0.40139
# Poissons Ratio (z) = 0.17363 0.23535
#
# Static dielectric constant tensor:
#      x y z
#    x 3.362980 0.000000 0.066380 
#    y 0.000000 2.847380 0.000000 
#    z 0.066380 0.000000 3.414920 
# 
# 
# High freq. dielectric constant tensor:
#      x y z
#    x 1.684600 0.000000 0.002020 
#    y 0.000000 1.610190 0.000000 
#    z 0.002020 0.000000 1.675090 
# 
# From -- ./inp_files/198354.got.cif
#   From: 2010.06.25/outbox.cif.g09.slc.cpg/sg12_100_cif.got.tgz:198354.got - 2010.06.28 00:19:55.
