data_PCOD8112080
_publ_section_title
;
Structure prediction by ZEFSAII (Michael W. Deem and Ramdas Pophale) SiO2 
 PCOD8112080
Probable space group: C 2/M
;
_chemical_formula_sum "Si O2"
_cell_formula_units_Z 40
_cell_length_a 9.052774
_cell_length_b 19.718230
_cell_length_c 10.860723
_cell_angle_alpha 90.000000
_cell_angle_beta 86.352752
_cell_angle_gamma 90.000000
_cell_volume 1934.763279
_symmetry_space_group_name_H-M "C 2/M"
_symmetry_group_IT_number 12
_symmetry_cell_setting 'monoclinic'
loop_
_space_group_symop_operation_xyz
x,y,z
-x,y,-z
-x,-y,-z
x,-y,z
1/2+x,1/2+y,z
1/2-x,1/2+y,-z
1/2-x,1/2-y,-z
1/2+x,1/2-y,z
loop_
_atom_site_type_symbol
_atom_site_label
_atom_site_fract_x
_atom_site_fract_y
_atom_site_fract_z
Si Si1 0.116681 0.500000 0.842165
Si Si2 0.596366 0.374539 0.782818
Si Si3 0.628611 0.234740 0.910175
Si Si4 0.667925 0.679982 0.521026
Si Si5 0.267865 0.000000 0.899166
Si Si6 0.265401 0.376756 0.730903
O O1 0.148949 0.434632 0.761183
O O2 0.941912 0.500000 0.866901
O O3 0.230182 0.500000 0.952834
O O4 0.573557 0.306100 0.860477
O O5 0.685210 0.356084 0.652812
O O6 0.686793 0.432669 0.851142
O O7 0.429138 0.398755 0.766941
O O8 0.696570 0.189967 0.797794
O O9 0.500000 0.198761 0.000000
O O10 0.750000 0.250000 0.000000
O O11 0.500000 0.697199 0.500000
O O12 0.750000 0.750000 0.500000
O O13 0.733542 0.629648 0.416011
#
# Coordination Sequence:
#
# PCOD8112080 Si02
#       6
#     4   8   8   8   4   8
#     4  11  27  44  65  96 130 172 218 271 325 383
#     4  11  24  44  66  95 131 175 214 265 327 385
#     4  12  24  37  64  97 128 168 218 263 321 383
#     4  10  22  41  67  98 130 169 218 266 318 382
#     4  11  27  44  67  94 133 171 219 267 325 395
#     4  11  24  43  67  95 132 172 215 268 321 385
#
# _framework density 20.674364000000001
#
# number of rings (size 3 to 8) (size 9 to 14) (size 15 to 20)
#    0.000    1.000    4.000    1.800    5.600    3.200 
#    0.000    4.000    0.000    0.000    0.000    0.000 
#    0.000    0.000    0.000    0.000    0.000    0.000 
#
# Total GULP energy -247864.859282 kJ/mol
# GULP energy per Si atom -12393.242964 kJ/mol
# Density = 2.062731 g / cm^3
# Si number density = 20.674364 Si / 1000 Ang^3
#
#
#
# Elastic Constant Matrix: (Units=GPa)
#
#
# Indices 1 2 3 4 5 6 
#
# 1 68.9518 22.9216 33.9983 0.0000 -8.3490 0.0000
# 2 22.9216 100.8042 24.5552 0.0000 -5.7305 0.0000
# 3 33.9983 24.5552 109.5620 0.0000 -20.5057 0.0000
# 4 0.0000 0.0000 0.0000 34.3612 0.0000 -1.6122
# 5 -8.3490 -5.7305 -20.5057 0.0000 32.3701 0.0000
# 6 0.0000 0.0000 0.0000 -1.6122 0.0000 36.6368
#
#
#
# Elastic Compliance Matrix: (Units=1/GPa)
#
#
# Indices 1 2 3 4 5 6 
#
# 1 0.017911 -0.002862 -0.004705 0.000000 0.001133 0.000000
# 2 -0.002862 0.010956 -0.001523 0.000000 0.000236 0.000000
# 3 -0.004705 -0.001523 0.012083 0.000000 0.006172 0.000000
# 4 0.000000 0.000000 0.000000 0.029163 0.000000 0.001283
# 5 0.001133 0.000236 0.006172 0.000000 0.035136 0.000000
# 6 0.000000 0.000000 0.000000 0.001283 0.000000 0.027351
#
#
# Mechanical properties :
#
#
# Convention : Reuss Voigt Hill
#
# Bulk Modulus (GPa) = 43.91610 49.14090 46.52850
# Shear Modulus (GPa) = 31.57151 33.86315 32.71733
#
# Velocity S-wave (km/s) = 3.91203 4.05152 3.98239
# Velocity P-wave (km/s) = 6.45703 6.76070 6.61061
#
# Compressibility (1/GPa) = 0.02277069
#
# Stress axis : x y z
#
# Youngs Moduli (GPa) = 55.83075 91.27830 82.75756
#
# Poissons Ratio (x) = 0.26128 0.38933
# Poissons Ratio (y) = 0.15981 0.12603
# Poissons Ratio (z) = 0.26266 0.13900
#
# Static dielectric constant tensor:
#      x y z
#    x 3.764740 0.000000 -0.090740 
#    y 0.000000 3.459530 0.000000 
#    z -0.090740 0.000000 4.270380 
# 
# 
# High freq. dielectric constant tensor:
#      x y z
#    x 1.821390 0.000000 -0.012090 
#    y 0.000000 1.804000 0.000000 
#    z -0.012090 0.000000 1.823970 
# 
# From -- ./inp_files/118988.got.cif
#   From: 2010.06.25/outbox.cif.g09.slc.cpg/sg12_60_cif.got.tgz:118988.got - 2010.06.28 00:19:55.
