data_PCOD8112407
_publ_section_title
;
Structure prediction by ZEFSAII (Michael W. Deem and Ramdas Pophale) SiO2 
 PCOD8112407
Probable space group: C 2/M
;
_chemical_formula_sum "Si O2"
_cell_formula_units_Z 36
_cell_length_a 9.500110
_cell_length_b 14.195392
_cell_length_c 20.802631
_cell_angle_alpha 90.000000
_cell_angle_beta 142.334153
_cell_angle_gamma 90.000000
_cell_volume 1714.252544
_symmetry_space_group_name_H-M "C 2/M"
_symmetry_group_IT_number 12
_symmetry_cell_setting 'monoclinic'
loop_
_space_group_symop_operation_xyz
x,y,z
-x,y,-z
-x,-y,-z
x,-y,z
1/2+x,1/2+y,z
1/2-x,1/2+y,-z
1/2-x,1/2-y,-z
1/2+x,1/2-y,z
loop_
_atom_site_type_symbol
_atom_site_label
_atom_site_fract_x
_atom_site_fract_y
_atom_site_fract_z
Si Si1 0.769613 0.500000 0.607794
Si Si2 0.341465 0.308171 0.224761
Si Si3 0.642895 0.500000 0.986701
Si Si4 0.240984 0.297775 0.428772
Si Si5 0.328067 0.000000 0.780363
Si Si6 0.414280 0.309305 0.104219
O O1 0.500000 0.500000 0.500000
O O2 0.868466 0.404077 0.610718
O O3 0.838187 0.500000 0.707386
O O4 0.597229 0.269592 0.329680
O O5 0.312019 0.410331 0.245273
O O6 0.302707 0.312519 0.134491
O O7 0.164605 0.237615 0.195302
O O8 0.565616 0.412963 0.916092
O O9 0.500000 0.500000 0.000000
O O10 0.914420 0.500000 0.098559
O O11 0.500000 0.305553 0.500000
O O12 0.250000 0.250000 0.500000
O O13 0.250000 0.250000 0.000000
#
# Coordination Sequence:
#
# PCOD8112407 Si02
#       6
#     4   8   4   8   4   8
#     4  10  22  43  69  97 133 176 220 277 343 406
#     4  12  25  44  69 100 138 185 230 281 350 406
#     4  12  27  43  66 102 136 179 240 284 342 404
#     4  11  24  45  71 103 134 176 227 283 342 412
#     4  12  25  44  71  99 138 187 227 280 353 412
#     4  12  25  42  66  97 139 181 227 282 337 409
#
# _framework density 21.000406000000002
#
# number of rings (size 3 to 8) (size 9 to 14) (size 15 to 20)
#    0.000    0.444    2.222    8.000    3.111    0.889 
#    0.000    4.444    0.000    0.000    0.000    0.000 
#    0.000    0.000    0.000    0.000    0.000    0.000 
#
# Total GULP energy -223249.191000 kJ/mol
# GULP energy per Si atom -12402.732833 kJ/mol
# Density = 2.095261 g / cm^3
# Si number density = 21.000406 Si / 1000 Ang^3
#
#
#
# Elastic Constant Matrix: (Units=GPa)
#
#
# Indices 1 2 3 4 5 6 
#
# 1 98.9460 62.7528 16.2696 0.0000 -24.3664 0.0000
# 2 62.7528 216.6737 55.4517 0.0000 -12.2395 0.0000
# 3 16.2696 55.4517 90.6247 0.0005 -7.2509 0.0000
# 4 0.0000 0.0000 0.0005 20.0705 0.0001 -3.5100
# 5 -24.3664 -12.2395 -7.2509 0.0001 49.3603 0.0000
# 6 0.0000 0.0000 0.0000 -3.5100 0.0000 42.5912
#
#
#
# Elastic Compliance Matrix: (Units=1/GPa)
#
#
# Indices 1 2 3 4 5 6 
#
# 1 0.013921 -0.003767 0.000284 0.000000 0.005980 0.000000
# 2 -0.003767 0.006529 -0.003378 0.000000 -0.000737 0.000000
# 3 0.000284 -0.003378 0.013149 0.000000 0.001234 0.000000
# 4 0.000000 0.000000 0.000000 0.050553 0.000000 0.004166
# 5 0.005980 -0.000737 0.001234 0.000000 0.023210 0.000000
# 6 0.000000 0.000000 0.000000 0.004166 0.000000 0.023822
#
#
# Mechanical properties :
#
#
# Convention : Reuss Voigt Hill
#
# Bulk Modulus (GPa) = 50.30561 75.02140 62.66351
# Shear Modulus (GPa) = 32.99645 40.52244 36.75945
#
# Velocity S-wave (km/s) = 3.96817 4.39749 4.18834
# Velocity P-wave (km/s) = 6.70834 7.84763 7.30024
#
# Compressibility (1/GPa) = 0.01987850
#
# Stress axis : x y z
#
# Youngs Moduli (GPa) = 71.83203 153.16340 76.05129
#
# Poissons Ratio (x) = 0.57693 -0.02160
# Poissons Ratio (y) = 0.27058 0.25688
# Poissons Ratio (z) = -0.02040 0.51734
#
# Static dielectric constant tensor:
#      x y z
#    x 3.756160 0.000000 0.023170 
#    y 0.000000 9.863500 0.000000 
#    z 0.023170 0.000000 4.286450 
# 
# 
# High freq. dielectric constant tensor:
#      x y z
#    x 1.816210 0.000000 -0.007660 
#    y 0.000000 1.847940 0.000000 
#    z -0.007660 0.000000 1.838160 
# 
# From -- ./inp_files/194087.got.cif
#   From: 2010.06.25/outbox.cif.g09.slc.cpg/sg12_98_cif.got.tgz:194087.got - 2010.06.28 00:19:55.
