data_PCOD8112522
_publ_section_title
;
Structure prediction by ZEFSAII (Michael W. Deem and Ramdas Pophale) SiO2 
 PCOD8112522
Probable space group: C 2/M
;
_chemical_formula_sum "Si O2"
_cell_formula_units_Z 60
_cell_length_a 23.615300
_cell_length_b 17.985405
_cell_length_c 12.349240
_cell_angle_alpha 90.000000
_cell_angle_beta 37.939441
_cell_angle_gamma 90.000000
_cell_volume 3224.836698
_symmetry_space_group_name_H-M "C 2/M"
_symmetry_group_IT_number 12
_symmetry_cell_setting 'monoclinic'
loop_
_space_group_symop_operation_xyz
x,y,z
-x,y,-z
-x,-y,-z
x,-y,z
1/2+x,1/2+y,z
1/2-x,1/2+y,-z
1/2-x,1/2-y,-z
1/2+x,1/2-y,z
loop_
_atom_site_type_symbol
_atom_site_label
_atom_site_fract_x
_atom_site_fract_y
_atom_site_fract_z
Si Si1 0.000000 0.869128 0.000000
Si Si2 0.978304 0.685646 0.416754
Si Si3 0.688302 0.177203 0.864950
Si Si4 0.221686 0.327935 0.217335
Si Si5 0.803091 0.081868 0.274451
Si Si6 0.200875 0.674018 0.603220
Si Si7 0.151626 0.411923 0.122585
Si Si8 0.989821 0.262328 0.172365
O O1 0.088350 0.921558 0.867329
O O2 0.016839 0.818721 0.868462
O O3 0.873855 0.657781 0.575351
O O4 0.990422 0.745222 0.302445
O O5 0.000000 0.724717 0.500000
O O6 0.046029 0.615115 0.296854
O O7 0.749840 0.241233 0.830423
O O8 0.726528 0.154200 0.689351
O O9 0.686927 0.107041 0.948370
O O10 0.585686 0.202972 0.991040
O O11 0.297101 0.367546 0.177143
O O12 0.216843 0.365820 0.106699
O O13 0.743620 0.109867 0.465432
O O14 0.766353 0.000000 0.303872
O O15 0.250000 0.750000 0.500000
O O16 0.091899 0.683191 0.744661
O O17 0.158064 0.500000 0.133543
#
# Coordination Sequence:
#
# PCOD8112522 Si02
#       8
#     4   8   8   8   8   8   8   8
#     4  12  21  38  60  80 121 148 186 240 293 336
#     4   9  20  33  56  85 110 143 196 236 285 331
#     4  11  21  35  60  85 114 152 199 234 282 346
#     4  11  19  38  59  84 110 152 200 240 276 339
#     4  12  25  37  58  89 118 150 189 238 294 346
#     4  12  19  36  60  83 113 149 192 238 282 336
#     4  10  23  38  55  83 123 154 184 240 299 344
#     4  11  17  34  58  85 110 147 191 238 285 327
#
# _framework density 18.605592999999999
#
# number of rings (size 3 to 8) (size 9 to 14) (size 15 to 20)
#    0.000    1.067    6.667    1.000    0.000    3.467 
#    0.000    0.000    0.000    2.400    0.000    0.000 
#    0.000    9.600    0.000    0.000    0.000    0.000 
#
# Total GULP energy -371883.637250 kJ/mol
# GULP energy per Si atom -12396.121242 kJ/mol
# Density = 1.856325 g / cm^3
# Si number density = 18.605593 Si / 1000 Ang^3
#
#
#
# Elastic Constant Matrix: (Units=GPa)
#
#
# Indices 1 2 3 4 5 6 
#
# 1 87.0828 19.9698 38.6251 0.0000 6.5736 0.0000
# 2 19.9698 65.5791 18.6633 0.0000 0.4838 0.0000
# 3 38.6251 18.6633 81.3277 0.0000 10.8515 0.0000
# 4 0.0000 0.0000 0.0000 20.7515 0.0000 3.6321
# 5 6.5736 0.4838 10.8515 0.0000 40.2101 0.0000
# 6 0.0000 0.0000 0.0000 3.6321 0.0000 15.5405
#
#
#
# Elastic Compliance Matrix: (Units=1/GPa)
#
#
# Indices 1 2 3 4 5 6 
#
# 1 0.015005 -0.002741 -0.006405 0.000000 -0.000692 0.000000
# 2 -0.002741 0.016843 -0.002693 0.000000 0.000972 0.000000
# 3 -0.006405 -0.002693 0.016402 0.000000 -0.003347 0.000000
# 4 0.000000 0.000000 0.000000 0.050245 0.000000 -0.011743
# 5 -0.000692 0.000972 -0.003347 0.000000 0.025874 0.000000
# 6 0.000000 0.000000 0.000000 -0.011743 0.000000 0.067093
#
#
# Mechanical properties :
#
#
# Convention : Reuss Voigt Hill
#
# Bulk Modulus (GPa) = 40.69712 43.16731 41.93222
# Shear Modulus (GPa) = 22.38831 25.74918 24.06875
#
# Velocity S-wave (km/s) = 3.47264 3.72418 3.60061
# Velocity P-wave (km/s) = 6.16442 6.46099 6.31444
#
# Compressibility (1/GPa) = 0.02457176
#
# Stress axis : x y z
#
# Youngs Moduli (GPa) = 66.64406 59.37277 60.96647
#
# Poissons Ratio (x) = 0.16276 0.39049
# Poissons Ratio (y) = 0.18269 0.16418
# Poissons Ratio (z) = 0.42686 0.15988
#
# Static dielectric constant tensor:
#      x y z
#    x 3.758320 0.000000 -0.044390 
#    y 0.000000 3.086250 0.000000 
#    z -0.044390 0.000000 3.780170 
# 
# 
# High freq. dielectric constant tensor:
#      x y z
#    x 1.739280 0.000000 0.003860 
#    y 0.000000 1.681260 0.000000 
#    z 0.003860 0.000000 1.730760 
# 
# From -- ./inp_files/177364.got.cif
#   From: 2010.06.25/outbox.cif.g09.slc.cpg/sg12_89_cif.got.tgz:177364.got - 2010.06.28 00:19:55.
