data_PCOD8112675
_publ_section_title
;
Structure prediction by ZEFSAII (Michael W. Deem and Ramdas Pophale) SiO2 
 PCOD8112675
Probable space group: C 2/M
;
_chemical_formula_sum "Si O2"
_cell_formula_units_Z 44
_cell_length_a 11.568896
_cell_length_b 28.202642
_cell_length_c 6.495586
_cell_angle_alpha 90.000000
_cell_angle_beta 91.963408
_cell_angle_gamma 90.000000
_cell_volume 2118.092901
_symmetry_space_group_name_H-M "C 2/M"
_symmetry_group_IT_number 12
_symmetry_cell_setting 'monoclinic'
loop_
_space_group_symop_operation_xyz
x,y,z
-x,y,-z
-x,-y,-z
x,-y,z
1/2+x,1/2+y,z
1/2-x,1/2+y,-z
1/2-x,1/2-y,-z
1/2+x,1/2-y,z
loop_
_atom_site_type_symbol
_atom_site_label
_atom_site_fract_x
_atom_site_fract_y
_atom_site_fract_z
Si Si1 0.500000 0.918269 0.000000
Si Si2 0.627494 0.205289 0.524754
Si Si3 0.632702 0.614753 0.955374
Si Si4 0.210241 0.217049 0.815962
Si Si5 0.183981 0.387784 0.704557
Si Si6 0.203591 0.553726 0.299532
O O1 0.429548 0.886725 0.158073
O O2 0.595488 0.948202 0.133519
O O3 0.500000 0.184966 0.500000
O O4 0.670721 0.207263 0.294026
O O5 0.628040 0.255136 0.648034
O O6 0.706190 0.166349 0.641429
O O7 0.647478 0.669871 0.893197
O O8 0.684238 0.582501 0.774938
O O9 0.500000 0.603729 0.000000
O O10 0.701697 0.598800 0.162729
O O11 0.250000 0.250000 0.000000
O O12 0.164570 0.423140 0.512949
O O13 0.242590 0.500000 0.343665
#
# Coordination Sequence:
#
# PCOD8112675 Si02
#       6
#     4   8   8   8   8   8
#     4  10  23  40  72 102 134 166 208 264 337 402
#     4  11  24  38  65  98 134 168 216 265 325 393
#     4  11  26  45  67  93 132 176 228 274 322 388
#     4  11  24  42  62  95 130 174 219 260 322 387
#     4  11  23  42  65 100 134 173 215 269 328 396
#     4  11  24  45  69  97 132 170 217 272 337 397
#
# _framework density 20.773403999999999
#
# number of rings (size 3 to 8) (size 9 to 14) (size 15 to 20)
#    0.000    1.091    3.636    1.909    5.091    5.455 
#    0.000    0.909    0.000    0.000    0.000    0.000 
#    0.000    0.000    0.000    0.000    0.000    0.000 
#
# Total GULP energy -272720.190765 kJ/mol
# GULP energy per Si atom -12396.372308 kJ/mol
# Density = 2.072612 g / cm^3
# Si number density = 20.773404 Si / 1000 Ang^3
#
#
#
# Elastic Constant Matrix: (Units=GPa)
#
#
# Indices 1 2 3 4 5 6 
#
# 1 126.0387 30.2213 53.5791 0.0000 -19.6719 0.0000
# 2 30.2213 123.8252 46.1774 0.0000 -13.4996 0.0000
# 3 53.5791 46.1774 138.5163 0.0000 -20.2420 0.0000
# 4 0.0000 0.0000 0.0000 23.5564 0.0000 2.2122
# 5 -19.6719 -13.4996 -20.2420 0.0000 28.0310 0.0000
# 6 0.0000 0.0000 0.0000 2.2122 0.0000 14.4889
#
#
#
# Elastic Compliance Matrix: (Units=1/GPa)
#
#
# Indices 1 2 3 4 5 6 
#
# 1 0.010108 -0.000869 -0.002957 0.000000 0.004540 0.000000
# 2 -0.000869 0.009455 -0.002504 0.000000 0.002135 0.000000
# 3 -0.002957 -0.002504 0.009747 0.000000 0.003758 0.000000
# 4 0.000000 0.000000 0.000000 0.043069 0.000000 -0.006576
# 5 0.004540 0.002135 0.003758 0.000000 0.042603 0.000000
# 6 0.000000 0.000000 0.000000 -0.006576 0.000000 0.070022
#
#
# Mechanical properties :
#
#
# Convention : Reuss Voigt Hill
#
# Bulk Modulus (GPa) = 60.05953 72.03730 66.04841
# Shear Modulus (GPa) = 24.60482 30.44209 27.52346
#
# Velocity S-wave (km/s) = 3.44530 3.83225 3.64392
# Velocity P-wave (km/s) = 6.69338 7.37119 7.04045
#
# Compressibility (1/GPa) = 0.01665015
#
# Stress axis : x y z
#
# Youngs Moduli (GPa) = 98.93196 105.76959 102.59854
#
# Poissons Ratio (x) = 0.09196 0.30333
# Poissons Ratio (y) = 0.08602 0.25686
# Poissons Ratio (z) = 0.29249 0.26480
#
# Static dielectric constant tensor:
#      x y z
#    x 3.677230 0.000000 -0.057560 
#    y 0.000000 3.694270 0.000000 
#    z -0.057560 0.000000 4.001430 
# 
# 
# High freq. dielectric constant tensor:
#      x y z
#    x 1.798870 0.000000 -0.005570 
#    y 0.000000 1.808470 0.000000 
#    z -0.005570 0.000000 1.834390 
# 
# From -- ./inp_files/8420.got.cif
#   From: 2010.06.25/outbox.cif.g09.slc.cpg/sg12_5_cif.got.tgz:8420.got - 2010.06.28 00:19:55.
