data_PCOD8112277
_publ_section_title
;
Structure prediction by ZEFSAII (Michael W. Deem and Ramdas Pophale) SiO2 
 PCOD8112277
Probable space group: C 2/M
;
_chemical_formula_sum "Si O2"
_cell_formula_units_Z 40
_cell_length_a 28.941306
_cell_length_b 14.241956
_cell_length_c 9.218242
_cell_angle_alpha 90.000000
_cell_angle_beta 151.308040
_cell_angle_gamma 90.000000
_cell_volume 1824.181070
_symmetry_space_group_name_H-M "C 2/M"
_symmetry_group_IT_number 12
_symmetry_cell_setting 'monoclinic'
loop_
_space_group_symop_operation_xyz
x,y,z
-x,y,-z
-x,-y,-z
x,-y,z
1/2+x,1/2+y,z
1/2-x,1/2+y,-z
1/2-x,1/2-y,-z
1/2+x,1/2-y,z
loop_
_atom_site_type_symbol
_atom_site_label
_atom_site_fract_x
_atom_site_fract_y
_atom_site_fract_z
Si Si1 0.403743 0.202332 0.330087
Si Si2 0.402991 0.767790 0.649543
Si Si3 0.264815 0.106080 0.459778
Si Si4 0.114082 0.101331 0.812669
Si Si5 0.261757 0.390991 0.287957
O O1 0.500000 0.199242 0.500000
O O2 0.426325 0.181602 0.560299
O O3 0.352574 0.306002 0.182332
O O4 0.331029 0.124742 0.068636
O O5 0.337814 0.836071 0.563852
O O6 0.351723 0.668323 0.477398
O O7 0.500000 0.745589 0.000000
O O8 0.260750 0.146418 0.611371
O O9 0.303924 0.000000 0.572997
O O10 0.157710 0.110454 0.095045
O O11 0.000000 0.100510 0.500000
O O12 0.149736 0.000000 0.843638
O O13 0.290389 0.500000 0.366426
#
# Coordination Sequence:
#
# PCOD8112277 Si02
#       5
#     8   8   8   8   8
#     4  11  24  43  67  96 127 172 214 265 324 374
#     4  12  26  42  66  97 131 171 216 265 318 382
#     4  10  22  42  68  95 127 170 213 263 324 383
#     4   9  19  35  63  96 129 166 209 257 318 388
#     4  11  25  44  67  96 132 170 213 265 322 380
#
# _framework density 21.927648999999999
#
# number of rings (size 3 to 8) (size 9 to 14) (size 15 to 20)
#    0.000    1.400    2.000    2.400    5.600    2.800 
#    0.000    0.000    0.000    0.000    0.000    0.000 
#    0.000    0.000    0.000    0.000    0.000    0.000 
#
# Total GULP energy -247950.109583 kJ/mol
# GULP energy per Si atom -12397.505479 kJ/mol
# Density = 2.187774 g / cm^3
# Si number density = 21.927649 Si / 1000 Ang^3
#
#
#
# Elastic Constant Matrix: (Units=GPa)
#
#
# Indices 1 2 3 4 5 6 
#
# 1 123.6280 24.4368 58.0014 0.0000 -16.4865 0.0000
# 2 24.4368 65.9199 25.2313 0.0000 3.3444 0.0000
# 3 58.0014 25.2313 150.4101 0.0000 -7.1822 0.0000
# 4 0.0000 0.0000 0.0000 25.8475 0.0000 -9.5682
# 5 -16.4865 3.3444 -7.1822 0.0000 32.8538 0.0000
# 6 0.0000 0.0000 0.0000 -9.5682 0.0000 6.7667
#
#
#
# Elastic Compliance Matrix: (Units=1/GPa)
#
#
# Indices 1 2 3 4 5 6 
#
# 1 0.010996 -0.002995 -0.003496 0.000000 0.005058 0.000000
# 2 -0.002995 0.017195 -0.001905 0.000000 -0.003670 0.000000
# 3 -0.003496 -0.001905 0.008329 0.000000 0.000260 0.000000
# 4 0.000000 0.000000 0.000000 0.081183 0.000000 0.114794
# 5 0.005058 -0.003670 0.000260 0.000000 0.033407 0.000000
# 6 0.000000 0.000000 0.000000 0.114794 0.000000 0.310104
#
#
# Mechanical properties :
#
#
# Convention : Reuss Voigt Hill
#
# Bulk Modulus (GPa) = 50.68920 61.69965 56.19442
# Shear Modulus (GPa) = 10.31820 28.57950 19.44885
#
# Velocity S-wave (km/s) = 2.17159 3.61412 2.98141
# Velocity P-wave (km/s) = 5.42720 6.75387 6.12655
#
# Compressibility (1/GPa) = 0.01972807
#
# Stress axis : x y z
#
# Youngs Moduli (GPa) = 90.94601 58.15534 120.06669
#
# Poissons Ratio (x) = 0.17415 0.41978
# Poissons Ratio (y) = 0.27234 0.22873
# Poissons Ratio (z) = 0.31797 0.11079
#
# Static dielectric constant tensor:
#      x y z
#    x 3.726510 0.000000 -0.221890 
#    y 0.000000 4.375820 0.000000 
#    z -0.221890 0.000000 4.189880 
# 
# 
# High freq. dielectric constant tensor:
#      x y z
#    x 1.844430 0.000000 -0.015810 
#    y 0.000000 1.871290 0.000000 
#    z -0.015810 0.000000 1.873260 
# 
# From -- ./inp_files/58956.got.cif
#   From: 2010.06.25/outbox.cif.g09.slc.cpg/sg12_30_cif.got.tgz:58956.got - 2010.06.28 00:19:55.
