data_PCOD8112033
_publ_section_title
;
Structure prediction by ZEFSAII (Michael W. Deem and Ramdas Pophale) SiO2 
 PCOD8112033
Probable space group: C 2/M
;
_chemical_formula_sum "Si O2"
_cell_formula_units_Z 64
_cell_length_a 18.723283
_cell_length_b 27.997388
_cell_length_c 8.614593
_cell_angle_alpha 90.000000
_cell_angle_beta 42.158964
_cell_angle_gamma 90.000000
_cell_volume 3030.956177
_symmetry_space_group_name_H-M "C 2/M"
_symmetry_group_IT_number 12
_symmetry_cell_setting 'monoclinic'
loop_
_space_group_symop_operation_xyz
x,y,z
-x,y,-z
-x,-y,-z
x,-y,z
1/2+x,1/2+y,z
1/2-x,1/2+y,-z
1/2-x,1/2-y,-z
1/2+x,1/2-y,z
loop_
_atom_site_type_symbol
_atom_site_label
_atom_site_fract_x
_atom_site_fract_y
_atom_site_fract_z
Si Si1 0.505310 0.820279 0.816494
Si Si2 0.518236 0.716219 0.712515
Si Si3 0.089807 0.447907 0.743453
Si Si4 0.283034 0.446443 0.656497
Si Si5 0.832435 0.212402 0.798727
Si Si6 0.311178 0.871508 0.608004
Si Si7 0.399936 0.623060 0.254799
Si Si8 0.810939 0.628828 0.975195
O O1 0.478332 0.763983 0.863883
O O2 0.624827 0.825190 0.555550
O O3 0.426898 0.852739 0.838125
O O4 0.500000 0.839840 0.000000
O O5 0.412783 0.694089 0.803360
O O6 0.601510 0.734863 0.448912
O O7 0.570367 0.676717 0.739211
O O8 0.050556 0.500000 0.749377
O O9 0.200295 0.452423 0.652982
O O10 0.110025 0.415372 0.561801
O O11 0.000000 0.425204 0.000000
O O12 0.325052 0.500000 0.635130
O O13 0.376847 0.412197 0.438165
O O14 0.222546 0.422388 0.900357
O O15 0.750000 0.250000 0.000000
O O16 0.772460 0.167031 0.823808
O O17 0.198496 0.873259 0.704110
O O18 0.297540 0.872287 0.812862
O O19 0.500000 0.601229 0.000000
#
# Coordination Sequence:
#
# PCOD8112033 Si02
#       8
#     8   8   8   8   8   8   8   8
#     4  12  25  40  63  95 130 172 216 268 325 395
#     4  11  24  40  64  93 127 169 221 262 323 387
#     4   9  18  37  63  91 124 164 211 267 330 396
#     4  10  22  41  66  94 127 171 217 268 331 389
#     4  11  22  40  65  92 127 169 212 265 325 378
#     4  11  24  38  63  93 129 167 215 268 326 383
#     4  11  23  44  65  92 126 170 221 271 322 388
#     4  12  23  42  65  94 134 169 212 279 322 388
#
# _framework density 21.115449999999999
#
# number of rings (size 3 to 8) (size 9 to 14) (size 15 to 20)
#    0.000    1.125    2.500    4.875    1.750    1.250 
#    0.000    0.000    0.000    9.000    0.000    0.000 
#    0.000    0.000    0.000    0.000    0.000    0.000 
#
# Total GULP energy -396674.559808 kJ/mol
# GULP energy per Si atom -12396.079994 kJ/mol
# Density = 2.106739 g / cm^3
# Si number density = 21.115450 Si / 1000 Ang^3
#
#
#
# Elastic Constant Matrix: (Units=GPa)
#
#
# Indices 1 2 3 4 5 6 
#
# 1 98.7641 31.0401 36.4094 0.0000 -0.7909 0.0000
# 2 31.0401 129.5764 34.0035 0.0000 1.2982 0.0000
# 3 36.4094 34.0035 111.5024 0.0000 -5.5837 0.0000
# 4 0.0000 0.0000 0.0000 -47.3699 0.0000 118.0649
# 5 -0.7909 1.2982 -5.5837 0.0000 35.9511 0.0000
# 6 0.0000 0.0000 0.0000 118.0649 0.0000 -158.2708
#
#
#
# Elastic Compliance Matrix: (Units=1/GPa)
#
#
# Indices 1 2 3 4 5 6 
#
# 1 0.011971 -0.001998 -0.003309 0.000000 -0.000178 0.000000
# 2 -0.001998 0.008740 -0.002047 0.000000 -0.000677 0.000000
# 3 -0.003309 -0.002047 0.010757 0.000000 0.001672 0.000000
# 4 0.000000 0.000000 0.000000 0.024568 0.000000 0.018327
# 5 -0.000178 -0.000677 0.001672 0.000000 0.028096 0.000000
# 6 0.000000 0.000000 0.000000 0.018327 0.000000 0.007353
#
#
# Mechanical properties :
#
#
# Convention : Reuss Voigt Hill
#
# Bulk Modulus (GPa) = 59.66120 60.30542 59.98331
# Shear Modulus (GPa) = 44.73095 -18.04528 13.34283
#
# Velocity S-wave (km/s) = 4.60760 -2.92653 2.51649
# Velocity P-wave (km/s) = 7.52481 4.14758 6.07557
#
# Compressibility (1/GPa) = 0.01676131
#
# Stress axis : x y z
#
# Youngs Moduli (GPa) = 83.53288 114.41727 92.96445
#
# Poissons Ratio (x) = 0.22857 0.30760
# Poissons Ratio (y) = 0.16687 0.19029
# Poissons Ratio (z) = 0.27639 0.23420
#
# Static dielectric constant tensor:
#      x y z
#    x 3.706030 0.000000 -0.130990 
#    y 0.000000 4.166160 0.000000 
#    z -0.130990 0.000000 4.019000 
# 
# 
# High freq. dielectric constant tensor:
#      x y z
#    x 1.814160 0.000000 -0.004060 
#    y 0.000000 1.828250 0.000000 
#    z -0.004060 0.000000 1.838290 
# 
# From -- ./inp_files/80707.got.cif
#   From: 2010.06.25/outbox.cif.g09.slc.cpg/sg12_41_cif.got.tgz:80707.got - 2010.06.28 00:19:55.
