data_PCOD8112767
_publ_section_title
;
Structure prediction by ZEFSAII (Michael W. Deem and Ramdas Pophale) SiO2 
 PCOD8112767
Probable space group: C 2/M
;
_chemical_formula_sum "Si O2"
_cell_formula_units_Z 48
_cell_length_a 17.558109
_cell_length_b 15.035732
_cell_length_c 17.912298
_cell_angle_alpha 90.000000
_cell_angle_beta 149.984942
_cell_angle_gamma 90.000000
_cell_volume 2365.490778
_symmetry_space_group_name_H-M "C 2/M"
_symmetry_group_IT_number 12
_symmetry_cell_setting 'monoclinic'
loop_
_space_group_symop_operation_xyz
x,y,z
-x,y,-z
-x,-y,-z
x,-y,z
1/2+x,1/2+y,z
1/2-x,1/2+y,-z
1/2-x,1/2-y,-z
1/2+x,1/2-y,z
loop_
_atom_site_type_symbol
_atom_site_label
_atom_site_fract_x
_atom_site_fract_y
_atom_site_fract_z
Si Si1 0.820660 0.396147 0.144150
Si Si2 0.020284 0.103144 0.189442
Si Si3 0.067599 0.398808 0.235443
Si Si4 0.580864 0.224659 0.641924
Si Si5 0.351900 0.327362 0.552093
Si Si6 0.610537 0.249119 0.159179
O O1 0.835813 0.500000 0.168214
O O2 0.856761 0.354942 0.254812
O O3 0.946567 0.361668 0.192788
O O4 0.654572 0.369258 0.973277
O O5 0.058441 0.118708 0.308416
O O6 0.126799 0.166919 0.229585
O O7 0.050260 0.000000 0.194169
O O8 0.030693 0.500000 0.181624
O O9 0.238087 0.393701 0.412784
O O10 0.044427 0.337608 0.143678
O O11 0.500000 0.183936 0.500000
O O12 0.472449 0.290889 0.594972
O O13 0.726694 0.278863 0.735875
O O14 0.250000 0.250000 0.500000
O O15 0.500000 0.280024 0.000000
#
# Coordination Sequence:
#
# PCOD8112767 Si02
#       6
#     8   8   8   8   8   8
#     4  10  23  41  65  96 127 166 219 267 311 375
#     4  11  24  43  67  96 130 172 215 260 317 382
#     4  11  24  45  67  93 127 168 221 269 313 376
#     4  12  23  40  63  94 128 167 212 258 322 383
#     4  12  22  42  68  92 124 170 218 259 317 375
#     4  12  25  41  66  95 130 172 206 262 325 383
#
# _framework density 20.291772999999999
#
# number of rings (size 3 to 8) (size 9 to 14) (size 15 to 20)
#    0.000    0.667    6.667    0.500    2.333    3.000 
#    0.000    2.500    0.000    0.000    0.000    0.000 
#    0.000    0.000    0.000    0.000    0.000    0.000 
#
# Total GULP energy -297677.894715 kJ/mol
# GULP energy per Si atom -12403.245613 kJ/mol
# Density = 2.024559 g / cm^3
# Si number density = 20.291773 Si / 1000 Ang^3
#
#
#
# Elastic Constant Matrix: (Units=GPa)
#
#
# Indices 1 2 3 4 5 6 
#
# 1 132.2617 46.5598 40.5541 0.0008 7.5289 0.0007
# 2 46.5598 79.9105 14.8030 0.0000 -0.2420 0.0004
# 3 40.5541 14.8030 90.3393 -0.0008 -0.6852 -0.0003
# 4 0.0008 0.0000 -0.0008 32.1489 -0.0007 1.8866
# 5 7.5289 -0.2420 -0.6852 -0.0007 39.3669 0.0004
# 6 0.0007 0.0004 -0.0003 1.8866 0.0004 15.0855
#
#
#
# Elastic Compliance Matrix: (Units=1/GPa)
#
#
# Indices 1 2 3 4 5 6 
#
# 1 0.010880 -0.005608 -0.003982 0.000000 -0.002185 0.000000
# 2 -0.005608 0.015797 -0.000062 0.000000 0.001169 0.000000
# 3 -0.003982 -0.000062 0.012874 0.000000 0.000985 0.000000
# 4 0.000000 0.000000 0.000000 0.031335 0.000001 -0.003919
# 5 -0.002185 0.001169 0.000985 0.000001 0.025844 -0.000001
# 6 0.000000 0.000000 0.000000 -0.003919 -0.000001 0.066779
#
#
# Mechanical properties :
#
#
# Convention : Reuss Voigt Hill
#
# Bulk Modulus (GPa) = 49.38960 56.26060 52.82510
# Shear Modulus (GPa) = 26.37639 30.69324 28.53481
#
# Velocity S-wave (km/s) = 3.60926 3.89343 3.75404
# Velocity P-wave (km/s) = 6.46232 6.92804 6.69923
#
# Compressibility (1/GPa) = 0.02024718
#
# Stress axis : x y z
#
# Youngs Moduli (GPa) = 91.90864 63.30413 77.67298
#
# Poissons Ratio (x) = 0.35504 0.30928
# Poissons Ratio (y) = 0.51546 0.00481
# Poissons Ratio (z) = 0.36597 0.00392
#
# Static dielectric constant tensor:
#      x y z
#    x 3.933930 0.000000 0.087730 
#    y 0.000000 3.436170 0.000000 
#    z 0.087730 0.000000 3.955520 
# 
# 
# High freq. dielectric constant tensor:
#      x y z
#    x 1.802810 0.000000 0.001240 
#    y 0.000000 1.777820 0.000000 
#    z 0.001240 0.000000 1.808520 
# 
# From -- ./inp_files/104960.got.cif
#   From: 2010.06.25/outbox.cif.g09.slc.cpg/sg12_53_cif.got.tgz:104960.got - 2010.06.28 00:19:55.
