data_PCOD8112120
_publ_section_title
;
Structure prediction by ZEFSAII (Michael W. Deem and Ramdas Pophale) SiO2 
 PCOD8112120
Probable space group: C 2/M
;
_chemical_formula_sum "Si O2"
_cell_formula_units_Z 40
_cell_length_a 11.701924
_cell_length_b 17.202595
_cell_length_c 8.019651
_cell_angle_alpha 90.000000
_cell_angle_beta 98.402841
_cell_angle_gamma 90.000000
_cell_volume 1597.053224
_symmetry_space_group_name_H-M "C 2/M"
_symmetry_group_IT_number 12
_symmetry_cell_setting 'monoclinic'
loop_
_space_group_symop_operation_xyz
x,y,z
-x,y,-z
-x,-y,-z
x,-y,z
1/2+x,1/2+y,z
1/2-x,1/2+y,-z
1/2-x,1/2-y,-z
1/2+x,1/2-y,z
loop_
_atom_site_type_symbol
_atom_site_label
_atom_site_fract_x
_atom_site_fract_y
_atom_site_fract_z
Si Si1 0.859626 0.586212 0.159872
Si Si2 0.725784 0.305002 0.336258
Si Si3 0.993398 0.911841 0.693883
Si Si4 0.241000 0.155300 0.816645
Si Si5 0.080294 0.412962 0.376331
O O1 0.808558 0.500000 0.146507
O O2 0.816397 0.624689 0.328119
O O3 0.999064 0.586044 0.192399
O O4 0.811859 0.628459 0.989407
O O5 0.750000 0.250000 0.500000
O O6 0.600442 0.344672 0.289161
O O7 0.750492 0.248684 0.182983
O O8 0.112432 0.879334 0.796332
O O9 0.000000 0.919916 0.500000
O O10 0.968733 0.000000 0.760716
O O11 0.300866 0.128410 0.652491
O O12 0.110602 0.500000 0.443303
O O13 0.000000 0.371105 0.500000
#
# Coordination Sequence:
#
# PCOD8112120 Si02
#       5
#     8   8   8   8   8
#     4  11  25  47  74 107 147 192 246 307 377 451
#     4  12  26  46  71 105 147 193 247 307 371 439
#     4  11  25  46  74 107 148 197 248 303 372 453
#     4  12  25  45  75 105 149 192 247 310 377 440
#     4  10  22  41  71 104 140 188 241 299 365 441
#
# _framework density 25.046126999999998
#
# number of rings (size 3 to 8) (size 9 to 14) (size 15 to 20)
#    0.000    0.800    2.000    4.800    2.800    3.200 
#    3.600    2.000    0.000    0.000    0.000    0.000 
#    0.000    0.000    0.000    0.000    0.000    0.000 
#
# Total GULP energy -247768.135715 kJ/mol
# GULP energy per Si atom -12388.406786 kJ/mol
# Density = 2.498912 g / cm^3
# Si number density = 25.046127 Si / 1000 Ang^3
#
#
#
# Elastic Constant Matrix: (Units=GPa)
#
#
# Indices 1 2 3 4 5 6 
#
# 1 133.1120 57.4024 10.5153 0.0000 16.1305 0.0000
# 2 57.4024 173.6074 27.4410 0.0000 5.1940 0.0000
# 3 10.5153 27.4410 46.0964 0.0000 6.1191 0.0000
# 4 0.0000 0.0000 0.0000 26.5924 0.0000 -1.2708
# 5 16.1305 5.1940 6.1191 0.0000 34.4830 0.0000
# 6 0.0000 0.0000 0.0000 -1.2708 0.0000 49.3773
#
#
#
# Elastic Compliance Matrix: (Units=1/GPa)
#
#
# Indices 1 2 3 4 5 6 
#
# 1 0.009254 -0.002971 0.000177 0.000000 -0.003913 0.000000
# 2 -0.002971 0.007315 -0.003805 0.000000 0.000963 0.000000
# 3 0.000177 -0.003805 0.024429 0.000000 -0.003845 0.000000
# 4 0.000000 0.000000 0.000000 0.037651 0.000000 0.000969
# 5 -0.003913 0.000963 -0.003845 0.000000 0.031367 0.000000
# 6 0.000000 0.000000 0.000000 0.000969 0.000000 0.020277
#
#
# Mechanical properties :
#
#
# Convention : Reuss Voigt Hill
#
# Bulk Modulus (GPa) = 35.97090 60.39258 48.18174
# Shear Modulus (GPa) = 32.73191 39.25436 35.99314
#
# Velocity S-wave (km/s) = 3.61898 3.96319 3.79499
# Velocity P-wave (km/s) = 5.64409 6.71620 6.20335
#
# Compressibility (1/GPa) = 0.02780025
#
# Stress axis : x y z
#
# Youngs Moduli (GPa) = 108.06560 136.70725 40.93567
#
# Poissons Ratio (x) = 0.40610 -0.00724
# Poissons Ratio (y) = 0.32102 0.15575
# Poissons Ratio (z) = -0.01911 0.52013
#
# Static dielectric constant tensor:
#      x y z
#    x 4.699970 0.000000 -0.001590 
#    y 0.000000 5.161440 0.000000 
#    z -0.001590 0.000000 4.548470 
# 
# 
# High freq. dielectric constant tensor:
#      x y z
#    x 1.996300 0.000000 0.013790 
#    y 0.000000 2.014580 0.000000 
#    z 0.013790 0.000000 2.011720 
# 
# From -- ./inp_files/47168.got.cif
#   From: 2010.06.25/outbox.cif.g09.slc.cpg/sg12_24_cif.got.tgz:47168.got - 2010.06.28 00:19:55.
