data_PCOD8112474
_publ_section_title
;
Structure prediction by ZEFSAII (Michael W. Deem and Ramdas Pophale) SiO2 
 PCOD8112474
Probable space group: C 2/M
;
_chemical_formula_sum "Si O2"
_cell_formula_units_Z 44
_cell_length_a 32.710367
_cell_length_b 13.814951
_cell_length_c 15.863255
_cell_angle_alpha 90.000000
_cell_angle_beta 17.254992
_cell_angle_gamma 90.000000
_cell_volume 2126.348782
_symmetry_space_group_name_H-M "C 2/M"
_symmetry_group_IT_number 12
_symmetry_cell_setting 'monoclinic'
loop_
_space_group_symop_operation_xyz
x,y,z
-x,y,-z
-x,-y,-z
x,-y,z
1/2+x,1/2+y,z
1/2-x,1/2+y,-z
1/2-x,1/2-y,-z
1/2+x,1/2-y,z
loop_
_atom_site_type_symbol
_atom_site_label
_atom_site_fract_x
_atom_site_fract_y
_atom_site_fract_z
Si Si1 0.483835 0.000000 0.343057
Si Si2 0.211138 0.000000 0.192467
Si Si3 0.742574 0.228569 0.653730
Si Si4 0.512130 0.794679 0.725380
Si Si5 0.986920 0.157108 0.624141
Si Si6 0.339697 0.612571 0.310019
Si Si7 0.263284 0.500000 0.051921
O O1 0.440671 0.905282 0.376550
O O2 0.391254 0.000000 0.609140
O O3 0.649053 0.000000 0.029669
O O4 0.120176 0.095209 0.390287
O O5 0.256917 0.000000 0.006840
O O6 0.729138 0.330293 0.631529
O O7 0.765097 0.141330 0.543739
O O8 0.867827 0.230995 0.471733
O O9 0.610494 0.206228 0.967843
O O10 0.473487 0.751581 0.709283
O O11 0.000000 0.188033 0.500000
O O12 0.848842 0.094849 0.911309
O O13 0.317155 0.500000 0.336919
O O14 0.500000 0.640523 0.000000
#
# Coordination Sequence:
#
# PCOD8112474 Si02
#       7
#     4   4   8   8   8   8   4
#     4  12  25  36  54  91 130 162 198 266 328 357
#     4   9  19  39  63  87 115 161 220 268 310 361
#     4  11  24  44  65  98 130 162 205 260 310 381
#     4  12  25  41  60  94 132 169 209 258 312 369
#     4   9  20  42  66  86 121 176 223 255 297 367
#     4  10  22  45  72  97 122 165 207 250 312 388
#     4   9  19  39  63  87 115 161 220 268 310 361
#
# _framework density 20.692747000000001
#
# number of rings (size 3 to 8) (size 9 to 14) (size 15 to 20)
#    0.000    1.636    1.818    3.545    2.545    1.455 
#    6.545    5.455    0.000    0.000    0.000    0.000 
#    0.000    0.000    0.000    0.000    0.000    0.000 
#
# Total GULP energy -272837.575747 kJ/mol
# GULP energy per Si atom -12401.707989 kJ/mol
# Density = 2.064565 g / cm^3
# Si number density = 20.692747 Si / 1000 Ang^3
#
#
#
# Elastic Constant Matrix: (Units=GPa)
#
#
# Indices 1 2 3 4 5 6 
#
# 1 79.5759 27.9115 18.0401 0.0000 18.0044 0.0000
# 2 27.9115 88.9610 6.3388 0.0000 22.9207 0.0000
# 3 18.0401 6.3388 118.7255 0.0000 29.2343 0.0000
# 4 0.0000 0.0000 0.0000 22.9655 0.0000 1.4270
# 5 18.0044 22.9207 29.2343 0.0000 40.1657 0.0000
# 6 0.0000 0.0000 0.0000 1.4270 0.0000 0.3823
#
#
#
# Elastic Compliance Matrix: (Units=1/GPa)
#
#
# Indices 1 2 3 4 5 6 
#
# 1 0.014960 -0.003633 -0.001143 0.000000 -0.003800 0.000002
# 2 -0.003633 0.014254 0.001697 0.000000 -0.007741 0.000002
# 3 -0.001143 0.001697 0.010500 0.000000 -0.008098 0.000002
# 4 0.000000 0.000000 0.000000 0.056695 0.000000 -0.211644
# 5 -0.003800 -0.007741 -0.008098 0.000000 0.036912 -0.000006
# 6 0.000002 0.000002 0.000002 -0.211644 -0.000006 3.406090
#
#
# Mechanical properties :
#
#
# Convention : Reuss Voigt Hill
#
# Bulk Modulus (GPa) = 29.80131 43.53816 36.66973
# Shear Modulus (GPa) = 1.40578 28.36749 14.88663
#
# Velocity S-wave (km/s) = 0.82513 3.70657 2.68510
# Velocity P-wave (km/s) = 3.91674 6.27728 5.23188
#
# Compressibility (1/GPa) = 0.03355557
#
# Stress axis : x y z
#
# Youngs Moduli (GPa) = 66.84493 70.15446 95.23833
#
# Poissons Ratio (x) = 0.25487 0.10889
# Poissons Ratio (y) = 0.24285 -0.16163
# Poissons Ratio (z) = 0.07643 -0.11906
#
# Static dielectric constant tensor:
#      x y z
#    x 3.547690 0.000000 0.129770 
#    y 0.000000 3.684050 0.000000 
#    z 0.129770 0.000000 3.764720 
# 
# 
# High freq. dielectric constant tensor:
#      x y z
#    x 1.807780 0.000000 0.006000 
#    y 0.000000 1.806120 0.000000 
#    z 0.006000 0.000000 1.822850 
# 
# From -- ./inp_files/251278.got.cif
#   From: 2010.06.25/outbox.cif.g09.slc.cpg/sg12_126_cif.got.tgz:251278.got - 2010.06.28 00:19:55.
