data_PCOD8112698
_publ_section_title
;
Structure prediction by ZEFSAII (Michael W. Deem and Ramdas Pophale) SiO2 
 PCOD8112698
Probable space group: C 2/M
;
_chemical_formula_sum "Si O2"
_cell_formula_units_Z 64
_cell_length_a 24.882659
_cell_length_b 8.899175
_cell_length_c 28.780521
_cell_angle_alpha 90.000000
_cell_angle_beta 150.197077
_cell_angle_gamma 90.000000
_cell_volume 3167.506430
_symmetry_space_group_name_H-M "C 2/M"
_symmetry_group_IT_number 12
_symmetry_cell_setting 'monoclinic'
loop_
_space_group_symop_operation_xyz
x,y,z
-x,y,-z
-x,-y,-z
x,-y,z
1/2+x,1/2+y,z
1/2-x,1/2+y,-z
1/2-x,1/2-y,-z
1/2+x,1/2-y,z
loop_
_atom_site_type_symbol
_atom_site_label
_atom_site_fract_x
_atom_site_fract_y
_atom_site_fract_z
Si Si1 0.224190 0.169172 0.527730
Si Si2 0.906318 0.677546 0.494565
Si Si3 0.876563 0.177398 0.323415
Si Si4 0.214487 0.676634 0.021753
Si Si5 0.265137 0.677686 0.711867
Si Si6 0.461941 0.169054 0.730974
Si Si7 0.602596 0.675464 0.767395
Si Si8 0.499316 0.676993 0.852264
O O1 0.250000 0.250000 0.500000
O O2 0.131659 0.261316 0.484190
O O3 0.333154 0.167981 0.639532
O O4 0.181805 0.000000 0.487153
O O5 0.917951 0.500000 0.504862
O O6 0.819934 0.729035 0.391328
O O7 0.023827 0.748261 0.573514
O O8 0.766729 0.239333 0.264325
O O9 0.874445 0.227184 0.268017
O O10 0.883326 0.000000 0.334062
O O11 0.206145 0.500000 0.007816
O O12 0.296263 0.718454 0.124364
O O13 0.250000 0.750000 0.000000
O O14 0.098792 0.741032 0.952386
O O15 0.261425 0.500000 0.716263
O O16 0.385665 0.730908 0.788698
O O17 0.498327 0.234612 0.708284
O O18 0.508906 0.277792 0.805505
O O19 0.507329 0.000000 0.771279
O O20 0.576083 0.500000 0.749379
O O21 0.513295 0.500000 0.866857
#
# Coordination Sequence:
#
# PCOD8112698 Si02
#       8
#     8   8   8   8   8   8   8   8
#     4  11  23  36  53  83 121 160 202 246 299 358
#     4  11  22  39  61  86 119 160 203 249 301 356
#     4  11  24  41  62  89 119 159 205 252 302 354
#     4  11  22  38  62  92 122 156 199 244 301 364
#     4  10  23  42  63  87 119 162 204 247 304 358
#     4  11  22  35  57  87 118 154 197 244 295 354
#     4  10  23  41  60  85 123 161 194 242 305 363
#     4  11  22  39  62  89 120 155 195 244 301 356
#
# _framework density 20.205166999999999
#
# number of rings (size 3 to 8) (size 9 to 14) (size 15 to 20)
#    0.000    1.250    2.500    3.375    0.000    8.500 
#    0.000    0.625    0.000    3.750    0.000    0.000 
#    0.000    0.000    0.000    0.000    0.000    0.000 
#
# Total GULP energy -396925.324921 kJ/mol
# GULP energy per Si atom -12403.916404 kJ/mol
# Density = 2.015918 g / cm^3
# Si number density = 20.205167 Si / 1000 Ang^3
#
#
#
# Elastic Constant Matrix: (Units=GPa)
#
#
# Indices 1 2 3 4 5 6 
#
# 1 114.9240 38.1493 31.6300 -0.0002 18.0597 -0.0001
# 2 38.1493 70.1055 32.6416 -0.0004 7.9609 0.0003
# 3 31.6300 32.6416 89.0360 -0.0012 14.5329 -0.0004
# 4 -0.0002 -0.0004 -0.0012 32.0162 -0.0002 4.1115
# 5 18.0597 7.9609 14.5329 -0.0002 28.3564 0.0000
# 6 -0.0001 0.0003 -0.0004 4.1115 0.0000 37.7618
#
#
#
# Elastic Compliance Matrix: (Units=1/GPa)
#
#
# Indices 1 2 3 4 5 6 
#
# 1 0.011591 -0.005057 -0.001409 0.000000 -0.005241 0.000000
# 2 -0.005057 0.019485 -0.005435 0.000000 0.000535 0.000000
# 3 -0.001409 -0.005435 0.014546 0.000000 -0.005032 0.000000
# 4 0.000000 0.000000 0.000000 0.031677 0.000000 -0.003449
# 5 -0.005241 0.000535 -0.005032 0.000000 0.041032 0.000000
# 6 0.000000 0.000000 0.000000 -0.003449 0.000000 0.026857
#
#
# Mechanical properties :
#
#
# Convention : Reuss Voigt Hill
#
# Bulk Modulus (GPa) = 45.82400 53.21195 49.51797
# Shear Modulus (GPa) = 28.36686 31.06986 29.71836
#
# Velocity S-wave (km/s) = 3.75098 3.92563 3.83930
# Velocity P-wave (km/s) = 6.44115 6.85131 6.64939
#
# Compressibility (1/GPa) = 0.02182263
#
# Stress axis : x y z
#
# Youngs Moduli (GPa) = 86.27259 51.32026 68.74966
#
# Poissons Ratio (x) = 0.25951 0.09684
# Poissons Ratio (y) = 0.43625 0.37363
# Poissons Ratio (z) = 0.12152 0.27891
#
# Static dielectric constant tensor:
#      x y z
#    x 3.670700 0.000000 0.173520 
#    y 0.000000 3.645680 0.000000 
#    z 0.173520 0.000000 3.891880 
# 
# 
# High freq. dielectric constant tensor:
#      x y z
#    x 1.785170 0.000000 0.011430 
#    y 0.000000 1.794490 0.000000 
#    z 0.011430 0.000000 1.789760 
# 
# From -- ./inp_files/382491.got.cif
#   From: 2010.06.25/outbox.cif.g09.slc.cpg/sg12_192_cif.got.tgz:382491.got - 2010.06.28 00:19:55.
