data_PCOD8112210
_publ_section_title
;
Structure prediction by ZEFSAII (Michael W. Deem and Ramdas Pophale) SiO2 
 PCOD8112210
Probable space group: C 2/M
;
_chemical_formula_sum "Si O2"
_cell_formula_units_Z 56
_cell_length_a 9.828556
_cell_length_b 13.857822
_cell_length_c 26.140294
_cell_angle_alpha 90.000000
_cell_angle_beta 53.762752
_cell_angle_gamma 90.000000
_cell_volume 2871.709863
_symmetry_space_group_name_H-M "C 2/M"
_symmetry_group_IT_number 12
_symmetry_cell_setting 'monoclinic'
loop_
_space_group_symop_operation_xyz
x,y,z
-x,y,-z
-x,-y,-z
x,-y,z
1/2+x,1/2+y,z
1/2-x,1/2+y,-z
1/2-x,1/2-y,-z
1/2+x,1/2-y,z
loop_
_atom_site_type_symbol
_atom_site_label
_atom_site_fract_x
_atom_site_fract_y
_atom_site_fract_z
Si Si1 0.314268 0.612815 0.143932
Si Si2 0.524555 0.887876 0.843219
Si Si3 0.695423 0.193250 0.463413
Si Si4 0.053203 0.734978 0.043913
Si Si5 0.663914 0.791011 0.666105
Si Si6 0.317133 0.500000 0.478814
Si Si7 0.278591 0.240053 0.747431
Si Si8 0.218066 0.000000 0.394548
O O1 0.355617 0.500000 0.135681
O O2 0.134043 0.635453 0.158015
O O3 0.459465 0.665179 0.079040
O O4 0.318238 0.653153 0.201465
O O5 0.493125 0.849724 0.906939
O O6 0.694893 0.840854 0.783059
O O7 0.560851 0.000000 0.838312
O O8 0.500000 0.209914 0.500000
O O9 0.750000 0.250000 0.500000
O O10 0.793622 0.233789 0.393768
O O11 0.744282 0.084442 0.460995
O O12 0.250000 0.750000 0.000000
O O13 0.000000 0.699117 0.000000
O O14 0.470286 0.772099 0.722221
O O15 0.768634 0.739110 0.688145
O O16 0.702894 0.905415 0.650151
O O17 0.518047 0.500000 0.432759
O O18 0.243443 0.500000 0.553043
#
# Coordination Sequence:
#
# PCOD8112210 Si02
#       8
#     8   8   8   8   8   4   8   4
#     4  10  22  42  66  91 126 175 215 254 313 380
#     4  10  22  42  68  92 130 175 213 258 318 376
#     4  12  24  44  66  95 133 170 211 271 336 395
#     4  11  22  39  65 100 134 164 211 265 311 368
#     4  12  25  42  67  93 125 165 219 265 322 388
#     4  11  23  44  64  96 130 166 212 264 338 400
#     4  11  24  42  63  94 125 166 215 270 311 375
#     4  11  24  40  72  94 120 172 216 263 326 404
#
# _framework density 19.500575999999999
#
# number of rings (size 3 to 8) (size 9 to 14) (size 15 to 20)
#    0.000    1.000    4.286    2.786    2.000    1.143 
#    2.571    1.429    0.000    0.000    0.000    0.000 
#    0.000    0.000    0.000    0.000    0.000    0.000 
#
# Total GULP energy -347205.076889 kJ/mol
# GULP energy per Si atom -12400.181317 kJ/mol
# Density = 1.945619 g / cm^3
# Si number density = 19.500576 Si / 1000 Ang^3
#
#
#
# Elastic Constant Matrix: (Units=GPa)
#
#
# Indices 1 2 3 4 5 6 
#
# 1 103.7578 47.4060 42.7193 0.0000 0.5098 0.0000
# 2 47.4060 132.1574 51.6875 0.0000 6.4916 0.0000
# 3 42.7193 51.6875 115.6778 0.0000 12.2696 0.0000
# 4 0.0000 0.0000 0.0000 27.6729 0.0000 -5.1357
# 5 0.5098 6.4916 12.2696 0.0000 50.9390 0.0000
# 6 0.0000 0.0000 0.0000 -5.1357 0.0000 33.2921
#
#
#
# Elastic Compliance Matrix: (Units=1/GPa)
#
#
# Indices 1 2 3 4 5 6 
#
# 1 0.012460 -0.003245 -0.003265 0.000000 0.001075 0.000000
# 2 -0.003245 0.010016 -0.003227 0.000000 -0.000467 0.000000
# 3 -0.003265 -0.003227 0.011540 0.000000 -0.002336 0.000000
# 4 0.000000 0.000000 0.000000 0.037201 0.000000 0.005739
# 5 0.001075 -0.000467 -0.002336 0.000000 0.020243 0.000000
# 6 0.000000 0.000000 0.000000 0.005739 0.000000 0.030922
#
#
# Mechanical properties :
#
#
# Convention : Reuss Voigt Hill
#
# Bulk Modulus (GPa) = 68.77503 70.57986 69.67744
# Shear Modulus (GPa) = 34.08194 36.36613 35.22404
#
# Velocity S-wave (km/s) = 4.18513 4.32310 4.25468
# Velocity P-wave (km/s) = 7.66150 7.82249 7.74241
#
# Compressibility (1/GPa) = 0.01454016
#
# Stress axis : x y z
#
# Youngs Moduli (GPa) = 80.25928 99.84038 86.65174
#
# Poissons Ratio (x) = 0.32399 0.28295
# Poissons Ratio (y) = 0.26045 0.27967
# Poissons Ratio (z) = 0.26208 0.32223
#
# Static dielectric constant tensor:
#      x y z
#    x 3.662920 0.000000 0.077300 
#    y 0.000000 3.621590 0.000000 
#    z 0.077300 0.000000 3.833060 
# 
# 
# High freq. dielectric constant tensor:
#      x y z
#    x 1.765960 0.000000 0.002110 
#    y 0.000000 1.759820 0.000000 
#    z 0.002110 0.000000 1.779370 
# 
# From -- ./inp_files/332872.got.cif
#   From: 2010.06.25/outbox.cif.g09.slc.cpg/sg12_167_cif.got.tgz:332872.got - 2010.06.28 00:19:55.
