data_PCOD8112188
_publ_section_title
;
Structure prediction by ZEFSAII (Michael W. Deem and Ramdas Pophale) SiO2 
 PCOD8112188
Probable space group: C 2/M
;
_chemical_formula_sum "Si O2"
_cell_formula_units_Z 56
_cell_length_a 15.818862
_cell_length_b 9.005033
_cell_length_c 19.155487
_cell_angle_alpha 90.000000
_cell_angle_beta 90.720482
_cell_angle_gamma 90.000000
_cell_volume 2728.471404
_symmetry_space_group_name_H-M "C 2/M"
_symmetry_group_IT_number 12
_symmetry_cell_setting 'monoclinic'
loop_
_space_group_symop_operation_xyz
x,y,z
-x,y,-z
-x,-y,-z
x,-y,z
1/2+x,1/2+y,z
1/2-x,1/2+y,-z
1/2-x,1/2-y,-z
1/2+x,1/2-y,z
loop_
_atom_site_type_symbol
_atom_site_label
_atom_site_fract_x
_atom_site_fract_y
_atom_site_fract_z
Si Si1 0.398498 0.331472 0.922376
Si Si2 0.831117 0.329933 0.207833
Si Si3 0.837512 0.674390 0.789885
Si Si4 0.097272 0.168738 0.920574
Si Si5 0.088628 0.175413 0.336215
Si Si6 0.920629 0.670386 0.347528
Si Si7 0.752079 0.675528 0.425478
O O1 0.373212 0.500000 0.903082
O O2 0.351329 0.219492 0.870450
O O3 0.497781 0.309448 0.915938
O O4 0.370120 0.294732 0.001151
O O5 0.799850 0.500000 0.205477
O O6 0.754875 0.228202 0.234043
O O7 0.860163 0.283361 0.131410
O O8 0.906329 0.310890 0.264261
O O9 0.846423 0.500000 0.781431
O O10 0.905805 0.752477 0.740569
O O11 0.121705 0.000000 0.900186
O O12 0.168970 0.227717 0.382443
O O13 0.001894 0.232861 0.370980
O O14 0.084659 0.000000 0.328322
O O15 0.939272 0.500000 0.367072
O O16 0.837225 0.727396 0.387035
O O17 0.750813 0.500000 0.434111
O O18 0.750000 0.750000 0.500000
#
# Coordination Sequence:
#
# PCOD8112188 Si02
#       7
#     8   8   8   8   8   8   8
#     4   9  19  37  58  80 114 155 197 251 311 367
#     4  11  22  38  59  83 119 160 202 255 312 363
#     4  12  24  37  58  87 118 156 207 257 306 367
#     4   9  19  36  57  83 113 151 201 252 306 370
#     4  11  23  42  66  94 128 166 207 254 309 367
#     4  10  22  42  65  93 128 166 209 255 305 366
#     4  10  23  44  67  94 132 167 204 251 303 363
#
# _framework density 20.524311999999998
#
# number of rings (size 3 to 8) (size 9 to 14) (size 15 to 20)
#    0.000    1.714    1.429    3.857    0.000    7.429 
#    0.000    4.286    0.000    0.000    0.000    0.000 
#    0.000    0.000    0.000    0.000    0.000    0.000 
#
# Total GULP energy -347279.780252 kJ/mol
# GULP energy per Si atom -12402.849295 kJ/mol
# Density = 2.047760 g / cm^3
# Si number density = 20.524312 Si / 1000 Ang^3
#
#
#
# Elastic Constant Matrix: (Units=GPa)
#
#
# Indices 1 2 3 4 5 6 
#
# 1 124.4596 52.2357 49.9929 0.0000 -5.4703 0.0000
# 2 52.2357 98.4444 48.7031 0.0000 -1.1641 0.0000
# 3 49.9929 48.7031 111.5762 0.0000 -6.4784 0.0000
# 4 0.0000 0.0000 0.0000 36.5023 0.0000 -2.7922
# 5 -5.4703 -1.1641 -6.4784 0.0000 26.0172 0.0000
# 6 0.0000 0.0000 0.0000 -2.7922 0.0000 35.9706
#
#
#
# Elastic Compliance Matrix: (Units=1/GPa)
#
#
# Indices 1 2 3 4 5 6 
#
# 1 0.011152 -0.004425 -0.002984 0.000000 0.001404 0.000000
# 2 -0.004425 0.014729 -0.004528 0.000000 -0.001399 0.000000
# 3 -0.002984 -0.004528 0.012407 0.000000 0.002259 0.000000
# 4 0.000000 0.000000 0.000000 0.027559 0.000000 0.002139
# 5 0.001404 -0.001399 0.002259 0.000000 0.039231 0.000000
# 6 0.000000 0.000000 0.000000 0.002139 0.000000 0.027967
#
#
# Mechanical properties :
#
#
# Convention : Reuss Voigt Hill
#
# Bulk Modulus (GPa) = 69.37060 70.70483 70.03772
# Shear Modulus (GPa) = 30.91689 31.93460 31.42574
#
# Velocity S-wave (km/s) = 3.88539 3.94882 3.91723
# Velocity P-wave (km/s) = 7.34853 7.43741 7.39310
#
# Compressibility (1/GPa) = 0.01441533
#
# Stress axis : x y z
#
# Youngs Moduli (GPa) = 89.66998 67.89154 80.59836
#
# Poissons Ratio (x) = 0.30039 0.24050
# Poissons Ratio (y) = 0.39675 0.36496
# Poissons Ratio (z) = 0.26757 0.30742
#
# Static dielectric constant tensor:
#      x y z
#    x 3.748630 0.000000 -0.033500 
#    y 0.000000 3.564880 0.000000 
#    z -0.033500 0.000000 3.778830 
# 
# 
# High freq. dielectric constant tensor:
#      x y z
#    x 1.807220 0.000000 -0.000990 
#    y 0.000000 1.794820 0.000000 
#    z -0.000990 0.000000 1.801760 
# 
# From -- ./inp_files/308913.got.cif
#   From: 2010.06.25/outbox.cif.g09.slc.cpg/sg12_155_cif.got.tgz:308913.got - 2010.06.28 00:19:55.
