data_PCOD8112935
_publ_section_title
;
Structure prediction by ZEFSAII (Michael W. Deem and Ramdas Pophale) SiO2 
 PCOD8112935
Probable space group: C 2/M
;
_chemical_formula_sum "Si O2"
_cell_formula_units_Z 56
_cell_length_a 8.692592
_cell_length_b 28.467563
_cell_length_c 13.233084
_cell_angle_alpha 90.000000
_cell_angle_beta 56.273146
_cell_angle_gamma 90.000000
_cell_volume 2723.480146
_symmetry_space_group_name_H-M "C 2/M"
_symmetry_group_IT_number 12
_symmetry_cell_setting 'monoclinic'
loop_
_space_group_symop_operation_xyz
x,y,z
-x,y,-z
-x,-y,-z
x,-y,z
1/2+x,1/2+y,z
1/2-x,1/2+y,-z
1/2-x,1/2-y,-z
1/2+x,1/2-y,z
loop_
_atom_site_type_symbol
_atom_site_label
_atom_site_fract_x
_atom_site_fract_y
_atom_site_fract_z
Si Si1 0.626919 0.203935 0.050013
Si Si2 0.666960 0.314774 0.695244
Si Si3 0.286132 0.448365 0.614570
Si Si4 0.584173 0.373457 0.072382
Si Si5 0.797970 0.553676 0.117488
Si Si6 0.521234 0.780351 0.683596
Si Si7 0.197253 0.855760 0.482499
O O1 0.502211 0.203369 0.193699
O O2 0.500000 0.203669 0.000000
O O3 0.750000 0.250000 0.000000
O O4 0.734118 0.155586 0.017821
O O5 0.558127 0.336269 0.828486
O O6 0.551672 0.275598 0.675096
O O7 0.691899 0.357190 0.606394
O O8 0.853277 0.291671 0.669682
O O9 0.500000 0.448180 0.500000
O O10 0.203917 0.500000 0.614922
O O11 0.238438 0.439650 0.749812
O O12 0.194262 0.403752 0.590539
O O13 0.635334 0.416714 0.124942
O O14 0.500000 0.394215 0.000000
O O15 0.767236 0.500000 0.097342
O O16 0.000000 0.569646 0.000000
O O17 0.699639 0.807792 0.581126
O O18 0.000000 0.854630 0.500000
#
# Coordination Sequence:
#
# PCOD8112935 Si02
#       7
#     8   8   8   8   8   8   8
#     4  12  24  39  62  91 124 167 212 263 315 380
#     4  12  25  42  61  89 129 168 218 265 317 382
#     4   9  19  39  66  96 125 160 211 264 318 382
#     4  12  24  40  62  94 128 168 212 259 327 383
#     4  10  23  42  67  98 131 169 216 270 326 390
#     4  12  25  42  62  88 130 171 211 265 316 380
#     4  11  24  40  65  94 122 167 214 262 323 379
#
# _framework density 20.561928000000002
#
# number of rings (size 3 to 8) (size 9 to 14) (size 15 to 20)
#    0.000    0.857    2.857    5.143    6.000    0.286 
#    0.000    0.000    0.000    2.571    0.000    0.000 
#    0.000    0.000    0.000    0.000    0.000    0.000 
#
# Total GULP energy -347029.544189 kJ/mol
# GULP energy per Si atom -12393.912292 kJ/mol
# Density = 2.051513 g / cm^3
# Si number density = 20.561928 Si / 1000 Ang^3
#
#
#
# Elastic Constant Matrix: (Units=GPa)
#
#
# Indices 1 2 3 4 5 6 
#
# 1 101.4612 39.0409 25.7725 0.0000 14.3137 0.0000
# 2 39.0409 113.2771 28.6733 0.0000 11.9256 0.0000
# 3 25.7725 28.6733 120.7369 0.0000 5.6833 0.0000
# 4 0.0000 0.0000 0.0000 33.4831 0.0000 7.9356
# 5 14.3137 11.9256 5.6833 0.0000 32.7672 0.0000
# 6 0.0000 0.0000 0.0000 7.9356 0.0000 21.0881
#
#
#
# Elastic Compliance Matrix: (Units=1/GPa)
#
#
# Indices 1 2 3 4 5 6 
#
# 1 0.012091 -0.003363 -0.001604 0.000000 -0.003779 0.000000
# 2 -0.003363 0.010642 -0.001710 0.000000 -0.002107 0.000000
# 3 -0.001604 -0.001710 0.009043 0.000000 -0.000245 0.000000
# 4 0.000000 0.000000 0.000000 0.032790 0.000000 -0.012339
# 5 -0.003779 -0.002107 -0.000245 0.000000 0.032979 0.000000
# 6 0.000000 0.000000 0.000000 -0.012339 0.000000 0.052063
#
#
# Mechanical properties :
#
#
# Convention : Reuss Voigt Hill
#
# Bulk Modulus (GPa) = 54.28900 58.04984 56.16942
# Shear Modulus (GPa) = 29.56784 33.60024 31.58404
#
# Velocity S-wave (km/s) = 3.79620 4.04679 3.92349
# Velocity P-wave (km/s) = 6.75831 7.08013 6.92109
#
# Compressibility (1/GPa) = 0.01841994
#
# Stress axis : x y z
#
# Youngs Moduli (GPa) = 82.70787 93.96952 110.58756
#
# Poissons Ratio (x) = 0.31603 0.17742
# Poissons Ratio (y) = 0.27816 0.18912
# Poissons Ratio (z) = 0.13269 0.16070
#
# Static dielectric constant tensor:
#      x y z
#    x 3.576010 0.000000 0.176090 
#    y 0.000000 4.353160 0.000000 
#    z 0.176090 0.000000 4.319690 
# 
# 
# High freq. dielectric constant tensor:
#      x y z
#    x 1.777890 0.000000 0.002820 
#    y 0.000000 1.813660 0.000000 
#    z 0.002820 0.000000 1.830130 
# 
# From -- ./inp_files/125618.got.cif
#   From: 2010.06.25/outbox.cif.g09.slc.cpg/sg12_63_cif.got.tgz:125618.got - 2010.06.28 00:19:55.
