data_PCOD8112567
_publ_section_title
;
Structure prediction by ZEFSAII (Michael W. Deem and Ramdas Pophale) SiO2 
 PCOD8112567
Probable space group: C 2/M
;
_chemical_formula_sum "Si O2"
_cell_formula_units_Z 64
_cell_length_a 32.224115
_cell_length_b 15.364898
_cell_length_c 21.945945
_cell_angle_alpha 90.000000
_cell_angle_beta 18.171670
_cell_angle_gamma 90.000000
_cell_volume 3388.689945
_symmetry_space_group_name_H-M "C 2/M"
_symmetry_group_IT_number 12
_symmetry_cell_setting 'monoclinic'
loop_
_space_group_symop_operation_xyz
x,y,z
-x,y,-z
-x,-y,-z
x,-y,z
1/2+x,1/2+y,z
1/2-x,1/2+y,-z
1/2-x,1/2-y,-z
1/2+x,1/2-y,z
loop_
_atom_site_type_symbol
_atom_site_label
_atom_site_fract_x
_atom_site_fract_y
_atom_site_fract_z
Si Si1 0.044483 0.841693 0.250784
Si Si2 0.360321 0.756435 0.217694
Si Si3 0.029208 0.669665 0.343458
Si Si4 0.741436 0.323657 0.758578
Si Si5 0.742206 0.094545 0.961107
Si Si6 0.457928 0.401145 0.161762
Si Si7 0.756545 0.736289 0.869385
Si Si8 0.678992 0.597931 0.519117
O O1 0.000499 0.765525 0.357467
O O2 0.918002 0.894642 0.403441
O O3 0.140432 0.906723 0.152998
O O4 0.121705 0.801657 0.085426
O O5 0.269124 0.736181 0.286689
O O6 0.383789 0.666014 0.220834
O O7 0.294453 0.829588 0.352633
O O8 0.500000 0.795392 0.000000
O O9 0.104579 0.612958 0.188108
O O10 0.117603 0.680048 0.281496
O O11 0.884337 0.626234 0.558043
O O12 0.745576 0.262628 0.812225
O O13 0.617806 0.389701 0.936120
O O14 0.732651 0.000000 0.943536
O O15 0.771527 0.163456 0.867634
O O16 0.426000 0.500000 0.185300
O O17 0.404788 0.383744 0.303363
O O18 0.739668 0.500000 0.435264
#
# Coordination Sequence:
#
# PCOD8112567 Si02
#       8
#     8   8   8   8   8   8   8   8
#     4   9  16  33  55  78 106 148 194 223 259 315
#     4  10  23  39  59  82 111 145 179 234 289 336
#     4   9  18  31  54  80 111 151 182 220 270 321
#     4  11  19  34  57  79 113 148 184 219 274 332
#     4   9  18  32  51  80 115 146 185 232 268 310
#     4  10  23  40  61  85 107 142 187 233 282 335
#     4   9  18  32  54  79 110 151 188 219 264 328
#     4  11  20  36  62  85 108 142 189 232 275 333
#
# _framework density 18.886354000000001
#
# number of rings (size 3 to 8) (size 9 to 14) (size 15 to 20)
#    0.000    2.250    2.500    2.625    0.000    3.000 
#    0.000    0.625    0.000    4.500    0.000    0.000 
#    0.000    0.000    0.000    0.000    0.000    0.000 
#
# Total GULP energy -396638.880932 kJ/mol
# GULP energy per Si atom -12394.965029 kJ/mol
# Density = 1.884337 g / cm^3
# Si number density = 18.886354 Si / 1000 Ang^3
#
#
#
# Elastic Constant Matrix: (Units=GPa)
#
#
# Indices 1 2 3 4 5 6 
#
# 1 90.4607 28.5271 18.4077 -0.0035 -2.4871 0.0009
# 2 28.5271 93.6019 42.4706 -0.0134 -3.4993 0.0082
# 3 18.4077 42.4706 91.1656 -0.0099 -7.9689 0.0064
# 4 -0.0035 -0.0134 -0.0099 20.4854 0.0061 -1.4984
# 5 -2.4871 -3.4993 -7.9689 0.0061 23.4013 -0.0042
# 6 0.0009 0.0082 0.0064 -1.4984 -0.0042 20.2117
#
#
#
# Elastic Compliance Matrix: (Units=1/GPa)
#
#
# Indices 1 2 3 4 5 6 
#
# 1 0.012298 -0.003326 -0.000890 -0.000001 0.000507 0.000001
# 2 -0.003326 0.014447 -0.006082 0.000006 -0.000264 -0.000003
# 3 -0.000890 -0.006082 0.014320 0.000002 0.003873 -0.000001
# 4 -0.000001 0.000006 0.000002 0.049081 -0.000011 0.003639
# 5 0.000507 -0.000264 0.003873 -0.000011 0.044066 0.000007
# 6 0.000001 -0.000003 -0.000001 0.003639 0.000007 0.049746
#
#
# Mechanical properties :
#
#
# Convention : Reuss Voigt Hill
#
# Bulk Modulus (GPa) = 48.84851 50.44878 49.64864
# Shear Modulus (GPa) = 23.65449 25.20787 24.43118
#
# Velocity S-wave (km/s) = 3.54286 3.65734 3.60055
# Velocity P-wave (km/s) = 6.53118 6.67866 6.60534
#
# Compressibility (1/GPa) = 0.02047145
#
# Stress axis : x y z
#
# Youngs Moduli (GPa) = 81.31265 69.21978 69.83005
#
# Poissons Ratio (x) = 0.23019 0.06212
# Poissons Ratio (y) = 0.27041 0.42469
# Poissons Ratio (z) = 0.07234 0.42098
#
# Static dielectric constant tensor:
#      x y z
#    x 3.389470 -0.000010 -0.026470 
#    y -0.000010 3.199200 0.000010 
#    z -0.026470 0.000010 3.548780 
# 
# 
# High freq. dielectric constant tensor:
#      x y z
#    x 1.729680 0.000000 -0.000920 
#    y 0.000000 1.710740 0.000000 
#    z -0.000920 0.000000 1.737180 
# 
# From -- ./inp_files/330320.got.cif
#   From: 2010.06.25/outbox.cif.g09.slc.cpg/sg12_166_cif.got.tgz:330320.got - 2010.06.28 00:19:55.
