data_PCOD8112887
_publ_section_title
;
Structure prediction by ZEFSAII (Michael W. Deem and Ramdas Pophale) SiO2 
 PCOD8112887
Probable space group: C 2/M
;
_chemical_formula_sum "Si O2"
_cell_formula_units_Z 44
_cell_length_a 13.978637
_cell_length_b 19.955686
_cell_length_c 7.564226
_cell_angle_alpha 90.000000
_cell_angle_beta 100.539697
_cell_angle_gamma 90.000000
_cell_volume 2074.465572
_symmetry_space_group_name_H-M "C 2/M"
_symmetry_group_IT_number 12
_symmetry_cell_setting 'monoclinic'
loop_
_space_group_symop_operation_xyz
x,y,z
-x,y,-z
-x,-y,-z
x,-y,z
1/2+x,1/2+y,z
1/2-x,1/2+y,-z
1/2-x,1/2-y,-z
1/2+x,1/2-y,z
loop_
_atom_site_type_symbol
_atom_site_label
_atom_site_fract_x
_atom_site_fract_y
_atom_site_fract_z
Si Si1 0.365473 0.205046 0.732201
Si Si2 0.087366 0.575379 0.399683
Si Si3 0.892937 0.162014 0.922499
Si Si4 0.660938 0.343295 0.719707
Si Si5 0.800713 0.925306 0.586737
Si Si6 0.500000 0.265612 0.500000
O O1 0.403940 0.127484 0.764499
O O2 0.396380 0.256891 0.896039
O O3 0.248191 0.204862 0.681420
O O4 0.413297 0.224764 0.561188
O O5 0.074991 0.500000 0.318837
O O6 0.184239 0.580591 0.552916
O O7 0.000000 0.594967 0.500000
O O8 0.848562 0.128380 0.733654
O O9 0.824818 0.142484 0.066722
O O10 0.000000 0.134122 0.000000
O O11 0.662377 0.410153 0.600609
O O12 0.554294 0.309560 0.667480
O O13 0.834775 0.000000 0.650070
#
# Coordination Sequence:
#
# PCOD8112887 Si02
#       6
#     8   8   8   8   8   4
#     4  11  22  37  64  93 124 166 207 263 315 366
#     4   9  19  37  64  94 123 164 209 253 313 378
#     4  12  24  41  62  95 131 162 214 263 314 375
#     4  11  23  41  62  93 129 164 210 265 313 376
#     4  10  23  42  65  92 126 170 212 257 317 376
#     4  12  20  38  64  92 124 164 212 258 320 374
#
# _framework density 21.210280999999998
#
# number of rings (size 3 to 8) (size 9 to 14) (size 15 to 20)
#    0.000    1.273    4.545    1.091    2.545    1.091 
#    3.273    3.182    0.000    0.545    0.000    0.000 
#    0.000    0.000    0.000    0.000    0.000    0.000 
#
# Total GULP energy -272636.281162 kJ/mol
# GULP energy per Si atom -12392.558235 kJ/mol
# Density = 2.116201 g / cm^3
# Si number density = 21.210281 Si / 1000 Ang^3
#
#
#
# Elastic Constant Matrix: (Units=GPa)
#
#
# Indices 1 2 3 4 5 6 
#
# 1 114.0618 46.9033 33.2855 0.0000 -8.1295 0.0000
# 2 46.9033 117.7428 50.3225 0.0000 -5.4758 0.0000
# 3 33.2855 50.3225 103.9380 0.0000 -18.7621 0.0000
# 4 0.0000 0.0000 0.0000 19.6521 0.0000 -5.6273
# 5 -8.1295 -5.4758 -18.7621 0.0000 27.1394 0.0000
# 6 0.0000 0.0000 0.0000 -5.6273 0.0000 23.9286
#
#
#
# Elastic Compliance Matrix: (Units=1/GPa)
#
#
# Indices 1 2 3 4 5 6 
#
# 1 0.010777 -0.003612 -0.001430 0.000000 0.001511 0.000000
# 2 -0.003612 0.011983 -0.005032 0.000000 -0.002143 0.000000
# 3 -0.001430 -0.005032 0.014002 0.000000 0.008236 0.000000
# 4 0.000000 0.000000 0.000000 0.054559 0.000000 0.012831
# 5 0.001511 -0.002143 0.008236 0.000000 0.042561 0.000000
# 6 0.000000 0.000000 0.000000 0.012831 0.000000 0.044808
#
#
# Mechanical properties :
#
#
# Convention : Reuss Voigt Hill
#
# Bulk Modulus (GPa) = 60.18583 66.30724 63.24654
# Shear Modulus (GPa) = 24.46475 27.82612 26.14543
#
# Velocity S-wave (km/s) = 3.39992 3.62597 3.51476
# Velocity P-wave (km/s) = 6.62193 6.98999 6.80845
#
# Compressibility (1/GPa) = 0.01661521
#
# Stress axis : x y z
#
# Youngs Moduli (GPa) = 92.78713 83.45362 71.41875
#
# Poissons Ratio (x) = 0.30142 0.10212
# Poissons Ratio (y) = 0.33513 0.35935
# Poissons Ratio (z) = 0.13268 0.41991
#
# Static dielectric constant tensor:
#      x y z
#    x 3.976670 0.000000 -0.092550 
#    y 0.000000 3.983680 0.000000 
#    z -0.092550 0.000000 3.479010 
# 
# 
# High freq. dielectric constant tensor:
#      x y z
#    x 1.853030 0.000000 -0.010210 
#    y 0.000000 1.825710 0.000000 
#    z -0.010210 0.000000 1.797080 
# 
# From -- ./inp_files/62822.got.cif
#   From: 2010.06.25/outbox.cif.g09.slc.cpg/sg12_32_cif.got.tgz:62822.got - 2010.06.28 00:19:55.
