data_PCOD8112823
_publ_section_title
;
Structure prediction by ZEFSAII (Michael W. Deem and Ramdas Pophale) SiO2 
 PCOD8112823
Probable space group: C 2/M
;
_chemical_formula_sum "Si O2"
_cell_formula_units_Z 56
_cell_length_a 15.229757
_cell_length_b 8.696505
_cell_length_c 21.244866
_cell_angle_alpha 90.000000
_cell_angle_beta 90.106897
_cell_angle_gamma 90.000000
_cell_volume 2813.785357
_symmetry_space_group_name_H-M "C 2/M"
_symmetry_group_IT_number 12
_symmetry_cell_setting 'monoclinic'
loop_
_space_group_symop_operation_xyz
x,y,z
-x,y,-z
-x,-y,-z
x,-y,z
1/2+x,1/2+y,z
1/2-x,1/2+y,-z
1/2-x,1/2-y,-z
1/2+x,1/2-y,z
loop_
_atom_site_type_symbol
_atom_site_label
_atom_site_fract_x
_atom_site_fract_y
_atom_site_fract_z
Si Si1 0.246936 0.819816 0.712464
Si Si2 0.741476 0.181480 0.847327
Si Si3 0.400776 0.823713 0.619044
Si Si4 0.911465 0.818049 0.078114
Si Si5 0.845879 0.180858 0.494402
Si Si6 0.607106 0.682423 0.062514
Si Si7 0.596973 0.176680 0.633394
O O1 0.262373 0.732961 0.777249
O O2 0.325464 0.768657 0.666613
O O3 0.154142 0.774060 0.682180
O O4 0.247792 0.000000 0.725444
O O5 0.646309 0.240284 0.868095
O O6 0.816450 0.251664 0.893419
O O7 0.742408 0.000000 0.850463
O O8 0.399370 0.715893 0.557824
O O9 0.495017 0.806808 0.653017
O O10 0.384129 0.000000 0.598169
O O11 0.012047 0.763436 0.087975
O O12 0.903028 0.000000 0.084555
O O13 0.878734 0.761417 0.009246
O O14 0.750000 0.250000 0.500000
O O15 0.894788 0.260485 0.436899
O O16 0.840792 0.000000 0.482172
O O17 0.608840 0.500000 0.063143
O O18 0.628024 0.000000 0.635708
#
# Coordination Sequence:
#
# PCOD8112823 Si02
#       7
#     8   8   8   8   8   8   8
#     4  11  24  42  60  81 113 157 200 239 283 346
#     4  11  22  36  55  83 117 151 190 238 289 339
#     4  10  23  42  63  87 118 152 192 242 297 348
#     4   9  17  35  60  85 113 149 191 233 282 342
#     4  12  23  37  62  92 122 155 193 239 291 346
#     4   8  17  34  58  85 115 150 188 233 284 341
#     4  11  23  41  64  90 119 152 189 242 300 349
#
# _framework density 19.902016
#
# number of rings (size 3 to 8) (size 9 to 14) (size 15 to 20)
#    0.000    1.714    1.429    4.286    0.000    4.571 
#    0.000    6.429    0.000    0.000    0.000    0.000 
#    0.000    0.000    0.000    0.000    0.000    0.000 
#
# Total GULP energy -347288.769391 kJ/mol
# GULP energy per Si atom -12403.170335 kJ/mol
# Density = 1.985672 g / cm^3
# Si number density = 19.902016 Si / 1000 Ang^3
#
#
#
# Elastic Constant Matrix: (Units=GPa)
#
#
# Indices 1 2 3 4 5 6 
#
# 1 96.4596 23.3571 29.2242 0.0000 7.0480 0.0000
# 2 23.3571 43.2283 12.3580 0.0000 -6.6171 0.0000
# 3 29.2242 12.3580 85.6046 0.0000 1.2893 0.0000
# 4 0.0000 0.0000 0.0000 22.6284 0.0000 1.3400
# 5 7.0480 -6.6171 1.2893 0.0000 14.8636 0.0000
# 6 0.0000 0.0000 0.0000 1.3400 0.0000 26.7320
#
#
#
# Elastic Compliance Matrix: (Units=1/GPa)
#
#
# Indices 1 2 3 4 5 6 
#
# 1 0.014140 -0.008178 -0.003495 0.000000 -0.010043 0.000000
# 2 -0.008178 0.030822 -0.001925 0.000000 0.017766 0.000000
# 3 -0.003495 -0.001925 0.013158 0.000000 -0.000341 0.000000
# 4 0.000000 0.000000 0.000000 0.044324 0.000000 -0.002222
# 5 -0.010043 0.017766 -0.000341 0.000000 0.079979 0.000000
# 6 0.000000 0.000000 0.000000 -0.002222 0.000000 0.037520
#
#
# Mechanical properties :
#
#
# Convention : Reuss Voigt Hill
#
# Bulk Modulus (GPa) = 32.33900 39.46345 35.90123
# Shear Modulus (GPa) = 19.42148 23.53504 21.47826
#
# Velocity S-wave (km/s) = 3.12726 3.44255 3.28868
# Velocity P-wave (km/s) = 5.41517 5.97272 5.70077
#
# Compressibility (1/GPa) = 0.03092242
#
# Stress axis : x y z
#
# Youngs Moduli (GPa) = 70.72091 32.44466 75.99983
#
# Poissons Ratio (x) = 0.26534 0.26565
# Poissons Ratio (y) = 0.57837 0.14631
# Poissons Ratio (z) = 0.24720 0.06246
#
# Static dielectric constant tensor:
#      x y z
#    x 3.879300 0.000000 0.059020 
#    y 0.000000 3.514300 0.000000 
#    z 0.059020 0.000000 3.623250 
# 
# 
# High freq. dielectric constant tensor:
#      x y z
#    x 1.790640 0.000000 -0.000370 
#    y 0.000000 1.765560 0.000000 
#    z -0.000370 0.000000 1.770610 
# 
# From -- ./inp_files/309053.got.cif
#   From: 2010.06.25/outbox.cif.g09.slc.cpg/sg12_155_cif.got.tgz:309053.got - 2010.06.28 00:19:55.
