data_PCOD8112909
_publ_section_title
;
Structure prediction by ZEFSAII (Michael W. Deem and Ramdas Pophale) SiO2 
 PCOD8112909
Probable space group: C 2/M
;
_chemical_formula_sum "Si O2"
_cell_formula_units_Z 40
_cell_length_a 12.034949
_cell_length_b 18.955098
_cell_length_c 8.766410
_cell_angle_alpha 90.000000
_cell_angle_beta 100.808541
_cell_angle_gamma 90.000000
_cell_volume 1964.347052
_symmetry_space_group_name_H-M "C 2/M"
_symmetry_group_IT_number 12
_symmetry_cell_setting 'monoclinic'
loop_
_space_group_symop_operation_xyz
x,y,z
-x,y,-z
-x,-y,-z
x,-y,z
1/2+x,1/2+y,z
1/2-x,1/2+y,-z
1/2-x,1/2-y,-z
1/2+x,1/2-y,z
loop_
_atom_site_type_symbol
_atom_site_label
_atom_site_fract_x
_atom_site_fract_y
_atom_site_fract_z
Si Si1 0.065063 0.580900 0.666116
Si Si2 0.786336 0.175620 0.080045
Si Si3 0.560744 0.814171 0.164585
Si Si4 0.318635 0.418212 0.796182
Si Si5 0.513789 0.680593 0.323897
O O1 0.034796 0.500000 0.691191
O O2 0.198952 0.591977 0.679620
O O3 0.000000 0.608498 0.500000
O O4 0.022847 0.625343 0.798442
O O5 0.680455 0.149642 0.154753
O O6 0.890618 0.183613 0.219270
O O7 0.750000 0.250000 0.000000
O O8 0.817579 0.119601 0.958990
O O9 0.580091 0.751632 0.291557
O O10 0.500000 0.780425 0.000000
O O11 0.345651 0.500000 0.831570
O O12 0.415938 0.387055 0.713559
O O13 0.500000 0.677169 0.500000
#
# Coordination Sequence:
#
# PCOD8112909 Si02
#       5
#     8   8   8   8   8
#     4  10  23  42  65  97 134 170 211 267 329 382
#     4  12  23  43  67  96 129 169 214 265 320 386
#     4  12  22  40  69  95 129 165 219 269 319 383
#     4  11  24  45  69  94 131 175 217 263 319 385
#     4  12  27  42  64  97 133 172 216 266 324 382
#
# _framework density 20.363002000000002
#
# number of rings (size 3 to 8) (size 9 to 14) (size 15 to 20)
#    0.000    0.600    6.000    1.200    2.800    4.000 
#    0.000    0.000    0.000    0.000    0.000    0.000 
#    0.000    0.000    0.000    0.000    0.000    0.000 
#
# Total GULP energy -248105.805174 kJ/mol
# GULP energy per Si atom -12405.290259 kJ/mol
# Density = 2.031665 g / cm^3
# Si number density = 20.363002 Si / 1000 Ang^3
#
#
#
# Elastic Constant Matrix: (Units=GPa)
#
#
# Indices 1 2 3 4 5 6 
#
# 1 128.0763 47.0025 69.4667 0.0000 -6.9529 0.0000
# 2 47.0025 117.8530 63.8697 0.0000 -14.1524 0.0000
# 3 69.4667 63.8697 146.9941 0.0000 -3.6072 0.0000
# 4 0.0000 0.0000 0.0000 25.8245 0.0000 -3.0551
# 5 -6.9529 -14.1524 -3.6072 0.0000 43.4162 0.0000
# 6 0.0000 0.0000 0.0000 -3.0551 0.0000 36.7911
#
#
#
# Elastic Compliance Matrix: (Units=1/GPa)
#
#
# Indices 1 2 3 4 5 6 
#
# 1 0.010881 -0.001925 -0.004287 0.000000 0.000759 0.000000
# 2 -0.001925 0.011909 -0.004185 0.000000 0.003226 0.000000
# 3 -0.004287 -0.004185 0.010619 0.000000 -0.001169 0.000000
# 4 0.000000 0.000000 0.000000 0.039107 0.000000 0.003247
# 5 0.000759 0.003226 -0.001169 0.000000 0.024109 0.000000
# 6 0.000000 0.000000 0.000000 0.003247 0.000000 0.027450
#
#
# Mechanical properties :
#
#
# Convention : Reuss Voigt Hill
#
# Bulk Modulus (GPa) = 79.28190 83.73346 81.50768
# Shear Modulus (GPa) = 33.54055 35.37867 34.45961
#
# Velocity S-wave (km/s) = 4.06289 4.17273 4.11818
# Velocity P-wave (km/s) = 7.81206 8.02654 7.92002
#
# Compressibility (1/GPa) = 0.01261322
#
# Stress axis : x y z
#
# Youngs Moduli (GPa) = 91.90591 83.97339 94.17241
#
# Poissons Ratio (x) = 0.16166 0.40371
# Poissons Ratio (y) = 0.17693 0.39415
# Poissons Ratio (z) = 0.39399 0.35146
#
# Static dielectric constant tensor:
#      x y z
#    x 4.091590 0.000000 -0.028030 
#    y 0.000000 3.674830 0.000000 
#    z -0.028030 0.000000 3.727980 
# 
# 
# High freq. dielectric constant tensor:
#      x y z
#    x 1.814260 0.000000 0.001380 
#    y 0.000000 1.792360 0.000000 
#    z 0.001380 0.000000 1.793780 
# 
# From -- ./inp_files/46905.got.cif
#   From: 2010.06.25/outbox.cif.g09.slc.cpg/sg12_24_cif.got.tgz:46905.got - 2010.06.28 00:19:55.
