data_PCOD8112638
_publ_section_title
;
Structure prediction by ZEFSAII (Michael W. Deem and Ramdas Pophale) SiO2 
 PCOD8112638
Probable space group: C 2/M
;
_chemical_formula_sum "Si O2"
_cell_formula_units_Z 44
_cell_length_a 8.184903
_cell_length_b 19.624883
_cell_length_c 17.357375
_cell_angle_alpha 90.000000
_cell_angle_beta 48.064461
_cell_angle_gamma 90.000000
_cell_volume 2074.042078
_symmetry_space_group_name_H-M "C 2/M"
_symmetry_group_IT_number 12
_symmetry_cell_setting 'monoclinic'
loop_
_space_group_symop_operation_xyz
x,y,z
-x,y,-z
-x,-y,-z
x,-y,z
1/2+x,1/2+y,z
1/2-x,1/2+y,-z
1/2-x,1/2-y,-z
1/2+x,1/2-y,z
loop_
_atom_site_type_symbol
_atom_site_label
_atom_site_fract_x
_atom_site_fract_y
_atom_site_fract_z
Si Si1 0.860172 0.691706 0.279564
Si Si2 0.926456 0.163647 0.771275
Si Si3 0.828820 0.575838 0.845356
Si Si4 0.253821 0.419972 0.432774
Si Si5 0.159080 0.924249 0.061741
Si Si6 0.500000 0.357044 0.500000
O O1 0.769231 0.674553 0.225259
O O2 0.668210 0.692973 0.403572
O O3 0.972769 0.764081 0.239037
O O4 0.028154 0.630660 0.246686
O O5 0.807019 0.130414 0.882098
O O6 0.113332 0.115087 0.677927
O O7 0.934111 0.500000 0.803750
O O8 0.592833 0.575727 0.882192
O O9 0.809924 0.595937 0.941401
O O10 0.278317 0.500000 0.414260
O O11 0.358517 0.401128 0.483203
O O12 0.000000 0.397588 0.500000
O O13 0.224565 0.000000 0.069980
#
# Coordination Sequence:
#
# PCOD8112638 Si02
#       6
#     8   8   8   8   8   4
#     4  11  25  40  61  89 120 169 202 255 308 360
#     4  11  24  39  60  88 123 158 210 249 303 373
#     4   9  20  39  64  92 120 158 202 247 313 366
#     4  10  23  40  63  92 120 162 209 257 312 366
#     4   9  19  39  65  91 122 157 199 253 303 372
#     4  10  25  42  62  88 129 164 210 262 307 370
#
# _framework density 21.214614000000001
#
# number of rings (size 3 to 8) (size 9 to 14) (size 15 to 20)
#    0.000    2.000    0.000    3.000    6.364    7.273 
#    0.000    1.818    0.000    0.000    0.000    0.000 
#    0.000    0.000    0.000    0.000    0.000    0.000 
#
# Total GULP energy -272771.237715 kJ/mol
# GULP energy per Si atom -12398.692623 kJ/mol
# Density = 2.116633 g / cm^3
# Si number density = 21.214614 Si / 1000 Ang^3
#
#
#
# Elastic Constant Matrix: (Units=GPa)
#
#
# Indices 1 2 3 4 5 6 
#
# 1 58.0291 12.6227 7.3877 0.0000 0.6432 0.0000
# 2 12.6227 93.0632 23.1597 0.0000 5.5056 0.0000
# 3 7.3877 23.1597 62.0245 0.0000 11.4841 0.0000
# 4 0.0000 0.0000 0.0000 0.9109 0.0000 23.3336
# 5 0.6432 5.5056 11.4841 0.0000 30.5038 0.0000
# 6 0.0000 0.0000 0.0000 23.3336 0.0000 9.1573
#
#
#
# Elastic Compliance Matrix: (Units=1/GPa)
#
#
# Indices 1 2 3 4 5 6 
#
# 1 0.017867 -0.002096 -0.001447 0.000000 0.000546 0.000000
# 2 -0.002096 0.012099 -0.004162 0.000000 -0.000573 0.000000
# 3 -0.001447 -0.004162 0.019031 0.000000 -0.006383 0.000000
# 4 0.000000 0.000000 0.000000 -0.017081 0.000000 0.043524
# 5 0.000546 -0.000573 -0.006383 0.000000 0.035278 0.000000
# 6 0.000000 0.000000 0.000000 0.043524 0.000000 -0.001699
#
#
# Mechanical properties :
#
#
# Convention : Reuss Voigt Hill
#
# Bulk Modulus (GPa) = 29.77265 33.27300 31.52282
# Shear Modulus (GPa) = 54.28892 19.44419 36.86655
#
# Velocity S-wave (km/s) = 5.06418 3.03074 4.17320
# Velocity P-wave (km/s) = 6.94687 5.28821 6.17350
#
# Compressibility (1/GPa) = 0.03358788
#
# Stress axis : x y z
#
# Youngs Moduli (GPa) = 55.97000 82.64934 52.54594
#
# Poissons Ratio (x) = 0.17320 0.07602
# Poissons Ratio (y) = 0.11729 0.21871
# Poissons Ratio (z) = 0.08097 0.34400
#
# Static dielectric constant tensor:
#      x y z
#    x 3.943960 0.000000 0.078690 
#    y 0.000000 3.672830 0.000000 
#    z 0.078690 0.000000 3.883360 
# 
# 
# High freq. dielectric constant tensor:
#      x y z
#    x 1.840960 0.000000 0.001680 
#    y 0.000000 1.832840 0.000000 
#    z 0.001680 0.000000 1.832170 
# 
# From -- ./inp_files/256869.got.cif
#   From: 2010.06.25/outbox.cif.g09.slc.cpg/sg12_129_cif.got.tgz:256869.got - 2010.06.28 00:19:55.
