data_PCOD8112069
_publ_section_title
;
Structure prediction by ZEFSAII (Michael W. Deem and Ramdas Pophale) SiO2 
 PCOD8112069
Probable space group: C 2/M
;
_chemical_formula_sum "Si O2"
_cell_formula_units_Z 44
_cell_length_a 9.284741
_cell_length_b 17.992163
_cell_length_c 16.372556
_cell_angle_alpha 90.000000
_cell_angle_beta 127.092945
_cell_angle_gamma 90.000000
_cell_volume 2181.657080
_symmetry_space_group_name_H-M "C 2/M"
_symmetry_group_IT_number 12
_symmetry_cell_setting 'monoclinic'
loop_
_space_group_symop_operation_xyz
x,y,z
-x,y,-z
-x,-y,-z
x,-y,z
1/2+x,1/2+y,z
1/2-x,1/2+y,-z
1/2-x,1/2-y,-z
1/2+x,1/2-y,z
loop_
_atom_site_type_symbol
_atom_site_label
_atom_site_fract_x
_atom_site_fract_y
_atom_site_fract_z
Si Si1 0.082830 0.166397 0.618065
Si Si2 0.765440 0.366770 0.124143
Si Si3 0.425618 0.366907 0.101198
Si Si4 0.704509 0.000000 0.100901
Si Si5 0.527093 0.000000 0.203731
Si Si6 0.123929 0.000000 0.619570
Si Si7 0.036101 0.252342 0.270852
O O1 0.283918 0.200654 0.684616
O O2 0.000000 0.175169 0.500000
O O3 0.957852 0.210822 0.639825
O O4 0.083251 0.080106 0.648824
O O5 0.603803 0.403458 0.121210
O O6 0.906602 0.429345 0.149190
O O7 0.862835 0.305859 0.212814
O O8 0.694139 0.332629 0.013876
O O9 0.310724 0.427520 0.109373
O O10 0.498264 0.303744 0.184727
O O11 0.692278 0.000000 0.194249
O O12 0.500000 0.000000 0.000000
O O13 0.657656 0.000000 0.328765
O O14 0.000000 0.000000 0.500000
#
# Coordination Sequence:
#
# PCOD8112069 Si02
#       7
#     8   8   8   4   4   4   8
#     4  11  24  44  70  97 128 171 225 280 337 393
#     4  11  23  40  61  92 130 178 211 267 327 394
#     4  11  24  40  60  92 136 172 218 263 327 395
#     4  12  23  39  63  96 123 176 225 273 315 385
#     4  12  21  40  67  91 130 167 227 266 326 391
#     4  10  22  41  67  95 123 164 216 274 324 382
#     4  12  23  42  64  95 132 172 217 272 337 392
#
# _framework density 20.168154999999999
#
# number of rings (size 3 to 8) (size 9 to 14) (size 15 to 20)
#    0.000    0.727    5.455    2.727    0.000    1.455 
#    3.273    0.000    0.000    0.000    0.000   10.182 
#    0.000    0.000    0.000    0.000    0.000    0.000 
#
# Total GULP energy -272581.133923 kJ/mol
# GULP energy per Si atom -12390.051542 kJ/mol
# Density = 2.012225 g / cm^3
# Si number density = 20.168155 Si / 1000 Ang^3
#
#
#
# Elastic Constant Matrix: (Units=GPa)
#
#
# Indices 1 2 3 4 5 6 
#
# 1 114.0287 52.2243 37.5008 0.0000 4.4821 0.0000
# 2 52.2243 125.9298 46.0877 0.0000 -2.8737 0.0000
# 3 37.5008 46.0877 123.6178 0.0000 6.2285 0.0000
# 4 0.0000 0.0000 0.0000 43.0114 0.0000 11.2482
# 5 4.4821 -2.8737 6.2285 0.0000 30.0253 0.0000
# 6 0.0000 0.0000 0.0000 11.2482 0.0000 29.9721
#
#
#
# Elastic Compliance Matrix: (Units=1/GPa)
#
#
# Indices 1 2 3 4 5 6 
#
# 1 0.011294 -0.004053 -0.001830 0.000000 -0.001694 0.000000
# 2 -0.004053 0.010727 -0.002882 0.000000 0.002230 0.000000
# 3 -0.001830 -0.002882 0.009822 0.000000 -0.002040 0.000000
# 4 0.000000 0.000000 0.000000 0.025780 0.000000 -0.009675
# 5 -0.001694 0.002230 -0.002040 0.000000 0.034195 0.000000
# 6 0.000000 0.000000 0.000000 -0.009675 0.000000 0.036995
#
#
# Mechanical properties :
#
#
# Convention : Reuss Voigt Hill
#
# Bulk Modulus (GPa) = 69.86348 70.57796 70.22072
# Shear Modulus (GPa) = 33.08746 35.78600 34.43673
#
# Velocity S-wave (km/s) = 4.05480 4.21691 4.13665
# Velocity P-wave (km/s) = 7.52579 7.66684 7.59665
#
# Compressibility (1/GPa) = 0.01431363
#
# Stress axis : x y z
#
# Youngs Moduli (GPa) = 88.54045 93.21914 101.81269
#
# Poissons Ratio (x) = 0.37780 0.18631
# Poissons Ratio (y) = 0.35884 0.29346
# Poissons Ratio (z) = 0.16202 0.26869
#
# Static dielectric constant tensor:
#      x y z
#    x 3.708970 0.000000 0.111440 
#    y 0.000000 4.078420 0.000000 
#    z 0.111440 0.000000 4.069440 
# 
# 
# High freq. dielectric constant tensor:
#      x y z
#    x 1.779630 0.000000 0.011270 
#    y 0.000000 1.792810 0.000000 
#    z 0.011270 0.000000 1.807560 
# 
# From -- ./inp_files/195482.got.cif
#   From: 2010.06.25/outbox.cif.g09.slc.cpg/sg12_98_cif.got.tgz:195482.got - 2010.06.28 00:19:55.
