data_PCOD8112464
_publ_section_title
;
Structure prediction by ZEFSAII (Michael W. Deem and Ramdas Pophale) SiO2 
 PCOD8112464
Probable space group: C 2/M
;
_chemical_formula_sum "Si O2"
_cell_formula_units_Z 48
_cell_length_a 11.147425
_cell_length_b 21.671473
_cell_length_c 14.926295
_cell_angle_alpha 90.000000
_cell_angle_beta 41.636447
_cell_angle_gamma 90.000000
_cell_volume 2395.773684
_symmetry_space_group_name_H-M "C 2/M"
_symmetry_group_IT_number 12
_symmetry_cell_setting 'monoclinic'
loop_
_space_group_symop_operation_xyz
x,y,z
-x,y,-z
-x,-y,-z
x,-y,z
1/2+x,1/2+y,z
1/2-x,1/2+y,-z
1/2-x,1/2-y,-z
1/2+x,1/2-y,z
loop_
_atom_site_type_symbol
_atom_site_label
_atom_site_fract_x
_atom_site_fract_y
_atom_site_fract_z
Si Si1 0.657845 0.124331 0.723967
Si Si2 0.381873 0.622798 0.770009
Si Si3 0.000000 0.394494 0.500000
Si Si4 0.257565 0.322455 0.482932
Si Si5 0.112275 0.706696 0.022291
Si Si6 0.785275 0.500000 0.715702
Si Si7 0.592362 0.500000 0.142521
Si Si8 0.064039 0.500000 0.171718
O O1 0.815996 0.114407 0.706076
O O2 0.755957 0.142917 0.578199
O O3 0.525199 0.179556 0.828125
O O4 0.554984 0.060390 0.771288
O O5 0.557817 0.665555 0.673366
O O6 0.435600 0.557243 0.777456
O O7 0.225355 0.650689 0.918705
O O8 0.910522 0.348521 0.478902
O O9 0.852792 0.438094 0.629119
O O10 0.250000 0.250000 0.500000
O O11 0.250000 0.750000 0.000000
O O12 0.000000 0.737773 0.000000
O O13 0.568470 0.500000 0.839861
O O14 0.845506 0.500000 0.783144
O O15 0.785915 0.500000 0.988583
#
# Coordination Sequence:
#
# PCOD8112464 Si02
#       8
#     8   8   4   8   8   4   4   4
#     4  11  24  42  67  97 130 173 220 274 330 395
#     4  11  24  42  67  97 130 173 220 274 330 395
#     4  11  24  44  72  92 134 181 210 284 336 393
#     4  12  26  45  67  97 134 175 226 266 333 397
#     4  10  22  45  65  94 134 175 224 276 335 398
#     4  11  23  46  64 100 137 169 222 274 342 400
#     4  12  23  43  69  97 132 169 222 271 337 397
#     4  12  23  43  69  97 132 169 222 271 337 397
#
# _framework density 20.035281999999999
#
# number of rings (size 3 to 8) (size 9 to 14) (size 15 to 20)
#    0.000    0.833    5.000    2.250    2.333    1.333 
#    6.000    1.667    0.000    0.000    0.000    0.000 
#    0.000    0.000    0.000    0.000    0.000    0.000 
#
# Total GULP energy -297645.719813 kJ/mol
# GULP energy per Si atom -12401.904992 kJ/mol
# Density = 1.998968 g / cm^3
# Si number density = 20.035282 Si / 1000 Ang^3
#
#
#
# Elastic Constant Matrix: (Units=GPa)
#
#
# Indices 1 2 3 4 5 6 
#
# 1 110.8677 50.0358 1.9922 0.0003 7.0515 -0.0002
# 2 50.0358 126.0098 17.7163 0.0006 -1.2162 -0.0005
# 3 1.9922 17.7163 69.5581 0.0005 -2.6528 -0.0003
# 4 0.0003 0.0006 0.0005 30.2390 0.0001 -0.7657
# 5 7.0515 -1.2162 -2.6528 0.0001 34.0141 -0.0001
# 6 -0.0002 -0.0005 -0.0003 -0.7657 -0.0001 36.2908
#
#
#
# Elastic Compliance Matrix: (Units=1/GPa)
#
#
# Indices 1 2 3 4 5 6 
#
# 1 0.011232 -0.004590 0.000754 0.000000 -0.002434 0.000000
# 2 -0.004590 0.010107 -0.002400 0.000000 0.001126 0.000000
# 3 0.000754 -0.002400 0.015001 0.000000 0.000928 0.000000
# 4 0.000000 0.000000 0.000000 0.033088 0.000000 0.000698
# 5 -0.002434 0.001126 0.000928 0.000000 0.030017 0.000000
# 6 0.000000 0.000000 0.000000 0.000698 0.000000 0.027570
#
#
# Mechanical properties :
#
#
# Convention : Reuss Voigt Hill
#
# Bulk Modulus (GPa) = 41.89275 49.54713 45.71994
# Shear Modulus (GPa) = 33.91177 35.88822 34.89999
#
# Velocity S-wave (km/s) = 4.11859 4.23691 4.17817
# Velocity P-wave (km/s) = 6.60090 6.97989 6.79304
#
# Compressibility (1/GPa) = 0.02387048
#
# Stress axis : x y z
#
# Youngs Moduli (GPa) = 89.02830 98.94505 66.66015
#
# Poissons Ratio (x) = 0.45413 -0.05029
# Poissons Ratio (y) = 0.40861 0.15997
# Poissons Ratio (z) = -0.06717 0.23744
#
# Static dielectric constant tensor:
#      x y z
#    x 3.881590 0.000000 0.022840 
#    y 0.000000 3.539940 0.000000 
#    z 0.022840 0.000000 3.749910 
# 
# 
# High freq. dielectric constant tensor:
#      x y z
#    x 1.800400 0.000000 -0.001490 
#    y 0.000000 1.783390 0.000000 
#    z -0.001490 0.000000 1.792230 
# 
# From -- ./inp_files/207987.got.cif
#   From: 2010.06.25/outbox.cif.g09.slc.cpg/sg12_104_cif.got.tgz:207987.got - 2010.06.28 00:19:55.
