data_PCOD8112171
_publ_section_title
;
Structure prediction by ZEFSAII (Michael W. Deem and Ramdas Pophale) SiO2 
 PCOD8112171
Probable space group: C 2/M
;
_chemical_formula_sum "Si O2"
_cell_formula_units_Z 64
_cell_length_a 24.772270
_cell_length_b 19.037892
_cell_length_c 18.578127
_cell_angle_alpha 90.000000
_cell_angle_beta 160.167302
_cell_angle_gamma 90.000000
_cell_volume 2972.611902
_symmetry_space_group_name_H-M "C 2/M"
_symmetry_group_IT_number 12
_symmetry_cell_setting 'monoclinic'
loop_
_space_group_symop_operation_xyz
x,y,z
-x,y,-z
-x,-y,-z
x,-y,z
1/2+x,1/2+y,z
1/2-x,1/2+y,-z
1/2-x,1/2-y,-z
1/2+x,1/2-y,z
loop_
_atom_site_type_symbol
_atom_site_label
_atom_site_fract_x
_atom_site_fract_y
_atom_site_fract_z
Si Si1 0.430782 0.636403 0.837479
Si Si2 0.921361 0.332951 0.578279
Si Si3 0.527986 0.919002 0.844582
Si Si4 0.324640 0.422478 0.557213
Si Si5 0.097508 0.425437 0.688898
Si Si6 0.466547 0.684556 0.268394
Si Si7 0.189594 0.798362 0.072962
Si Si8 0.840766 0.154065 0.259088
O O1 0.266477 0.672537 0.650777
O O2 0.391756 0.581733 0.723864
O O3 0.500000 0.603691 0.000000
O O4 0.545404 0.697457 0.949265
O O5 0.962109 0.254004 0.606079
O O6 0.010981 0.361293 0.760934
O O7 0.971852 0.385672 0.580191
O O8 0.366313 0.912170 0.688121
O O9 0.545222 0.000000 0.839436
O O10 0.688807 0.895435 0.088881
O O11 0.369411 0.500000 0.585711
O O12 0.401281 0.366064 0.600197
O O13 0.162024 0.500000 0.804468
O O14 0.237724 0.376116 0.836975
O O15 0.000000 0.451310 0.500000
O O16 0.369533 0.644858 0.209205
O O17 0.356457 0.715076 0.067408
O O18 0.304856 0.734348 0.238946
O O19 0.000000 0.128611 0.500000
#
# Coordination Sequence:
#
# PCOD8112171 Si02
#       8
#     8   8   8   8   8   8   8   8
#     4  10  23  36  63  98 133 169 205 263 311 384
#     4  11  21  39  62  92 124 166 218 257 315 379
#     4  10  22  42  65  88 121 165 213 262 323 386
#     4   9  22  43  66  94 130 173 215 260 318 389
#     4  11  23  38  59  88 130 173 207 252 319 390
#     4  11  23  39  66  93 124 167 216 267 314 383
#     4  11  22  40  62  91 129 170 213 258 317 383
#     4  12  25  40  64  95 127 164 211 282 325 373
#
# _framework density 21.529886999999999
#
# number of rings (size 3 to 8) (size 9 to 14) (size 15 to 20)
#    0.000    1.375    2.500    2.625    3.500    5.000 
#    0.000    0.625    0.000    1.500    0.000    0.000 
#    0.000    0.000    0.000    0.000    0.000    0.000 
#
# Total GULP energy -396460.251468 kJ/mol
# GULP energy per Si atom -12389.382858 kJ/mol
# Density = 2.148088 g / cm^3
# Si number density = 21.529887 Si / 1000 Ang^3
#
#
#
# Elastic Constant Matrix: (Units=GPa)
#
#
# Indices 1 2 3 4 5 6 
#
# 1 128.0176 32.9715 22.7074 -0.0020 20.3632 0.0025
# 2 32.9715 122.3060 32.9779 -0.0005 10.3201 0.0008
# 3 22.7074 32.9779 125.4611 -0.0027 10.5496 0.0005
# 4 -0.0020 -0.0005 -0.0027 20.5194 -0.0020 0.1567
# 5 20.3632 10.3201 10.5496 -0.0020 27.7316 0.0011
# 6 0.0025 0.0008 0.0005 0.1567 0.0011 7.8911
#
#
#
# Elastic Compliance Matrix: (Units=1/GPa)
#
#
# Indices 1 2 3 4 5 6 
#
# 1 0.009350 -0.001829 -0.000714 0.000000 -0.005913 -0.000002
# 2 -0.001829 0.009325 -0.002005 0.000000 -0.001364 0.000000
# 3 -0.000714 -0.002005 0.008802 0.000001 -0.002078 0.000000
# 4 0.000000 0.000000 0.000001 0.048742 0.000003 -0.000968
# 5 -0.005913 -0.001364 -0.002078 0.000003 0.041700 -0.000004
# 6 -0.000002 0.000000 0.000000 -0.000968 -0.000004 0.126744
#
#
# Mechanical properties :
#
#
# Convention : Reuss Voigt Hill
#
# Bulk Modulus (GPa) = 54.40899 61.45535 57.93217
# Shear Modulus (GPa) = 19.23921 30.37028 24.80475
#
# Velocity S-wave (km/s) = 2.99257 3.75988 3.39795
# Velocity P-wave (km/s) = 6.10466 6.88877 6.50853
#
# Compressibility (1/GPa) = 0.01837932
#
# Stress axis : x y z
#
# Youngs Moduli (GPa) = 106.95464 107.23721 113.61452
#
# Poissons Ratio (x) = 0.19614 0.08115
# Poissons Ratio (y) = 0.19562 0.22784
# Poissons Ratio (z) = 0.07639 0.21505
#
# Static dielectric constant tensor:
#      x y z
#    x 3.870300 0.000000 0.077690 
#    y 0.000000 3.793550 0.000000 
#    z 0.077690 0.000000 3.657440 
# 
# 
# High freq. dielectric constant tensor:
#      x y z
#    x 1.833910 0.000000 0.020970 
#    y 0.000000 1.841740 0.000000 
#    z 0.020970 0.000000 1.848250 
# 
# From -- ./inp_files/290973.got.cif
#   From: 2010.06.25/outbox.cif.g09.slc.cpg/sg12_146_cif.got.tgz:290973.got - 2010.06.28 00:19:55.
