data_PCOD8112234
_publ_section_title
;
Structure prediction by ZEFSAII (Michael W. Deem and Ramdas Pophale) SiO2 
 PCOD8112234
Probable space group: C 2/M
;
_chemical_formula_sum "Si O2"
_cell_formula_units_Z 48
_cell_length_a 8.321338
_cell_length_b 21.122073
_cell_length_c 19.920766
_cell_angle_alpha 90.000000
_cell_angle_beta 139.938447
_cell_angle_gamma 90.000000
_cell_volume 2253.505673
_symmetry_space_group_name_H-M "C 2/M"
_symmetry_group_IT_number 12
_symmetry_cell_setting 'monoclinic'
loop_
_space_group_symop_operation_xyz
x,y,z
-x,y,-z
-x,-y,-z
x,-y,z
1/2+x,1/2+y,z
1/2-x,1/2+y,-z
1/2-x,1/2-y,-z
1/2+x,1/2-y,z
loop_
_atom_site_type_symbol
_atom_site_label
_atom_site_fract_x
_atom_site_fract_y
_atom_site_fract_z
Si Si1 0.913244 0.570384 0.187762
Si Si2 0.769332 0.805944 0.559444
Si Si3 0.432355 0.324000 0.872260
Si Si4 0.040580 0.072014 0.591603
Si Si5 0.608487 0.711025 0.790563
Si Si6 0.951633 0.379478 0.059329
O O1 0.862107 0.500000 0.196072
O O2 0.694663 0.609163 0.153622
O O3 0.897153 0.570647 0.100952
O O4 0.179646 0.593559 0.300349
O O5 0.500000 0.822470 0.500000
O O6 0.750000 0.750000 0.500000
O O7 0.862520 0.874075 0.563906
O O8 0.944959 0.776901 0.672937
O O9 0.417449 0.304863 0.789423
O O10 0.275481 0.272285 0.864051
O O11 0.724506 0.328723 0.985312
O O12 0.000000 0.071349 0.500000
O O13 0.987348 0.000000 0.602720
O O14 0.796117 0.653968 0.836570
O O15 0.000000 0.409451 0.000000
#
# Coordination Sequence:
#
# PCOD8112234 Si02
#       6
#     8   8   8   8   8   8
#     4  11  24  44  67  94 132 176 220 269 324 388
#     4  12  26  41  69 101 134 170 215 277 334 388
#     4  11  24  38  67  95 131 174 216 265 324 392
#     4  10  24  46  70  94 130 176 221 268 329 399
#     4  11  23  42  63  97 135 168 215 272 330 393
#     4  10  22  42  66  98 131 171 217 270 328 390
#
# _framework density 21.300146000000002
#
# number of rings (size 3 to 8) (size 9 to 14) (size 15 to 20)
#    0.000    1.167    1.667    3.500    7.000    4.667 
#    0.000    3.333    0.000    0.000    0.000    0.000 
#    0.000    0.000    0.000    0.000    0.000    0.000 
#
# Total GULP energy -297529.336917 kJ/mol
# GULP energy per Si atom -12397.055705 kJ/mol
# Density = 2.125167 g / cm^3
# Si number density = 21.300146 Si / 1000 Ang^3
#
#
#
# Elastic Constant Matrix: (Units=GPa)
#
#
# Indices 1 2 3 4 5 6 
#
# 1 135.9326 55.9202 47.5353 -0.0014 2.4893 -0.0007
# 2 55.9202 82.7778 5.4826 0.0005 2.4229 0.0002
# 3 47.5353 5.4826 111.1788 -0.0018 -13.7648 -0.0008
# 4 -0.0014 0.0005 -0.0018 -21.0035 -0.0016 -15.9310
# 5 2.4893 2.4229 -13.7648 -0.0016 34.6220 -0.0007
# 6 -0.0007 0.0002 -0.0008 -15.9310 -0.0007 24.1734
#
#
#
# Elastic Compliance Matrix: (Units=1/GPa)
#
#
# Indices 1 2 3 4 5 6 
#
# 1 0.012565 -0.008068 -0.005276 0.000000 -0.002436 0.000000
# 2 -0.008068 0.017343 0.002646 0.000001 0.000418 0.000000
# 3 -0.005276 0.002646 0.011721 -0.000001 0.004854 0.000000
# 4 0.000000 0.000001 -0.000001 -0.031743 -0.000002 -0.020920
# 5 -0.002436 0.000418 0.004854 -0.000002 0.030959 0.000000
# 6 0.000000 0.000000 0.000000 -0.020920 0.000000 0.027581
#
#
# Mechanical properties :
#
#
# Convention : Reuss Voigt Hill
#
# Bulk Modulus (GPa) = 49.42314 60.86282 55.14298
# Shear Modulus (GPa) = 51.77834 22.28845 37.03340
#
# Velocity S-wave (km/s) = 4.93576 3.23832 4.17423
# Velocity P-wave (km/s) = 7.46564 6.52826 7.01263
#
# Compressibility (1/GPa) = 0.02023344
#
# Stress axis : x y z
#
# Youngs Moduli (GPa) = 79.58572 57.66012 85.31800
#
# Poissons Ratio (x) = 0.46517 0.45015
# Poissons Ratio (y) = 0.64206 -0.22574
# Poissons Ratio (z) = 0.41990 -0.15256
#
# Static dielectric constant tensor:
#      x y z
#    x 3.894170 0.000000 0.013660 
#    y 0.000000 3.800150 0.000000 
#    z 0.013660 0.000000 4.016400 
# 
# 
# High freq. dielectric constant tensor:
#      x y z
#    x 1.838750 0.000000 0.002710 
#    y 0.000000 1.827250 0.000000 
#    z 0.002710 0.000000 1.851920 
# 
# From -- ./inp_files/301841.got.cif
#   From: 2010.06.25/outbox.cif.g09.slc.cpg/sg12_151_cif.got.tgz:301841.got - 2010.06.28 00:19:55.
