data_PCOD8112403
_publ_section_title
;
Structure prediction by ZEFSAII (Michael W. Deem and Ramdas Pophale) SiO2 
 PCOD8112403
Probable space group: C 2/M
;
_chemical_formula_sum "Si O2"
_cell_formula_units_Z 64
_cell_length_a 31.465717
_cell_length_b 14.613770
_cell_length_c 21.111439
_cell_angle_alpha 90.000000
_cell_angle_beta 162.795591
_cell_angle_gamma 90.000000
_cell_volume 2871.367835
_symmetry_space_group_name_H-M "C 2/M"
_symmetry_group_IT_number 12
_symmetry_cell_setting 'monoclinic'
loop_
_space_group_symop_operation_xyz
x,y,z
-x,y,-z
-x,-y,-z
x,-y,z
1/2+x,1/2+y,z
1/2-x,1/2+y,-z
1/2-x,1/2-y,-z
1/2+x,1/2-y,z
loop_
_atom_site_type_symbol
_atom_site_label
_atom_site_fract_x
_atom_site_fract_y
_atom_site_fract_z
Si Si1 0.750933 0.764533 0.786478
Si Si2 0.983370 0.599072 0.550061
Si Si3 0.232650 0.394103 0.413940
Si Si4 0.726092 0.355985 0.972944
Si Si5 0.627129 0.893837 0.404713
Si Si6 0.155158 0.764928 0.215494
Si Si7 0.062180 0.895043 0.859602
Si Si8 0.206856 0.397855 0.068213
O O1 0.609793 0.815610 0.558674
O O2 0.835505 0.736294 0.844469
O O3 0.834174 0.833462 0.950825
O O4 0.713396 0.671978 0.771080
O O5 0.911555 0.500000 0.463288
O O6 0.000000 0.612818 0.500000
O O7 0.137822 0.597392 0.801473
O O8 0.203411 0.500000 0.354871
O O9 0.177245 0.371044 0.405173
O O10 0.149840 0.329135 0.247534
O O11 0.400261 0.369345 0.646887
O O12 0.708513 0.397899 0.877936
O O13 0.750000 0.250000 0.000000
O O14 0.588882 0.376873 0.822472
O O15 0.720772 0.834274 0.586321
O O16 0.460111 0.867015 0.176890
O O17 0.651954 0.000000 0.456473
O O18 0.000000 0.814143 0.000000
O O19 0.094627 0.000000 0.922626
O O20 0.213977 0.500000 0.107327
#
# Coordination Sequence:
#
# PCOD8112403 Si02
#       8
#     8   8   8   8   8   8   8   8
#     4  12  24  38  62  92 131 164 202 261 313 373
#     4  11  22  39  62  93 126 158 205 259 318 373
#     4  10  23  43  67  91 122 164 214 259 303 372
#     4  12  23  40  67  91 129 167 213 263 309 377
#     4  10  22  43  69  94 123 162 211 263 311 372
#     4  12  25  39  62  94 130 164 200 254 321 376
#     4  11  22  40  65  92 124 166 211 260 314 371
#     4  11  23  42  66  92 124 170 220 260 307 372
#
# _framework density 22.28903
#
# number of rings (size 3 to 8) (size 9 to 14) (size 15 to 20)
#    0.000    0.875    2.500    4.875    1.750    3.000 
#    0.000    0.000    0.000    1.125    0.000    0.000 
#    0.000    0.000    0.000    0.000    0.000    0.000 
#
# Total GULP energy -396854.595197 kJ/mol
# GULP energy per Si atom -12401.706100 kJ/mol
# Density = 2.223830 g / cm^3
# Si number density = 22.289030 Si / 1000 Ang^3
#
#
#
# Elastic Constant Matrix: (Units=GPa)
#
#
# Indices 1 2 3 4 5 6 
#
# 1 150.8569 21.8235 13.4221 -0.0001 1.1236 -0.0002
# 2 21.8235 105.1329 17.3443 -0.0001 -9.3368 -0.0001
# 3 13.4221 17.3443 33.3913 -0.0002 6.6603 -0.0003
# 4 -0.0001 -0.0001 -0.0002 30.0733 -0.0001 -1.7346
# 5 1.1236 -9.3368 6.6603 -0.0001 26.7226 -0.0002
# 6 -0.0002 -0.0001 -0.0003 -1.7346 -0.0002 37.5211
#
#
#
# Elastic Compliance Matrix: (Units=1/GPa)
#
#
# Indices 1 2 3 4 5 6 
#
# 1 0.006985 -0.001096 -0.002214 0.000000 -0.000125 0.000000
# 2 -0.001096 0.011323 -0.006566 0.000000 0.005639 0.000000
# 3 -0.002214 -0.006566 0.036502 0.000000 -0.011299 0.000000
# 4 0.000000 0.000000 0.000000 0.033341 0.000000 0.001541
# 5 -0.000125 0.005639 -0.011299 0.000000 0.042213 0.000000
# 6 0.000000 0.000000 0.000000 0.001541 0.000000 0.026723
#
#
# Mechanical properties :
#
#
# Convention : Reuss Voigt Hill
#
# Bulk Modulus (GPa) = 28.52289 43.84009 36.18149
# Shear Modulus (GPa) = 26.52178 34.64949 30.58564
#
# Velocity S-wave (km/s) = 3.45324 3.94706 3.70838
# Velocity P-wave (km/s) = 5.35952 6.36270 5.88253
#
# Compressibility (1/GPa) = 0.03505956
#
# Stress axis : x y z
#
# Youngs Moduli (GPa) = 143.15939 88.31403 27.39591
#
# Poissons Ratio (x) = 0.09678 0.06065
# Poissons Ratio (y) = 0.15689 0.17988
# Poissons Ratio (z) = 0.31691 0.57985
#
# Static dielectric constant tensor:
#      x y z
#    x 4.283070 0.000000 0.188650 
#    y 0.000000 4.194830 0.000000 
#    z 0.188650 0.000000 3.813730 
# 
# 
# High freq. dielectric constant tensor:
#      x y z
#    x 1.890560 0.000000 0.009880 
#    y 0.000000 1.892300 0.000000 
#    z 0.009880 0.000000 1.858080 
# 
# From -- ./inp_files/330389.got.cif
#   From: 2010.06.25/outbox.cif.g09.slc.cpg/sg12_166_cif.got.tgz:330389.got - 2010.06.28 00:19:55.
