data_PCOD8112243
_publ_section_title
;
Structure prediction by ZEFSAII (Michael W. Deem and Ramdas Pophale) SiO2 
 PCOD8112243
Probable space group: C 2/M
;
_chemical_formula_sum "Si O2"
_cell_formula_units_Z 56
_cell_length_a 10.986432
_cell_length_b 17.523263
_cell_length_c 16.336800
_cell_angle_alpha 90.000000
_cell_angle_beta 125.556854
_cell_angle_gamma 90.000000
_cell_volume 2558.685825
_symmetry_space_group_name_H-M "C 2/M"
_symmetry_group_IT_number 12
_symmetry_cell_setting 'monoclinic'
loop_
_space_group_symop_operation_xyz
x,y,z
-x,y,-z
-x,-y,-z
x,-y,z
1/2+x,1/2+y,z
1/2-x,1/2+y,-z
1/2-x,1/2-y,-z
1/2+x,1/2-y,z
loop_
_atom_site_type_symbol
_atom_site_label
_atom_site_fract_x
_atom_site_fract_y
_atom_site_fract_z
Si Si1 0.419006 0.916638 0.588450
Si Si2 0.831230 0.141419 0.410222
Si Si3 0.719183 0.141823 0.762223
Si Si4 0.237714 0.311879 0.589535
Si Si5 0.534749 0.592444 0.693597
Si Si6 0.536812 0.416471 0.878024
Si Si7 0.843103 0.788582 0.965381
O O1 0.277897 0.920836 0.594194
O O2 0.561106 0.900602 0.702601
O O3 0.401296 0.854698 0.508552
O O4 0.437115 0.000000 0.554770
O O5 0.770160 0.220540 0.429046
O O6 0.833836 0.127689 0.312649
O O7 0.000000 0.123035 0.500000
O O8 0.723015 0.190240 0.681056
O O9 0.735093 0.199196 0.845413
O O10 0.856574 0.082855 0.813953
O O11 0.384741 0.357635 0.615985
O O12 0.507545 0.500000 0.671592
O O13 0.585599 0.610692 0.806222
O O14 0.599330 0.500000 0.917954
O O15 0.608197 0.368739 0.977973
O O16 0.750000 0.750000 0.000000
O O17 0.000000 0.746187 0.000000
#
# Coordination Sequence:
#
# PCOD8112243 Si02
#       7
#     8   8   8   8   8   8   8
#     4  12  25  40  61  92 136 178 220 273 332 390
#     4  12  25  39  63  89 131 177 227 267 327 394
#     4  10  23  39  64  95 126 163 221 269 330 390
#     4  11  24  40  63  90 129 173 219 271 324 385
#     4  10  22  42  67  92 125 173 225 267 325 400
#     4   9  20  41  67  93 123 165 213 271 330 395
#     4  10  23  43  69 100 130 169 216 275 341 405
#
# _framework density 21.886236
#
# number of rings (size 3 to 8) (size 9 to 14) (size 15 to 20)
#    0.000    1.429    1.429    3.000    4.000    8.286 
#    0.000    0.000    0.000    0.429    0.000    0.000 
#    0.000    0.000    0.000    0.000    0.000    0.000 
#
# Total GULP energy -346928.283142 kJ/mol
# GULP energy per Si atom -12390.295827 kJ/mol
# Density = 2.183642 g / cm^3
# Si number density = 21.886236 Si / 1000 Ang^3
#
#
#
# Elastic Constant Matrix: (Units=GPa)
#
#
# Indices 1 2 3 4 5 6 
#
# 1 118.0466 28.3398 36.1800 0.0000 -13.0423 0.0000
# 2 28.3398 86.6034 28.1160 0.0000 4.4352 0.0000
# 3 36.1800 28.1160 118.1917 0.0000 -7.9002 0.0000
# 4 0.0000 0.0000 0.0000 20.7344 0.0000 -7.1494
# 5 -13.0423 4.4352 -7.9002 0.0000 28.2041 0.0000
# 6 0.0000 0.0000 0.0000 -7.1494 0.0000 24.2217
#
#
#
# Elastic Compliance Matrix: (Units=1/GPa)
#
#
# Indices 1 2 3 4 5 6 
#
# 1 0.010348 -0.002922 -0.002163 0.000000 0.004639 0.000000
# 2 -0.002922 0.013568 -0.002615 0.000000 -0.004217 0.000000
# 3 -0.002163 -0.002615 0.009891 0.000000 0.002182 0.000000
# 4 0.000000 0.000000 0.000000 0.053694 0.000000 0.015848
# 5 0.004639 -0.004217 0.002182 0.000000 0.038875 0.000000
# 6 0.000000 0.000000 0.000000 0.015848 0.000000 0.045963
#
#
# Mechanical properties :
#
#
# Convention : Reuss Voigt Hill
#
# Bulk Modulus (GPa) = 54.32450 56.45704 55.39077
# Shear Modulus (GPa) = 25.79000 29.97909 27.88455
#
# Velocity S-wave (km/s) = 3.43646 3.70505 3.57328
# Velocity P-wave (km/s) = 6.37345 6.64492 6.51060
#
# Compressibility (1/GPa) = 0.01840790
#
# Stress axis : x y z
#
# Youngs Moduli (GPa) = 96.63732 73.70302 101.10466
#
# Poissons Ratio (x) = 0.21534 0.21864
# Poissons Ratio (y) = 0.28235 0.26440
# Poissons Ratio (z) = 0.20898 0.19274
#
# Static dielectric constant tensor:
#      x y z
#    x 4.407030 0.000000 -0.048520 
#    y 0.000000 3.713140 0.000000 
#    z -0.048520 0.000000 4.199770 
# 
# 
# High freq. dielectric constant tensor:
#      x y z
#    x 1.873800 0.000000 -0.023300 
#    y 0.000000 1.846360 0.000000 
#    z -0.023300 0.000000 1.856100 
# 
# From -- ./inp_files/264290.got.cif
#   From: 2010.06.25/outbox.cif.g09.slc.cpg/sg12_133_cif.got.tgz:264290.got - 2010.06.28 00:19:55.
