data_PCOD8112901
_publ_section_title
;
Structure prediction by ZEFSAII (Michael W. Deem and Ramdas Pophale) SiO2 
 PCOD8112901
Probable space group: C 2/M
;
_chemical_formula_sum "Si O2"
_cell_formula_units_Z 40
_cell_length_a 19.001371
_cell_length_b 8.488115
_cell_length_c 11.888729
_cell_angle_alpha 90.000000
_cell_angle_beta 102.945039
_cell_angle_gamma 90.000000
_cell_volume 1868.751359
_symmetry_space_group_name_H-M "C 2/M"
_symmetry_group_IT_number 12
_symmetry_cell_setting 'monoclinic'
loop_
_space_group_symop_operation_xyz
x,y,z
-x,y,-z
-x,-y,-z
x,-y,z
1/2+x,1/2+y,z
1/2-x,1/2+y,-z
1/2-x,1/2-y,-z
1/2+x,1/2-y,z
loop_
_atom_site_type_symbol
_atom_site_label
_atom_site_fract_x
_atom_site_fract_y
_atom_site_fract_z
Si Si1 0.301747 0.682187 0.838850
Si Si2 0.852890 0.817395 0.211739
Si Si3 0.920454 0.679527 0.453070
Si Si4 0.573334 0.183888 0.968674
Si Si5 0.690406 0.820536 0.398580
O O1 0.315430 0.500000 0.871088
O O2 0.220277 0.724795 0.844835
O O3 0.314885 0.713376 0.712606
O O4 0.358132 0.785726 0.928089
O O5 0.877063 0.782436 0.347516
O O6 0.915704 0.768272 0.147527
O O7 0.835802 0.000000 0.193929
O O8 0.922837 0.500000 0.408867
O O9 0.884765 0.687332 0.562751
O O10 0.000000 0.749337 0.500000
O O11 0.565002 0.000000 0.942492
O O12 0.500000 0.249764 0.000000
O O13 0.750000 0.750000 0.500000
O O14 0.709921 0.000000 0.371572
#
# Coordination Sequence:
#
# PCOD8112901 Si02
#       5
#     8   8   8   8   8
#     4  12  25  43  68  96 132 172 217 268 320 382
#     4  12  25  43  68  97 131 169 218 269 321 384
#     4  10  23  42  65  94 131 174 216 261 319 383
#     4  11  26  47  70  95 128 169 214 265 327 389
#     4  11  22  39  65  97 132 170 214 264 319 380
#
# _framework density 21.404668000000001
#
# number of rings (size 3 to 8) (size 9 to 14) (size 15 to 20)
#    0.000    0.800    2.000    5.400    2.800    2.800 
#    0.000    0.000    0.000    0.000    0.000    0.000 
#    0.000    0.000    0.000    0.000    0.000    0.000 
#
# Total GULP energy -248141.891430 kJ/mol
# GULP energy per Si atom -12407.094572 kJ/mol
# Density = 2.135595 g / cm^3
# Si number density = 21.404668 Si / 1000 Ang^3
#
#
#
# Elastic Constant Matrix: (Units=GPa)
#
#
# Indices 1 2 3 4 5 6 
#
# 1 123.3452 18.5215 17.2358 0.0000 -8.1280 0.0000
# 2 18.5215 78.8710 10.4197 0.0000 -8.8332 0.0000
# 3 17.2358 10.4197 74.4408 0.0000 -13.2424 0.0000
# 4 0.0000 0.0000 0.0000 39.3181 0.0000 -1.1419
# 5 -8.1280 -8.8332 -13.2424 0.0000 40.6587 0.0000
# 6 0.0000 0.0000 0.0000 -1.1419 0.0000 25.0524
#
#
#
# Elastic Compliance Matrix: (Units=1/GPa)
#
#
# Indices 1 2 3 4 5 6 
#
# 1 0.008646 -0.001725 -0.001613 0.000000 0.000828 0.000000
# 2 -0.001725 0.013478 -0.001091 0.000000 0.002228 0.000000
# 3 -0.001613 -0.001091 0.014713 0.000000 0.004232 0.000000
# 4 0.000000 0.000000 0.000000 0.025467 0.000000 0.001161
# 5 0.000828 0.002228 0.004232 0.000000 0.026623 0.000000
# 6 0.000000 0.000000 0.000000 0.001161 0.000000 0.039969
#
#
# Mechanical properties :
#
#
# Convention : Reuss Voigt Hill
#
# Bulk Modulus (GPa) = 35.74073 41.00124 38.37098
# Shear Modulus (GPa) = 33.99516 36.37115 35.18316
#
# Velocity S-wave (km/s) = 3.98956 4.12663 4.05867
# Velocity P-wave (km/s) = 6.16085 6.47320 6.31895
#
# Compressibility (1/GPa) = 0.02797928
#
# Stress axis : x y z
#
# Youngs Moduli (GPa) = 115.65651 74.19741 67.96894
#
# Poissons Ratio (x) = 0.12796 0.10965
# Poissons Ratio (y) = 0.19945 0.07414
# Poissons Ratio (z) = 0.18658 0.08094
#
# Static dielectric constant tensor:
#      x y z
#    x 4.206670 0.000000 -0.398130 
#    y 0.000000 3.851210 0.000000 
#    z -0.398130 0.000000 3.769460 
# 
# 
# High freq. dielectric constant tensor:
#      x y z
#    x 1.851460 0.000000 -0.010570 
#    y 0.000000 1.841440 0.000000 
#    z -0.010570 0.000000 1.846220 
# 
# From -- ./inp_files/151638.got.cif
#   From: 2010.06.25/outbox.cif.g09.slc.cpg/sg12_76_cif.got.tgz:151638.got - 2010.06.28 00:19:55.
