data_PCOD8112647
_publ_section_title
;
Structure prediction by ZEFSAII (Michael W. Deem and Ramdas Pophale) SiO2 
 PCOD8112647
Probable space group: C 2/M
;
_chemical_formula_sum "Si O2"
_cell_formula_units_Z 64
_cell_length_a 14.952095
_cell_length_b 22.823072
_cell_length_c 14.571144
_cell_angle_alpha 90.000000
_cell_angle_beta 139.816677
_cell_angle_gamma 90.000000
_cell_volume 3208.395854
_symmetry_space_group_name_H-M "C 2/M"
_symmetry_group_IT_number 12
_symmetry_cell_setting 'monoclinic'
loop_
_space_group_symop_operation_xyz
x,y,z
-x,y,-z
-x,-y,-z
x,-y,z
1/2+x,1/2+y,z
1/2-x,1/2+y,-z
1/2-x,1/2-y,-z
1/2+x,1/2-y,z
loop_
_atom_site_type_symbol
_atom_site_label
_atom_site_fract_x
_atom_site_fract_y
_atom_site_fract_z
Si Si1 0.544361 0.357887 0.389442
Si Si2 0.757321 0.067714 0.577107
Si Si3 0.404233 0.756594 0.657269
Si Si4 0.848244 0.357794 0.340001
Si Si5 0.210257 0.137351 0.697264
Si Si6 0.363258 0.252244 0.835240
Si Si7 0.536887 0.067866 0.129801
Si Si8 0.006724 0.384580 0.716900
O O1 0.612358 0.403306 0.372236
O O2 0.504414 0.297004 0.309300
O O3 0.403580 0.385887 0.319570
O O4 0.644596 0.339091 0.551491
O O5 0.734082 0.099684 0.655941
O O6 0.620527 0.072601 0.407293
O O7 0.791423 0.000000 0.621865
O O8 0.250000 0.750000 0.500000
O O9 0.416184 0.753296 0.774350
O O10 0.462776 0.817557 0.667409
O O11 0.756563 0.300667 0.248526
O O12 0.000000 0.340907 0.500000
O O13 0.868822 0.392861 0.259085
O O14 0.299974 0.189234 0.813897
O O15 0.300293 0.081675 0.735203
O O16 0.500000 0.268397 0.000000
O O17 0.451705 0.100933 0.144824
O O18 0.503761 0.000000 0.113202
O O19 0.500000 0.092218 0.000000
#
# Coordination Sequence:
#
# PCOD8112647 Si02
#       8
#     8   8   8   8   8   8   8   8
#     4  11  22  37  62  93 119 161 201 251 307 377
#     4  11  21  37  62  92 122 157 203 261 309 352
#     4  12  18  37  63  86 121 161 197 239 313 366
#     4  10  23  40  64  92 123 164 203 254 308 372
#     4  11  23  37  62  89 122 159 202 249 311 366
#     4  12  23  39  64  94 131 161 199 256 312 371
#     4  11  23  41  60  80 117 164 204 248 303 363
#     4  11  21  36  61  88 121 154 201 258 302 360
#
# _framework density 19.947662999999999
#
# number of rings (size 3 to 8) (size 9 to 14) (size 15 to 20)
#    0.000    0.875    6.250    2.250    1.750    3.250 
#    2.250    2.500    0.000    0.375    0.000    0.000 
#    0.000    0.000    0.000    0.000    0.000    0.000 
#
# Total GULP energy -396713.221880 kJ/mol
# GULP energy per Si atom -12397.288184 kJ/mol
# Density = 1.990226 g / cm^3
# Si number density = 19.947663 Si / 1000 Ang^3
#
#
#
# Elastic Constant Matrix: (Units=GPa)
#
#
# Indices 1 2 3 4 5 6 
#
# 1 165.0084 43.9820 40.6901 0.0000 -15.1707 0.0000
# 2 43.9820 99.3978 24.0143 0.0000 0.1700 0.0000
# 3 40.6901 24.0143 72.2585 0.0000 -9.1383 0.0000
# 4 0.0000 0.0000 0.0000 18.8223 0.0000 -7.2117
# 5 -15.1707 0.1700 -9.1383 0.0000 28.8311 0.0000
# 6 0.0000 0.0000 0.0000 -7.2117 0.0000 18.5876
#
#
#
# Elastic Compliance Matrix: (Units=1/GPa)
#
#
# Indices 1 2 3 4 5 6 
#
# 1 0.007844 -0.002724 -0.003113 0.000000 0.003157 0.000000
# 2 -0.002724 0.011930 -0.002730 0.000000 -0.002369 0.000000
# 3 -0.003113 -0.002730 0.016975 0.000000 0.003759 0.000000
# 4 0.000000 0.000000 0.000000 0.062405 0.000000 0.024212
# 5 0.003157 -0.002369 0.003759 0.000000 0.037551 0.000000
# 6 0.000000 0.000000 0.000000 0.024212 0.000000 0.063193
#
#
# Mechanical properties :
#
#
# Convention : Reuss Voigt Hill
#
# Bulk Modulus (GPa) = 50.98310 61.55972 56.27141
# Shear Modulus (GPa) = 22.36426 28.44675 25.40551
#
# Velocity S-wave (km/s) = 3.35199 3.78043 3.57264
# Velocity P-wave (km/s) = 6.37142 7.06988 6.72972
#
# Compressibility (1/GPa) = 0.01961434
#
# Stress axis : x y z
#
# Youngs Moduli (GPa) = 127.48169 83.82408 58.91142
#
# Poissons Ratio (x) = 0.22837 0.18337
# Poissons Ratio (y) = 0.34731 0.16084
# Poissons Ratio (z) = 0.39680 0.22886
#
# Static dielectric constant tensor:
#      x y z
#    x 3.943200 0.000000 -0.186840 
#    y 0.000000 3.556650 0.000000 
#    z -0.186840 0.000000 3.450970 
# 
# 
# High freq. dielectric constant tensor:
#      x y z
#    x 1.800000 0.000000 -0.017740 
#    y 0.000000 1.770210 0.000000 
#    z -0.017740 0.000000 1.741690 
# 
# From -- ./inp_files/218507.got.cif
#   From: 2010.06.25/outbox.cif.g09.slc.cpg/sg12_110_cif.got.tgz:218507.got - 2010.06.28 00:19:55.
