data_PCOD8112401
_publ_section_title
;
Structure prediction by ZEFSAII (Michael W. Deem and Ramdas Pophale) SiO2 
 PCOD8112401
Probable space group: C 2/M
;
_chemical_formula_sum "Si O2"
_cell_formula_units_Z 56
_cell_length_a 10.016845
_cell_length_b 14.313007
_cell_length_c 22.547046
_cell_angle_alpha 90.000000
_cell_angle_beta 117.361797
_cell_angle_gamma 90.000000
_cell_volume 2870.940112
_symmetry_space_group_name_H-M "C 2/M"
_symmetry_group_IT_number 12
_symmetry_cell_setting 'monoclinic'
loop_
_space_group_symop_operation_xyz
x,y,z
-x,y,-z
-x,-y,-z
x,-y,z
1/2+x,1/2+y,z
1/2-x,1/2+y,-z
1/2-x,1/2-y,-z
1/2+x,1/2-y,z
loop_
_atom_site_type_symbol
_atom_site_label
_atom_site_fract_x
_atom_site_fract_y
_atom_site_fract_z
Si Si1 0.457075 0.611277 0.555341
Si Si2 0.614225 0.392626 0.705581
Si Si3 0.841677 0.388415 0.446671
Si Si4 0.714675 0.739779 0.195977
Si Si5 0.298240 0.392802 0.700867
Si Si6 0.663830 0.890550 0.005396
Si Si7 0.870481 0.744855 0.107006
O O1 0.500000 0.653899 0.500000
O O2 0.455932 0.500000 0.553067
O O3 0.575400 0.641640 0.630668
O O4 0.290238 0.647862 0.536970
O O5 0.664622 0.500000 0.715485
O O6 0.751756 0.335458 0.761677
O O7 0.470671 0.376813 0.718160
O O8 0.844225 0.500000 0.448431
O O9 0.809239 0.353846 0.373283
O O10 0.000000 0.345431 0.500000
O O11 0.742019 0.655942 0.246426
O O12 0.829238 0.721122 0.165908
O O13 0.547459 0.740234 0.136328
O O14 0.263415 0.500000 0.704485
O O15 0.676041 0.842418 0.943591
O O16 0.703320 0.000000 0.007744
O O17 0.500000 0.875517 0.000000
O O18 0.786488 0.840972 0.072297
#
# Coordination Sequence:
#
# PCOD8112401 Si02
#       7
#     8   8   8   8   8   8   8
#     4   8  14  28  50  75 103 140 192 246 288 333
#     4   9  19  36  58  81 111 158 202 233 286 358
#     4   8  14  28  50  74 103 143 190 240 294 342
#     4  12  22  39  60  87 125 154 189 237 285 337
#     4   9  19  36  57  81 113 156 199 237 289 353
#     4  10  22  43  69  93 119 153 192 229 274 337
#     4  11  24  40  63  94 121 152 188 235 282 331
#
# _framework density 19.505806
#
# number of rings (size 3 to 8) (size 9 to 14) (size 15 to 20)
#    0.000    2.429    2.857    1.714    0.000    2.286 
#    2.571    1.429    0.000    3.429    0.000    0.000 
#    0.000    0.000    0.000    0.000    0.000    0.000 
#
# Total GULP energy -347168.032252 kJ/mol
# GULP energy per Si atom -12398.858295 kJ/mol
# Density = 1.946141 g / cm^3
# Si number density = 19.505806 Si / 1000 Ang^3
#
#
#
# Elastic Constant Matrix: (Units=GPa)
#
#
# Indices 1 2 3 4 5 6 
#
# 1 67.2546 32.7574 46.1721 0.0000 -7.0460 0.0000
# 2 32.7574 85.8540 44.8283 0.0000 -2.4755 0.0000
# 3 46.1721 44.8283 114.7658 0.0000 -4.7727 0.0000
# 4 0.0000 0.0000 0.0000 51.0877 0.0000 -3.1801
# 5 -7.0460 -2.4755 -4.7727 0.0000 48.3254 0.0000
# 6 0.0000 0.0000 0.0000 -3.1801 0.0000 20.6629
#
#
#
# Elastic Compliance Matrix: (Units=1/GPa)
#
#
# Indices 1 2 3 4 5 6 
#
# 1 0.022228 -0.004768 -0.006984 0.000000 0.002307 0.000000
# 2 -0.004768 0.015656 -0.004210 0.000000 -0.000309 0.000000
# 3 -0.006984 -0.004210 0.013171 0.000000 0.000067 0.000000
# 4 0.000000 0.000000 0.000000 0.019764 0.000000 0.003042
# 5 0.002307 -0.000309 0.000067 0.000000 0.021020 0.000000
# 6 0.000000 0.000000 0.000000 0.003042 0.000000 0.048864
#
#
# Mechanical properties :
#
#
# Convention : Reuss Voigt Hill
#
# Bulk Modulus (GPa) = 52.27330 57.26553 54.76942
# Shear Modulus (GPa) = 27.93249 33.62298 30.77774
#
# Velocity S-wave (km/s) = 3.78830 4.15630 3.97656
# Velocity P-wave (km/s) = 6.78173 7.24259 7.01595
#
# Compressibility (1/GPa) = 0.01913022
#
# Stress axis : x y z
#
# Youngs Moduli (GPa) = 44.98913 63.87266 75.92660
#
# Poissons Ratio (x) = 0.30451 0.53030
# Poissons Ratio (y) = 0.21449 0.31967
# Poissons Ratio (z) = 0.31422 0.26892
#
# Static dielectric constant tensor:
#      x y z
#    x 3.576140 0.000000 -0.043590 
#    y 0.000000 3.314780 0.000000 
#    z -0.043590 0.000000 3.759620 
# 
# 
# High freq. dielectric constant tensor:
#      x y z
#    x 1.750450 0.000000 -0.004180 
#    y 0.000000 1.744880 0.000000 
#    z -0.004180 0.000000 1.771700 
# 
# From -- ./inp_files/332850.got.cif
#   From: 2010.06.25/outbox.cif.g09.slc.cpg/sg12_167_cif.got.tgz:332850.got - 2010.06.28 00:19:55.
