data_PCOD8112551
_publ_section_title
;
Structure prediction by ZEFSAII (Michael W. Deem and Ramdas Pophale) SiO2 
 PCOD8112551
Probable space group: C 2/M
;
_chemical_formula_sum "Si O2"
_cell_formula_units_Z 48
_cell_length_a 12.535792
_cell_length_b 13.343199
_cell_length_c 13.898074
_cell_angle_alpha 90.000000
_cell_angle_beta 105.920671
_cell_angle_gamma 90.000000
_cell_volume 2235.527250
_symmetry_space_group_name_H-M "C 2/M"
_symmetry_group_IT_number 12
_symmetry_cell_setting 'monoclinic'
loop_
_space_group_symop_operation_xyz
x,y,z
-x,y,-z
-x,-y,-z
x,-y,z
1/2+x,1/2+y,z
1/2-x,1/2+y,-z
1/2-x,1/2-y,-z
1/2+x,1/2-y,z
loop_
_atom_site_type_symbol
_atom_site_label
_atom_site_fract_x
_atom_site_fract_y
_atom_site_fract_z
Si Si1 0.953091 0.884188 0.344088
Si Si2 0.826715 0.883129 0.500217
Si Si3 0.809372 0.738022 0.231321
Si Si4 0.872177 0.614995 0.855337
Si Si5 0.127889 0.613390 0.922189
Si Si6 0.620963 0.119638 0.565485
O O1 0.876540 0.837869 0.413663
O O2 0.911568 0.817776 0.244703
O O3 0.082619 0.866654 0.393507
O O4 0.927480 0.000000 0.319870
O O5 0.708432 0.838958 0.506397
O O6 0.813360 0.000000 0.476642
O O7 0.699021 0.804962 0.224110
O O8 0.795794 0.681922 0.126608
O O9 0.840045 0.658116 0.321135
O O10 0.836264 0.500000 0.823107
O O11 0.000116 0.629122 0.860440
O O12 0.852089 0.639912 0.962206
O O13 0.163666 0.500000 0.911914
O O14 0.500000 0.156908 0.500000
O O15 0.624942 0.000000 0.572247
#
# Coordination Sequence:
#
# PCOD8112551 Si02
#       6
#     8   8   8   8   8   8
#     4   9  19  34  54  80 108 147 190 237 286 327
#     4   8  17  37  55  68 105 153 192 229 275 332
#     4  12  22  31  60  91 114 141 195 243 283 337
#     4   9  20  40  62  84 114 152 190 235 290 351
#     4   9  20  40  61  83 117 154 188 232 291 354
#     4  10  23  39  53  78 118 160 193 231 284 341
#
# _framework density 21.471444000000002
#
# number of rings (size 3 to 8) (size 9 to 14) (size 15 to 20)
#    0.000    2.500    0.000    3.500    4.667    2.000 
#    0.000    3.333    0.000    0.000    0.000    7.000 
#    0.000    0.000    0.000    0.000    0.000    0.000 
#
# Total GULP energy -297444.349641 kJ/mol
# GULP energy per Si atom -12393.514568 kJ/mol
# Density = 2.142257 g / cm^3
# Si number density = 21.471444 Si / 1000 Ang^3
#
#
#
# Elastic Constant Matrix: (Units=GPa)
#
#
# Indices 1 2 3 4 5 6 
#
# 1 101.9071 27.2786 12.6013 0.0000 5.0517 0.0000
# 2 27.2786 58.6452 23.4221 0.0000 2.1354 0.0000
# 3 12.6013 23.4221 45.0808 0.0000 7.6771 0.0000
# 4 0.0000 0.0000 0.0000 34.0885 0.0000 6.8310
# 5 5.0517 2.1354 7.6771 0.0000 27.7490 0.0000
# 6 0.0000 0.0000 0.0000 6.8310 0.0000 23.0205
#
#
#
# Elastic Compliance Matrix: (Units=1/GPa)
#
#
# Indices 1 2 3 4 5 6 
#
# 1 0.011286 -0.005098 -0.000234 0.000000 -0.001598 0.000000
# 2 -0.005098 0.023880 -0.011362 0.000000 0.002234 0.000000
# 3 -0.000234 -0.011362 0.029379 0.000000 -0.007211 0.000000
# 4 0.000000 0.000000 0.000000 0.031190 0.000000 -0.009255
# 5 -0.001598 0.002234 -0.007211 0.000000 0.038151 0.000000
# 6 0.000000 0.000000 0.000000 -0.009255 0.000000 0.046186
#
#
# Mechanical properties :
#
#
# Convention : Reuss Voigt Hill
#
# Bulk Modulus (GPa) = 32.09634 36.91525 34.50580
# Shear Modulus (GPa) = 22.33687 26.46034 24.39861
#
# Velocity S-wave (km/s) = 3.22888 3.51429 3.37460
# Velocity P-wave (km/s) = 5.37417 5.80492 5.59369
#
# Compressibility (1/GPa) = 0.03115620
#
# Stress axis : x y z
#
# Youngs Moduli (GPa) = 88.60869 41.87686 34.03765
#
# Poissons Ratio (x) = 0.21348 0.00796
# Poissons Ratio (y) = 0.45171 0.38675
# Poissons Ratio (z) = 0.02073 0.47582
#
# Static dielectric constant tensor:
#      x y z
#    x 3.942440 0.000000 0.033950 
#    y 0.000000 3.980280 0.000000 
#    z 0.033950 0.000000 3.645970 
# 
# 
# High freq. dielectric constant tensor:
#      x y z
#    x 1.830030 0.000000 0.014130 
#    y 0.000000 1.864410 0.000000 
#    z 0.014130 0.000000 1.819590 
# 
# From -- ./inp_files/204501.got.cif
#   From: 2010.06.25/outbox.cif.g09.slc.cpg/sg12_103_cif.got.tgz:204501.got - 2010.06.28 00:19:55.
