data_PCOD8112948
_publ_section_title
;
Structure prediction by ZEFSAII (Michael W. Deem and Ramdas Pophale) SiO2 
 PCOD8112948
Probable space group: C 2/M
;
_chemical_formula_sum "Si O2"
_cell_formula_units_Z 64
_cell_length_a 14.539628
_cell_length_b 18.611025
_cell_length_c 14.161190
_cell_angle_alpha 90.000000
_cell_angle_beta 52.643394
_cell_angle_gamma 90.000000
_cell_volume 3045.943529
_symmetry_space_group_name_H-M "C 2/M"
_symmetry_group_IT_number 12
_symmetry_cell_setting 'monoclinic'
loop_
_space_group_symop_operation_xyz
x,y,z
-x,y,-z
-x,-y,-z
x,-y,z
1/2+x,1/2+y,z
1/2-x,1/2+y,-z
1/2-x,1/2-y,-z
1/2+x,1/2-y,z
loop_
_atom_site_type_symbol
_atom_site_label
_atom_site_fract_x
_atom_site_fract_y
_atom_site_fract_z
Si Si1 0.971579 0.329664 0.794302
Si Si2 0.886334 0.887757 0.127061
Si Si3 0.413590 0.184295 0.470539
Si Si4 0.840323 0.186990 0.837570
Si Si5 0.390946 0.219112 0.127280
Si Si6 0.298048 0.579953 0.381782
Si Si7 0.954571 0.846581 0.427346
Si Si8 0.239337 0.418755 0.047265
O O1 0.880785 0.262811 0.856202
O O2 0.895553 0.396796 0.877210
O O3 0.021716 0.346132 0.660860
O O4 0.086907 0.316232 0.784289
O O5 0.887906 0.803466 0.140858
O O6 0.877276 0.920456 0.237836
O O7 0.775901 0.911613 0.134167
O O8 0.000000 0.915469 0.000000
O O9 0.500000 0.168683 0.500000
O O10 0.297957 0.141444 0.566918
O O11 0.388572 0.269765 0.478127
O O12 0.724578 0.191327 0.848543
O O13 0.936352 0.159230 0.707826
O O14 0.824369 0.131581 0.933112
O O15 0.500000 0.192831 0.000000
O O16 0.244880 0.500000 0.426805
O O17 0.370411 0.595901 0.431668
O O18 0.000000 0.874754 0.500000
O O19 0.251233 0.500000 0.003307
#
# Coordination Sequence:
#
# PCOD8112948 Si02
#       8
#     8   8   8   8   8   8   8   8
#     4  11  22  41  65  94 127 167 219 266 316 381
#     4  11  23  39  64  96 125 166 212 262 322 383
#     4  10  23  42  68  96 125 167 217 276 318 371
#     4  11  22  42  65  98 128 165 220 271 320 368
#     4  11  21  37  69  97 125 163 215 272 315 369
#     4  12  26  43  64  95 137 172 210 265 326 390
#     4  10  24  42  68  95 123 170 222 273 312 374
#     4  12  24  39  62  93 135 171 203 258 325 394
#
# _framework density 21.011551999999998
#
# number of rings (size 3 to 8) (size 9 to 14) (size 15 to 20)
#    0.000    1.000    2.500    5.625    5.250    3.500 
#    0.000    1.250    0.000    0.000    0.000    0.000 
#    0.000    0.000    0.000    0.000    0.000    0.000 
#
# Total GULP energy -396851.677830 kJ/mol
# GULP energy per Si atom -12401.614932 kJ/mol
# Density = 2.096373 g / cm^3
# Si number density = 21.011552 Si / 1000 Ang^3
#
#
#
# Elastic Constant Matrix: (Units=GPa)
#
#
# Indices 1 2 3 4 5 6 
#
# 1 125.2419 38.2049 21.8424 0.0000 13.2548 0.0000
# 2 38.2049 70.8478 46.9178 0.0000 6.3590 0.0000
# 3 21.8424 46.9178 91.2707 0.0000 13.9396 0.0000
# 4 0.0000 0.0000 0.0000 0.5713 0.0000 -5.4864
# 5 13.2548 6.3590 13.9396 0.0000 35.9206 0.0000
# 6 0.0000 0.0000 0.0000 -5.4864 0.0000 14.3935
#
#
#
# Elastic Compliance Matrix: (Units=1/GPa)
#
#
# Indices 1 2 3 4 5 6 
#
# 1 0.009877 -0.005754 0.001058 0.000000 -0.003036 0.000000
# 2 -0.005754 0.024761 -0.011700 0.000000 0.002280 0.000000
# 3 0.001058 -0.011700 0.017498 0.000000 -0.005110 0.000000
# 4 0.000000 0.000000 0.000000 -0.657893 0.000000 -0.250773
# 5 -0.003036 0.002280 -0.005110 0.000000 0.030539 0.000000
# 6 0.000000 0.000000 0.000000 -0.250773 0.000000 -0.026112
#
#
# Mechanical properties :
#
#
# Convention : Reuss Voigt Hill
#
# Bulk Modulus (GPa) = 51.69561 55.69897 53.69729
# Shear Modulus (GPa) = -8.89534 22.20343 6.65405
#
# Velocity S-wave (km/s) = -2.05979 3.25426 1.78150
# Velocity P-wave (km/s) = 4.35888 6.37860 5.46289
#
# Compressibility (1/GPa) = 0.01934400
#
# Stress axis : x y z
#
# Youngs Moduli (GPa) = 101.24847 40.38623 57.15016
#
# Poissons Ratio (x) = 0.23239 -0.06047
# Poissons Ratio (y) = 0.58260 0.66863
# Poissons Ratio (z) = -0.10713 0.47250
#
# Static dielectric constant tensor:
#      x y z
#    x 3.371110 0.000000 0.068170 
#    y 0.000000 3.654460 0.000000 
#    z 0.068170 0.000000 3.816440 
# 
# 
# High freq. dielectric constant tensor:
#      x y z
#    x 1.834090 0.000000 0.008590 
#    y 0.000000 1.798510 0.000000 
#    z 0.008590 0.000000 1.829420 
# 
# From -- ./inp_files/216777.got.cif
#   From: 2010.06.25/outbox.cif.g09.slc.cpg/sg12_109_cif.got.tgz:216777.got - 2010.06.28 00:19:55.
