data_PCOD8112005
_publ_section_title
;
Structure prediction by ZEFSAII (Michael W. Deem and Ramdas Pophale) SiO2 
 PCOD8112005
Probable space group: C 2/M
;
_chemical_formula_sum "Si O2"
_cell_formula_units_Z 48
_cell_length_a 7.993042
_cell_length_b 16.908030
_cell_length_c 19.132784
_cell_angle_alpha 90.000000
_cell_angle_beta 61.575705
_cell_angle_gamma 90.000000
_cell_volume 2274.012534
_symmetry_space_group_name_H-M "C 2/M"
_symmetry_group_IT_number 12
_symmetry_cell_setting 'monoclinic'
loop_
_space_group_symop_operation_xyz
x,y,z
-x,y,-z
-x,-y,-z
x,-y,z
1/2+x,1/2+y,z
1/2-x,1/2+y,-z
1/2-x,1/2-y,-z
1/2+x,1/2-y,z
loop_
_atom_site_type_symbol
_atom_site_label
_atom_site_fract_x
_atom_site_fract_y
_atom_site_fract_z
Si Si1 0.381290 0.092372 0.091338
Si Si2 0.542428 0.642934 0.813397
Si Si3 0.490780 0.411640 0.324934
Si Si4 0.897466 0.408892 0.811120
Si Si5 0.707727 0.803673 0.443593
Si Si6 0.821760 0.294127 0.285796
O O1 0.511705 0.114606 0.132084
O O2 0.181827 0.138969 0.125809
O O3 0.329995 0.000000 0.102879
O O4 0.500000 0.116518 0.000000
O O5 0.597929 0.588641 0.735034
O O6 0.670994 0.609575 0.852142
O O7 0.603653 0.733080 0.786877
O O8 0.556510 0.500000 0.332986
O O9 0.342596 0.380357 0.412257
O O10 0.662561 0.349909 0.283357
O O11 0.938012 0.500000 0.786299
O O12 0.002182 0.353445 0.731538
O O13 0.500000 0.837845 0.500000
O O14 0.750000 0.750000 0.500000
O O15 0.733604 0.749082 0.370216
#
# Coordination Sequence:
#
# PCOD8112005 Si02
#       6
#     8   8   8   8   8   8
#     4  10  22  41  65  94 131 169 207 263 324 375
#     4  11  22  40  65  94 125 164 212 262 311 377
#     4  11  22  40  66  92 123 166 212 264 317 374
#     4  11  23  39  65  95 122 163 217 262 311 377
#     4  11  23  41  60  88 125 167 210 255 323 383
#     4  11  23  41  67  89 124 167 210 259 317 382
#
# _framework density 21.108063999999999
#
# number of rings (size 3 to 8) (size 9 to 14) (size 15 to 20)
#    0.000    1.167    3.333    4.000    2.333    1.000 
#    0.000    5.833    0.000    0.000    0.000    0.000 
#    0.000    0.000    0.000    0.000    0.000    0.000 
#
# Total GULP energy -297463.730776 kJ/mol
# GULP energy per Si atom -12394.322116 kJ/mol
# Density = 2.106002 g / cm^3
# Si number density = 21.108064 Si / 1000 Ang^3
#
#
#
# Elastic Constant Matrix: (Units=GPa)
#
#
# Indices 1 2 3 4 5 6 
#
# 1 153.2400 51.0113 57.1852 0.0000 -19.1612 0.0000
# 2 51.0113 145.1173 54.3264 0.0000 -14.6221 0.0000
# 3 57.1852 54.3264 113.2942 0.0000 -21.1085 0.0000
# 4 0.0000 0.0000 0.0000 22.6666 0.0000 -10.7480
# 5 -19.1612 -14.6221 -21.1085 0.0000 29.4609 0.0000
# 6 0.0000 0.0000 0.0000 -10.7480 0.0000 28.2182
#
#
#
# Elastic Compliance Matrix: (Units=1/GPa)
#
#
# Indices 1 2 3 4 5 6 
#
# 1 0.008517 -0.001591 -0.003060 0.000000 0.002558 0.000000
# 2 -0.001591 0.008752 -0.003205 0.000000 0.001013 0.000000
# 3 -0.003060 -0.003205 0.012972 0.000000 0.005714 0.000000
# 4 0.000000 0.000000 0.000000 0.053842 0.000000 0.020508
# 5 0.002558 0.001013 0.005714 0.000000 0.040203 0.000000
# 6 0.000000 0.000000 0.000000 0.020508 0.000000 0.043249
#
#
# Mechanical properties :
#
#
# Convention : Reuss Voigt Hill
#
# Bulk Modulus (GPa) = 68.82104 81.85527 75.33815
# Shear Modulus (GPa) = 26.58299 32.67773 29.63036
#
# Velocity S-wave (km/s) = 3.55262 3.93888 3.75072
# Velocity P-wave (km/s) = 7.03584 7.71684 7.38420
#
# Compressibility (1/GPa) = 0.01453044
#
# Stress axis : x y z
#
# Youngs Moduli (GPa) = 117.41529 114.25860 77.08680
#
# Poissons Ratio (x) = 0.18175 0.23585
# Poissons Ratio (y) = 0.18677 0.24707
# Poissons Ratio (z) = 0.35924 0.36622
#
# Static dielectric constant tensor:
#      x y z
#    x 4.063570 0.000000 -0.055720 
#    y 0.000000 3.868920 0.000000 
#    z -0.055720 0.000000 3.680470 
# 
# 
# High freq. dielectric constant tensor:
#      x y z
#    x 1.838540 0.000000 -0.013320 
#    y 0.000000 1.831210 0.000000 
#    z -0.013320 0.000000 1.807400 
# 
# From -- ./inp_files/300398.got.cif
#   From: 2010.06.25/outbox.cif.g09.slc.cpg/sg12_151_cif.got.tgz:300398.got - 2010.06.28 00:19:55.
