data_PCOD8112160
_publ_section_title
;
Structure prediction by ZEFSAII (Michael W. Deem and Ramdas Pophale) SiO2 
 PCOD8112160
Probable space group: C 2/M
;
_chemical_formula_sum "Si O2"
_cell_formula_units_Z 56
_cell_length_a 29.038055
_cell_length_b 8.687991
_cell_length_c 12.567966
_cell_angle_alpha 90.000000
_cell_angle_beta 59.913192
_cell_angle_gamma 90.000000
_cell_volume 2743.481002
_symmetry_space_group_name_H-M "C 2/M"
_symmetry_group_IT_number 12
_symmetry_cell_setting 'monoclinic'
loop_
_space_group_symop_operation_xyz
x,y,z
-x,y,-z
-x,-y,-z
x,-y,z
1/2+x,1/2+y,z
1/2-x,1/2+y,-z
1/2-x,1/2-y,-z
1/2+x,1/2-y,z
loop_
_atom_site_type_symbol
_atom_site_label
_atom_site_fract_x
_atom_site_fract_y
_atom_site_fract_z
Si Si1 0.192944 0.819744 0.588830
Si Si2 0.546388 0.326103 0.030158
Si Si3 0.104426 0.180818 0.523944
Si Si4 0.109767 0.321739 0.296973
Si Si5 0.695170 0.818722 0.026428
Si Si6 0.346622 0.179236 0.150189
Si Si7 0.506845 0.822416 0.287476
O O1 0.250000 0.750000 0.500000
O O2 0.149552 0.761002 0.553587
O O3 0.174398 0.777324 0.727748
O O4 0.198686 0.000000 0.572031
O O5 0.569008 0.500000 0.007810
O O6 0.591298 0.208120 0.940780
O O7 0.500000 0.311936 0.000000
O O8 0.523494 0.283621 0.170873
O O9 0.124042 0.218501 0.382369
O O10 0.051161 0.276205 0.605925
O O11 0.093235 0.000000 0.550102
O O12 0.120877 0.500000 0.311171
O O13 0.147251 0.262624 0.157663
O O14 0.048416 0.296994 0.335228
O O15 0.698602 0.000000 0.026540
O O16 0.750000 0.750000 0.000000
O O17 0.684529 0.763952 0.918557
O O18 0.337363 0.000000 0.184418
O O19 0.507020 0.000000 0.250962
#
# Coordination Sequence:
#
# PCOD8112160 Si02
#       7
#     8   8   8   8   8   8   8
#     4  11  26  46  66  92 126 165 211 262 313 369
#     4  11  23  38  60  92 129 166 207 257 308 366
#     4  11  25  42  62  93 129 164 208 262 313 369
#     4  10  22  42  64  92 128 166 208 255 308 373
#     4  10  23  42  64  94 128 162 207 259 311 370
#     4  11  23  43  67  94 127 163 208 258 310 372
#     4  11  22  40  64  92 126 166 209 255 310 374
#
# _framework density 20.412025
#
# number of rings (size 3 to 8) (size 9 to 14) (size 15 to 20)
#    0.000    1.286    1.429    3.429    2.000   11.429 
#    0.000    0.000    0.000    0.000    0.000    0.000 
#    0.000    0.000    0.000    0.000    0.000    0.000 
#
# Total GULP energy -347356.014813 kJ/mol
# GULP energy per Si atom -12405.571958 kJ/mol
# Density = 2.036557 g / cm^3
# Si number density = 20.412025 Si / 1000 Ang^3
#
#
#
# Elastic Constant Matrix: (Units=GPa)
#
#
# Indices 1 2 3 4 5 6 
#
# 1 152.7803 48.0588 66.4241 0.0000 3.8914 0.0000
# 2 48.0588 38.9053 21.5676 0.0000 4.7917 0.0000
# 3 66.4241 21.5676 110.0818 0.0000 23.3846 0.0000
# 4 0.0000 0.0000 0.0000 44.2928 0.0000 2.1848
# 5 3.8914 4.7917 23.3846 0.0000 27.4526 0.0000
# 6 0.0000 0.0000 0.0000 2.1848 0.0000 38.2738
#
#
#
# Elastic Compliance Matrix: (Units=1/GPa)
#
#
# Indices 1 2 3 4 5 6 
#
# 1 0.013803 -0.013987 -0.006949 0.000000 0.006404 0.000000
# 2 -0.013987 0.043011 0.001449 0.000000 -0.006759 0.000000
# 3 -0.006949 0.001449 0.015674 0.000000 -0.012619 0.000000
# 4 0.000000 0.000000 0.000000 0.022641 0.000000 -0.001292
# 5 0.006404 -0.006759 -0.012619 0.000000 0.047448 0.000000
# 6 0.000000 0.000000 0.000000 -0.001292 0.000000 0.026201
#
#
# Mechanical properties :
#
#
# Convention : Reuss Voigt Hill
#
# Bulk Modulus (GPa) = 29.83867 63.76315 46.80091
# Shear Modulus (GPa) = 22.83901 33.05165 27.94533
#
# Velocity S-wave (km/s) = 3.34862 4.02832 3.70410
# Velocity P-wave (km/s) = 5.44068 7.27615 6.42430
#
# Compressibility (1/GPa) = 0.03351356
#
# Stress axis : x y z
#
# Youngs Moduli (GPa) = 72.44631 23.24992 63.79996
#
# Poissons Ratio (x) = 0.32521 0.44334
# Poissons Ratio (y) = 1.01334 -0.09245
# Poissons Ratio (z) = 0.50343 -0.03369
#
# Static dielectric constant tensor:
#      x y z
#    x 3.919250 0.000000 0.307480 
#    y 0.000000 3.716720 0.000000 
#    z 0.307480 0.000000 4.372370 
# 
# 
# High freq. dielectric constant tensor:
#      x y z
#    x 1.809320 0.000000 0.004200 
#    y 0.000000 1.799050 0.000000 
#    z 0.004200 0.000000 1.810220 
# 
# From -- ./inp_files/187184.got.cif
#   From: 2010.06.25/outbox.cif.g09.slc.cpg/sg12_94_cif.got.tgz:187184.got - 2010.06.28 00:19:55.
