data_PCOD8112193
_publ_section_title
;
Structure prediction by ZEFSAII (Michael W. Deem and Ramdas Pophale) SiO2 
 PCOD8112193
Probable space group: C 2/M
;
_chemical_formula_sum "Si O2"
_cell_formula_units_Z 36
_cell_length_a 13.184312
_cell_length_b 24.796952
_cell_length_c 13.767105
_cell_angle_alpha 90.000000
_cell_angle_beta 159.118495
_cell_angle_gamma 90.000000
_cell_volume 1604.281118
_symmetry_space_group_name_H-M "C 2/M"
_symmetry_group_IT_number 12
_symmetry_cell_setting 'monoclinic'
loop_
_space_group_symop_operation_xyz
x,y,z
-x,y,-z
-x,-y,-z
x,-y,z
1/2+x,1/2+y,z
1/2-x,1/2+y,-z
1/2-x,1/2-y,-z
1/2+x,1/2-y,z
loop_
_atom_site_type_symbol
_atom_site_label
_atom_site_fract_x
_atom_site_fract_y
_atom_site_fract_z
Si Si1 0.500000 0.803323 0.000000
Si Si2 0.245664 0.280711 0.896027
Si Si3 0.205219 0.351098 0.592997
Si Si4 0.455784 0.905920 0.854580
Si Si5 0.057843 0.062283 0.331728
O O1 0.750666 0.764760 0.185177
O O2 0.388241 0.842253 0.812611
O O3 0.508733 0.321630 0.117325
O O4 0.250000 0.250000 0.000000
O O5 0.952472 0.313004 0.625721
O O6 0.266898 0.407513 0.595040
O O7 0.000000 0.363081 0.500000
O O8 0.196202 0.931082 0.562441
O O9 0.500000 0.934926 0.000000
O O10 0.743359 0.912665 0.050378
O O11 0.045055 0.000000 0.291435
#
# Coordination Sequence:
#
# PCOD8112193 Si02
#       5
#     4   8   8   8   8
#     4  10  22  42  65  98 129 168 206 264 328 392
#     4  12  24  42  68  93 134 175 213 267 330 384
#     4  12  25  44  65  98 130 172 227 270 315 397
#     4  10  25  42  68  98 137 164 222 266 330 405
#     4  12  25  45  68  95 132 177 221 278 330 376
#
# _framework density 22.439958000000001
#
# number of rings (size 3 to 8) (size 9 to 14) (size 15 to 20)
#    0.667    0.000    2.222    6.000    0.000    6.667 
#    0.000    0.000    0.000    5.333    0.000    0.000 
#    0.000    0.000    0.000    0.000    0.000    0.000 
#
# Total GULP energy -223189.472754 kJ/mol
# GULP energy per Si atom -12399.415153 kJ/mol
# Density = 2.238888 g / cm^3
# Si number density = 22.439958 Si / 1000 Ang^3
#
#
#
# Elastic Constant Matrix: (Units=GPa)
#
#
# Indices 1 2 3 4 5 6 
#
# 1 99.8233 61.6355 -0.9150 0.0032 1.8612 0.0007
# 2 61.6355 153.3056 33.0601 0.0209 4.4718 0.0005
# 3 -0.9150 33.0601 84.9791 0.0727 1.4246 -0.0035
# 4 0.0032 0.0209 0.0727 8.0180 0.0114 1.8050
# 5 1.8612 4.4718 1.4246 0.0114 29.7616 -0.0023
# 6 0.0007 0.0005 -0.0035 1.8050 -0.0023 41.4060
#
#
#
# Elastic Compliance Matrix: (Units=1/GPa)
#
#
# Indices 1 2 3 4 5 6 
#
# 1 0.013803 -0.006091 0.002519 -0.000013 -0.000069 0.000001
# 2 -0.006091 0.009834 -0.003876 0.000013 -0.000911 -0.000001
# 3 0.002519 -0.003876 0.013306 -0.000113 -0.000212 0.000006
# 4 -0.000013 0.000013 -0.000113 0.125957 -0.000045 -0.005491
# 5 -0.000069 -0.000911 -0.000212 -0.000045 0.033752 0.000004
# 6 0.000001 -0.000001 0.000006 -0.005491 0.000004 0.024390
#
#
# Mechanical properties :
#
#
# Convention : Reuss Voigt Hill
#
# Bulk Modulus (GPa) = 45.35529 58.40771 51.88150
# Shear Modulus (GPa) = 20.55192 32.12561 26.33877
#
# Velocity S-wave (km/s) = 3.02961 3.78779 3.42971
# Velocity P-wave (km/s) = 5.70033 6.72419 6.23332
#
# Compressibility (1/GPa) = 0.02204815
#
# Stress axis : x y z
#
# Youngs Moduli (GPa) = 72.44990 101.68773 75.15218
#
# Poissons Ratio (x) = 0.61933 -0.18932
# Poissons Ratio (y) = 0.44126 0.29130
# Poissons Ratio (z) = -0.18252 0.39415
#
# Static dielectric constant tensor:
#      x y z
#    x 4.385220 0.000010 0.226210 
#    y 0.000010 3.983310 0.000030 
#    z 0.226210 0.000030 4.143690 
# 
# 
# High freq. dielectric constant tensor:
#      x y z
#    x 1.891210 0.000000 0.004990 
#    y 0.000000 1.879120 0.000000 
#    z 0.004990 0.000000 1.875870 
# 
# From -- ./inp_files/218617.got.cif
#   From: 2010.06.25/outbox.cif.g09.slc.cpg/sg12_110_cif.got.tgz:218617.got - 2010.06.28 00:19:55.
