data_PCOD8112294
_publ_section_title
;
Structure prediction by ZEFSAII (Michael W. Deem and Ramdas Pophale) SiO2 
 PCOD8112294
Probable space group: C 2/M
;
_chemical_formula_sum "Si O2"
_cell_formula_units_Z 56
_cell_length_a 20.248225
_cell_length_b 30.136044
_cell_length_c 8.847308
_cell_angle_alpha 90.000000
_cell_angle_beta 150.599128
_cell_angle_gamma 90.000000
_cell_volume 2650.284086
_symmetry_space_group_name_H-M "C 2/M"
_symmetry_group_IT_number 12
_symmetry_cell_setting 'monoclinic'
loop_
_space_group_symop_operation_xyz
x,y,z
-x,y,-z
-x,-y,-z
x,-y,z
1/2+x,1/2+y,z
1/2-x,1/2+y,-z
1/2-x,1/2-y,-z
1/2+x,1/2-y,z
loop_
_atom_site_type_symbol
_atom_site_label
_atom_site_fract_x
_atom_site_fract_y
_atom_site_fract_z
Si Si1 0.027775 0.890901 0.383184
Si Si2 0.862120 0.952258 0.641070
Si Si3 0.637184 0.781515 0.707925
Si Si4 0.157926 0.549605 0.798474
Si Si5 0.250587 0.901830 0.312423
Si Si6 0.463856 0.174198 0.763338
Si Si7 0.705115 0.140936 0.043531
O O1 0.105143 0.930615 0.454088
O O2 0.137046 0.849968 0.597570
O O3 0.000000 0.905874 0.500000
O O4 0.888870 0.878311 0.021687
O O5 0.765160 0.923408 0.553922
O O6 0.792752 0.000000 0.472469
O O7 0.000000 0.959847 0.000000
O O8 0.500000 0.762271 0.500000
O O9 0.612109 0.785549 0.477617
O O10 0.750000 0.750000 0.000000
O O11 0.667577 0.832373 0.816791
O O12 0.216562 0.500000 0.952106
O O13 0.204052 0.561876 0.720307
O O14 0.000000 0.547346 0.500000
O O15 0.202081 0.588198 0.002929
O O16 0.365481 0.866900 0.572884
O O17 0.500000 0.192808 0.000000
O O18 0.604143 0.158028 0.969695
#
# Coordination Sequence:
#
# PCOD8112294 Si02
#       7
#     8   8   8   8   8   8   8
#     4  11  21  34  58  85 116 163 218 271 321 377
#     4   9  20  35  49  74 117 162 210 263 321 369
#     4  10  22  42  69  96 127 165 206 260 326 391
#     4  11  20  34  60  88 124 171 224 270 318 384
#     4  11  20  38  58  86 120 168 217 266 320 374
#     4  11  22  40  68  92 130 172 209 260 331 391
#     4  11  21  42  59  94 130 165 208 266 328 388
#
# _framework density 21.129809999999999
#
# number of rings (size 3 to 8) (size 9 to 14) (size 15 to 20)
#    0.000    1.429    4.286    1.714    0.000    3.143 
#    0.000    2.857    0.000    4.714    0.000    0.000 
#    0.000    0.000    0.000    0.000    0.000    0.000 
#
# Total GULP energy -346874.371677 kJ/mol
# GULP energy per Si atom -12388.370417 kJ/mol
# Density = 2.108172 g / cm^3
# Si number density = 21.129810 Si / 1000 Ang^3
#
#
#
# Elastic Constant Matrix: (Units=GPa)
#
#
# Indices 1 2 3 4 5 6 
#
# 1 139.0712 33.5924 59.9060 0.0000 -7.1093 0.0000
# 2 33.5924 69.1385 44.8485 0.0000 -3.9781 0.0000
# 3 59.9060 44.8485 127.4309 0.0000 0.8346 0.0000
# 4 0.0000 0.0000 0.0000 49.2671 0.0000 7.0072
# 5 -7.1093 -3.9781 0.8346 0.0000 41.2926 0.0000
# 6 0.0000 0.0000 0.0000 7.0072 0.0000 12.7879
#
#
#
# Elastic Compliance Matrix: (Units=1/GPa)
#
#
# Indices 1 2 3 4 5 6 
#
# 1 0.009351 -0.002073 -0.003676 0.000000 0.001484 0.000000
# 2 -0.002073 0.019359 -0.005849 0.000000 0.001626 0.000000
# 3 -0.003676 -0.005849 0.011643 0.000000 -0.001432 0.000000
# 4 0.000000 0.000000 0.000000 0.022013 0.000000 -0.012062
# 5 0.001484 0.001626 -0.001432 0.000000 0.024659 0.000000
# 6 0.000000 0.000000 0.000000 -0.012062 0.000000 0.084808
#
#
# Mechanical properties :
#
#
# Convention : Reuss Voigt Hill
#
# Bulk Modulus (GPa) = 58.28802 68.03715 63.16259
# Shear Modulus (GPa) = 24.90680 33.82244 29.36462
#
# Velocity S-wave (km/s) = 3.43702 4.00521 3.73195
# Velocity P-wave (km/s) = 6.58759 7.32519 6.96616
#
# Compressibility (1/GPa) = 0.01715618
#
# Stress axis : x y z
#
# Youngs Moduli (GPa) = 106.94443 51.65577 85.88581
#
# Poissons Ratio (x) = 0.10710 0.31570
# Poissons Ratio (y) = 0.22174 0.50236
# Poissons Ratio (z) = 0.39311 0.30214
#
# Static dielectric constant tensor:
#      x y z
#    x 4.283050 0.000000 -0.282790 
#    y 0.000000 3.671560 0.000000 
#    z -0.282790 0.000000 5.843520 
# 
# 
# High freq. dielectric constant tensor:
#      x y z
#    x 1.837470 0.000000 0.007640 
#    y 0.000000 1.794070 0.000000 
#    z 0.007640 0.000000 1.840180 
# 
# From -- ./inp_files/91650.got.cif
#   From: 2010.06.25/outbox.cif.g09.slc.cpg/sg12_46_cif.got.tgz:91650.got - 2010.06.28 00:19:55.
