data_PCOD8112400
_publ_section_title
;
Structure prediction by ZEFSAII (Michael W. Deem and Ramdas Pophale) SiO2 
 PCOD8112400
Probable space group: C 2/M
;
_chemical_formula_sum "Si O2"
_cell_formula_units_Z 36
_cell_length_a 14.513554
_cell_length_b 16.491638
_cell_length_c 9.336345
_cell_angle_alpha 90.000000
_cell_angle_beta 127.722265
_cell_angle_gamma 90.000000
_cell_volume 1767.596628
_symmetry_space_group_name_H-M "C 2/M"
_symmetry_group_IT_number 12
_symmetry_cell_setting 'monoclinic'
loop_
_space_group_symop_operation_xyz
x,y,z
-x,y,-z
-x,-y,-z
x,-y,z
1/2+x,1/2+y,z
1/2-x,1/2+y,-z
1/2-x,1/2-y,-z
1/2+x,1/2-y,z
loop_
_atom_site_type_symbol
_atom_site_label
_atom_site_fract_x
_atom_site_fract_y
_atom_site_fract_z
Si Si1 0.813114 0.320015 0.480387
Si Si2 0.000000 0.784392 0.500000
Si Si3 0.630657 0.407186 0.105135
Si Si4 0.620298 0.095321 0.174175
Si Si5 0.340103 0.406207 0.195832
O O1 0.750000 0.250000 0.500000
O O2 0.720618 0.363345 0.292386
O O3 0.864485 0.382101 0.645531
O O4 0.912617 0.278849 0.484496
O O5 0.944752 0.845239 0.331332
O O6 0.626231 0.500000 0.150450
O O7 0.500000 0.370498 0.000000
O O8 0.680608 0.398263 0.992730
O O9 0.727159 0.124991 0.175968
O O10 0.612595 0.000000 0.155560
O O11 0.500000 0.134139 0.000000
O O12 0.371304 0.500000 0.264971
#
# Coordination Sequence:
#
# PCOD8112400 Si02
#       5
#     8   4   8   8   8
#     4  12  25  42  62  96 134 167 206 258 324 379
#     4  12  25  40  63  98 132 168 208 256 327 382
#     4  10  23  43  67  94 125 167 217 265 312 370
#     4  10  23  44  68  92 123 169 217 261 310 373
#     4  10  22  43  69  92 122 167 222 265 306 370
#
# _framework density 20.366637000000001
#
# number of rings (size 3 to 8) (size 9 to 14) (size 15 to 20)
#    0.000    1.333    2.222    2.333    3.111    3.556 
#    0.000    1.111    0.000    0.000    0.000    0.000 
#    0.000    0.000    0.000    0.000    0.000    0.000 
#
# Total GULP energy -223182.383621 kJ/mol
# GULP energy per Si atom -12399.021312 kJ/mol
# Density = 2.032028 g / cm^3
# Si number density = 20.366637 Si / 1000 Ang^3
#
#
#
# Elastic Constant Matrix: (Units=GPa)
#
#
# Indices 1 2 3 4 5 6 
#
# 1 115.9449 49.6744 71.6668 0.0000 5.8093 0.0000
# 2 49.6744 50.9580 59.0497 0.0000 7.0616 0.0000
# 3 71.6668 59.0497 170.6729 0.0000 11.7803 0.0000
# 4 0.0000 0.0000 0.0000 -8.8659 0.0000 14.6768
# 5 5.8093 7.0616 11.7803 0.0000 34.5453 0.0000
# 6 0.0000 0.0000 0.0000 14.6768 0.0000 32.8675
#
#
#
# Elastic Compliance Matrix: (Units=1/GPa)
#
#
# Indices 1 2 3 4 5 6 
#
# 1 0.015267 -0.012512 -0.002131 0.000000 0.000717 0.000000
# 2 -0.012512 0.043297 -0.009484 0.000000 -0.003513 0.000000
# 3 -0.002131 -0.009484 0.010115 0.000000 -0.001152 0.000000
# 4 0.000000 0.000000 0.000000 -0.064852 0.000000 0.028959
# 5 0.000717 -0.003513 -0.001152 0.000000 0.029938 0.000000
# 6 0.000000 0.000000 0.000000 0.028959 0.000000 0.017494
#
#
# Mechanical properties :
#
#
# Convention : Reuss Voigt Hill
#
# Bulk Modulus (GPa) = 48.95964 77.59529 63.27746
# Shear Modulus (GPa) = 47.02774 22.18837 34.60805
#
# Velocity S-wave (km/s) = 4.81048 3.30426 4.12667
# Velocity P-wave (km/s) = 7.41253 7.26219 7.33775
#
# Compressibility (1/GPa) = 0.02042499
#
# Stress axis : x y z
#
# Youngs Moduli (GPa) = 65.50237 23.09621 98.86489
#
# Poissons Ratio (x) = 0.28898 0.21070
# Poissons Ratio (y) = 0.81955 0.93761
# Poissons Ratio (z) = 0.13960 0.21904
#
# Static dielectric constant tensor:
#      x y z
#    x 3.825040 0.000000 0.239790 
#    y 0.000000 3.578570 0.000000 
#    z 0.239790 0.000000 3.455240 
# 
# 
# High freq. dielectric constant tensor:
#      x y z
#    x 1.809890 0.000000 -0.000480 
#    y 0.000000 1.798770 0.000000 
#    z -0.000480 0.000000 1.802650 
# 
# From -- ./inp_files/60734.got.cif
#   From: 2010.06.25/outbox.cif.g09.slc.cpg/sg12_31_cif.got.tgz:60734.got - 2010.06.28 00:19:55.
