data_PCOD8112180
_publ_section_title
;
Structure prediction by ZEFSAII (Michael W. Deem and Ramdas Pophale) SiO2 
 PCOD8112180
Probable space group: C 2/M
;
_chemical_formula_sum "Si O2"
_cell_formula_units_Z 52
_cell_length_a 8.495808
_cell_length_b 15.166328
_cell_length_c 30.064255
_cell_angle_alpha 90.000000
_cell_angle_beta 142.665587
_cell_angle_gamma 90.000000
_cell_volume 2349.319518
_symmetry_space_group_name_H-M "C 2/M"
_symmetry_group_IT_number 12
_symmetry_cell_setting 'monoclinic'
loop_
_space_group_symop_operation_xyz
x,y,z
-x,y,-z
-x,-y,-z
x,-y,z
1/2+x,1/2+y,z
1/2-x,1/2+y,-z
1/2-x,1/2-y,-z
1/2+x,1/2-y,z
loop_
_atom_site_type_symbol
_atom_site_label
_atom_site_fract_x
_atom_site_fract_y
_atom_site_fract_z
Si Si1 0.706175 0.897450 0.332144
Si Si2 0.556757 0.899285 0.632007
Si Si3 0.000000 0.850055 0.000000
Si Si4 0.441381 0.736876 0.141307
Si Si5 0.982779 0.224280 0.247217
Si Si6 0.779936 0.395890 0.482769
Si Si7 0.215475 0.902294 0.956654
O O1 0.564043 0.888497 0.347101
O O2 0.570354 0.827838 0.268508
O O3 0.998917 0.862036 0.404590
O O4 0.690368 0.000000 0.311648
O O5 0.811020 0.839563 0.683594
O O6 0.345236 0.867950 0.548063
O O7 0.640725 0.000000 0.641363
O O8 0.198446 0.796222 0.074265
O O9 0.823817 0.900284 0.998022
O O10 0.398188 0.691903 0.179117
O O11 0.483952 0.663527 0.112348
O O12 0.709468 0.789098 0.210664
O O13 0.772977 0.500000 0.477239
O O14 0.000000 0.355561 0.500000
O O15 0.149410 0.000000 0.925725
O O16 0.500000 0.876398 0.000000
#
# Coordination Sequence:
#
# PCOD8112180 Si02
#       7
#     8   8   4   8   8   8   8
#     4  10  22  42  65  91 130 176 218 265 326 396
#     4  10  22  42  65  91 129 173 219 270 326 393
#     4  12  23  48  73  96 132 178 224 276 337 406
#     4  12  24  44  68  92 132 176 216 268 339 400
#     4  12  25  41  64  99 131 173 220 271 333 399
#     4   9  19  36  63  95 126 166 219 272 323 378
#     4  11  24  43  71 103 131 166 221 279 332 397
#
# _framework density 22.134069
#
# number of rings (size 3 to 8) (size 9 to 14) (size 15 to 20)
#    0.000    1.231    3.846    2.077    2.154    3.692 
#    0.000    1.538    0.000    0.000    0.000    0.000 
#    0.000    0.000    0.000    0.000    0.000    0.000 
#
# Total GULP energy -322125.723192 kJ/mol
# GULP energy per Si atom -12389.450892 kJ/mol
# Density = 2.208369 g / cm^3
# Si number density = 22.134069 Si / 1000 Ang^3
#
#
#
# Elastic Constant Matrix: (Units=GPa)
#
#
# Indices 1 2 3 4 5 6 
#
# 1 98.8518 29.5454 31.0534 -0.0002 5.7906 -0.0001
# 2 29.5454 50.5793 20.1036 0.0000 0.0487 0.0000
# 3 31.0534 20.1036 97.8149 -0.0007 9.8840 -0.0003
# 4 -0.0002 0.0000 -0.0007 15.9752 -0.0003 3.4415
# 5 5.7906 0.0487 9.8840 -0.0003 50.6180 -0.0002
# 6 -0.0001 0.0000 -0.0003 3.4415 -0.0002 22.4456
#
#
#
# Elastic Compliance Matrix: (Units=1/GPa)
#
#
# Indices 1 2 3 4 5 6 
#
# 1 0.012958 -0.006503 -0.002681 0.000000 -0.000953 0.000000
# 2 -0.006503 0.024830 -0.003174 0.000000 0.001340 0.000000
# 3 -0.002681 -0.003174 0.011931 0.000000 -0.002020 0.000000
# 4 0.000000 0.000000 0.000000 0.064735 0.000000 -0.009926
# 5 -0.000953 0.001340 -0.002020 0.000000 0.020258 0.000000
# 6 0.000000 0.000000 0.000000 -0.009926 0.000000 0.046074
#
#
# Mechanical properties :
#
#
# Convention : Reuss Voigt Hill
#
# Bulk Modulus (GPa) = 39.99534 45.40566 42.70050
# Shear Modulus (GPa) = 23.38246 28.91067 26.14656
#
# Velocity S-wave (km/s) = 3.25376 3.61801 3.44071
# Velocity P-wave (km/s) = 5.67668 6.16537 5.92606
#
# Compressibility (1/GPa) = 0.02500291
#
# Stress axis : x y z
#
# Youngs Moduli (GPa) = 77.17426 40.27435 83.81508
#
# Poissons Ratio (x) = 0.26189 0.22471
# Poissons Ratio (y) = 0.50183 0.26604
# Poissons Ratio (z) = 0.20690 0.12784
#
# Static dielectric constant tensor:
#      x y z
#    x 4.208970 0.000000 0.094760 
#    y 0.000000 3.870350 0.000000 
#    z 0.094760 0.000000 4.013170 
# 
# 
# High freq. dielectric constant tensor:
#      x y z
#    x 1.885870 0.000000 0.002230 
#    y 0.000000 1.847770 0.000000 
#    z 0.002230 0.000000 1.873970 
# 
# From -- ./inp_files/372627.got.cif
#   From: 2010.06.25/outbox.cif.g09.slc.cpg/sg12_187_cif.got.tgz:372627.got - 2010.06.28 00:19:55.
