data_PCOD8112574
_publ_section_title
;
Structure prediction by ZEFSAII (Michael W. Deem and Ramdas Pophale) SiO2 
 PCOD8112574
Probable space group: C 2/M
;
_chemical_formula_sum "Si O2"
_cell_formula_units_Z 48
_cell_length_a 14.406082
_cell_length_b 20.416288
_cell_length_c 11.515645
_cell_angle_alpha 90.000000
_cell_angle_beta 43.250228
_cell_angle_gamma 90.000000
_cell_volume 2320.701827
_symmetry_space_group_name_H-M "C 2/M"
_symmetry_group_IT_number 12
_symmetry_cell_setting 'monoclinic'
loop_
_space_group_symop_operation_xyz
x,y,z
-x,y,-z
-x,-y,-z
x,-y,z
1/2+x,1/2+y,z
1/2-x,1/2+y,-z
1/2-x,1/2-y,-z
1/2+x,1/2-y,z
loop_
_atom_site_type_symbol
_atom_site_label
_atom_site_fract_x
_atom_site_fract_y
_atom_site_fract_z
Si Si1 0.620380 0.927237 0.964376
Si Si2 0.787562 0.426164 0.633407
Si Si3 0.836160 0.184362 0.409157
Si Si4 0.148427 0.852015 0.355924
Si Si5 0.429206 0.103771 0.730771
Si Si6 0.386022 0.252298 0.799074
O O1 0.762256 0.893475 0.812533
O O2 0.632432 0.000000 0.903933
O O3 0.500000 0.891791 0.000000
O O4 0.598539 0.928671 0.120883
O O5 0.724771 0.500000 0.674032
O O6 0.696416 0.367027 0.664332
O O7 0.806858 0.412463 0.753465
O O8 0.932712 0.426584 0.440617
O O9 0.750000 0.250000 0.500000
O O10 0.794611 0.148246 0.566290
O O11 0.996349 0.201896 0.251560
O O12 0.144131 0.779164 0.302934
O O13 0.000000 0.883707 0.500000
O O14 0.448140 0.180972 0.728221
O O15 0.250000 0.250000 0.000000
#
# Coordination Sequence:
#
# PCOD8112574 Si02
#       6
#     8   8   8   8   8   8
#     4  11  23  39  62  94 125 163 218 273 320 385
#     4  11  23  40  67  99 134 179 221 273 339 400
#     4  11  22  40  65  98 128 166 219 274 319 392
#     4  10  23  39  61  91 126 164 208 260 330 386
#     4  11  21  40  65  95 132 174 225 273 328 402
#     4  11  22  40  65  94 129 167 215 270 333 388
#
# _framework density 20.683398
#
# number of rings (size 3 to 8) (size 9 to 14) (size 15 to 20)
#    0.000    1.167    3.333    4.000    4.667    2.333 
#    0.000    5.000    0.000    1.000    0.000    0.000 
#    0.000    0.000    0.000    0.000    0.000    0.000 
#
# Total GULP energy -297470.279604 kJ/mol
# GULP energy per Si atom -12394.594984 kJ/mol
# Density = 2.063632 g / cm^3
# Si number density = 20.683398 Si / 1000 Ang^3
#
#
#
# Elastic Constant Matrix: (Units=GPa)
#
#
# Indices 1 2 3 4 5 6 
#
# 1 120.1482 41.0439 41.1900 -0.0001 15.1048 0.0006
# 2 41.0439 115.8035 12.5035 -0.0005 -6.3662 0.0001
# 3 41.1900 12.5035 103.1200 -0.0010 0.5948 0.0007
# 4 -0.0001 -0.0005 -0.0010 -0.9936 0.0003 -10.5618
# 5 15.1048 -6.3662 0.5948 0.0003 30.4966 -0.0008
# 6 0.0006 0.0001 0.0007 -10.5618 -0.0008 29.6028
#
#
#
# Elastic Compliance Matrix: (Units=1/GPa)
#
#
# Indices 1 2 3 4 5 6 
#
# 1 0.012070 -0.004189 -0.004274 0.000001 -0.006769 0.000000
# 2 -0.004189 0.010309 0.000399 -0.000001 0.004219 0.000000
# 3 -0.004274 0.000399 0.011345 -0.000002 0.001979 -0.000001
# 4 0.000001 -0.000001 -0.000002 -0.210000 -0.000001 -0.074925
# 5 -0.006769 0.004219 0.001979 -0.000001 0.036985 0.000001
# 6 0.000000 0.000000 -0.000001 -0.074925 0.000001 0.007048
#
#
# Mechanical properties :
#
#
# Convention : Reuss Voigt Hill
#
# Bulk Modulus (GPa) = 56.83240 58.72738 57.77989
# Shear Modulus (GPa) = -45.35238 28.11012 -8.62113
#
# Velocity S-wave (km/s) = -4.68770 3.69055 -2.04382
# Velocity P-wave (km/s) = 1.32757 6.82754 4.73566
#
# Compressibility (1/GPa) = 0.01759560
#
# Stress axis : x y z
#
# Youngs Moduli (GPa) = 82.84742 97.00486 88.14428
#
# Poissons Ratio (x) = 0.40632 0.37677
# Poissons Ratio (y) = 0.34702 -0.03515
# Poissons Ratio (z) = 0.35413 -0.03869
#
# Static dielectric constant tensor:
#      x y z
#    x 1.260950 0.000010 -2.197680 
#    y 0.000010 3.761310 0.000010 
#    z -2.197680 0.000010 1.749780 
# 
# 
# High freq. dielectric constant tensor:
#      x y z
#    x 1.813490 0.000000 0.009960 
#    y 0.000000 1.810980 0.000000 
#    z 0.009960 0.000000 1.800620 
# 
# From -- ./inp_files/147919.got.cif
#   From: 2010.06.25/outbox.cif.g09.slc.cpg/sg12_74_cif.got.tgz:147919.got - 2010.06.28 00:19:55.
