data_PCOD8112371
_publ_section_title
;
Structure prediction by ZEFSAII (Michael W. Deem and Ramdas Pophale) SiO2 
 PCOD8112371
Probable space group: C 2/M
;
_chemical_formula_sum "Si O2"
_cell_formula_units_Z 32
_cell_length_a 17.209623
_cell_length_b 13.063123
_cell_length_c 14.182284
_cell_angle_alpha 90.000000
_cell_angle_beta 150.746866
_cell_angle_gamma 90.000000
_cell_volume 1558.042531
_symmetry_space_group_name_H-M "C 2/M"
_symmetry_group_IT_number 12
_symmetry_cell_setting 'monoclinic'
loop_
_space_group_symop_operation_xyz
x,y,z
-x,y,-z
-x,-y,-z
x,-y,z
1/2+x,1/2+y,z
1/2-x,1/2+y,-z
1/2-x,1/2-y,-z
1/2+x,1/2-y,z
loop_
_atom_site_type_symbol
_atom_site_label
_atom_site_fract_x
_atom_site_fract_y
_atom_site_fract_z
Si Si1 0.095036 0.616465 0.005153
Si Si2 0.380067 0.175060 0.600014
Si Si3 0.685097 0.781440 0.831843
Si Si4 0.177684 0.000000 0.076705
Si Si5 0.321681 0.500000 0.700960
O O1 0.161649 0.500000 0.074265
O O2 0.982006 0.630456 0.794789
O O3 0.241143 0.698223 0.162516
O O4 0.000000 0.637877 0.000000
O O5 0.250000 0.250000 0.500000
O O6 0.493787 0.225062 0.639634
O O7 0.276411 0.095161 0.435641
O O8 0.730729 0.898647 0.859040
O O9 0.750000 0.750000 0.000000
O O10 0.165693 0.000000 0.174782
O O11 0.999380 0.000000 0.844672
#
# Coordination Sequence:
#
# PCOD8112371 Si02
#       5
#     8   8   8   4   4
#     4  10  22  43  67  92 129 177 216 258 324 394
#     4  11  23  42  63  97 129 167 213 274 326 381
#     4  10  23  40  67  92 129 169 212 263 326 393
#     4  11  25  41  67 100 123 173 217 268 341 384
#     4  11  23  41  66  96 133 160 217 281 322 386
#
# _framework density 20.538592999999999
#
# number of rings (size 3 to 8) (size 9 to 14) (size 15 to 20)
#    0.000    1.500    1.250    3.750   12.250    2.000 
#    2.250    0.000    0.000    3.000    0.000    0.000 
#    0.000    0.000    0.000    0.000    0.000    0.000 
#
# Total GULP energy -198264.276883 kJ/mol
# GULP energy per Si atom -12391.517305 kJ/mol
# Density = 2.049185 g / cm^3
# Si number density = 20.538593 Si / 1000 Ang^3
#
#
#
# Elastic Constant Matrix: (Units=GPa)
#
#
# Indices 1 2 3 4 5 6 
#
# 1 131.8973 82.8886 48.5472 -0.0005 38.6359 -0.0005
# 2 82.8886 181.2795 47.6584 -0.0003 39.2694 -0.0003
# 3 48.5472 47.6584 100.3947 -0.0006 33.3492 -0.0006
# 4 -0.0005 -0.0003 -0.0006 13.4131 -0.0005 -10.9959
# 5 38.6359 39.2694 33.3492 -0.0005 48.7102 -0.0005
# 6 -0.0005 -0.0003 -0.0006 -10.9959 -0.0005 35.6965
#
#
#
# Elastic Compliance Matrix: (Units=1/GPa)
#
#
# Indices 1 2 3 4 5 6 
#
# 1 0.012441 -0.003957 -0.002484 0.000000 -0.004977 0.000000
# 2 -0.003957 0.008200 -0.001069 0.000000 -0.002740 0.000000
# 3 -0.002484 -0.001069 0.013887 0.000000 -0.006675 0.000000
# 4 0.000000 0.000000 0.000000 0.099741 0.000001 0.030724
# 5 -0.004977 -0.002740 -0.006675 0.000001 0.031256 0.000001
# 6 0.000000 0.000000 0.000000 0.030724 0.000001 0.037478
#
#
# Mechanical properties :
#
#
# Convention : Reuss Voigt Hill
#
# Bulk Modulus (GPa) = 51.26315 85.75109 68.50712
# Shear Modulus (GPa) = 22.26907 35.19579 28.73243
#
# Velocity S-wave (km/s) = 3.29637 4.14411 3.74431
# Velocity P-wave (km/s) = 6.28504 8.04612 7.21948
#
# Compressibility (1/GPa) = 0.01950719
#
# Stress axis : x y z
#
# Youngs Moduli (GPa) = 80.38181 121.94502 72.01087
#
# Poissons Ratio (x) = 0.48257 0.17889
# Poissons Ratio (y) = 0.31809 0.07697
# Poissons Ratio (z) = 0.19968 0.13035
#
# Static dielectric constant tensor:
#      x y z
#    x 5.064480 0.000000 -0.551360 
#    y 0.000000 4.147090 0.000000 
#    z -0.551360 0.000000 4.652300 
# 
# 
# High freq. dielectric constant tensor:
#      x y z
#    x 1.821770 0.000000 0.011510 
#    y 0.000000 1.816090 0.000000 
#    z 0.011510 0.000000 1.794390 
# 
# From -- ./inp_files/56810.got.cif
#   From: 2010.06.25/outbox.cif.g09.slc.cpg/sg12_29_cif.got.tgz:56810.got - 2010.06.28 00:19:55.
