data_PCOD8112841
_publ_section_title
;
Structure prediction by ZEFSAII (Michael W. Deem and Ramdas Pophale) SiO2 
 PCOD8112841
Probable space group: C 2/M
;
_chemical_formula_sum "Si O2"
_cell_formula_units_Z 56
_cell_length_a 21.011557
_cell_length_b 14.878254
_cell_length_c 9.080405
_cell_angle_alpha 90.000000
_cell_angle_beta 92.181056
_cell_angle_gamma 90.000000
_cell_volume 2836.616904
_symmetry_space_group_name_H-M "C 2/M"
_symmetry_group_IT_number 12
_symmetry_cell_setting 'monoclinic'
loop_
_space_group_symop_operation_xyz
x,y,z
-x,y,-z
-x,-y,-z
x,-y,z
1/2+x,1/2+y,z
1/2-x,1/2+y,-z
1/2-x,1/2-y,-z
1/2+x,1/2-y,z
loop_
_atom_site_type_symbol
_atom_site_label
_atom_site_fract_x
_atom_site_fract_y
_atom_site_fract_z
Si Si1 0.072660 0.603616 0.550882
Si Si2 0.209675 0.832049 0.557263
Si Si3 0.638609 0.397402 0.269647
Si Si4 0.503596 0.396831 0.828460
Si Si5 0.180728 0.747923 0.062668
Si Si6 0.668995 0.099913 0.306888
Si Si7 0.391426 0.259126 0.234410
O O1 0.087822 0.500000 0.593506
O O2 0.117294 0.636145 0.420186
O O3 0.086896 0.665202 0.692778
O O4 0.000000 0.616195 0.500000
O O5 0.250000 0.750000 0.500000
O O6 0.162054 0.873259 0.434265
O O7 0.261012 0.905508 0.613868
O O8 0.170438 0.799386 0.693784
O O9 0.654559 0.500000 0.233306
O O10 0.563499 0.379306 0.256217
O O11 0.675385 0.340215 0.151506
O O12 0.525914 0.500000 0.810366
O O13 0.552769 0.332363 0.750308
O O14 0.500000 0.372458 0.000000
O O15 0.169040 0.663939 0.167127
O O16 0.250000 0.750000 0.000000
O O17 0.126063 0.740445 0.935829
O O18 0.649797 0.000000 0.253464
#
# Coordination Sequence:
#
# PCOD8112841 Si02
#       7
#     8   8   8   8   8   8   8
#     4  10  24  44  66  95 126 165 217 266 316 374
#     4  12  22  42  64  96 128 162 213 263 314 383
#     4  11  24  43  66  90 129 173 209 260 322 381
#     4  10  23  42  63  95 132 168 211 257 319 387
#     4  12  24  42  61  96 131 163 215 258 308 383
#     4  11  24  44  67  90 128 171 207 261 321 374
#     4  12  24  38  71  94 129 169 207 266 321 371
#
# _framework density 19.741828000000002
#
# number of rings (size 3 to 8) (size 9 to 14) (size 15 to 20)
#    0.000    0.857    5.714    0.429    4.000    2.286 
#    0.000    1.429    0.000    3.000    0.000    0.000 
#    0.000    0.000    0.000    0.000    0.000    0.000 
#
# Total GULP energy -347333.486536 kJ/mol
# GULP energy per Si atom -12404.767376 kJ/mol
# Density = 1.969689 g / cm^3
# Si number density = 19.741828 Si / 1000 Ang^3
#
#
#
# Elastic Constant Matrix: (Units=GPa)
#
#
# Indices 1 2 3 4 5 6 
#
# 1 112.2367 45.3082 49.3072 0.0000 3.9856 0.0000
# 2 45.3082 113.2145 54.7888 0.0000 -4.6072 0.0000
# 3 49.3072 54.7888 119.6874 0.0000 11.2821 0.0000
# 4 0.0000 0.0000 0.0000 33.7331 0.0000 2.0423
# 5 3.9856 -4.6072 11.2821 0.0000 36.0168 0.0000
# 6 0.0000 0.0000 0.0000 2.0423 0.0000 33.6148
#
#
#
# Elastic Compliance Matrix: (Units=1/GPa)
#
#
# Indices 1 2 3 4 5 6 
#
# 1 0.011634 -0.003072 -0.003326 0.000000 -0.000638 0.000000
# 2 -0.003072 0.012521 -0.004790 0.000000 0.003442 0.000000
# 3 -0.003326 -0.004790 0.012305 0.000000 -0.004099 0.000000
# 4 0.000000 0.000000 0.000000 0.029754 0.000000 -0.001808
# 5 -0.000638 0.003442 -0.004099 0.000000 0.029560 0.000000
# 6 0.000000 0.000000 0.000000 -0.001808 0.000000 0.029859
#
#
# Mechanical properties :
#
#
# Convention : Reuss Voigt Hill
#
# Bulk Modulus (GPa) = 71.01457 71.54967 71.28212
# Shear Modulus (GPa) = 32.74337 33.72190 33.23263
#
# Velocity S-wave (km/s) = 4.07698 4.13745 4.10733
# Velocity P-wave (km/s) = 7.62969 7.69065 7.66023
#
# Compressibility (1/GPa) = 0.01408162
#
# Stress axis : x y z
#
# Youngs Moduli (GPa) = 85.95598 79.86871 81.27009
#
# Poissons Ratio (x) = 0.24537 0.27033
# Poissons Ratio (y) = 0.26407 0.38931
# Poissons Ratio (z) = 0.28591 0.38260
#
# Static dielectric constant tensor:
#      x y z
#    x 4.441740 0.000000 0.266510 
#    y 0.000000 3.682300 0.000000 
#    z 0.266510 0.000000 3.731330 
# 
# 
# High freq. dielectric constant tensor:
#      x y z
#    x 1.783470 0.000000 0.003420 
#    y 0.000000 1.777870 0.000000 
#    z 0.003420 0.000000 1.769850 
# 
# From -- ./inp_files/86332.got.cif
#   From: 2010.06.25/outbox.cif.g09.slc.cpg/sg12_44_cif.got.tgz:86332.got - 2010.06.28 00:19:55.
