data_PCOD8112477
_publ_section_title
;
Structure prediction by ZEFSAII (Michael W. Deem and Ramdas Pophale) SiO2 
 PCOD8112477
Probable space group: C 2/M
;
_chemical_formula_sum "Si O2"
_cell_formula_units_Z 40
_cell_length_a 8.874068
_cell_length_b 28.205909
_cell_length_c 14.442917
_cell_angle_alpha 90.000000
_cell_angle_beta 145.135736
_cell_angle_gamma 90.000000
_cell_volume 2066.502766
_symmetry_space_group_name_H-M "C 2/M"
_symmetry_group_IT_number 12
_symmetry_cell_setting 'monoclinic'
loop_
_space_group_symop_operation_xyz
x,y,z
-x,y,-z
-x,-y,-z
x,-y,z
1/2+x,1/2+y,z
1/2-x,1/2+y,-z
1/2-x,1/2-y,-z
1/2+x,1/2-y,z
loop_
_atom_site_type_symbol
_atom_site_label
_atom_site_fract_x
_atom_site_fract_y
_atom_site_fract_z
Si Si1 0.983837 0.860125 0.248963
Si Si2 0.500000 0.078850 0.500000
Si Si3 0.185852 0.500000 0.731786
Si Si4 0.312284 0.000000 0.049537
Si Si5 0.512184 0.285566 0.899446
Si Si6 0.000000 0.426378 0.000000
Si Si7 0.014567 0.223710 0.609421
O O1 0.257933 0.886999 0.402227
O O2 0.936838 0.818706 0.297506
O O3 0.956202 0.836412 0.134073
O O4 0.752954 0.896277 0.152283
O O5 0.564540 0.046641 0.622141
O O6 0.112654 0.500000 0.803822
O O7 0.499069 0.500000 0.876155
O O8 0.439485 0.044842 0.062930
O O9 0.246141 0.261950 0.729727
O O10 0.500000 0.298319 0.000000
O O11 0.750000 0.250000 0.000000
O O12 0.750000 0.250000 0.500000
O O13 0.000000 0.201832 0.500000
#
# Coordination Sequence:
#
# PCOD8112477 Si02
#       7
#     8   4   4   4   8   4   8
#     4  12  24  39  66  96 138 164 224 271 313 383
#     4  11  24  42  66 104 130 168 206 272 332 383
#     4  10  22  45  74  95 132 169 209 256 338 412
#     4  10  22  45  74  95 132 169 207 262 334 406
#     4  12  23  41  64  89 124 177 227 264 313 371
#     4  11  24  42  66 104 130 164 210 278 326 371
#     4  12  23  41  62  87 126 175 219 264 319 366
#
# _framework density 19.356373000000001
#
# number of rings (size 3 to 8) (size 9 to 14) (size 15 to 20)
#    0.000    0.600    6.000    2.400    0.000    3.200 
#    0.000    1.000    0.000    0.000    0.000    0.000 
#    0.000    0.000    0.000    0.000    0.000    0.000 
#
# Total GULP energy -248062.053481 kJ/mol
# GULP energy per Si atom -12403.102674 kJ/mol
# Density = 1.931232 g / cm^3
# Si number density = 19.356373 Si / 1000 Ang^3
#
#
#
# Elastic Constant Matrix: (Units=GPa)
#
#
# Indices 1 2 3 4 5 6 
#
# 1 145.1085 52.3264 56.8150 0.0000 -14.7047 0.0000
# 2 52.3264 107.1279 42.8642 0.0000 4.4468 0.0000
# 3 56.8150 42.8642 112.8450 0.0000 11.3518 0.0000
# 4 0.0000 0.0000 0.0000 51.7700 0.0000 10.3427
# 5 -14.7047 4.4468 11.3518 0.0000 55.9659 0.0000
# 6 0.0000 0.0000 0.0000 10.3427 0.0000 24.8430
#
#
#
# Elastic Compliance Matrix: (Units=1/GPa)
#
#
# Indices 1 2 3 4 5 6 
#
# 1 0.010157 -0.003443 -0.004187 0.000000 0.003791 0.000000
# 2 -0.003443 0.012175 -0.002759 0.000000 -0.001312 0.000000
# 3 -0.004187 -0.002759 0.012359 0.000000 -0.003388 0.000000
# 4 0.000000 0.000000 0.000000 0.021069 0.000000 -0.008771
# 5 0.003791 -0.001312 -0.003388 0.000000 0.019656 0.000000
# 6 0.000000 0.000000 0.000000 -0.008771 0.000000 0.043905
#
#
# Mechanical properties :
#
#
# Convention : Reuss Voigt Hill
#
# Bulk Modulus (GPa) = 71.88293 74.34363 73.11328
# Shear Modulus (GPa) = 34.54599 40.72082 37.63341
#
# Velocity S-wave (km/s) = 4.22920 4.59163 4.41414
# Velocity P-wave (km/s) = 7.81443 8.16101 7.98960
#
# Compressibility (1/GPa) = 0.01391151
#
# Stress axis : x y z
#
# Youngs Moduli (GPa) = 98.45835 82.13689 80.91443
#
# Poissons Ratio (x) = 0.28279 0.33881
# Poissons Ratio (y) = 0.33899 0.22325
# Poissons Ratio (z) = 0.41227 0.22663
#
# Static dielectric constant tensor:
#      x y z
#    x 3.954110 0.000000 -0.095770 
#    y 0.000000 3.359860 0.000000 
#    z -0.095770 0.000000 3.835870 
# 
# 
# High freq. dielectric constant tensor:
#      x y z
#    x 1.769550 0.000000 0.004780 
#    y 0.000000 1.759670 0.000000 
#    z 0.004780 0.000000 1.768210 
# 
# From -- ./inp_files/123974.got.cif
#   From: 2010.06.25/outbox.cif.g09.slc.cpg/sg12_62_cif.got.tgz:123974.got - 2010.06.28 00:19:55.
