data_PCOD8112766
_publ_section_title
;
Structure prediction by ZEFSAII (Michael W. Deem and Ramdas Pophale) SiO2 
 PCOD8112766
Probable space group: C 2/M
;
_chemical_formula_sum "Si O2"
_cell_formula_units_Z 48
_cell_length_a 27.273827
_cell_length_b 19.294512
_cell_length_c 9.729182
_cell_angle_alpha 90.000000
_cell_angle_beta 153.102487
_cell_angle_gamma 90.000000
_cell_volume 2316.194166
_symmetry_space_group_name_H-M "C 2/M"
_symmetry_group_IT_number 12
_symmetry_cell_setting 'monoclinic'
loop_
_space_group_symop_operation_xyz
x,y,z
-x,y,-z
-x,-y,-z
x,-y,z
1/2+x,1/2+y,z
1/2-x,1/2+y,-z
1/2-x,1/2-y,-z
1/2+x,1/2-y,z
loop_
_atom_site_type_symbol
_atom_site_label
_atom_site_fract_x
_atom_site_fract_y
_atom_site_fract_z
Si Si1 0.672745 0.078556 0.581249
Si Si2 0.881647 0.077053 0.262594
Si Si3 0.513082 0.845185 0.376819
Si Si4 0.666345 0.846596 0.282634
Si Si5 0.853452 0.218704 0.333099
Si Si6 0.622498 0.702686 0.297795
O O1 0.615219 0.119156 0.560321
O O2 0.643434 0.106670 0.357483
O O3 0.632643 0.000000 0.484538
O O4 0.800417 0.086421 0.930668
O O5 0.866395 0.137043 0.336677
O O6 0.000000 0.084140 0.500000
O O7 0.864088 0.000000 0.285196
O O8 0.500000 0.871427 0.500000
O O9 0.539110 0.762265 0.441622
O O10 0.405626 0.869332 0.027314
O O11 0.624016 0.769369 0.204688
O O12 0.793266 0.852077 0.557959
O O13 0.832977 0.226368 0.443663
O O14 0.750000 0.250000 0.000000
O O15 0.500000 0.671862 0.000000
#
# Coordination Sequence:
#
# PCOD8112766 Si02
#       6
#     8   8   8   8   8   8
#     4  11  24  45  68  93 132 178 224 272 334 407
#     4  10  23  41  65  95 132 177 222 268 329 401
#     4  12  24  40  65 101 130 166 223 279 333 398
#     4  11  23  41  64  96 132 171 218 265 334 396
#     4  12  21  39  66  98 130 170 213 276 335 387
#     4  11  22  38  63  96 129 165 212 275 323 386
#
# _framework density 20.723651
#
# number of rings (size 3 to 8) (size 9 to 14) (size 15 to 20)
#    0.000    0.833    5.000    2.000    2.333    3.000 
#    0.000    0.833    0.000    1.000    0.000    0.000 
#    0.000    0.000    0.000    0.000    0.000    0.000 
#
# Total GULP energy -297589.540406 kJ/mol
# GULP energy per Si atom -12399.564184 kJ/mol
# Density = 2.067648 g / cm^3
# Si number density = 20.723651 Si / 1000 Ang^3
#
#
#
# Elastic Constant Matrix: (Units=GPa)
#
#
# Indices 1 2 3 4 5 6 
#
# 1 134.0781 37.5036 64.4377 0.0000 -8.9172 0.0000
# 2 37.5036 93.6957 41.8198 0.0000 6.4885 0.0000
# 3 64.4377 41.8198 128.5767 0.0000 -3.3917 0.0000
# 4 0.0000 0.0000 0.0000 25.0307 0.0000 -3.0195
# 5 -8.9172 6.4885 -3.3917 0.0000 43.4351 0.0000
# 6 0.0000 0.0000 0.0000 -3.0195 0.0000 13.7885
#
#
#
# Elastic Compliance Matrix: (Units=1/GPa)
#
#
# Indices 1 2 3 4 5 6 
#
# 1 0.010357 -0.002342 -0.004372 0.000000 0.002135 0.000000
# 2 -0.002342 0.013226 -0.003199 0.000000 -0.002706 0.000000
# 3 -0.004372 -0.003199 0.011021 0.000000 0.000441 0.000000
# 4 0.000000 0.000000 0.000000 0.041035 0.000000 0.008986
# 5 0.002135 -0.002706 0.000441 0.000000 0.023900 0.000000
# 6 0.000000 0.000000 0.000000 0.008986 0.000000 0.074492
#
#
# Mechanical properties :
#
#
# Convention : Reuss Voigt Hill
#
# Bulk Modulus (GPa) = 67.67682 71.54141 69.60911
# Shear Modulus (GPa) = 25.15308 30.62348 27.88828
#
# Velocity S-wave (km/s) = 3.48765 3.84827 3.67239
# Velocity P-wave (km/s) = 6.99614 7.37171 7.18638
#
# Compressibility (1/GPa) = 0.01477611
#
# Stress axis : x y z
#
# Youngs Moduli (GPa) = 96.55582 75.61073 90.73583
#
# Poissons Ratio (x) = 0.17706 0.39673
# Poissons Ratio (y) = 0.22611 0.29031
# Poissons Ratio (z) = 0.42218 0.24191
#
# Static dielectric constant tensor:
#      x y z
#    x 3.838510 0.000000 0.029380 
#    y 0.000000 3.812150 0.000000 
#    z 0.029380 0.000000 3.956320 
# 
# 
# High freq. dielectric constant tensor:
#      x y z
#    x 1.805060 0.000000 0.002180 
#    y 0.000000 1.788790 0.000000 
#    z 0.002180 0.000000 1.829950 
# 
# From -- ./inp_files/106588.got.cif
#   From: 2010.06.25/outbox.cif.g09.slc.cpg/sg12_54_cif.got.tgz:106588.got - 2010.06.28 00:19:55.
