data_PCOD8112089
_publ_section_title
;
Structure prediction by ZEFSAII (Michael W. Deem and Ramdas Pophale) SiO2 
 PCOD8112089
Probable space group: C 2/M
;
_chemical_formula_sum "Si O2"
_cell_formula_units_Z 56
_cell_length_a 10.735865
_cell_length_b 18.729695
_cell_length_c 14.720297
_cell_angle_alpha 90.000000
_cell_angle_beta 117.823131
_cell_angle_gamma 90.000000
_cell_volume 2617.757593
_symmetry_space_group_name_H-M "C 2/M"
_symmetry_group_IT_number 12
_symmetry_cell_setting 'monoclinic'
loop_
_space_group_symop_operation_xyz
x,y,z
-x,y,-z
-x,-y,-z
x,-y,z
1/2+x,1/2+y,z
1/2-x,1/2+y,-z
1/2-x,1/2-y,-z
1/2+x,1/2-y,z
loop_
_atom_site_type_symbol
_atom_site_label
_atom_site_fract_x
_atom_site_fract_y
_atom_site_fract_z
Si Si1 0.871189 0.191439 0.022743
Si Si2 0.313082 0.082134 0.144288
Si Si3 0.939477 0.081196 0.578642
Si Si4 0.182389 0.675183 0.495526
Si Si5 0.366186 0.670041 0.223476
Si Si6 0.418739 0.082101 0.881874
Si Si7 0.893979 0.678789 0.322278
O O1 0.929081 0.171425 0.142479
O O2 0.750000 0.250000 0.000000
O O3 0.801735 0.121004 0.956998
O O4 0.000000 0.217565 0.000000
O O5 0.471870 0.093024 0.162454
O O6 0.312788 0.114076 0.245508
O O7 0.268157 0.000000 0.131666
O O8 0.780054 0.106733 0.516493
O O9 0.000000 0.091337 0.500000
O O10 0.021861 0.128958 0.678097
O O11 0.945303 0.000000 0.614001
O O12 0.250000 0.750000 0.500000
O O13 0.139775 0.679680 0.584622
O O14 0.061496 0.666162 0.378605
O O15 0.214849 0.632363 0.177589
O O16 0.347370 0.749680 0.254545
O O17 0.367185 0.000000 0.871011
O O18 0.500000 0.105361 0.000000
#
# Coordination Sequence:
#
# PCOD8112089 Si02
#       7
#     8   8   8   8   8   8   8
#     4  12  29  47  73 108 145 189 242 300 358 427
#     4  11  26  46  69 104 146 187 236 289 354 431
#     4  11  26  45  69 104 137 175 228 295 357 418
#     4  11  24  46  68  96 136 176 234 290 359 422
#     4  12  24  43  74 102 141 181 239 295 353 424
#     4  10  22  41  68 100 138 187 233 285 347 421
#     4  11  26  42  70 102 129 185 231 289 357 419
#
# _framework density 21.392354999999998
#
# number of rings (size 3 to 8) (size 9 to 14) (size 15 to 20)
#    0.000    0.857    4.286    1.286    8.000    2.000 
#    0.000    1.429    0.000    0.000    0.000    0.000 
#    0.000    0.000    0.000    0.000    0.000    0.000 
#
# Total GULP energy -347198.020633 kJ/mol
# GULP energy per Si atom -12399.929308 kJ/mol
# Density = 2.134366 g / cm^3
# Si number density = 21.392355 Si / 1000 Ang^3
#
#
#
# Elastic Constant Matrix: (Units=GPa)
#
#
# Indices 1 2 3 4 5 6 
#
# 1 89.3791 49.6921 19.4044 0.0000 11.4647 0.0000
# 2 49.6921 123.5739 74.4094 0.0000 1.8746 0.0000
# 3 19.4044 74.4094 85.3923 0.0000 2.9448 0.0000
# 4 0.0000 0.0000 0.0000 41.4377 0.0000 2.1662
# 5 11.4647 1.8746 2.9448 0.0000 31.0999 0.0000
# 6 0.0000 0.0000 0.0000 2.1662 0.0000 32.0812
#
#
#
# Elastic Compliance Matrix: (Units=1/GPa)
#
#
# Indices 1 2 3 4 5 6 
#
# 1 0.015965 -0.008979 0.004395 0.000000 -0.005760 0.000000
# 2 -0.008979 0.022080 -0.017325 0.000000 0.003620 0.000000
# 3 0.004395 -0.017325 0.025913 0.000000 -0.003029 0.000000
# 4 0.000000 0.000000 0.000000 0.024218 0.000000 -0.001635
# 5 -0.005760 0.003620 -0.003029 0.000000 0.034347 0.000000
# 6 0.000000 0.000000 0.000000 -0.001635 0.000000 0.031281
#
#
# Mechanical properties :
#
#
# Convention : Reuss Voigt Hill
#
# Bulk Modulus (GPa) = 49.65112 65.03967 57.34539
# Shear Modulus (GPa) = 24.46966 31.24637 27.85802
#
# Velocity S-wave (km/s) = 3.38576 3.82597 3.61257
# Velocity P-wave (km/s) = 6.20843 7.07012 6.65324
#
# Compressibility (1/GPa) = 0.02014053
#
# Stress axis : x y z
#
# Youngs Moduli (GPa) = 62.63684 45.28995 38.59098
#
# Poissons Ratio (x) = 0.40665 -0.16960
# Poissons Ratio (y) = 0.56241 0.66857
# Poissons Ratio (z) = -0.27528 0.78463
#
# Static dielectric constant tensor:
#      x y z
#    x 2.877770 0.000000 1.596860 
#    y 0.000000 4.112310 0.000000 
#    z 1.596860 0.000000 2.582970 
# 
# 
# High freq. dielectric constant tensor:
#      x y z
#    x 1.838520 0.000000 -0.001680 
#    y 0.000000 1.845050 0.000000 
#    z -0.001680 0.000000 1.860290 
# 
# From -- ./inp_files/206772.got.cif
#   From: 2010.06.25/outbox.cif.g09.slc.cpg/sg12_104_cif.got.tgz:206772.got - 2010.06.28 00:19:55.
