data_PCOD8112463
_publ_section_title
;
Structure prediction by ZEFSAII (Michael W. Deem and Ramdas Pophale) SiO2 
 PCOD8112463
Probable space group: C 2/M
;
_chemical_formula_sum "Si O2"
_cell_formula_units_Z 64
_cell_length_a 12.010712
_cell_length_b 14.191743
_cell_length_c 26.397768
_cell_angle_alpha 90.000000
_cell_angle_beta 40.258469
_cell_angle_gamma 90.000000
_cell_volume 2907.792257
_symmetry_space_group_name_H-M "C 2/M"
_symmetry_group_IT_number 12
_symmetry_cell_setting 'monoclinic'
loop_
_space_group_symop_operation_xyz
x,y,z
-x,y,-z
-x,-y,-z
x,-y,z
1/2+x,1/2+y,z
1/2-x,1/2+y,-z
1/2-x,1/2-y,-z
1/2+x,1/2-y,z
loop_
_atom_site_type_symbol
_atom_site_label
_atom_site_fract_x
_atom_site_fract_y
_atom_site_fract_z
Si Si1 0.069958 0.336649 0.861670
Si Si2 0.623956 0.720436 0.687786
Si Si3 0.025149 0.607216 0.215207
Si Si4 0.004136 0.752986 0.555847
Si Si5 0.345315 0.603361 0.837252
Si Si6 0.735325 0.604209 0.026471
Si Si7 0.089130 0.840930 0.916817
Si Si8 0.693996 0.385167 0.560146
O O1 0.197944 0.409031 0.845540
O O2 0.144675 0.238768 0.857079
O O3 0.075308 0.354121 0.799904
O O4 0.870673 0.335165 0.947774
O O5 0.541064 0.826515 0.715259
O O6 0.510933 0.663117 0.766152
O O7 0.622232 0.664807 0.635528
O O8 0.817711 0.724761 0.641600
O O9 0.967011 0.500000 0.246095
O O10 0.231429 0.605665 0.134586
O O11 0.120191 0.658105 0.519572
O O12 0.065325 0.847931 0.562217
O O13 0.000000 0.787382 0.500000
O O14 0.414713 0.500000 0.826719
O O15 0.275152 0.650212 0.913693
O O16 0.815372 0.500000 0.002862
O O17 0.551232 0.594937 0.062838
O O18 0.000000 0.805443 0.000000
O O19 0.699658 0.500000 0.562122
#
# Coordination Sequence:
#
# PCOD8112463 Si02
#       8
#     8   8   8   8   8   8   8   8
#     4  12  24  41  64  90 126 174 235 292 354 416
#     4  11  24  42  63  99 140 176 221 270 328 405
#     4  12  27  45  66  95 134 183 232 288 353 410
#     4   9  22  44  71 105 144 174 221 270 318 391
#     4  11  23  39  62  96 133 175 227 289 347 407
#     4  11  23  39  61  88 124 171 233 294 351 414
#     4  12  24  40  65  88 124 170 232 292 358 415
#     4  10  22  44  76 108 139 181 221 265 323 391
#
# _framework density 22.009826
#
# number of rings (size 3 to 8) (size 9 to 14) (size 15 to 20)
#    0.000    1.000    2.500    4.125    1.750    6.000 
#    0.000    5.000    0.000    1.500    0.000    0.000 
#    0.000    0.000    0.000    0.000    0.000    0.000 
#
# Total GULP energy -396533.448987 kJ/mol
# GULP energy per Si atom -12391.670281 kJ/mol
# Density = 2.195973 g / cm^3
# Si number density = 22.009826 Si / 1000 Ang^3
#
#
#
# Elastic Constant Matrix: (Units=GPa)
#
#
# Indices 1 2 3 4 5 6 
#
# 1 119.5793 34.0799 33.9963 0.0002 -7.1313 0.0000
# 2 34.0799 149.6261 51.1324 0.0000 9.4233 0.0000
# 3 33.9963 51.1324 92.6477 0.0005 -12.9046 0.0004
# 4 0.0002 0.0000 0.0005 19.5810 0.0003 1.9211
# 5 -7.1313 9.4233 -12.9046 0.0003 25.8602 -0.0001
# 6 0.0000 0.0000 0.0004 1.9211 -0.0001 26.6616
#
#
#
# Elastic Compliance Matrix: (Units=1/GPa)
#
#
# Indices 1 2 3 4 5 6 
#
# 1 0.009592 -0.001479 -0.002429 0.000000 0.001972 0.000000
# 2 -0.001479 0.009316 -0.005512 0.000000 -0.006553 0.000000
# 3 -0.002429 -0.005512 0.016027 -0.000001 0.009336 0.000000
# 4 0.000000 0.000000 -0.000001 0.051434 -0.000001 -0.003706
# 5 0.001972 -0.006553 0.009336 -0.000001 0.046260 0.000000
# 6 0.000000 0.000000 0.000000 -0.003706 0.000000 0.037774
#
#
# Mechanical properties :
#
#
# Convention : Reuss Voigt Hill
#
# Bulk Modulus (GPa) = 62.12476 66.69669 64.41073
# Shear Modulus (GPa) = 25.69254 30.59686 28.14470
#
# Velocity S-wave (km/s) = 3.42032 3.73251 3.57982
# Velocity P-wave (km/s) = 6.62460 6.99603 6.81284
#
# Compressibility (1/GPa) = 0.01609664
#
# Stress axis : x y z
#
# Youngs Moduli (GPa) = 104.25032 107.33652 62.39366
#
# Poissons Ratio (x) = 0.15875 0.15155
# Poissons Ratio (y) = 0.15418 0.34390
# Poissons Ratio (z) = 0.25321 0.59162
#
# Static dielectric constant tensor:
#      x y z
#    x 4.109180 0.000000 -0.102290 
#    y 0.000000 3.954900 0.000000 
#    z -0.102290 0.000000 3.973330 
# 
# 
# High freq. dielectric constant tensor:
#      x y z
#    x 1.873430 0.000000 -0.007730 
#    y 0.000000 1.865270 0.000000 
#    z -0.007730 0.000000 1.855420 
# 
# From -- ./inp_files/358390.got.cif
#   From: 2010.06.25/outbox.cif.g09.slc.cpg/sg12_180_cif.got.tgz:358390.got - 2010.06.28 00:19:55.
