data_PCOD8112082
_publ_section_title
;
Structure prediction by ZEFSAII (Michael W. Deem and Ramdas Pophale) SiO2 
 PCOD8112082
Probable space group: C 2/M
;
_chemical_formula_sum "Si O2"
_cell_formula_units_Z 56
_cell_length_a 32.490348
_cell_length_b 17.710169
_cell_length_c 9.517884
_cell_angle_alpha 90.000000
_cell_angle_beta 151.729194
_cell_angle_gamma 90.000000
_cell_volume 2593.972725
_symmetry_space_group_name_H-M "C 2/M"
_symmetry_group_IT_number 12
_symmetry_cell_setting 'monoclinic'
loop_
_space_group_symop_operation_xyz
x,y,z
-x,y,-z
-x,-y,-z
x,-y,z
1/2+x,1/2+y,z
1/2-x,1/2+y,-z
1/2-x,1/2-y,-z
1/2+x,1/2-y,z
loop_
_atom_site_type_symbol
_atom_site_label
_atom_site_fract_x
_atom_site_fract_y
_atom_site_fract_z
Si Si1 0.879231 0.916925 0.900551
Si Si2 0.923362 0.585634 0.177912
Si Si3 0.807869 0.823272 0.159391
Si Si4 0.230947 0.414929 0.676344
Si Si5 0.765644 0.090052 0.309517
Si Si6 0.999156 0.214719 0.334884
Si Si7 0.564059 0.843010 0.060970
O O1 0.794430 0.924798 0.738907
O O2 0.842455 0.883403 0.644494
O O3 0.921189 0.000000 0.006071
O O4 0.952430 0.865805 0.189838
O O5 0.916616 0.500000 0.206358
O O6 0.000000 0.625319 0.500000
O O7 0.829091 0.623096 0.927837
O O8 0.949092 0.588695 0.089834
O O9 0.794834 0.876280 0.251877
O O10 0.905299 0.793321 0.439544
O O11 0.750000 0.750000 0.000000
O O12 0.783702 0.876657 0.958850
O O13 0.195953 0.500000 0.611548
O O14 0.157423 0.354679 0.412165
O O15 0.761810 0.000000 0.291553
O O16 0.000000 0.242444 0.500000
O O17 0.944986 0.270283 0.068781
O O18 0.500000 0.843003 0.000000
#
# Coordination Sequence:
#
# PCOD8112082 Si02
#       7
#     8   8   8   8   8   8   8
#     4  10  23  45  75 102 130 181 235 287 354 422
#     4  10  22  41  67  98 136 184 232 284 347 416
#     4  12  28  45  69 105 140 183 233 288 347 418
#     4  11  24  46  72 103 138 182 236 292 350 413
#     4  10  23  45  71 100 139 182 228 286 351 419
#     4  12  28  48  69 102 142 187 232 288 355 423
#     4  12  27  43  67 101 143 184 234 293 346 418
#
# _framework density 21.588508999999998
#
# number of rings (size 3 to 8) (size 9 to 14) (size 15 to 20)
#    0.000    1.000    2.857    2.143   10.000    3.143 
#    0.000    1.429    0.000    0.000    0.000    0.000 
#    0.000    0.000    0.000    0.000    0.000    0.000 
#
# Total GULP energy -347041.653223 kJ/mol
# GULP energy per Si atom -12394.344758 kJ/mol
# Density = 2.153937 g / cm^3
# Si number density = 21.588509 Si / 1000 Ang^3
#
#
#
# Elastic Constant Matrix: (Units=GPa)
#
#
# Indices 1 2 3 4 5 6 
#
# 1 -72.3471 -76.7554 -21.8892 0.0000 30.4805 0.0000
# 2 -76.7554 27.2283 29.0872 0.0000 25.0404 0.0000
# 3 -21.8892 29.0872 84.8113 0.0000 14.8611 0.0000
# 4 0.0000 0.0000 0.0000 39.9627 0.0000 -12.0394
# 5 30.4805 25.0404 14.8611 0.0000 33.1862 0.0000
# 6 0.0000 0.0000 0.0000 -12.0394 0.0000 33.8442
#
#
#
# Elastic Compliance Matrix: (Units=1/GPa)
#
#
# Indices 1 2 3 4 5 6 
#
# 1 -0.000478 -0.010306 0.002140 0.000000 0.007257 0.000000
# 2 -0.010306 0.013105 -0.007683 0.000000 0.003019 0.000000
# 3 0.002140 -0.007683 0.015525 0.000000 -0.003120 0.000000
# 4 0.000000 0.000000 0.000000 0.028027 0.000000 0.009970
# 5 0.007257 0.003019 -0.003120 0.000000 0.022587 0.000000
# 6 0.000000 0.000000 0.000000 0.009970 0.000000 0.033094
#
#
# Mechanical properties :
#
#
# Convention : Reuss Voigt Hill
#
# Bulk Modulus (GPa) = -281.82938 -11.04694 -146.43816
# Shear Modulus (GPa) = 35.11808 28.68197 31.90003
#
# Velocity S-wave (km/s) = 4.03762 3.64892 3.84818
# Velocity P-wave (km/s) = 10.44476 3.55312 6.94508
#
# Compressibility (1/GPa) = -0.00354825
#
# Stress axis : x y z
#
# Youngs Moduli (GPa) = -2093.45614 76.30924 64.41219
#
# Poissons Ratio (x) = 0.78648 -0.13783
# Poissons Ratio (y) = -21.57616 0.49491
# Poissons Ratio (z) = 4.47962 0.58632
#
# Static dielectric constant tensor:
#      x y z
#    x 1.984190 0.000000 -2.954130 
#    y 0.000000 3.909880 0.000000 
#    z -2.954130 0.000000 -0.487910 
# 
# 
# High freq. dielectric constant tensor:
#      x y z
#    x 1.851920 0.000000 -0.011670 
#    y 0.000000 1.851190 0.000000 
#    z -0.011670 0.000000 1.859450 
# 
# From -- ./inp_files/113403.got.cif
#   From: 2010.06.25/outbox.cif.g09.slc.cpg/sg12_57_cif.got.tgz:113403.got - 2010.06.28 00:19:55.
