data_PCOD8112634
_publ_section_title
;
Structure prediction by ZEFSAII (Michael W. Deem and Ramdas Pophale) SiO2 
 PCOD8112634
Probable space group: C 2/M
;
_chemical_formula_sum "Si O2"
_cell_formula_units_Z 56
_cell_length_a 5.244552
_cell_length_b 23.665032
_cell_length_c 22.963884
_cell_angle_alpha 90.000000
_cell_angle_beta 77.033975
_cell_angle_gamma 90.000000
_cell_volume 2777.436530
_symmetry_space_group_name_H-M "C 2/M"
_symmetry_group_IT_number 12
_symmetry_cell_setting 'monoclinic'
loop_
_space_group_symop_operation_xyz
x,y,z
-x,y,-z
-x,-y,-z
x,-y,z
1/2+x,1/2+y,z
1/2-x,1/2+y,-z
1/2-x,1/2-y,-z
1/2+x,1/2-y,z
loop_
_atom_site_type_symbol
_atom_site_label
_atom_site_fract_x
_atom_site_fract_y
_atom_site_fract_z
Si Si1 0.549268 0.432792 0.669315
Si Si2 0.319362 0.500000 0.903669
Si Si3 0.782094 0.932875 0.467340
Si Si4 0.288350 0.381573 0.962490
Si Si5 0.852163 0.777669 0.887116
Si Si6 0.393348 0.000000 0.828104
Si Si7 0.987210 0.399730 0.737624
Si Si8 0.517700 0.770852 0.244881
O O1 0.538053 0.500000 0.676811
O O2 0.653717 0.413743 0.601227
O O3 0.259844 0.407336 0.689988
O O4 0.744575 0.407750 0.706956
O O5 0.319699 0.446613 0.945360
O O6 0.581373 0.500000 0.851561
O O7 0.054010 0.500000 0.879656
O O8 0.500000 0.908106 0.500000
O O9 0.000000 0.908068 0.500000
O O10 0.778554 0.000000 0.471986
O O11 0.343218 0.344391 0.901664
O O12 0.500000 0.365112 0.000000
O O13 0.000000 0.368329 0.000000
O O14 0.570758 0.751007 0.916872
O O15 0.921246 0.766150 0.816209
O O16 0.476281 0.943882 0.790267
O O17 0.971147 0.337656 0.766667
O O18 0.732002 0.749987 0.281218
#
# Coordination Sequence:
#
# PCOD8112634 Si02
#       8
#     8   4   8   8   8   4   8   8
#     4  11  20  36  55  89 132 170 211 255 304 366
#     4  12  28  43  68  90 124 155 200 236 294 372
#     4   9  17  29  49  78 120 173 215 250 296 355
#     4  12  26  46  70  91 120 150 192 247 301 358
#     4  10  23  40  63  89 115 148 189 240 299 354
#     4  12  26  39  66  92 120 165 200 240 292 386
#     4  12  23  39  60  91 125 165 209 252 310 362
#     4  10  23  40  63  85 122 154 202 253 308 359
#
# _framework density 20.162476000000002
#
# number of rings (size 3 to 8) (size 9 to 14) (size 15 to 20)
#    0.000    1.143    1.429    4.714    8.000    4.000 
#    0.000    0.000    0.000    0.000    0.000    0.000 
#    0.000   40.000    0.000    0.000    0.000    0.000 
#
# Total GULP energy -347181.200634 kJ/mol
# GULP energy per Si atom -12399.328594 kJ/mol
# Density = 2.011658 g / cm^3
# Si number density = 20.162476 Si / 1000 Ang^3
#
#
#
# Elastic Constant Matrix: (Units=GPa)
#
#
# Indices 1 2 3 4 5 6 
#
# 1 157.7967 19.5523 15.7455 0.0000 -4.7641 0.0000
# 2 19.5523 87.4914 8.5808 0.0000 2.4509 0.0000
# 3 15.7455 8.5808 61.0390 0.0000 0.2426 0.0000
# 4 0.0000 0.0000 0.0000 -4.7990 0.0000 -6.6123
# 5 -4.7641 2.4509 0.2426 0.0000 21.5758 0.0000
# 6 0.0000 0.0000 0.0000 -6.6123 0.0000 42.2454
#
#
#
# Elastic Compliance Matrix: (Units=1/GPa)
#
#
# Indices 1 2 3 4 5 6 
#
# 1 0.006714 -0.001396 -0.001542 0.000000 0.001658 0.000000
# 2 -0.001396 0.011916 -0.001309 0.000000 -0.001647 0.000000
# 3 -0.001542 -0.001309 0.016966 0.000000 -0.000383 0.000000
# 4 0.000000 0.000000 0.000000 -0.171411 0.000000 -0.026829
# 5 0.001658 -0.001647 -0.000383 0.000000 0.046906 0.000000
# 6 0.000000 0.000000 0.000000 -0.026829 0.000000 0.019472
#
#
# Mechanical properties :
#
#
# Convention : Reuss Voigt Hill
#
# Bulk Modulus (GPa) = 36.89578 43.78713 40.34146
# Shear Modulus (GPa) = -96.32242 29.30101 -33.51070
#
# Velocity S-wave (km/s) = -6.91931 3.81628 -4.08123
# Velocity P-wave (km/s) = 6.74513 6.41739 1.46865
#
# Compressibility (1/GPa) = 0.02710337
#
# Stress axis : x y z
#
# Youngs Moduli (GPa) = 148.93867 83.92024 58.94031
#
# Poissons Ratio (x) = 0.11712 0.09091
# Poissons Ratio (y) = 0.20787 0.07713
# Poissons Ratio (z) = 0.22972 0.10982
#
# Static dielectric constant tensor:
#      x y z
#    x 4.920260 0.000000 -0.095290 
#    y 0.000000 3.517760 0.000000 
#    z -0.095290 0.000000 3.429790 
# 
# 
# High freq. dielectric constant tensor:
#      x y z
#    x 1.826060 0.000000 -0.003300 
#    y 0.000000 1.769340 0.000000 
#    z -0.003300 0.000000 1.758330 
# 
# From -- ./inp_files/298085.got.cif
#   From: 2010.06.25/outbox.cif.g09.slc.cpg/sg12_150_cif.got.tgz:298085.got - 2010.06.28 00:19:55.
