data_PCOD8112709
_publ_section_title
;
Structure prediction by ZEFSAII (Michael W. Deem and Ramdas Pophale) SiO2 
 PCOD8112709
Probable space group: C 2/M
;
_chemical_formula_sum "Si O2"
_cell_formula_units_Z 56
_cell_length_a 23.741141
_cell_length_b 8.861287
_cell_length_c 15.383929
_cell_angle_alpha 90.000000
_cell_angle_beta 119.058782
_cell_angle_gamma 90.000000
_cell_volume 2829.030561
_symmetry_space_group_name_H-M "C 2/M"
_symmetry_group_IT_number 12
_symmetry_cell_setting 'monoclinic'
loop_
_space_group_symop_operation_xyz
x,y,z
-x,y,-z
-x,-y,-z
x,-y,z
1/2+x,1/2+y,z
1/2-x,1/2+y,-z
1/2-x,1/2-y,-z
1/2+x,1/2-y,z
loop_
_atom_site_type_symbol
_atom_site_label
_atom_site_fract_x
_atom_site_fract_y
_atom_site_fract_z
Si Si1 0.073946 0.175767 0.795800
Si Si2 0.712697 0.821170 0.892112
Si Si3 0.721336 0.173446 0.358647
Si Si4 0.185647 0.325551 0.143345
Si Si5 0.659883 0.822187 0.488786
Si Si6 0.942201 0.175131 0.019216
Si Si7 0.982945 0.322464 0.585888
O O1 0.139702 0.266969 0.835377
O O2 0.041783 0.203238 0.866969
O O3 0.026680 0.232097 0.685769
O O4 0.088929 0.000000 0.793696
O O5 0.750811 0.767112 0.835523
O O6 0.714073 0.000000 0.899924
O O7 0.750000 0.750000 0.000000
O O8 0.678486 0.197985 0.241070
O O9 0.679670 0.236244 0.407819
O O10 0.789536 0.259321 0.402887
O O11 0.738512 0.000000 0.386242
O O12 0.195199 0.500000 0.125166
O O13 0.121858 0.267254 0.049280
O O14 0.589107 0.760931 0.455274
O O15 0.659964 0.000000 0.496267
O O16 0.928321 0.000000 0.990098
O O17 0.000000 0.232763 0.000000
O O18 0.990231 0.500000 0.610808
O O19 0.000000 0.283418 0.500000
#
# Coordination Sequence:
#
# PCOD8112709 Si02
#       7
#     8   8   8   8   8   8   8
#     4  11  24  42  64  91 123 162 204 253 308 363
#     4  12  24  41  64  89 121 158 199 248 299 358
#     4   9  20  37  58  87 118 152 198 251 300 355
#     4  11  23  38  61  93 123 158 202 250 306 364
#     4   9  19  38  60  83 117 158 202 249 301 358
#     4  10  23  42  62  89 126 165 207 251 301 367
#     4  10  23  41  61  88 121 160 207 253 303 364
#
# _framework density 19.794767
#
# number of rings (size 3 to 8) (size 9 to 14) (size 15 to 20)
#    0.000    1.714    1.429    2.143    4.000    2.857 
#    0.000    0.000    0.000    0.000    0.000    0.000 
#    0.000    0.000    0.000    0.000    0.000    0.000 
#
# Total GULP energy -347246.910682 kJ/mol
# GULP energy per Si atom -12401.675382 kJ/mol
# Density = 1.974971 g / cm^3
# Si number density = 19.794767 Si / 1000 Ang^3
#
#
#
# Elastic Constant Matrix: (Units=GPa)
#
#
# Indices 1 2 3 4 5 6 
#
# 1 140.9147 47.9708 50.6788 0.0000 3.9743 0.0000
# 2 47.9708 91.0832 46.4830 0.0000 -0.0470 0.0000
# 3 50.6788 46.4830 119.5388 0.0000 0.0820 0.0000
# 4 0.0000 0.0000 0.0000 32.1292 0.0000 5.0629
# 5 3.9743 -0.0470 0.0820 0.0000 29.5543 0.0000
# 6 0.0000 0.0000 0.0000 5.0629 0.0000 29.9099
#
#
#
# Elastic Compliance Matrix: (Units=1/GPa)
#
#
# Indices 1 2 3 4 5 6 
#
# 1 0.009263 -0.003587 -0.002531 0.000000 -0.001244 0.000000
# 2 -0.003587 0.015087 -0.004346 0.000000 0.000518 0.000000
# 3 -0.002531 -0.004346 0.011128 0.000000 0.000303 0.000000
# 4 0.000000 0.000000 0.000000 0.031977 0.000000 -0.005413
# 5 -0.001244 0.000518 0.000303 0.000000 0.034003 0.000000
# 6 0.000000 0.000000 0.000000 -0.005413 0.000000 0.034350
#
#
# Mechanical properties :
#
#
# Convention : Reuss Voigt Hill
#
# Bulk Modulus (GPa) = 68.73445 71.31133 70.02289
# Shear Modulus (GPa) = 30.94295 32.07894 31.51095
#
# Velocity S-wave (km/s) = 3.95801 4.03001 3.99417
# Velocity P-wave (km/s) = 7.46235 7.59988 7.53143
#
# Compressibility (1/GPa) = 0.01454875
#
# Stress axis : x y z
#
# Youngs Moduli (GPa) = 107.95384 66.28434 89.86066
#
# Poissons Ratio (x) = 0.23779 0.22747
# Poissons Ratio (y) = 0.38728 0.39052
# Poissons Ratio (z) = 0.27326 0.28806
#
# Static dielectric constant tensor:
#      x y z
#    x 3.967240 0.000000 -0.206650 
#    y 0.000000 3.594740 0.000000 
#    z -0.206650 0.000000 3.563810 
# 
# 
# High freq. dielectric constant tensor:
#      x y z
#    x 1.779830 0.000000 -0.005520 
#    y 0.000000 1.770710 0.000000 
#    z -0.005520 0.000000 1.777660 
# 
# From -- ./inp_files/238999.got.cif
#   From: 2010.06.25/outbox.cif.g09.slc.cpg/sg12_120_cif.got.tgz:238999.got - 2010.06.28 00:19:55.
