data_PCOD8112235
_publ_section_title
;
Structure prediction by ZEFSAII (Michael W. Deem and Ramdas Pophale) SiO2 
 PCOD8112235
Probable space group: C 2/M
;
_chemical_formula_sum "Si O2"
_cell_formula_units_Z 48
_cell_length_a 11.098958
_cell_length_b 16.212897
_cell_length_c 20.553623
_cell_angle_alpha 90.000000
_cell_angle_beta 41.184895
_cell_angle_gamma 90.000000
_cell_volume 2435.460622
_symmetry_space_group_name_H-M "C 2/M"
_symmetry_group_IT_number 12
_symmetry_cell_setting 'monoclinic'
loop_
_space_group_symop_operation_xyz
x,y,z
-x,y,-z
-x,-y,-z
x,-y,z
1/2+x,1/2+y,z
1/2-x,1/2+y,-z
1/2-x,1/2-y,-z
1/2+x,1/2-y,z
loop_
_atom_site_type_symbol
_atom_site_label
_atom_site_fract_x
_atom_site_fract_y
_atom_site_fract_z
Si Si1 0.692661 0.151080 0.273949
Si Si2 0.316240 0.500000 0.993925
Si Si3 0.670462 0.167861 0.002704
Si Si4 0.272121 0.819824 0.169801
Si Si5 0.742805 0.500000 0.839276
Si Si6 0.903669 0.904131 0.306693
Si Si7 0.627268 0.190265 0.506102
O O1 0.708095 0.237066 0.230953
O O2 0.676591 0.081029 0.226549
O O3 0.864150 0.140574 0.253615
O O4 0.506656 0.143554 0.390411
O O5 0.279894 0.582973 0.968007
O O6 0.200378 0.500000 0.107944
O O7 0.527321 0.500000 0.922879
O O8 0.469406 0.150693 0.116385
O O9 0.750000 0.250000 0.000000
O O10 0.679920 0.193146 0.924292
O O11 0.110702 0.885982 0.245645
O O12 0.762383 0.875802 0.419179
O O13 0.877085 0.000000 0.305769
O O14 0.500000 0.232269 0.500000
O O15 0.750000 0.250000 0.500000
#
# Coordination Sequence:
#
# PCOD8112235 Si02
#       7
#     8   4   8   8   4   8   8
#     4  11  22  39  65  96 126 167 220 268 324 392
#     4  11  24  41  60  87 129 170 212 267 330 388
#     4  11  24  40  60  90 127 166 219 265 325 395
#     4  11  23  38  64  88 127 169 211 263 327 388
#     4  11  22  38  63  89 127 163 214 269 322 379
#     4  11  23  39  67  97 131 167 217 273 326 392
#     4  10  22  42  66  98 134 176 219 274 335 399
#
# _framework density 19.708798000000002
#
# number of rings (size 3 to 8) (size 9 to 14) (size 15 to 20)
#    0.000    1.167    2.500    4.000    3.500    4.333 
#    0.000    0.000    0.000    0.500    0.000    0.000 
#    0.000    0.000    0.000    0.000    0.000    0.000 
#
# Total GULP energy -297433.034123 kJ/mol
# GULP energy per Si atom -12393.043088 kJ/mol
# Density = 1.966394 g / cm^3
# Si number density = 19.708798 Si / 1000 Ang^3
#
#
#
# Elastic Constant Matrix: (Units=GPa)
#
#
# Indices 1 2 3 4 5 6 
#
# 1 88.8264 37.2025 37.1776 0.0000 -8.7473 0.0000
# 2 37.2025 103.0490 26.7492 -0.0024 4.7544 0.0010
# 3 37.1776 26.7492 117.1356 -0.0063 -1.3740 0.0007
# 4 0.0000 -0.0024 -0.0063 33.1717 0.0004 4.6913
# 5 -8.7473 4.7544 -1.3740 0.0004 37.2827 0.0004
# 6 0.0000 0.0010 0.0007 4.6913 0.0004 27.5696
#
#
#
# Elastic Compliance Matrix: (Units=1/GPa)
#
#
# Indices 1 2 3 4 5 6 
#
# 1 0.015170 -0.004703 -0.003693 -0.000001 0.004023 0.000000
# 2 -0.004703 0.011848 -0.001244 0.000001 -0.002660 0.000000
# 3 -0.003693 -0.001244 0.009989 0.000002 -0.000340 -0.000001
# 4 -0.000001 0.000001 0.000002 0.030890 -0.000001 -0.005256
# 5 0.004023 -0.002660 -0.000340 -0.000001 0.028093 0.000000
# 6 0.000000 0.000000 -0.000001 -0.005256 0.000000 0.037166
#
#
# Mechanical properties :
#
#
# Convention : Reuss Voigt Hill
#
# Bulk Modulus (GPa) = 56.41634 56.80772 56.61203
# Shear Modulus (GPa) = 31.57647 33.46358 32.52002
#
# Velocity S-wave (km/s) = 4.00703 4.12503 4.06646
# Velocity P-wave (km/s) = 7.07782 7.18150 7.12985
#
# Compressibility (1/GPa) = 0.01772536
#
# Stress axis : x y z
#
# Youngs Moduli (GPa) = 65.92026 84.40396 100.10542
#
# Poissons Ratio (x) = 0.39699 0.36974
# Poissons Ratio (y) = 0.31005 0.12453
# Poissons Ratio (z) = 0.24347 0.10499
#
# Static dielectric constant tensor:
#      x y z
#    x 4.006880 0.000000 -0.065740 
#    y 0.000000 3.393580 0.000000 
#    z -0.065740 0.000000 4.086660 
# 
# 
# High freq. dielectric constant tensor:
#      x y z
#    x 1.769330 0.000000 -0.002120 
#    y 0.000000 1.755960 0.000000 
#    z -0.002120 0.000000 1.792380 
# 
# From -- ./inp_files/205167.got.cif
#   From: 2010.06.25/outbox.cif.g09.slc.cpg/sg12_103_cif.got.tgz:205167.got - 2010.06.28 00:19:55.
