data_PCOD8112652
_publ_section_title
;
Structure prediction by ZEFSAII (Michael W. Deem and Ramdas Pophale) SiO2 
 PCOD8112652
Probable space group: C 2/M
;
_chemical_formula_sum "Si O2"
_cell_formula_units_Z 44
_cell_length_a 11.738853
_cell_length_b 19.974758
_cell_length_c 13.884275
_cell_angle_alpha 90.000000
_cell_angle_beta 40.395079
_cell_angle_gamma 90.000000
_cell_volume 2109.803084
_symmetry_space_group_name_H-M "C 2/M"
_symmetry_group_IT_number 12
_symmetry_cell_setting 'monoclinic'
loop_
_space_group_symop_operation_xyz
x,y,z
-x,y,-z
-x,-y,-z
x,-y,z
1/2+x,1/2+y,z
1/2-x,1/2+y,-z
1/2-x,1/2-y,-z
1/2+x,1/2-y,z
loop_
_atom_site_type_symbol
_atom_site_label
_atom_site_fract_x
_atom_site_fract_y
_atom_site_fract_z
Si Si1 0.000000 0.825384 0.000000
Si Si2 0.524598 0.000000 0.833817
Si Si3 0.578639 0.122023 0.660302
Si Si4 0.802036 0.000000 0.824027
Si Si5 0.738204 0.921545 0.239805
Si Si6 0.920737 0.886256 0.323618
Si Si7 0.951270 0.756237 0.842240
O O1 0.044855 0.777292 0.881586
O O2 0.163730 0.876963 0.905785
O O3 0.542089 0.934142 0.760953
O O4 0.681518 0.000000 0.808296
O O5 0.327638 0.000000 0.001896
O O6 0.462163 0.105326 0.639643
O O7 0.780804 0.120669 0.499237
O O8 0.534712 0.191403 0.740756
O O9 0.927379 0.063776 0.743245
O O10 0.823101 0.909539 0.289176
O O11 0.748967 0.000000 0.206598
O O12 0.018467 0.815623 0.252502
O O13 0.750000 0.750000 0.000000
#
# Coordination Sequence:
#
# PCOD8112652 Si02
#       7
#     4   4   8   4   8   8   8
#     4  10  23  40  64  99 126 178 220 272 320 383
#     4  11  27  44  69  94 128 176 221 273 316 397
#     4  12  24  42  67 100 135 171 217 268 336 388
#     4  11  25  48  65  96 128 172 225 265 326 385
#     4  11  22  38  69 102 136 166 213 273 334 391
#     4  11  25  42  69  98 134 172 213 276 329 392
#     4  11  23  43  65  93 131 174 220 269 319 390
#
# _framework density 20.855028000000001
#
# number of rings (size 3 to 8) (size 9 to 14) (size 15 to 20)
#    0.000    0.909    3.636    3.000    2.545    5.091 
#    0.000    0.000    0.000    0.000    0.000    0.000 
#    0.000    0.000    0.000    0.000    0.000    0.000 
#
# Total GULP energy -272712.770959 kJ/mol
# GULP energy per Si atom -12396.035044 kJ/mol
# Density = 2.080756 g / cm^3
# Si number density = 20.855028 Si / 1000 Ang^3
#
#
#
# Elastic Constant Matrix: (Units=GPa)
#
#
# Indices 1 2 3 4 5 6 
#
# 1 62.4462 51.1065 48.2645 -0.0016 -13.7977 -0.0005
# 2 51.1065 194.8471 77.5257 -0.0003 -9.0389 0.0005
# 3 48.2645 77.5257 154.2681 -0.0026 -29.1140 0.0012
# 4 -0.0016 -0.0003 -0.0026 41.3182 -0.0012 0.2158
# 5 -13.7977 -9.0389 -29.1140 -0.0012 28.5987 0.0010
# 6 -0.0005 0.0005 0.0012 0.2158 0.0010 27.1521
#
#
#
# Elastic Compliance Matrix: (Units=1/GPa)
#
#
# Indices 1 2 3 4 5 6 
#
# 1 0.024198 -0.004382 -0.004241 0.000001 0.005972 0.000000
# 2 -0.004382 0.007265 -0.002779 0.000000 -0.002648 0.000000
# 3 -0.004241 -0.002779 0.010712 0.000001 0.007980 -0.000001
# 4 0.000001 0.000000 0.000001 0.024203 0.000002 -0.000192
# 5 0.005972 -0.002648 0.007980 0.000002 0.045135 -0.000002
# 6 0.000000 0.000000 -0.000001 -0.000192 -0.000002 0.036831
#
#
# Mechanical properties :
#
#
# Convention : Reuss Voigt Hill
#
# Bulk Modulus (GPa) = 51.63021 85.03942 68.33481
# Shear Modulus (GPa) = 28.15216 35.05811 31.60513
#
# Velocity S-wave (km/s) = 3.67808 4.10450 3.89712
# Velocity P-wave (km/s) = 6.54585 7.95786 7.28614
#
# Compressibility (1/GPa) = 0.01936851
#
# Stress axis : x y z
#
# Youngs Moduli (GPa) = 41.32594 137.65162 93.35328
#
# Poissons Ratio (x) = 0.60323 0.39594
# Poissons Ratio (y) = 0.18110 0.25947
# Poissons Ratio (z) = 0.17528 0.38259
#
# Static dielectric constant tensor:
#      x y z
#    x 3.911380 -0.000010 -0.065860 
#    y -0.000010 4.132050 0.000010 
#    z -0.065860 0.000010 3.998640 
# 
# 
# High freq. dielectric constant tensor:
#      x y z
#    x 1.809770 0.000000 -0.007860 
#    y 0.000000 1.835200 0.000000 
#    z -0.007860 0.000000 1.829800 
# 
# From -- ./inp_files/207566.got.cif
#   From: 2010.06.25/outbox.cif.g09.slc.cpg/sg12_104_cif.got.tgz:207566.got - 2010.06.28 00:19:55.
