data_PCOD8112606
_publ_section_title
;
Structure prediction by ZEFSAII (Michael W. Deem and Ramdas Pophale) SiO2 
 PCOD8112606
Probable space group: C 2/M
;
_chemical_formula_sum "Si O2"
_cell_formula_units_Z 48
_cell_length_a 14.699116
_cell_length_b 8.896484
_cell_length_c 18.799801
_cell_angle_alpha 90.000000
_cell_angle_beta 88.079831
_cell_angle_gamma 90.000000
_cell_volume 2457.077976
_symmetry_space_group_name_H-M "C 2/M"
_symmetry_group_IT_number 12
_symmetry_cell_setting 'monoclinic'
loop_
_space_group_symop_operation_xyz
x,y,z
-x,y,-z
-x,-y,-z
x,-y,z
1/2+x,1/2+y,z
1/2-x,1/2+y,-z
1/2-x,1/2-y,-z
1/2+x,1/2-y,z
loop_
_atom_site_type_symbol
_atom_site_label
_atom_site_fract_x
_atom_site_fract_y
_atom_site_fract_z
Si Si1 0.677075 0.674117 0.346967
Si Si2 0.893229 0.329645 0.512586
Si Si3 0.646197 0.676567 0.630627
Si Si4 0.992190 0.173096 0.741313
Si Si5 0.504724 0.822610 0.891041
Si Si6 0.150554 0.677836 0.000371
O O1 0.703920 0.500000 0.353481
O O2 0.629616 0.725575 0.420606
O O3 0.764774 0.775543 0.327305
O O4 0.610191 0.699519 0.282283
O O5 0.857870 0.500000 0.525853
O O6 0.845484 0.262943 0.444130
O O7 0.000000 0.326245 0.500000
O O8 0.643108 0.500000 0.616018
O O9 0.558989 0.730773 0.677344
O O10 0.011043 0.264110 0.811515
O O11 0.012474 0.000000 0.757208
O O12 0.411023 0.767497 0.931036
O O13 0.503528 0.000000 0.890181
O O14 0.594857 0.769729 0.931578
O O15 0.163608 0.500000 0.000954
O O16 0.250000 0.750000 0.000000
#
# Coordination Sequence:
#
# PCOD8112606 Si02
#       6
#     8   8   8   8   8   8
#     4  11  23  40  59  82 113 150 191 238 289 341
#     4  11  22  37  60  86 110 144 192 241 289 343
#     4  11  23  40  59  82 113 150 191 238 289 341
#     4  10  23  40  58  82 116 152 189 232 282 336
#     4   9  20  38  59  83 117 152 186 227 276 332
#     4   9  19  37  60  88 116 149 187 227 274 328
#
# _framework density 19.535399000000002
#
# number of rings (size 3 to 8) (size 9 to 14) (size 15 to 20)
#    0.000    1.833    1.667    3.000    0.000    6.000 
#    0.000    8.333    0.000    0.000    0.000    0.000 
#    0.000    0.000    0.000    0.000    0.000    0.000 
#
# Total GULP energy -297624.919041 kJ/mol
# GULP energy per Si atom -12401.038293 kJ/mol
# Density = 1.949094 g / cm^3
# Si number density = 19.535399 Si / 1000 Ang^3
#
#
#
# Elastic Constant Matrix: (Units=GPa)
#
#
# Indices 1 2 3 4 5 6 
#
# 1 107.3472 29.0201 24.5609 0.0000 9.5283 0.0000
# 2 29.0201 45.8596 29.2993 0.0000 4.6478 0.0000
# 3 24.5609 29.2993 91.8226 0.0000 12.9881 0.0000
# 4 0.0000 0.0000 0.0000 10.5748 0.0000 -9.2529
# 5 9.5283 4.6478 12.9881 0.0000 20.5986 0.0000
# 6 0.0000 0.0000 0.0000 -9.2529 0.0000 32.1358
#
#
#
# Elastic Compliance Matrix: (Units=1/GPa)
#
#
# Indices 1 2 3 4 5 6 
#
# 1 0.011532 -0.006642 -0.000464 0.000000 -0.003543 0.000000
# 2 -0.006642 0.031225 -0.008371 0.000000 0.001305 0.000000
# 3 -0.000464 -0.008371 0.014699 0.000000 -0.007165 0.000000
# 4 0.000000 0.000000 0.000000 0.126412 0.000000 0.036398
# 5 -0.003543 0.001305 -0.007165 0.000000 0.054409 0.000000
# 6 0.000000 0.000000 0.000000 0.036398 0.000000 0.041598
#
#
# Mechanical properties :
#
#
# Convention : Reuss Voigt Hill
#
# Bulk Modulus (GPa) = 37.73408 45.64334 41.68871
# Shear Modulus (GPa) = 15.64145 23.47179 19.55662
#
# Velocity S-wave (km/s) = 2.83268 3.47003 3.16743
# Velocity P-wave (km/s) = 5.48238 6.28251 5.89603
#
# Compressibility (1/GPa) = 0.02650124
#
# Stress axis : x y z
#
# Youngs Moduli (GPa) = 86.71699 32.02585 68.03010
#
# Poissons Ratio (x) = 0.21271 0.03157
# Poissons Ratio (y) = 0.57595 0.56951
# Poissons Ratio (z) = 0.04024 0.26810
#
# Static dielectric constant tensor:
#      x y z
#    x 3.813470 0.000000 -0.025610 
#    y 0.000000 3.516330 0.000000 
#    z -0.025610 0.000000 3.595330 
# 
# 
# High freq. dielectric constant tensor:
#      x y z
#    x 1.776100 0.000000 0.004760 
#    y 0.000000 1.759020 0.000000 
#    z 0.004760 0.000000 1.753400 
# 
# From -- ./inp_files/267688.got.cif
#   From: 2010.06.25/outbox.cif.g09.slc.cpg/sg12_134_cif.got.tgz:267688.got - 2010.06.28 00:19:55.
