data_PCOD8112932
_publ_section_title
;
Structure prediction by ZEFSAII (Michael W. Deem and Ramdas Pophale) SiO2 
 PCOD8112932
Probable space group: C 2/M
;
_chemical_formula_sum "Si O2"
_cell_formula_units_Z 32
_cell_length_a 16.199039
_cell_length_b 22.512191
_cell_length_c 8.618117
_cell_angle_alpha 90.000000
_cell_angle_beta 153.621529
_cell_angle_gamma 90.000000
_cell_volume 1396.350128
_symmetry_space_group_name_H-M "C 2/M"
_symmetry_group_IT_number 12
_symmetry_cell_setting 'monoclinic'
loop_
_space_group_symop_operation_xyz
x,y,z
-x,y,-z
-x,-y,-z
x,-y,z
1/2+x,1/2+y,z
1/2-x,1/2+y,-z
1/2-x,1/2-y,-z
1/2+x,1/2-y,z
loop_
_atom_site_type_symbol
_atom_site_label
_atom_site_fract_x
_atom_site_fract_y
_atom_site_fract_z
Si Si1 0.207203 0.130614 0.312495
Si Si2 0.467120 0.067652 0.267671
Si Si3 0.275459 0.831694 0.765126
Si Si4 0.614568 0.723956 0.903516
O O1 0.335531 0.074581 0.487113
O O2 0.291370 0.158891 0.609398
O O3 0.217979 0.176721 0.188450
O O4 0.000000 0.107857 0.000000
O O5 0.500000 0.086579 0.500000
O O6 0.398205 0.000000 0.137599
O O7 0.310043 0.108695 0.923529
O O8 0.074141 0.805421 0.477729
O O9 0.431834 0.782547 0.071360
O O10 0.750000 0.750000 0.000000
#
# Coordination Sequence:
#
# PCOD8112932 Si02
#       4
#     8   8   8   8
#     4  10  23  42  67 101 138 174 219 273 333 400
#     4  11  25  46  69  94 129 175 229 282 334 398
#     4  11  23  40  65  98 135 173 218 272 332 395
#     4  11  22  39  66 100 138 174 214 267 331 400
#
# _framework density 22.916889000000001
#
# number of rings (size 3 to 8) (size 9 to 14) (size 15 to 20)
#    0.000    1.250    0.000    5.250    0.000    8.500 
#    0.000    3.750    0.000   15.000    0.000    0.000 
#    0.000    0.000    0.000    0.000    0.000    0.000 
#
# Total GULP energy -198325.727489 kJ/mol
# GULP energy per Si atom -12395.357968 kJ/mol
# Density = 2.286473 g / cm^3
# Si number density = 22.916889 Si / 1000 Ang^3
#
#
#
# Elastic Constant Matrix: (Units=GPa)
#
#
# Indices 1 2 3 4 5 6 
#
# 1 126.9087 35.8560 65.8690 0.0000 7.8579 0.0000
# 2 35.8560 117.9367 75.4352 0.0000 -5.4746 0.0000
# 3 65.8690 75.4352 154.3673 0.0000 -11.3012 0.0000
# 4 0.0000 0.0000 0.0000 34.0617 0.0000 5.6747
# 5 7.8579 -5.4746 -11.3012 0.0000 34.5506 0.0000
# 6 0.0000 0.0000 0.0000 5.6747 0.0000 26.9079
#
#
#
# Elastic Compliance Matrix: (Units=1/GPa)
#
#
# Indices 1 2 3 4 5 6 
#
# 1 0.010653 -0.000480 -0.004605 0.000000 -0.004005 0.000000
# 2 -0.000480 0.012356 -0.005822 0.000000 0.000163 0.000000
# 3 -0.004605 -0.005822 0.011574 0.000000 0.003911 0.000000
# 4 0.000000 0.000000 0.000000 0.030428 0.000000 -0.006417
# 5 -0.004005 0.000163 0.003911 0.000000 0.031159 0.000000
# 6 0.000000 0.000000 0.000000 -0.006417 0.000000 0.038517
#
#
# Mechanical properties :
#
#
# Convention : Reuss Voigt Hill
#
# Bulk Modulus (GPa) = 78.29759 83.72591 81.01175
# Shear Modulus (GPa) = 31.10322 33.90754 32.50538
#
# Velocity S-wave (km/s) = 3.68804 3.85071 3.77025
# Velocity P-wave (km/s) = 7.23710 7.50897 7.37428
#
# Compressibility (1/GPa) = 0.01277179
#
# Stress axis : x y z
#
# Youngs Moduli (GPa) = 93.87007 80.93187 86.40089
#
# Poissons Ratio (x) = 0.03881 0.39784
# Poissons Ratio (y) = 0.04501 0.50299
# Poissons Ratio (z) = 0.43223 0.47115
#
# Static dielectric constant tensor:
#      x y z
#    x 4.296370 0.000000 -0.224940 
#    y 0.000000 3.950460 0.000000 
#    z -0.224940 0.000000 4.558570 
# 
# 
# High freq. dielectric constant tensor:
#      x y z
#    x 1.927200 0.000000 -0.014580 
#    y 0.000000 1.883300 0.000000 
#    z -0.014580 0.000000 1.918090 
# 
# From -- ./inp_files/38711.got.cif
#   From: 2010.06.25/outbox.cif.g09.slc.cpg/sg12_20_cif.got.tgz:38711.got - 2010.06.28 00:19:55.
