data_PCOD8112526
_publ_section_title
;
Structure prediction by ZEFSAII (Michael W. Deem and Ramdas Pophale) SiO2 
 PCOD8112526
Probable space group: C 2/M
;
_chemical_formula_sum "Si O2"
_cell_formula_units_Z 40
_cell_length_a 11.368057
_cell_length_b 25.832724
_cell_length_c 9.254319
_cell_angle_alpha 90.000000
_cell_angle_beta 128.777006
_cell_angle_gamma 90.000000
_cell_volume 2118.687097
_symmetry_space_group_name_H-M "C 2/M"
_symmetry_group_IT_number 12
_symmetry_cell_setting 'monoclinic'
loop_
_space_group_symop_operation_xyz
x,y,z
-x,y,-z
-x,-y,-z
x,-y,z
1/2+x,1/2+y,z
1/2-x,1/2+y,-z
1/2-x,1/2-y,-z
1/2+x,1/2-y,z
loop_
_atom_site_type_symbol
_atom_site_label
_atom_site_fract_x
_atom_site_fract_y
_atom_site_fract_z
Si Si1 0.569173 0.169066 0.704423
Si Si2 0.143126 0.942312 0.711138
Si Si3 0.137437 0.357475 0.202915
Si Si4 0.112440 0.869218 0.953362
Si Si5 0.110084 0.789172 0.716523
O O1 0.500000 0.152191 0.500000
O O2 0.423529 0.160053 0.690657
O O3 0.619096 0.228587 0.750301
O O4 0.715349 0.135347 0.857344
O O5 0.258898 0.907981 0.707613
O O6 0.106225 0.917518 0.839028
O O7 0.000000 0.945439 0.500000
O O8 0.207740 0.000000 0.787627
O O9 0.223364 0.309202 0.195368
O O10 0.000000 0.374622 0.000000
O O11 0.058088 0.818013 0.823608
O O12 0.000000 0.878665 0.000000
O O13 0.000000 0.804057 0.500000
#
# Coordination Sequence:
#
# PCOD8112526 Si02
#       5
#     8   8   8   8   8
#     4  11  25  36  56  91 126 166 200 242 297 344
#     4  10  23  45  70  89 111 155 203 248 308 368
#     4  11  21  39  62  88 121 156 207 250 289 354
#     4  11  23  38  61  90 124 156 194 255 302 353
#     4  10  23  38  57  85 122 173 207 234 284 356
#
# _framework density 18.879615999999999
#
# number of rings (size 3 to 8) (size 9 to 14) (size 15 to 20)
#    0.000    1.400    4.000    3.000    8.400    2.400 
#    0.000    0.000    0.000    1.200    0.000    0.000 
#    0.000    0.000    0.000    0.000    0.000    0.000 
#
# Total GULP energy -247970.392897 kJ/mol
# GULP energy per Si atom -12398.519645 kJ/mol
# Density = 1.883664 g / cm^3
# Si number density = 18.879616 Si / 1000 Ang^3
#
#
#
# Elastic Constant Matrix: (Units=GPa)
#
#
# Indices 1 2 3 4 5 6 
#
# 1 141.1099 61.1133 31.9073 0.0000 -10.6074 0.0000
# 2 61.1133 106.3093 48.5998 0.0000 -4.1168 0.0000
# 3 31.9073 48.5998 95.8580 0.0000 -7.4674 0.0000
# 4 0.0000 0.0000 0.0000 67.8973 0.0000 68.5357
# 5 -10.6074 -4.1168 -7.4674 0.0000 32.7934 0.0000
# 6 0.0000 0.0000 0.0000 68.5357 0.0000 168.9372
#
#
#
# Elastic Compliance Matrix: (Units=1/GPa)
#
#
# Indices 1 2 3 4 5 6 
#
# 1 0.009633 -0.005291 -0.000339 0.000000 0.002375 0.000000
# 2 -0.005291 0.015151 -0.006012 0.000000 -0.001178 0.000000
# 3 -0.000339 -0.006012 0.013770 0.000000 0.002271 0.000000
# 4 0.000000 0.000000 0.000000 0.024942 0.000000 -0.010119
# 5 0.002375 -0.001178 0.002271 0.000000 0.031631 0.000000
# 6 0.000000 0.000000 0.000000 -0.010119 0.000000 0.010024
#
#
# Mechanical properties :
#
#
# Convention : Reuss Voigt Hill
#
# Bulk Modulus (GPa) = 65.48788 69.61312 67.55050
# Shear Modulus (GPa) = 37.44594 67.36937 52.40766
#
# Velocity S-wave (km/s) = 4.45838 5.98006 5.27438
# Velocity P-wave (km/s) = 7.82721 9.19965 8.54104
#
# Compressibility (1/GPa) = 0.01527000
#
# Stress axis : x y z
#
# Youngs Moduli (GPa) = 103.80707 66.00288 72.62139
#
# Poissons Ratio (x) = 0.34921 0.02463
# Poissons Ratio (y) = 0.54922 0.43661
# Poissons Ratio (z) = 0.03520 0.39682
#
# Static dielectric constant tensor:
#      x y z
#    x 4.544060 0.000000 0.383990 
#    y 0.000000 3.460790 0.000000 
#    z 0.383990 0.000000 3.862810 
# 
# 
# High freq. dielectric constant tensor:
#      x y z
#    x 1.735000 0.000000 -0.000290 
#    y 0.000000 1.718910 0.000000 
#    z -0.000290 0.000000 1.753290 
# 
# From -- ./inp_files/52110.got.cif
#   From: 2010.06.25/outbox.cif.g09.slc.cpg/sg12_27_cif.got.tgz:52110.got - 2010.06.28 00:19:55.
