data_PCOD8112184
_publ_section_title
;
Structure prediction by ZEFSAII (Michael W. Deem and Ramdas Pophale) SiO2 
 PCOD8112184
Probable space group: C 2/M
;
_chemical_formula_sum "Si O2"
_cell_formula_units_Z 56
_cell_length_a 19.909524
_cell_length_b 8.508587
_cell_length_c 19.396727
_cell_angle_alpha 90.000000
_cell_angle_beta 122.720466
_cell_angle_gamma 90.000000
_cell_volume 2764.437836
_symmetry_space_group_name_H-M "C 2/M"
_symmetry_group_IT_number 12
_symmetry_cell_setting 'monoclinic'
loop_
_space_group_symop_operation_xyz
x,y,z
-x,y,-z
-x,-y,-z
x,-y,z
1/2+x,1/2+y,z
1/2-x,1/2+y,-z
1/2-x,1/2-y,-z
1/2+x,1/2-y,z
loop_
_atom_site_type_symbol
_atom_site_label
_atom_site_fract_x
_atom_site_fract_y
_atom_site_fract_z
Si Si1 0.290419 0.318583 0.319168
Si Si2 0.619622 0.315462 0.249311
Si Si3 0.486289 0.686128 0.068555
Si Si4 0.081800 0.682976 0.509749
Si Si5 0.128422 0.317538 0.762491
Si Si6 0.834880 0.185906 0.068882
Si Si7 0.959871 0.818486 0.650560
O O1 0.308794 0.500000 0.343305
O O2 0.198436 0.283899 0.281164
O O3 0.343892 0.214653 0.399607
O O4 0.309843 0.276038 0.251093
O O5 0.637156 0.500000 0.249844
O O6 0.554293 0.253508 0.158402
O O7 0.589150 0.275814 0.308644
O O8 0.491075 0.500000 0.068023
O O9 0.399237 0.738256 0.047140
O O10 0.500000 0.758726 0.000000
O O11 0.078517 0.500000 0.490194
O O12 0.094316 0.779581 0.445889
O O13 0.000000 0.740226 0.500000
O O14 0.148846 0.500000 0.767710
O O15 0.138107 0.260879 0.845189
O O16 0.038485 0.287689 0.687927
O O17 0.832307 0.000000 0.075883
O O18 0.750000 0.250000 0.000000
O O19 0.985852 0.000000 0.666249
#
# Coordination Sequence:
#
# PCOD8112184 Si02
#       7
#     8   8   8   8   8   8   8
#     4  12  26  42  64  95 129 166 211 267 320 377
#     4  10  22  42  65  92 129 170 212 258 316 383
#     4   9  19  38  64  92 125 168 210 252 309 374
#     4  11  23  40  64  95 127 166 213 261 315 381
#     4  12  24  41  65  92 126 172 216 264 317 376
#     4  11  23  41  64  97 131 167 213 265 318 377
#     4  11  22  40  67  95 126 168 211 263 319 377
#
# _framework density 20.257282
#
# number of rings (size 3 to 8) (size 9 to 14) (size 15 to 20)
#    0.000    1.143    2.857    3.857    2.000    2.286 
#    0.000    0.000    0.000    2.143    0.000    0.000 
#    0.000    0.000    0.000    0.000    0.000    0.000 
#
# Total GULP energy -347376.443783 kJ/mol
# GULP energy per Si atom -12406.301564 kJ/mol
# Density = 2.021118 g / cm^3
# Si number density = 20.257282 Si / 1000 Ang^3
#
#
#
# Elastic Constant Matrix: (Units=GPa)
#
#
# Indices 1 2 3 4 5 6 
#
# 1 142.7412 35.9448 61.7043 0.0000 -3.6566 0.0000
# 2 35.9448 62.6638 12.7166 0.0000 -4.2513 0.0000
# 3 61.7043 12.7166 113.0473 0.0000 -12.3323 0.0000
# 4 0.0000 0.0000 0.0000 32.6607 0.0000 3.3965
# 5 -3.6566 -4.2513 -12.3323 0.0000 41.3904 0.0000
# 6 0.0000 0.0000 0.0000 3.3965 0.0000 29.3651
#
#
#
# Elastic Compliance Matrix: (Units=1/GPa)
#
#
# Indices 1 2 3 4 5 6 
#
# 1 0.010545 -0.005050 -0.005315 0.000000 -0.001171 0.000000
# 2 -0.005050 0.018804 0.000830 0.000000 0.001733 0.000000
# 3 -0.005315 0.000830 0.012002 0.000000 0.003192 0.000000
# 4 0.000000 0.000000 0.000000 0.030991 0.000000 -0.003585
# 5 -0.001171 0.001733 0.003192 0.000000 0.025186 0.000000
# 6 0.000000 0.000000 0.000000 -0.003585 0.000000 0.034469
#
#
# Mechanical properties :
#
#
# Convention : Reuss Voigt Hill
#
# Bulk Modulus (GPa) = 44.88188 59.90933 52.39561
# Shear Modulus (GPa) = 31.54719 34.55567 33.05143
#
# Velocity S-wave (km/s) = 3.95058 4.13466 4.04367
# Velocity P-wave (km/s) = 6.55846 7.24102 6.90818
#
# Compressibility (1/GPa) = 0.02228070
#
# Stress axis : x y z
#
# Youngs Moduli (GPa) = 94.83140 53.18085 83.31947
#
# Poissons Ratio (x) = 0.26854 0.44288
# Poissons Ratio (y) = 0.47885 -0.06915
# Poissons Ratio (z) = 0.50407 -0.04414
#
# Static dielectric constant tensor:
#      x y z
#    x 3.780150 0.000000 -0.119520 
#    y 0.000000 3.496130 0.000000 
#    z -0.119520 0.000000 3.948060 
# 
# 
# High freq. dielectric constant tensor:
#      x y z
#    x 1.796720 0.000000 -0.007520 
#    y 0.000000 1.782920 0.000000 
#    z -0.007520 0.000000 1.804350 
# 
# From -- ./inp_files/281618.got.cif
#   From: 2010.06.25/outbox.cif.g09.slc.cpg/sg12_141_cif.got.tgz:281618.got - 2010.06.28 00:19:55.
