data_PCOD8112382
_publ_section_title
;
Structure prediction by ZEFSAII (Michael W. Deem and Ramdas Pophale) SiO2 
 PCOD8112382
Probable space group: C 2/M
;
_chemical_formula_sum "Si O2"
_cell_formula_units_Z 40
_cell_length_a 16.091792
_cell_length_b 15.620381
_cell_length_c 16.701717
_cell_angle_alpha 90.000000
_cell_angle_beta 26.161575
_cell_angle_gamma 90.000000
_cell_volume 1850.977783
_symmetry_space_group_name_H-M "C 2/M"
_symmetry_group_IT_number 12
_symmetry_cell_setting 'monoclinic'
loop_
_space_group_symop_operation_xyz
x,y,z
-x,y,-z
-x,-y,-z
x,-y,z
1/2+x,1/2+y,z
1/2-x,1/2+y,-z
1/2-x,1/2-y,-z
1/2+x,1/2-y,z
loop_
_atom_site_type_symbol
_atom_site_label
_atom_site_fract_x
_atom_site_fract_y
_atom_site_fract_z
Si Si1 0.293496 0.406990 0.642563
Si Si2 0.581102 0.400821 0.796847
Si Si3 0.703803 0.188200 0.112066
Si Si4 0.689595 0.902730 0.555692
Si Si5 0.790089 0.735630 0.715555
O O1 0.500000 0.410124 0.500000
O O2 0.193512 0.500000 0.746475
O O3 0.307895 0.392533 0.534893
O O4 0.191781 0.324462 0.769964
O O5 0.621365 0.500000 0.781142
O O6 0.680495 0.369427 0.628965
O O7 0.664154 0.344648 0.797402
O O8 0.357831 0.387411 0.981558
O O9 0.499074 0.150810 0.274193
O O10 0.705350 0.240764 0.193074
O O11 0.750000 0.250000 0.000000
O O12 0.631667 0.000000 0.589190
O O13 0.000000 0.724350 0.500000
#
# Coordination Sequence:
#
# PCOD8112382 Si02
#       5
#     8   8   8   8   8
#     4   9  20  39  68  96 126 171 223 269 327 400
#     4  11  25  43  69  98 136 181 222 273 335 397
#     4  12  26  41  66 101 134 174 222 279 330 396
#     4  10  22  43  67  97 133 174 219 275 335 395
#     4  11  23  42  67  97 134 177 221 271 333 397
#
# _framework density 21.610199999999999
#
# number of rings (size 3 to 8) (size 9 to 14) (size 15 to 20)
#    0.000    1.400    2.000    2.400    5.600    4.400 
#    0.000    1.000    0.000    4.800    0.000    0.000 
#    0.000    0.000    0.000    0.000    0.000    0.000 
#
# Total GULP energy -247981.647924 kJ/mol
# GULP energy per Si atom -12399.082396 kJ/mol
# Density = 2.156101 g / cm^3
# Si number density = 21.610200 Si / 1000 Ang^3
#
#
#
# Elastic Constant Matrix: (Units=GPa)
#
#
# Indices 1 2 3 4 5 6 
#
# 1 139.2212 50.0975 39.2639 0.0187 23.2891 -0.0430
# 2 50.0975 128.3907 29.9986 -0.1164 8.9133 -0.2034
# 3 39.2639 29.9986 99.6587 -0.1183 10.6259 -0.2613
# 4 0.0187 -0.1164 -0.1183 94.1121 0.0486 34.3263
# 5 23.2891 8.9133 10.6259 0.0486 39.5470 0.0974
# 6 -0.0430 -0.2034 -0.2613 34.3263 0.0974 50.2548
#
#
#
# Elastic Compliance Matrix: (Units=1/GPa)
#
#
# Indices 1 2 3 4 5 6 
#
# 1 0.009647 -0.002885 -0.002467 -0.000005 -0.004368 -0.000005
# 2 -0.002885 0.009301 -0.001668 0.000000 0.000051 0.000026
# 3 -0.002467 -0.001668 0.011647 -0.000008 -0.001301 0.000060
# 4 -0.000005 0.000000 -0.000008 0.014151 0.000011 -0.009666
# 5 -0.004368 0.000051 -0.001301 0.000011 0.028197 -0.000073
# 6 -0.000005 0.000026 0.000060 -0.009666 -0.000073 0.026501
#
#
# Mechanical properties :
#
#
# Convention : Reuss Voigt Hill
#
# Bulk Modulus (GPa) = 60.40374 67.33227 63.86800
# Shear Modulus (GPa) = 42.01572 53.31017 47.66294
#
# Velocity S-wave (km/s) = 4.41415 4.97218 4.70145
# Velocity P-wave (km/s) = 7.34791 8.01178 7.68702
#
# Compressibility (1/GPa) = 0.01655527
#
# Stress axis : x y z
#
# Youngs Moduli (GPa) = 103.65625 107.51905 85.85752
#
# Poissons Ratio (x) = 0.31016 0.21179
# Poissons Ratio (y) = 0.29902 0.14325
# Poissons Ratio (z) = 0.25570 0.17939
#
# Static dielectric constant tensor:
#      x y z
#    x 4.020200 -0.000100 0.087940 
#    y -0.000100 4.456160 0.000090 
#    z 0.087940 0.000090 3.855700 
# 
# 
# High freq. dielectric constant tensor:
#      x y z
#    x 1.863810 0.000000 0.006990 
#    y 0.000000 1.861100 0.000010 
#    z 0.006990 0.000010 1.834970 
# 
# From -- ./inp_files/216631.got.cif
#   From: 2010.06.25/outbox.cif.g09.slc.cpg/sg12_109_cif.got.tgz:216631.got - 2010.06.28 00:19:55.
