data_PCOD8112657
_publ_section_title
;
Structure prediction by ZEFSAII (Michael W. Deem and Ramdas Pophale) SiO2 
 PCOD8112657
Probable space group: C 2/M
;
_chemical_formula_sum "Si O2"
_cell_formula_units_Z 56
_cell_length_a 26.682960
_cell_length_b 17.347354
_cell_length_c 5.448669
_cell_angle_alpha 90.000000
_cell_angle_beta 110.645048
_cell_angle_gamma 90.000000
_cell_volume 2360.112174
_symmetry_space_group_name_H-M "C 2/M"
_symmetry_group_IT_number 12
_symmetry_cell_setting 'monoclinic'
loop_
_space_group_symop_operation_xyz
x,y,z
-x,y,-z
-x,-y,-z
x,-y,z
1/2+x,1/2+y,z
1/2-x,1/2+y,-z
1/2-x,1/2-y,-z
1/2+x,1/2-y,z
loop_
_atom_site_type_symbol
_atom_site_label
_atom_site_fract_x
_atom_site_fract_y
_atom_site_fract_z
Si Si1 0.470883 0.377722 0.690567
Si Si2 0.690591 0.657991 0.043612
Si Si3 0.850186 0.686340 0.852848
Si Si4 0.048150 0.292227 0.264882
Si Si5 0.094518 0.585837 0.673288
Si Si6 0.647998 0.414411 0.473953
Si Si7 0.293246 0.913455 0.399131
O O1 0.500000 0.413305 0.500000
O O2 0.465370 0.287043 0.622278
O O3 0.415349 0.420944 0.622021
O O4 0.500000 0.392080 0.000000
O O5 0.678854 0.749588 0.029977
O O6 0.664707 0.621721 0.243049
O O7 0.753104 0.634343 0.154734
O O8 0.667633 0.631874 0.744933
O O9 0.891942 0.725505 0.736443
O O10 0.800820 0.637023 0.657902
O O11 0.891293 0.627882 0.051939
O O12 0.050177 0.363857 0.455582
O O13 0.000000 0.313686 0.000000
O O14 0.071643 0.500000 0.683078
O O15 0.149065 0.580222 0.618340
O O16 0.672571 0.500000 0.530016
O O17 0.271431 0.000000 0.418678
#
# Coordination Sequence:
#
# PCOD8112657 Si02
#       7
#     8   8   8   8   8   8   8
#     4  11  24  42  71  98 131 181 227 279 342 405
#     4  12  26  44  71 101 139 183 227 279 335 405
#     4  11  23  42  68  97 132 175 230 282 332 407
#     4  10  23  40  65  95 129 177 221 284 337 408
#     4  10  23  41  65  96 134 176 226 284 343 407
#     4  12  26  45  68 103 141 178 227 285 339 403
#     4  10  23  43  65  97 136 181 225 278 344 401
#
# _framework density 23.727684
#
# number of rings (size 3 to 8) (size 9 to 14) (size 15 to 20)
#    0.000    1.143    1.429    3.857   10.000    2.000 
#    0.000    0.714    0.000    0.000    0.000    0.000 
#    0.000    0.000    0.000    0.000    0.000    0.000 
#
# Total GULP energy -347077.769327 kJ/mol
# GULP energy per Si atom -12395.634619 kJ/mol
# Density = 2.367368 g / cm^3
# Si number density = 23.727684 Si / 1000 Ang^3
#
#
#
# Elastic Constant Matrix: (Units=GPa)
#
#
# Indices 1 2 3 4 5 6 
#
# 1 27.6790 3.2136 25.8898 0.0000 4.4860 0.0000
# 2 3.2136 76.8238 12.7143 0.0000 9.9845 0.0000
# 3 25.8898 12.7143 87.7044 0.0000 7.0417 0.0000
# 4 0.0000 0.0000 0.0000 35.9654 0.0000 -0.4267
# 5 4.4860 9.9845 7.0417 0.0000 44.5663 0.0000
# 6 0.0000 0.0000 0.0000 -0.4267 0.0000 9.6158
#
#
#
# Elastic Compliance Matrix: (Units=1/GPa)
#
#
# Indices 1 2 3 4 5 6 
#
# 1 0.050276 0.000708 -0.014711 0.000000 -0.002895 0.000000
# 2 0.000708 0.013680 -0.001965 0.000000 -0.002825 0.000000
# 3 -0.014711 -0.001965 0.016079 0.000000 -0.000620 0.000000
# 4 0.000000 0.000000 0.000000 0.027819 0.000000 0.001235
# 5 -0.002895 -0.002825 -0.000620 0.000000 0.023461 0.000000
# 6 0.000000 0.000000 0.000000 0.001235 0.000000 0.104050
#
#
# Mechanical properties :
#
#
# Convention : Reuss Voigt Hill
#
# Bulk Modulus (GPa) = 20.79114 30.64916 25.72015
# Shear Modulus (GPa) = 17.64697 28.05548 22.85122
#
# Velocity S-wave (km/s) = 2.73010 3.44233 3.10669
# Velocity P-wave (km/s) = 4.32658 5.36140 4.87155
#
# Compressibility (1/GPa) = 0.04809741
#
# Stress axis : x y z
#
# Youngs Moduli (GPa) = 19.89028 73.10134 62.19197
#
# Poissons Ratio (x) = -0.05174 0.91492
# Poissons Ratio (y) = -0.01408 0.12222
# Poissons Ratio (z) = 0.29261 0.14366
#
# Static dielectric constant tensor:
#      x y z
#    x 4.198360 0.000000 0.088690 
#    y 0.000000 4.570810 0.000000 
#    z 0.088690 0.000000 4.275860 
# 
# 
# High freq. dielectric constant tensor:
#      x y z
#    x 1.941870 0.000000 0.006110 
#    y 0.000000 1.951400 0.000000 
#    z 0.006110 0.000000 1.942070 
# 
# From -- ./inp_files/32103.got.cif
#   From: 2010.06.25/outbox.cif.g09.slc.cpg/sg12_17_cif.got.tgz:32103.got - 2010.06.28 00:19:55.
