data_PCOD8112121
_publ_section_title
;
Structure prediction by ZEFSAII (Michael W. Deem and Ramdas Pophale) SiO2 
 PCOD8112121
Probable space group: C 2/M
;
_chemical_formula_sum "Si O2"
_cell_formula_units_Z 36
_cell_length_a 9.701536
_cell_length_b 16.639768
_cell_length_c 10.984247
_cell_angle_alpha 90.000000
_cell_angle_beta 73.670651
_cell_angle_gamma 90.000000
_cell_volume 1701.672900
_symmetry_space_group_name_H-M "C 2/M"
_symmetry_group_IT_number 12
_symmetry_cell_setting 'monoclinic'
loop_
_space_group_symop_operation_xyz
x,y,z
-x,y,-z
-x,-y,-z
x,-y,z
1/2+x,1/2+y,z
1/2-x,1/2+y,-z
1/2-x,1/2-y,-z
1/2+x,1/2-y,z
loop_
_atom_site_type_symbol
_atom_site_label
_atom_site_fract_x
_atom_site_fract_y
_atom_site_fract_z
Si Si1 0.629884 0.500000 0.875708
Si Si2 0.000000 0.856230 0.500000
Si Si3 0.480709 0.174213 0.149141
Si Si4 0.789358 0.086457 0.360762
Si Si5 0.049009 0.500000 0.124562
Si Si6 0.182645 0.743670 0.287249
O O1 0.620249 0.579052 0.789720
O O2 0.778204 0.500000 0.913966
O O3 0.500000 0.500000 0.000000
O O4 0.888621 0.911266 0.454919
O O5 0.922032 0.803377 0.619372
O O6 0.334559 0.214525 0.229000
O O7 0.614333 0.221334 0.174660
O O8 0.485387 0.082030 0.198983
O O9 0.500000 0.177925 0.000000
O O10 0.692867 0.165735 0.373723
O O11 0.702332 0.000000 0.390448
O O12 0.000000 0.500000 0.000000
#
# Coordination Sequence:
#
# PCOD8112121 Si02
#       6
#     4   4   8   8   4   8
#     4  10  22  41  72 102 135 175 221 279 342 403
#     4  12  25  46  67  98 134 184 238 277 334 397
#     4  11  24  44  68 100 136 177 227 283 349 409
#     4  10  23  43  66  94 136 175 224 279 326 405
#     4  10  22  44  64  97 139 172 219 272 338 415
#     4  12  24  45  69  97 138 179 226 285 339 402
#
# _framework density 21.155652
#
# number of rings (size 3 to 8) (size 9 to 14) (size 15 to 20)
#    0.667    0.444    4.444    1.667    0.000    4.444 
#    4.000    0.556    0.000    0.000    0.000    0.000 
#    0.000    0.000    0.000    0.000    0.000    0.000 
#
# Total GULP energy -223031.486502 kJ/mol
# GULP energy per Si atom -12390.638139 kJ/mol
# Density = 2.110750 g / cm^3
# Si number density = 21.155652 Si / 1000 Ang^3
#
#
#
# Elastic Constant Matrix: (Units=GPa)
#
#
# Indices 1 2 3 4 5 6 
#
# 1 114.4024 43.3692 23.5746 0.0000 22.5922 0.0000
# 2 43.3692 131.5588 20.4759 0.0000 -5.6843 0.0000
# 3 23.5746 20.4759 49.0545 0.0000 23.4924 0.0000
# 4 0.0000 0.0000 0.0000 25.4821 0.0000 23.8224
# 5 22.5922 -5.6843 23.4924 0.0000 33.5082 0.0000
# 6 0.0000 0.0000 0.0000 23.8224 0.0000 47.7826
#
#
#
# Elastic Compliance Matrix: (Units=1/GPa)
#
#
# Indices 1 2 3 4 5 6 
#
# 1 0.012185 -0.004494 0.000481 0.000000 -0.009316 0.000000
# 2 -0.004494 0.010568 -0.006866 0.000000 0.009637 0.000000
# 3 0.000481 -0.006866 0.035730 0.000000 -0.026540 0.000000
# 4 0.000000 0.000000 0.000000 0.073501 0.000000 -0.036645
# 5 -0.009316 0.009637 -0.026540 0.000000 0.056366 0.000000
# 6 0.000000 0.000000 0.000000 -0.036645 0.000000 0.039198
#
#
# Mechanical properties :
#
#
# Convention : Reuss Voigt Hill
#
# Bulk Modulus (GPa) = 27.22996 52.20614 39.71805
# Shear Modulus (GPa) = 19.11691 35.19431 27.15561
#
# Velocity S-wave (km/s) = 3.00931 4.08314 3.58664
# Velocity P-wave (km/s) = 4.99738 6.85274 5.99724
#
# Compressibility (1/GPa) = 0.03672426
#
# Stress axis : x y z
#
# Youngs Moduli (GPa) = 82.06589 94.62658 27.98748
#
# Poissons Ratio (x) = 0.42529 -0.01347
# Poissons Ratio (y) = 0.36883 0.19217
# Poissons Ratio (z) = -0.03949 0.64975
#
# Static dielectric constant tensor:
#      x y z
#    x 4.076940 0.000000 0.297680 
#    y 0.000000 4.459620 0.000000 
#    z 0.297680 0.000000 3.649940 
# 
# 
# High freq. dielectric constant tensor:
#      x y z
#    x 1.831370 0.000000 0.035200 
#    y 0.000000 1.848700 0.000000 
#    z 0.035200 0.000000 1.809460 
# 
# From -- ./inp_files/118819.got.cif
#   From: 2010.06.25/outbox.cif.g09.slc.cpg/sg12_60_cif.got.tgz:118819.got - 2010.06.28 00:19:55.
