data_PCOD8112062
_publ_section_title
;
Structure prediction by ZEFSAII (Michael W. Deem and Ramdas Pophale) SiO2 
 PCOD8112062
Probable space group: C 2/M
;
_chemical_formula_sum "Si O2"
_cell_formula_units_Z 52
_cell_length_a 11.960628
_cell_length_b 19.727379
_cell_length_c 11.869398
_cell_angle_alpha 90.000000
_cell_angle_beta 117.343970
_cell_angle_gamma 90.000000
_cell_volume 2487.680552
_symmetry_space_group_name_H-M "C 2/M"
_symmetry_group_IT_number 12
_symmetry_cell_setting 'monoclinic'
loop_
_space_group_symop_operation_xyz
x,y,z
-x,y,-z
-x,-y,-z
x,-y,z
1/2+x,1/2+y,z
1/2-x,1/2+y,-z
1/2-x,1/2-y,-z
1/2+x,1/2-y,z
loop_
_atom_site_type_symbol
_atom_site_label
_atom_site_fract_x
_atom_site_fract_y
_atom_site_fract_z
Si Si1 0.858377 0.358059 0.269918
Si Si2 0.941279 0.215755 0.251025
Si Si3 0.215859 0.818088 0.421206
Si Si4 0.217316 0.000000 0.971725
Si Si5 0.440148 0.000000 0.241944
Si Si6 0.627014 0.638909 0.991517
Si Si7 0.864349 0.115109 0.402957
Si Si8 0.801372 0.500000 0.772142
O O1 0.947567 0.296887 0.269544
O O2 0.817109 0.343143 0.378159
O O3 0.936144 0.429138 0.309813
O O4 0.742816 0.356524 0.130056
O O5 0.861800 0.194630 0.103269
O O6 0.881678 0.183614 0.337194
O O7 0.082198 0.189131 0.296881
O O8 0.250000 0.750000 0.500000
O O9 0.210264 0.873938 0.515948
O O10 0.125830 0.065118 0.931581
O O11 0.314051 0.000000 0.912161
O O12 0.307682 0.000000 0.119217
O O13 0.561410 0.000000 0.218543
O O14 0.500000 0.651390 0.000000
O O15 0.780339 0.064928 0.293711
O O16 0.000000 0.084282 0.500000
#
# Coordination Sequence:
#
# PCOD8112062 Si02
#       8
#     8   8   8   4   4   8   8   4
#     4  11  24  43  65  94 138 166 217 269 317 392
#     4  11  22  41  67  97 126 167 217 267 324 373
#     4  11  23  41  66  92 129 174 214 261 319 378
#     4  10  22  41  67  92 134 170 209 268 320 394
#     4  10  27  43  62  99 127 176 210 259 332 388
#     4  11  21  41  65 102 127 167 217 266 331 378
#     4  10  23  40  64  99 125 166 219 264 310 373
#     4  12  22  44  67  91 136 166 218 252 324 388
#
# _framework density 20.903005
#
# number of rings (size 3 to 8) (size 9 to 14) (size 15 to 20)
#    0.000    1.231    4.615    1.154    2.154    0.615 
#    0.000    1.538    0.000    0.000    0.000    0.000 
#    0.000    0.000    0.000    0.000    0.000    0.000 
#
# Total GULP energy -322333.834426 kJ/mol
# GULP energy per Si atom -12397.455170 kJ/mol
# Density = 2.085543 g / cm^3
# Si number density = 20.903005 Si / 1000 Ang^3
#
#
#
# Elastic Constant Matrix: (Units=GPa)
#
#
# Indices 1 2 3 4 5 6 
#
# 1 70.9540 25.2624 9.7297 0.0000 -29.3596 0.0000
# 2 25.2624 131.7952 12.7119 0.0000 -18.2968 0.0000
# 3 9.7297 12.7119 57.4896 0.0000 -21.3596 0.0000
# 4 0.0000 0.0000 0.0000 34.0152 0.0000 -7.5623
# 5 -29.3596 -18.2968 -21.3596 0.0000 35.1320 0.0000
# 6 0.0000 0.0000 0.0000 -7.5623 0.0000 22.9870
#
#
#
# Elastic Compliance Matrix: (Units=1/GPa)
#
#
# Indices 1 2 3 4 5 6 
#
# 1 0.022689 -0.001905 0.004208 0.000000 0.020527 0.000000
# 2 -0.001905 0.008343 -0.000645 0.000000 0.002361 0.000000
# 3 0.004208 -0.000645 0.023261 0.000000 0.017323 0.000000
# 4 0.000000 0.000000 0.000000 0.031718 0.000000 0.010435
# 5 0.020527 0.002361 0.017323 0.000000 0.057380 0.000000
# 6 0.000000 0.000000 0.000000 0.010435 0.000000 0.046936
#
#
# Mechanical properties :
#
#
# Convention : Reuss Voigt Hill
#
# Bulk Modulus (GPa) = 17.35883 39.51629 28.43756
# Shear Modulus (GPa) = 24.24671 32.59582 28.42127
#
# Velocity S-wave (km/s) = 3.40952 3.95319 3.69138
# Velocity P-wave (km/s) = 4.88080 6.30734 5.63936
#
# Compressibility (1/GPa) = 0.05760756
#
# Stress axis : x y z
#
# Youngs Moduli (GPa) = 44.07488 119.86626 42.99032
#
# Poissons Ratio (x) = 0.22835 -0.18090
# Poissons Ratio (y) = 0.08397 0.02774
# Poissons Ratio (z) = -0.18546 0.07734
#
# Static dielectric constant tensor:
#      x y z
#    x 3.705630 0.000000 0.026170 
#    y 0.000000 3.943960 0.000000 
#    z 0.026170 0.000000 3.659940 
# 
# 
# High freq. dielectric constant tensor:
#      x y z
#    x 1.816100 0.000000 -0.008300 
#    y 0.000000 1.820020 0.000000 
#    z -0.008300 0.000000 1.824570 
# 
# From -- ./inp_files/134065.got.cif
#   From: 2010.06.25/outbox.cif.g09.slc.cpg/sg12_68_cif.got.tgz:134065.got - 2010.06.28 00:19:55.
