data_PCOD8112725
_publ_section_title
;
Structure prediction by ZEFSAII (Michael W. Deem and Ramdas Pophale) SiO2 
 PCOD8112725
Probable space group: C 2/M
;
_chemical_formula_sum "Si O2"
_cell_formula_units_Z 48
_cell_length_a 11.297625
_cell_length_b 14.512942
_cell_length_c 16.108110
_cell_angle_alpha 90.000000
_cell_angle_beta 54.286782
_cell_angle_gamma 90.000000
_cell_volume 2144.449832
_symmetry_space_group_name_H-M "C 2/M"
_symmetry_group_IT_number 12
_symmetry_cell_setting 'monoclinic'
loop_
_space_group_symop_operation_xyz
x,y,z
-x,y,-z
-x,-y,-z
x,-y,z
1/2+x,1/2+y,z
1/2-x,1/2+y,-z
1/2-x,1/2-y,-z
1/2+x,1/2-y,z
loop_
_atom_site_type_symbol
_atom_site_label
_atom_site_fract_x
_atom_site_fract_y
_atom_site_fract_z
Si Si1 0.836630 0.392381 0.190288
Si Si2 0.428567 0.606895 0.271278
Si Si3 0.709903 0.278736 0.108493
Si Si4 0.552766 0.394751 0.393132
Si Si5 0.104370 0.395306 0.388910
Si Si6 0.592657 0.102865 0.211494
O O1 0.813259 0.500000 0.181062
O O2 0.834888 0.341457 0.101231
O O3 0.702480 0.350106 0.298382
O O4 0.979787 0.374165 0.184638
O O5 0.452461 0.500000 0.234118
O O6 0.553194 0.668979 0.176542
O O7 0.434071 0.615516 0.369174
O O8 0.268284 0.645838 0.313234
O O9 0.713572 0.181457 0.155876
O O10 0.750000 0.250000 0.000000
O O11 0.500000 0.345214 0.500000
O O12 0.588431 0.500000 0.400474
O O13 0.127882 0.500000 0.409062
O O14 0.023893 0.389951 0.332213
O O15 0.000000 0.345582 0.500000
O O16 0.658620 0.000000 0.172026
#
# Coordination Sequence:
#
# PCOD8112725 Si02
#       6
#     8   8   8   8   8   8
#     4   9  20  40  63  90 125 161 207 264 316 377
#     4   9  19  37  61  93 128 163 212 265 313 381
#     4  11  24  41  65  89 121 163 215 271 332 375
#     4   8  14  26  53  88 119 156 198 246 306 371
#     4   9  19  37  63  92 128 173 208 248 318 390
#     4  10  23  41  62  91 127 165 211 261 311 384
#
# _framework density 22.383365000000001
#
# number of rings (size 3 to 8) (size 9 to 14) (size 15 to 20)
#    0.000    2.667    0.000    1.500    4.667    2.000 
#    0.000    5.833    0.000    3.000    0.000    0.000 
#    0.000    0.000    0.000    0.000    0.000    0.000 
#
# Total GULP energy -297329.072660 kJ/mol
# GULP energy per Si atom -12388.711361 kJ/mol
# Density = 2.233242 g / cm^3
# Si number density = 22.383365 Si / 1000 Ang^3
#
#
#
# Elastic Constant Matrix: (Units=GPa)
#
#
# Indices 1 2 3 4 5 6 
#
# 1 94.0610 36.4461 41.3110 0.0000 14.3243 0.0000
# 2 36.4461 103.3998 47.7674 0.0000 6.1557 0.0000
# 3 41.3110 47.7674 137.5492 0.0000 25.1760 0.0000
# 4 0.0000 0.0000 0.0000 5.9976 0.0000 -18.7658
# 5 14.3243 6.1557 25.1760 0.0000 32.5256 0.0000
# 6 0.0000 0.0000 0.0000 -18.7658 0.0000 -6.8132
#
#
#
# Elastic Compliance Matrix: (Units=1/GPa)
#
#
# Indices 1 2 3 4 5 6 
#
# 1 0.013505 -0.003545 -0.002166 0.000000 -0.003600 0.000000
# 2 -0.003545 0.012482 -0.003639 0.000000 0.002016 0.000000
# 3 -0.002166 -0.003639 0.010350 0.000000 -0.006369 0.000000
# 4 0.000000 0.000000 0.000000 0.017335 0.000000 -0.047748
# 5 -0.003600 0.002016 -0.006369 0.000000 0.036879 0.000000
# 6 0.000000 0.000000 0.000000 -0.047748 0.000000 -0.015260
#
#
# Mechanical properties :
#
#
# Convention : Reuss Voigt Hill
#
# Bulk Modulus (GPa) = 56.69998 65.11767 60.90883
# Shear Modulus (GPa) = 50.06587 20.30771 35.18679
#
# Velocity S-wave (km/s) = 4.73455 3.01536 3.96916
# Velocity P-wave (km/s) = 7.43467 6.42482 6.94812
#
# Compressibility (1/GPa) = 0.01763669
#
# Stress axis : x y z
#
# Youngs Moduli (GPa) = 74.04929 80.11665 96.61897
#
# Poissons Ratio (x) = 0.28403 0.20926
# Poissons Ratio (y) = 0.26252 0.35158
# Poissons Ratio (z) = 0.16038 0.29153
#
# Static dielectric constant tensor:
#      x y z
#    x 3.959010 0.000000 0.122220 
#    y 0.000000 4.058890 0.000000 
#    z 0.122220 0.000000 4.001920 
# 
# 
# High freq. dielectric constant tensor:
#      x y z
#    x 1.870330 0.000000 0.019760 
#    y 0.000000 1.879170 0.000000 
#    z 0.019760 0.000000 1.865670 
# 
# From -- ./inp_files/204844.got.cif
#   From: 2010.06.25/outbox.cif.g09.slc.cpg/sg12_103_cif.got.tgz:204844.got - 2010.06.28 00:19:55.
