data_PCOD8112716
_publ_section_title
;
Structure prediction by ZEFSAII (Michael W. Deem and Ramdas Pophale) SiO2 
 PCOD8112716
Probable space group: C 2/M
;
_chemical_formula_sum "Si O2"
_cell_formula_units_Z 56
_cell_length_a 31.116814
_cell_length_b 8.728814
_cell_length_c 11.749775
_cell_angle_alpha 90.000000
_cell_angle_beta 56.175175
_cell_angle_gamma 90.000000
_cell_volume 2651.226259
_symmetry_space_group_name_H-M "C 2/M"
_symmetry_group_IT_number 12
_symmetry_cell_setting 'monoclinic'
loop_
_space_group_symop_operation_xyz
x,y,z
-x,y,-z
-x,-y,-z
x,-y,z
1/2+x,1/2+y,z
1/2-x,1/2+y,-z
1/2-x,1/2-y,-z
1/2+x,1/2-y,z
loop_
_atom_site_type_symbol
_atom_site_label
_atom_site_fract_x
_atom_site_fract_y
_atom_site_fract_z
Si Si1 0.320428 0.180348 0.150766
Si Si2 0.387052 0.174909 0.673097
Si Si3 0.193379 0.819526 0.595533
Si Si4 0.604936 0.178407 0.591577
Si Si5 0.510310 0.678210 0.854641
Si Si6 0.907675 0.178063 0.871869
Si Si7 0.766247 0.677603 0.858173
O O1 0.334776 0.260379 0.248353
O O2 0.263445 0.235820 0.199063
O O3 0.320302 0.000000 0.168161
O O4 0.361217 0.224578 0.993507
O O5 0.411478 0.216211 0.514394
O O6 0.412101 0.283494 0.731594
O O7 0.326326 0.203130 0.750372
O O8 0.398883 0.000000 0.690066
O O9 0.250000 0.750000 0.500000
O O10 0.157042 0.770168 0.544801
O O11 0.198620 0.000000 0.591420
O O12 0.558417 0.223157 0.742455
O O13 0.617711 0.000000 0.586179
O O14 0.524092 0.500000 0.820353
O O15 0.460716 0.724903 0.854038
O O16 0.500000 0.721344 0.000000
O O17 0.895456 0.000000 0.907314
O O18 0.750585 0.500000 0.879956
O O19 0.750000 0.750000 0.000000
#
# Coordination Sequence:
#
# PCOD8112716 Si02
#       7
#     8   8   8   8   8   8   8
#     4  12  24  39  62  93 129 168 213 265 321 379
#     4  10  23  41  61  89 129 169 208 259 316 383
#     4  12  25  43  66  94 129 167 211 261 316 380
#     4  11  24  43  67  95 127 168 213 259 320 383
#     4  10  23  44  67  92 124 163 209 265 327 384
#     4  11  23  39  64  94 124 164 215 267 319 378
#     4  11  21  36  59  89 127 170 214 259 312 375
#
# _framework density 21.122301
#
# number of rings (size 3 to 8) (size 9 to 14) (size 15 to 20)
#    0.000    1.000    1.429    5.571    0.000    6.000 
#    0.000    2.857    0.000    0.000    0.000    0.000 
#    0.000    0.000    0.000    0.000    0.000    0.000 
#
# Total GULP energy -347404.737350 kJ/mol
# GULP energy per Si atom -12407.312048 kJ/mol
# Density = 2.107423 g / cm^3
# Si number density = 21.122301 Si / 1000 Ang^3
#
#
#
# Elastic Constant Matrix: (Units=GPa)
#
#
# Indices 1 2 3 4 5 6 
#
# 1 123.1225 54.4536 39.3455 0.0000 11.0454 0.0000
# 2 54.4536 132.9129 41.5953 0.0000 4.8554 0.0000
# 3 39.3455 41.5953 108.2483 0.0000 8.9446 0.0000
# 4 0.0000 0.0000 0.0000 36.6361 0.0000 4.6121
# 5 11.0454 4.8554 8.9446 0.0000 32.3804 0.0000
# 6 0.0000 0.0000 0.0000 4.6121 0.0000 33.5897
#
#
#
# Elastic Compliance Matrix: (Units=1/GPa)
#
#
# Indices 1 2 3 4 5 6 
#
# 1 0.010650 -0.003553 -0.002302 0.000000 -0.002464 0.000000
# 2 -0.003553 0.009742 -0.002488 0.000000 0.000438 0.000000
# 3 -0.002302 -0.002488 0.011191 0.000000 -0.001933 0.000000
# 4 0.000000 0.000000 0.000000 0.027776 0.000000 -0.003814
# 5 -0.002464 0.000438 -0.001933 0.000000 0.032192 0.000000
# 6 0.000000 0.000000 0.000000 -0.003814 0.000000 0.030295
#
#
# Mechanical properties :
#
#
# Convention : Reuss Voigt Hill
#
# Bulk Modulus (GPa) = 67.13171 70.56362 68.84767
# Shear Modulus (GPa) = 34.84402 35.78052 35.31227
#
# Velocity S-wave (km/s) = 4.06597 4.12025 4.09320
# Velocity P-wave (km/s) = 7.34127 7.49099 7.41651
#
# Compressibility (1/GPa) = 0.01489609
#
# Stress axis : x y z
#
# Youngs Moduli (GPa) = 93.89633 102.64861 89.35997
#
# Poissons Ratio (x) = 0.36469 0.20573
# Poissons Ratio (y) = 0.33359 0.22236
# Poissons Ratio (z) = 0.21617 0.25542
#
# Static dielectric constant tensor:
#      x y z
#    x 3.801270 0.000000 0.314460 
#    y 0.000000 3.361590 0.000000 
#    z 0.314460 0.000000 3.700360 
# 
# 
# High freq. dielectric constant tensor:
#      x y z
#    x 1.834470 0.000000 0.011010 
#    y 0.000000 1.832170 0.000000 
#    z 0.011010 0.000000 1.835860 
# 
# From -- ./inp_files/187178.got.cif
#   From: 2010.06.25/outbox.cif.g09.slc.cpg/sg12_94_cif.got.tgz:187178.got - 2010.06.28 00:19:55.
