data_PCOD8112388
_publ_section_title
;
Structure prediction by ZEFSAII (Michael W. Deem and Ramdas Pophale) SiO2 
 PCOD8112388
Probable space group: C 2/M
;
_chemical_formula_sum "Si O2"
_cell_formula_units_Z 48
_cell_length_a 9.430593
_cell_length_b 16.599435
_cell_length_c 27.120286
_cell_angle_alpha 90.000000
_cell_angle_beta 145.831750
_cell_angle_gamma 90.000000
_cell_volume 2384.366344
_symmetry_space_group_name_H-M "C 2/M"
_symmetry_group_IT_number 12
_symmetry_cell_setting 'monoclinic'
loop_
_space_group_symop_operation_xyz
x,y,z
-x,y,-z
-x,-y,-z
x,-y,z
1/2+x,1/2+y,z
1/2-x,1/2+y,-z
1/2-x,1/2-y,-z
1/2+x,1/2-y,z
loop_
_atom_site_type_symbol
_atom_site_label
_atom_site_fract_x
_atom_site_fract_y
_atom_site_fract_z
Si Si1 0.236737 0.594196 0.901549
Si Si2 0.709466 0.591495 0.292770
Si Si3 0.223909 0.833656 0.780401
Si Si4 0.620445 0.852656 0.759840
Si Si5 0.114763 0.329981 0.479111
Si Si6 0.605324 0.407135 0.643944
O O1 0.193416 0.500000 0.897756
O O2 0.236038 0.613871 0.843600
O O3 0.016819 0.641808 0.866942
O O4 0.500000 0.623721 0.000000
O O5 0.719136 0.500000 0.314857
O O6 0.427902 0.627882 0.217549
O O7 0.774919 0.593052 0.254109
O O8 0.901015 0.646000 0.379034
O O9 0.204925 0.738131 0.775465
O O10 0.090305 0.868211 0.693405
O O11 0.315748 0.859550 0.672765
O O12 0.250000 0.250000 0.500000
O O13 0.329142 0.399452 0.540572
O O14 0.000000 0.316886 0.500000
O O15 0.686261 0.500000 0.670879
#
# Coordination Sequence:
#
# PCOD8112388 Si02
#       6
#     8   8   8   8   8   8
#     4  10  22  43  68  91 122 165 205 245 305 380
#     4  12  24  38  62  92 123 159 206 261 309 355
#     4  11  21  39  64  90 123 161 205 249 308 368
#     4  11  23  41  62  93 125 160 202 255 310 367
#     4  12  26  41  61  90 126 168 214 262 306 357
#     4  11  23  41  63  86 124 171 214 253 301 368
#
# _framework density 20.131132999999998
#
# number of rings (size 3 to 8) (size 9 to 14) (size 15 to 20)
#    0.000    0.833    1.667    8.500    2.333    1.333 
#    0.000    2.500    0.000    3.000    0.000    0.000 
#    0.000    0.000    0.000    0.000    0.000    0.000 
#
# Total GULP energy -297718.886661 kJ/mol
# GULP energy per Si atom -12404.953611 kJ/mol
# Density = 2.008531 g / cm^3
# Si number density = 20.131133 Si / 1000 Ang^3
#
#
#
# Elastic Constant Matrix: (Units=GPa)
#
#
# Indices 1 2 3 4 5 6 
#
# 1 130.5635 22.2164 59.1754 0.0001 11.1914 0.0002
# 2 22.2164 109.6503 22.9096 -0.0010 17.5712 0.0004
# 3 59.1754 22.9096 112.5494 -0.0035 22.8988 0.0024
# 4 0.0001 -0.0010 -0.0035 23.7631 0.0000 6.6311
# 5 11.1914 17.5712 22.8988 0.0000 28.9423 0.0008
# 6 0.0002 0.0004 0.0024 6.6311 0.0008 34.2324
#
#
#
# Elastic Compliance Matrix: (Units=1/GPa)
#
#
# Indices 1 2 3 4 5 6 
#
# 1 0.010176 -0.001102 -0.005317 -0.000001 0.000941 0.000001
# 2 -0.001102 0.010310 -0.000396 0.000000 -0.005520 0.000000
# 3 -0.005317 -0.000396 0.013461 0.000002 -0.008353 -0.000001
# 4 -0.000001 0.000000 0.000002 0.044487 -0.000001 -0.008617
# 5 0.000941 -0.005520 -0.008353 -0.000001 0.044148 0.000000
# 6 0.000001 0.000000 -0.000001 -0.008617 0.000000 0.030881
#
#
# Mechanical properties :
#
#
# Convention : Reuss Voigt Hill
#
# Bulk Modulus (GPa) = 49.22135 62.37402 55.79769
# Shear Modulus (GPa) = 28.75770 33.95168 31.35469
#
# Velocity S-wave (km/s) = 3.78368 4.11119 3.95083
# Velocity P-wave (km/s) = 6.60240 7.32031 6.97060
#
# Compressibility (1/GPa) = 0.02031639
#
# Stress axis : x y z
#
# Youngs Moduli (GPa) = 98.27115 96.98861 74.28866
#
# Poissons Ratio (x) = 0.10684 0.39503
# Poissons Ratio (y) = 0.10825 0.02945
# Poissons Ratio (z) = 0.52255 0.03845
#
# Static dielectric constant tensor:
#      x y z
#    x 3.862320 0.000000 0.149250 
#    y 0.000000 3.713390 0.000000 
#    z 0.149250 0.000000 3.682480 
# 
# 
# High freq. dielectric constant tensor:
#      x y z
#    x 1.801340 0.000000 0.014220 
#    y 0.000000 1.799970 0.000000 
#    z 0.014220 0.000000 1.768350 
# 
# From -- ./inp_files/356296.got.cif
#   From: 2010.06.25/outbox.cif.g09.slc.cpg/sg12_179_cif.got.tgz:356296.got - 2010.06.28 00:19:55.
