data_PCOD8112227
_publ_section_title
;
Structure prediction by ZEFSAII (Michael W. Deem and Ramdas Pophale) SiO2 
 PCOD8112227
Probable space group: C 2/M
;
_chemical_formula_sum "Si O2"
_cell_formula_units_Z 32
_cell_length_a 7.241731
_cell_length_b 13.928050
_cell_length_c 17.572955
_cell_angle_alpha 90.000000
_cell_angle_beta 136.522060
_cell_angle_gamma 90.000000
_cell_volume 1219.588818
_symmetry_space_group_name_H-M "C 2/M"
_symmetry_group_IT_number 12
_symmetry_cell_setting 'monoclinic'
loop_
_space_group_symop_operation_xyz
x,y,z
-x,y,-z
-x,-y,-z
x,-y,z
1/2+x,1/2+y,z
1/2-x,1/2+y,-z
1/2-x,1/2-y,-z
1/2+x,1/2-y,z
loop_
_atom_site_type_symbol
_atom_site_label
_atom_site_fract_x
_atom_site_fract_y
_atom_site_fract_z
Si Si1 0.715318 0.386426 0.505650
Si Si2 0.807958 0.886730 0.671647
Si Si3 0.657264 0.194341 0.126951
Si Si4 0.241167 0.603958 0.874220
O O1 0.500000 0.340628 0.500000
O O2 0.685175 0.500000 0.496274
O O3 0.656855 0.345406 0.403759
O O4 0.018641 0.356075 0.620153
O O5 0.048413 0.849924 0.796698
O O6 0.820256 0.000000 0.670749
O O7 0.692288 0.307022 0.161881
O O8 0.504618 0.135492 0.145638
O O9 0.500000 0.188940 0.000000
O O10 0.166545 0.500000 0.811498
O O11 0.500000 0.581694 0.000000
#
# Coordination Sequence:
#
# PCOD8112227 Si02
#       4
#     8   8   8   8
#     4   8  15  33  59  92 132 177 236 294 342 404
#     4   9  18  33  60  98 137 180 231 285 347 417
#     4  11  22  41  65  99 143 178 224 281 344 422
#     4  10  22  42  66  94 134 186 236 280 331 405
#
# _framework density 26.238353
#
# number of rings (size 3 to 8) (size 9 to 14) (size 15 to 20)
#    0.000    2.500    0.000    5.250    0.000    2.000 
#    9.000    2.500    0.000    6.750    0.000    3.500 
#    0.000    1.000    0.000    0.000    0.000    0.000 
#
# Total GULP energy -198213.947153 kJ/mol
# GULP energy per Si atom -12388.371697 kJ/mol
# Density = 2.617863 g / cm^3
# Si number density = 26.238353 Si / 1000 Ang^3
#
#
#
# Elastic Constant Matrix: (Units=GPa)
#
#
# Indices 1 2 3 4 5 6 
#
# 1 175.7320 40.3095 69.7037 -0.0007 38.2018 -0.0003
# 2 40.3095 94.8920 32.3801 0.0005 24.1094 0.0002
# 3 69.7037 32.3801 140.5059 -0.0002 41.0518 -0.0001
# 4 -0.0007 0.0005 -0.0002 -105.0073 -0.0004 -46.7640
# 5 38.2018 24.1094 41.0518 -0.0004 38.8531 -0.0002
# 6 -0.0003 0.0002 -0.0001 -46.7640 -0.0002 15.1060
#
#
#
# Elastic Compliance Matrix: (Units=1/GPa)
#
#
# Indices 1 2 3 4 5 6 
#
# 1 0.007895 -0.001443 -0.002282 0.000000 -0.004456 0.000000
# 2 -0.001443 0.012852 -0.000478 0.000000 -0.006051 0.000000
# 3 -0.002282 -0.000478 0.011019 0.000000 -0.009102 0.000000
# 4 0.000000 0.000000 0.000000 -0.004004 0.000000 -0.012394
# 5 -0.004456 -0.006051 -0.009102 0.000000 0.043491 0.000000
# 6 0.000000 0.000000 0.000000 -0.012394 0.000000 0.027830
#
#
# Mechanical properties :
#
#
# Convention : Reuss Voigt Hill
#
# Bulk Modulus (GPa) = 42.80911 77.32406 60.06659
# Shear Modulus (GPa) = 43.37383 7.70614 25.53999
#
# Velocity S-wave (km/s) = 4.07021 1.71562 3.12329
# Velocity P-wave (km/s) = 6.19997 5.78432 5.99575
#
# Compressibility (1/GPa) = 0.02335951
#
# Stress axis : x y z
#
# Youngs Moduli (GPa) = 126.65476 77.81041 90.75410
#
# Poissons Ratio (x) = 0.11228 0.20713
# Poissons Ratio (y) = 0.18275 0.04338
# Poissons Ratio (z) = 0.28907 0.03719
#
# Static dielectric constant tensor:
#      x y z
#    x 5.012230 0.000000 0.253760 
#    y 0.000000 4.924280 0.000000 
#    z 0.253760 0.000000 4.817450 
# 
# 
# High freq. dielectric constant tensor:
#      x y z
#    x 2.061400 0.000000 0.019630 
#    y 0.000000 2.056280 0.000000 
#    z 0.019630 0.000000 2.036450 
# 
# From -- ./inp_files/193890.got.cif
#   From: 2010.06.25/outbox.cif.g09.slc.cpg/sg12_97_cif.got.tgz:193890.got - 2010.06.28 00:19:55.
