data_PCOD8112908
_publ_section_title
;
Structure prediction by ZEFSAII (Michael W. Deem and Ramdas Pophale) SiO2 
 PCOD8112908
Probable space group: C 2/M
;
_chemical_formula_sum "Si O2"
_cell_formula_units_Z 56
_cell_length_a 27.554554
_cell_length_b 8.438456
_cell_length_c 17.922825
_cell_angle_alpha 90.000000
_cell_angle_beta 38.165692
_cell_angle_gamma 90.000000
_cell_volume 2575.179751
_symmetry_space_group_name_H-M "C 2/M"
_symmetry_group_IT_number 12
_symmetry_cell_setting 'monoclinic'
loop_
_space_group_symop_operation_xyz
x,y,z
-x,y,-z
-x,-y,-z
x,-y,z
1/2+x,1/2+y,z
1/2-x,1/2+y,-z
1/2-x,1/2-y,-z
1/2+x,1/2-y,z
loop_
_atom_site_type_symbol
_atom_site_label
_atom_site_fract_x
_atom_site_fract_y
_atom_site_fract_z
Si Si1 0.036165 0.812570 0.878232
Si Si2 0.895767 0.183395 0.942878
Si Si3 0.243283 0.815549 0.159181
Si Si4 0.517650 0.317060 0.561144
Si Si5 0.209808 0.812566 0.623909
Si Si6 0.675963 0.816796 0.383443
Si Si7 0.372277 0.182773 0.814189
O O1 0.122056 0.745336 0.749594
O O2 0.976752 0.765250 0.883829
O O3 0.042563 0.000000 0.879987
O O4 0.000000 0.743232 0.000000
O O5 0.873307 0.297015 0.901556
O O6 0.898860 0.000000 0.915888
O O7 0.822764 0.220123 0.086247
O O8 0.184236 0.787302 0.298757
O O9 0.208502 0.743540 0.124596
O O10 0.259176 0.000000 0.128335
O O11 0.500000 0.251739 0.500000
O O12 0.542265 0.500000 0.530138
O O13 0.586667 0.215180 0.516791
O O14 0.441009 0.295377 0.702669
O O15 0.250000 0.750000 0.500000
O O16 0.265282 0.756159 0.624046
O O17 0.205959 0.000000 0.621429
O O18 0.690469 0.000000 0.348186
O O19 0.385943 0.000000 0.776424
#
# Coordination Sequence:
#
# PCOD8112908 Si02
#       7
#     8   8   8   8   8   8   8
#     4   9  19  40  68  94 123 164 216 266 316 380
#     4  11  23  40  65  94 125 164 209 259 317 375
#     4  12  24  41  63  92 127 166 211 257 313 379
#     4  11  23  40  63  92 126 166 211 256 309 378
#     4  10  23  42  65  97 130 167 213 268 329 386
#     4  11  23  40  65  94 126 166 212 260 315 377
#     4  12  25  41  62  90 128 166 208 259 314 375
#
# _framework density 21.746055999999999
#
# number of rings (size 3 to 8) (size 9 to 14) (size 15 to 20)
#    0.000    1.143    1.429    5.143    2.000    4.000 
#    0.000    0.714    0.000    3.000    0.000    0.000 
#    0.000    0.000    0.000    0.000    0.000    0.000 
#
# Total GULP energy -347222.339308 kJ/mol
# GULP energy per Si atom -12400.797832 kJ/mol
# Density = 2.169656 g / cm^3
# Si number density = 21.746056 Si / 1000 Ang^3
#
#
#
# Elastic Constant Matrix: (Units=GPa)
#
#
# Indices 1 2 3 4 5 6 
#
# 1 147.6643 48.9050 51.9038 -0.0260 -21.0169 0.0115
# 2 48.9050 68.0155 17.3646 -0.0227 -2.6468 0.0241
# 3 51.9038 17.3646 114.3686 -0.0351 -16.8965 0.0251
# 4 -0.0260 -0.0227 -0.0351 36.6521 0.0254 2.2931
# 5 -21.0169 -2.6468 -16.8965 0.0254 43.9277 -0.0102
# 6 0.0115 0.0241 0.0251 2.2931 -0.0102 23.0057
#
#
#
# Elastic Compliance Matrix: (Units=1/GPa)
#
#
# Indices 1 2 3 4 5 6 
#
# 1 0.010627 -0.006664 -0.003307 -0.000003 0.003411 0.000007
# 2 -0.006664 0.019474 -0.000244 0.000010 -0.002109 -0.000019
# 3 -0.003307 -0.000244 0.010651 0.000007 0.002500 -0.000009
# 4 -0.000003 0.000010 0.000007 0.027455 -0.000015 -0.002737
# 5 0.003411 -0.002109 0.002500 -0.000015 0.025231 0.000010
# 6 0.000007 -0.000019 -0.000009 -0.002737 0.000010 0.043740
#
#
# Mechanical properties :
#
#
# Convention : Reuss Voigt Hill
#
# Bulk Modulus (GPa) = 49.20796 62.93281 56.07039
# Shear Modulus (GPa) = 30.41670 34.84208 32.62939
#
# Velocity S-wave (km/s) = 3.74401 4.00712 3.87780
# Velocity P-wave (km/s) = 6.43177 7.10015 6.77421
#
# Compressibility (1/GPa) = 0.02032192
#
# Stress axis : x y z
#
# Youngs Moduli (GPa) = 94.09844 51.34927 93.88864
#
# Poissons Ratio (x) = 0.34220 0.31051
# Poissons Ratio (y) = 0.62709 0.02291
# Poissons Ratio (z) = 0.31120 0.01253
#
# Static dielectric constant tensor:
#      x y z
#    x 3.991630 -0.000030 -0.106190 
#    y -0.000030 3.534550 0.000060 
#    z -0.106190 0.000060 4.249820 
# 
# 
# High freq. dielectric constant tensor:
#      x y z
#    x 1.859540 0.000000 -0.011630 
#    y 0.000000 1.835850 0.000010 
#    z -0.011630 0.000010 1.868690 
# 
# From -- ./inp_files/292388.got.cif
#   From: 2010.06.25/outbox.cif.g09.slc.cpg/sg12_147_cif.got.tgz:292388.got - 2010.06.28 00:19:55.
