data_PCOD8112918
_publ_section_title
;
Structure prediction by ZEFSAII (Michael W. Deem and Ramdas Pophale) SiO2 
 PCOD8112918
Probable space group: C 2/M
;
_chemical_formula_sum "Si O2"
_cell_formula_units_Z 56
_cell_length_a 9.654299
_cell_length_b 25.414946
_cell_length_c 19.406205
_cell_angle_alpha 90.000000
_cell_angle_beta 35.341505
_cell_angle_gamma 90.000000
_cell_volume 2754.326287
_symmetry_space_group_name_H-M "C 2/M"
_symmetry_group_IT_number 12
_symmetry_cell_setting 'monoclinic'
loop_
_space_group_symop_operation_xyz
x,y,z
-x,y,-z
-x,-y,-z
x,-y,z
1/2+x,1/2+y,z
1/2-x,1/2+y,-z
1/2-x,1/2-y,-z
1/2+x,1/2-y,z
loop_
_atom_site_type_symbol
_atom_site_label
_atom_site_fract_x
_atom_site_fract_y
_atom_site_fract_z
Si Si1 0.581314 0.598309 0.538380
Si Si2 0.837739 0.328241 0.258231
Si Si3 0.187085 0.133255 0.862845
Si Si4 0.063662 0.057127 0.696089
Si Si5 0.414875 0.939562 0.668079
Si Si6 0.780186 0.643087 0.130232
Si Si7 0.949582 0.224002 0.870558
O O1 0.500000 0.569808 0.500000
O O2 0.426588 0.653250 0.606358
O O3 0.546565 0.563550 0.620733
O O4 0.868257 0.603052 0.416078
O O5 0.873555 0.352147 0.168977
O O6 0.050629 0.351869 0.216557
O O7 0.863424 0.265158 0.239930
O O8 0.215636 0.081423 0.803338
O O9 0.094299 0.181824 0.855552
O O10 0.000000 0.120791 0.000000
O O11 0.325969 0.060463 0.624570
O O12 0.926729 0.101161 0.793486
O O13 0.952181 0.000000 0.757058
O O14 0.487662 0.000000 0.658212
O O15 0.690508 0.698606 0.136780
O O16 0.000000 0.619404 0.000000
O O17 0.750000 0.250000 0.000000
#
# Coordination Sequence:
#
# PCOD8112918 Si02
#       7
#     8   8   8   8   8   8   8
#     4  11  23  44  68  94 127 161 222 273 322 385
#     4  11  24  38  62 100 130 163 218 276 316 379
#     4  12  23  41  67 100 135 169 219 267 321 390
#     4  10  23  42  66  93 126 169 219 271 325 389
#     4  11  24  45  70  93 128 178 218 268 333 392
#     4  11  21  38  62  96 131 168 215 260 319 397
#     4  12  22  39  68  95 127 181 216 255 322 391
#
# _framework density 20.33165
#
# number of rings (size 3 to 8) (size 9 to 14) (size 15 to 20)
#    0.000    0.857    5.714    1.714    0.000    2.857 
#    0.000    0.714    3.143    0.000    0.000    0.000 
#    0.000    0.000    0.000    0.000    0.000    0.000 
#
# Total GULP energy -346871.361746 kJ/mol
# GULP energy per Si atom -12388.262919 kJ/mol
# Density = 2.028537 g / cm^3
# Si number density = 20.331650 Si / 1000 Ang^3
#
#
#
# Elastic Constant Matrix: (Units=GPa)
#
#
# Indices 1 2 3 4 5 6 
#
# 1 127.6422 40.8083 42.2079 -0.0277 3.5690 0.0086
# 2 40.8083 104.3464 59.0565 -0.0162 -5.9169 0.0064
# 3 42.2079 59.0565 111.8872 -0.0895 1.3757 0.0226
# 4 -0.0277 -0.0162 -0.0895 -76.9241 -0.0107 35.0547
# 5 3.5690 -5.9169 1.3757 -0.0107 28.9431 0.0043
# 6 0.0086 0.0064 0.0226 35.0547 0.0043 15.7545
#
#
#
# Elastic Compliance Matrix: (Units=1/GPa)
#
#
# Indices 1 2 3 4 5 6 
#
# 1 0.009413 -0.002526 -0.002198 0.000000 -0.001573 0.000000
# 2 -0.002526 0.014635 -0.006816 0.000004 0.003627 -0.000004
# 3 -0.002198 -0.006816 0.013386 -0.000010 -0.001759 0.000007
# 4 0.000000 0.000004 -0.000010 -0.006455 -0.000003 0.014362
# 5 -0.001573 0.003627 -0.001759 -0.000003 0.035570 0.000000
# 6 0.000000 -0.000004 0.000007 0.014362 0.000000 0.031517
#
#
# Mechanical properties :
#
#
# Convention : Reuss Voigt Hill
#
# Bulk Modulus (GPa) = 69.67351 69.78013 69.72682
# Shear Modulus (GPa) = 39.70428 7.00824 23.35626
#
# Velocity S-wave (km/s) = 4.42388 1.85861 3.39302
# Velocity P-wave (km/s) = 7.77413 6.24511 7.05119
#
# Compressibility (1/GPa) = 0.01435266
#
# Stress axis : x y z
#
# Youngs Moduli (GPa) = 106.23678 68.32986 74.70442
#
# Poissons Ratio (x) = 0.17263 0.16421
# Poissons Ratio (y) = 0.26840 0.50920
# Poissons Ratio (z) = 0.23352 0.46575
#
# Static dielectric constant tensor:
#      x y z
#    x 4.094220 -0.000020 0.062380 
#    y -0.000020 3.737400 0.000000 
#    z 0.062380 0.000000 3.862890 
# 
# 
# High freq. dielectric constant tensor:
#      x y z
#    x 1.824470 0.000000 0.006820 
#    y 0.000000 1.777420 0.000000 
#    z 0.006820 0.000000 1.786950 
# 
# From -- ./inp_files/124274.got.cif
#   From: 2010.06.25/outbox.cif.g09.slc.cpg/sg12_63_cif.got.tgz:124274.got - 2010.06.28 00:19:55.
