data_PCOD8112600
_publ_section_title
;
Structure prediction by ZEFSAII (Michael W. Deem and Ramdas Pophale) SiO2 
 PCOD8112600
Probable space group: C 2/M
;
_chemical_formula_sum "Si O2"
_cell_formula_units_Z 56
_cell_length_a 19.724716
_cell_length_b 7.785932
_cell_length_c 28.525547
_cell_angle_alpha 90.000000
_cell_angle_beta 40.619039
_cell_angle_gamma 90.000000
_cell_volume 2852.029421
_symmetry_space_group_name_H-M "C 2/M"
_symmetry_group_IT_number 12
_symmetry_cell_setting 'monoclinic'
loop_
_space_group_symop_operation_xyz
x,y,z
-x,y,-z
-x,-y,-z
x,-y,z
1/2+x,1/2+y,z
1/2-x,1/2+y,-z
1/2-x,1/2-y,-z
1/2+x,1/2-y,z
loop_
_atom_site_type_symbol
_atom_site_label
_atom_site_fract_x
_atom_site_fract_y
_atom_site_fract_z
Si Si1 0.409076 0.695825 0.517895
Si Si2 0.161829 0.801306 0.805142
Si Si3 0.470995 0.806275 0.290686
Si Si4 0.868932 0.202461 0.437860
Si Si5 0.790887 0.300412 0.829814
Si Si6 0.287622 0.307329 0.325905
Si Si7 0.467351 0.000000 0.091364
Si Si8 0.162786 0.500000 0.933918
O O1 0.500000 0.789505 0.500000
O O2 0.440682 0.500000 0.493922
O O3 0.409945 0.777854 0.465758
O O4 0.296388 0.696832 0.601811
O O5 0.250923 0.772037 0.797499
O O6 0.208101 0.748600 0.730398
O O7 0.064320 0.674550 0.864885
O O8 0.122933 0.000000 0.825715
O O9 0.428279 0.798725 0.365615
O O10 0.589561 0.740847 0.229516
O O11 0.401023 0.700222 0.290851
O O12 0.467278 0.000000 0.274620
O O13 0.750000 0.250000 0.500000
O O14 0.884958 0.000000 0.423300
O O15 0.774646 0.500000 0.853056
O O16 0.730346 0.175221 0.897379
O O17 0.246400 0.500000 0.350194
O O18 0.411941 0.000000 0.070939
O O19 0.592373 0.000000 0.017995
#
# Coordination Sequence:
#
# PCOD8112600 Si02
#       8
#     8   8   8   8   8   8   4   4
#     4  10  23  40  55  79 110 148 191 236 291 337
#     4   9  20  37  56  87 119 148 192 237 280 341
#     4  11  23  37  57  81 109 151 191 235 287 336
#     4  11  22  37  56  78 109 145 190 238 282 336
#     4   9  20  37  57  87 119 149 187 238 287 331
#     4  11  23  37  57  82 109 150 193 234 284 342
#     4   9  18  34  60  92 116 157 179 228 290 337
#     4   9  18  34  60  92 121 144 193 223 283 351
#
# _framework density 19.635141999999998
#
# number of rings (size 3 to 8) (size 9 to 14) (size 15 to 20)
#    0.000    2.000    1.429    1.286    6.000    1.429 
#    0.000    2.857    0.000    0.857    0.000    0.000 
#    0.000    0.000    0.000    0.000    0.000    0.000 
#
# Total GULP energy -347110.959434 kJ/mol
# GULP energy per Si atom -12396.819980 kJ/mol
# Density = 1.959045 g / cm^3
# Si number density = 19.635142 Si / 1000 Ang^3
#
#
#
# Elastic Constant Matrix: (Units=GPa)
#
#
# Indices 1 2 3 4 5 6 
#
# 1 96.0171 13.9861 26.3971 -0.0147 -11.8980 -0.0248
# 2 13.9861 62.7823 27.2482 -0.0005 -3.3847 0.0301
# 3 26.3971 27.2482 91.6411 -0.0235 -19.1335 0.0253
# 4 -0.0147 -0.0005 -0.0235 29.1988 -0.0067 1.3729
# 5 -11.8980 -3.3847 -19.1335 -0.0067 25.8114 0.0105
# 6 -0.0248 0.0301 0.0253 1.3729 0.0105 21.2426
#
#
#
# Elastic Compliance Matrix: (Units=1/GPa)
#
#
# Indices 1 2 3 4 5 6 
#
# 1 0.011670 -0.001460 -0.002182 0.000004 0.003570 0.000016
# 2 -0.001460 0.018553 -0.005594 -0.000005 -0.002387 -0.000020
# 3 -0.002182 -0.005594 0.015192 0.000014 0.009522 -0.000018
# 4 0.000004 -0.000005 0.000014 0.034352 0.000022 -0.002220
# 5 0.003570 -0.002387 0.009522 0.000022 0.047134 -0.000028
# 6 0.000016 -0.000020 -0.000018 -0.002220 -0.000028 0.047219
#
#
# Mechanical properties :
#
#
# Convention : Reuss Voigt Hill
#
# Bulk Modulus (GPa) = 37.11670 42.85592 39.98631
# Shear Modulus (GPa) = 24.80494 27.43783 26.12138
#
# Velocity S-wave (km/s) = 3.55814 3.74222 3.65134
# Velocity P-wave (km/s) = 5.98537 6.36755 6.17942
#
# Compressibility (1/GPa) = 0.02694205
#
# Stress axis : x y z
#
# Youngs Moduli (GPa) = 85.69133 53.90078 65.82387
#
# Poissons Ratio (x) = 0.07871 0.14361
# Poissons Ratio (y) = 0.12513 0.36823
# Poissons Ratio (z) = 0.18696 0.30153
#
# Static dielectric constant tensor:
#      x y z
#    x 3.343210 -0.000050 -0.247360 
#    y -0.000050 3.595990 -0.000010 
#    z -0.247360 -0.000010 3.415690 
# 
# 
# High freq. dielectric constant tensor:
#      x y z
#    x 1.758150 0.000000 -0.001790 
#    y 0.000000 1.770740 0.000000 
#    z -0.001790 0.000000 1.750630 
# 
# From -- ./inp_files/377709.got.cif
#   From: 2010.06.25/outbox.cif.g09.slc.cpg/sg12_189_cif.got.tgz:377709.got - 2010.06.28 00:19:55.
