data_PCOD8112364
_publ_section_title
;
Structure prediction by ZEFSAII (Michael W. Deem and Ramdas Pophale) SiO2 
 PCOD8112364
Probable space group: C 2/M
;
_chemical_formula_sum "Si O2"
_cell_formula_units_Z 64
_cell_length_a 9.647588
_cell_length_b 14.093857
_cell_length_c 23.558196
_cell_angle_alpha 90.000000
_cell_angle_beta 95.395418
_cell_angle_gamma 90.000000
_cell_volume 3189.056530
_symmetry_space_group_name_H-M "C 2/M"
_symmetry_group_IT_number 12
_symmetry_cell_setting 'monoclinic'
loop_
_space_group_symop_operation_xyz
x,y,z
-x,y,-z
-x,-y,-z
x,-y,z
1/2+x,1/2+y,z
1/2-x,1/2+y,-z
1/2-x,1/2-y,-z
1/2+x,1/2-y,z
loop_
_atom_site_type_symbol
_atom_site_label
_atom_site_fract_x
_atom_site_fract_y
_atom_site_fract_z
Si Si1 0.934135 0.241430 0.831062
Si Si2 0.988945 0.110721 0.624497
Si Si3 0.161190 0.390103 0.993451
Si Si4 0.670375 0.610514 0.269462
Si Si5 0.017225 0.389190 0.746648
Si Si6 0.888485 0.266038 0.539641
Si Si7 0.308525 0.110758 0.641782
Si Si8 0.198413 0.771232 0.907990
O O1 0.041062 0.205468 0.883222
O O2 0.914525 0.161081 0.783398
O O3 0.996651 0.336416 0.805357
O O4 0.788541 0.265414 0.854576
O O5 0.890158 0.143326 0.672324
O O6 0.942680 0.166247 0.566650
O O7 0.147784 0.136299 0.646681
O O8 0.972171 0.000000 0.610167
O O9 0.191711 0.500000 0.981708
O O10 0.207182 0.329217 0.940884
O O11 0.250827 0.357743 0.051025
O O12 0.000000 0.371267 0.000000
O O13 0.643383 0.500000 0.259239
O O14 0.833499 0.635978 0.274881
O O15 0.004902 0.500000 0.759513
O O16 0.896971 0.353732 0.699208
O O17 0.750000 0.250000 0.500000
O O18 0.867862 0.341538 0.588063
O O19 0.000000 0.308159 0.500000
O O20 0.331702 0.000000 0.633883
#
# Coordination Sequence:
#
# PCOD8112364 Si02
#       8
#     8   8   8   8   8   8   8   8
#     4  12  23  39  63  93 130 159 196 256 304 352
#     4  10  23  43  64  86 122 164 199 245 305 366
#     4  10  22  43  67  88 121 168 209 248 302 362
#     4  10  23  41  62  90 123 162 201 242 302 366
#     4  10  23  41  63  90 122 163 203 241 299 369
#     4  12  25  40  62  91 118 155 205 254 303 360
#     4  10  23  43  63  87 122 161 201 247 302 366
#     4  11  24  40  62  96 124 159 206 253 301 355
#
# _framework density 20.068631
#
# number of rings (size 3 to 8) (size 9 to 14) (size 15 to 20)
#    0.000    1.375    3.750    0.750    3.500    5.000 
#    0.000    0.625    0.000    0.000    0.000    0.000 
#    0.000    0.000    0.000    0.000    0.000    0.000 
#
# Total GULP energy -397009.204406 kJ/mol
# GULP energy per Si atom -12406.537638 kJ/mol
# Density = 2.002295 g / cm^3
# Si number density = 20.068631 Si / 1000 Ang^3
#
#
#
# Elastic Constant Matrix: (Units=GPa)
#
#
# Indices 1 2 3 4 5 6 
#
# 1 110.7153 37.2036 40.0216 0.0000 4.4666 0.0000
# 2 37.2036 69.2381 35.8283 0.0000 1.6386 0.0000
# 3 40.0216 35.8283 94.9763 0.0000 2.0990 0.0000
# 4 0.0000 0.0000 0.0000 27.7727 0.0000 -1.4975
# 5 4.4666 1.6386 2.0990 0.0000 54.4526 0.0000
# 6 0.0000 0.0000 0.0000 -1.4975 0.0000 27.6929
#
#
#
# Elastic Compliance Matrix: (Units=1/GPa)
#
#
# Indices 1 2 3 4 5 6 
#
# 1 0.011780 -0.004663 -0.003190 0.000000 -0.000703 0.000000
# 2 -0.004663 0.019796 -0.005503 0.000000 -0.000001 0.000000
# 3 -0.003190 -0.005503 0.013951 0.000000 -0.000111 0.000000
# 4 0.000000 0.000000 0.000000 0.036112 0.000000 0.001953
# 5 -0.000703 -0.000001 -0.000111 0.000000 0.018427 0.000000
# 6 0.000000 0.000000 0.000000 0.001953 0.000000 0.036216
#
#
# Mechanical properties :
#
#
# Convention : Reuss Voigt Hill
#
# Bulk Modulus (GPa) = 53.14295 55.67072 54.40683
# Shear Modulus (GPa) = 29.53955 32.77540 31.15747
#
# Velocity S-wave (km/s) = 3.84073 4.04563 3.94451
# Velocity P-wave (km/s) = 6.79753 7.04437 6.92205
#
# Compressibility (1/GPa) = 0.01881717
#
# Stress axis : x y z
#
# Youngs Moduli (GPa) = 84.88727 50.51546 71.67807
#
# Poissons Ratio (x) = 0.23554 0.22862
# Poissons Ratio (y) = 0.39581 0.39443
# Poissons Ratio (z) = 0.27075 0.27798
#
# Static dielectric constant tensor:
#      x y z
#    x 3.581790 0.000000 -0.558790 
#    y 0.000000 3.590730 0.000000 
#    z -0.558790 0.000000 2.342980 
# 
# 
# High freq. dielectric constant tensor:
#      x y z
#    x 1.797370 0.000000 0.001330 
#    y 0.000000 1.783200 0.000000 
#    z 0.001330 0.000000 1.789560 
# 
# From -- ./inp_files/332919.got.cif
#   From: 2010.06.25/outbox.cif.g09.slc.cpg/sg12_167_cif.got.tgz:332919.got - 2010.06.28 00:19:55.
