data_PCOD8112999
_publ_section_title
;
Structure prediction by ZEFSAII (Michael W. Deem and Ramdas Pophale) SiO2 
 PCOD8112999
Probable space group: C 2/M
;
_chemical_formula_sum "Si O2"
_cell_formula_units_Z 48
_cell_length_a 27.462413
_cell_length_b 8.595356
_cell_length_c 16.974299
_cell_angle_alpha 90.000000
_cell_angle_beta 144.027551
_cell_angle_gamma 90.000000
_cell_volume 2353.561314
_symmetry_space_group_name_H-M "C 2/M"
_symmetry_group_IT_number 12
_symmetry_cell_setting 'monoclinic'
loop_
_space_group_symop_operation_xyz
x,y,z
-x,y,-z
-x,-y,-z
x,-y,z
1/2+x,1/2+y,z
1/2-x,1/2+y,-z
1/2-x,1/2-y,-z
1/2+x,1/2-y,z
loop_
_atom_site_type_symbol
_atom_site_label
_atom_site_fract_x
_atom_site_fract_y
_atom_site_fract_z
Si Si1 0.015596 0.316134 0.108409
Si Si2 0.697376 0.819773 0.756131
Si Si3 0.405976 0.319409 0.240746
Si Si4 0.634080 0.182072 0.976522
Si Si5 0.659983 0.682991 0.395050
Si Si6 0.098694 0.181815 0.485379
O O1 0.024526 0.500000 0.120931
O O2 0.101201 0.243749 0.249231
O O3 0.000000 0.254103 0.000000
O O4 0.940357 0.260734 0.065178
O O5 0.638386 0.783298 0.752078
O O6 0.780159 0.716938 0.867344
O O7 0.650739 0.781808 0.614588
O O8 0.721651 0.000000 0.789592
O O9 0.389329 0.500000 0.236792
O O10 0.502562 0.279081 0.370631
O O11 0.368281 0.279076 0.106789
O O12 0.627063 0.000000 0.948369
O O13 0.664127 0.500000 0.395891
O O14 0.750000 0.750000 0.500000
O O15 0.624710 0.737912 0.432844
O O16 0.116543 0.000000 0.522343
#
# Coordination Sequence:
#
# PCOD8112999 Si02
#       6
#     8   8   8   8   8   8
#     4  10  23  43  67  95 126 164 207 257 314 371
#     4  12  26  40  61  94 129 165 211 259 309 370
#     4  11  22  42  67  91 124 165 212 259 315 372
#     4  11  23  41  65  92 128 167 209 258 313 371
#     4  11  24  43  67  96 128 165 208 256 311 370
#     4  10  23  43  65  90 126 167 207 256 314 371
#
# _framework density 20.394622999999999
#
# number of rings (size 3 to 8) (size 9 to 14) (size 15 to 20)
#    0.000    1.167    1.667    4.000    2.333    5.667 
#    0.000    0.000    0.000    0.000    0.000    0.000 
#    0.000    0.000    0.000    0.000    0.000    0.000 
#
# Total GULP energy -297792.055803 kJ/mol
# GULP energy per Si atom -12408.002325 kJ/mol
# Density = 2.034820 g / cm^3
# Si number density = 20.394623 Si / 1000 Ang^3
#
#
#
# Elastic Constant Matrix: (Units=GPa)
#
#
# Indices 1 2 3 4 5 6 
#
# 1 107.9149 21.1993 61.7316 0.0000 1.4096 0.0000
# 2 21.1993 33.4874 31.5273 0.0000 -3.0858 0.0000
# 3 61.7316 31.5273 151.6407 0.0000 -1.8127 0.0000
# 4 0.0000 0.0000 0.0000 40.0942 0.0000 -1.4981
# 5 1.4096 -3.0858 -1.8127 0.0000 43.0247 0.0000
# 6 0.0000 0.0000 0.0000 -1.4981 0.0000 28.4026
#
#
#
# Elastic Compliance Matrix: (Units=1/GPa)
#
#
# Indices 1 2 3 4 5 6 
#
# 1 0.012504 -0.003971 -0.004275 0.000000 -0.000875 0.000000
# 2 -0.003971 0.038628 -0.006383 0.000000 0.002632 0.000000
# 3 -0.004275 -0.006383 0.009663 0.000000 0.000089 0.000000
# 4 0.000000 0.000000 0.000000 0.024991 0.000000 0.001318
# 5 -0.000875 0.002632 0.000089 0.000000 0.023464 0.000000
# 6 0.000000 0.000000 0.000000 0.001318 0.000000 0.035278
#
#
# Mechanical properties :
#
#
# Convention : Reuss Voigt Hill
#
# Bulk Modulus (GPa) = 31.70967 57.99550 44.85259
# Shear Modulus (GPa) = 27.13022 34.20995 30.67008
#
# Velocity S-wave (km/s) = 3.65123 4.10005 3.88213
# Velocity P-wave (km/s) = 5.77557 7.13528 6.49113
#
# Compressibility (1/GPa) = 0.03153612
#
# Stress axis : x y z
#
# Youngs Moduli (GPa) = 79.97743 25.88803 103.48853
#
# Poissons Ratio (x) = 0.10281 0.44240
# Poissons Ratio (y) = 0.31762 0.66056
# Poissons Ratio (z) = 0.34189 0.16524
#
# Static dielectric constant tensor:
#      x y z
#    x 3.765300 0.000000 -0.029490 
#    y 0.000000 3.611750 0.000000 
#    z -0.029490 0.000000 3.785780 
# 
# 
# High freq. dielectric constant tensor:
#      x y z
#    x 1.809030 0.000000 0.001650 
#    y 0.000000 1.797190 0.000000 
#    z 0.001650 0.000000 1.813410 
# 
# From -- ./inp_files/244662.got.cif
#   From: 2010.06.25/outbox.cif.g09.slc.cpg/sg12_123_cif.got.tgz:244662.got - 2010.06.28 00:19:55.
