data_PCOD8112046
_publ_section_title
;
Structure prediction by ZEFSAII (Michael W. Deem and Ramdas Pophale) SiO2 
 PCOD8112046
Probable space group: C 2/M
;
_chemical_formula_sum "Si O2"
_cell_formula_units_Z 56
_cell_length_a 11.344183
_cell_length_b 15.799999
_cell_length_c 16.701479
_cell_angle_alpha 90.000000
_cell_angle_beta 117.109099
_cell_angle_gamma 90.000000
_cell_volume 2664.671958
_symmetry_space_group_name_H-M "C 2/M"
_symmetry_group_IT_number 12
_symmetry_cell_setting 'monoclinic'
loop_
_space_group_symop_operation_xyz
x,y,z
-x,y,-z
-x,-y,-z
x,-y,z
1/2+x,1/2+y,z
1/2-x,1/2+y,-z
1/2-x,1/2-y,-z
1/2+x,1/2-y,z
loop_
_atom_site_type_symbol
_atom_site_label
_atom_site_fract_x
_atom_site_fract_y
_atom_site_fract_z
Si Si1 0.936050 0.175152 0.286001
Si Si2 0.245779 0.405533 0.344182
Si Si3 0.124233 0.191822 0.482991
Si Si4 0.687629 0.403514 0.886252
Si Si5 0.209428 0.095105 0.078360
Si Si6 0.977216 0.660346 0.214902
Si Si7 0.899032 0.733432 0.900141
O O1 0.804166 0.156136 0.295585
O O2 0.943674 0.114271 0.208770
O O3 0.066183 0.159528 0.380381
O O4 0.918015 0.274607 0.261023
O O5 0.284343 0.500000 0.332451
O O6 0.310151 0.386632 0.450274
O O7 0.086942 0.395583 0.294139
O O8 0.250000 0.250000 0.500000
O O9 0.000000 0.229385 0.500000
O O10 0.739399 0.500000 0.890010
O O11 0.781493 0.332519 0.877294
O O12 0.667762 0.385822 0.973738
O O13 0.367203 0.099453 0.141359
O O14 0.140916 0.167470 0.109403
O O15 0.160942 0.000000 0.086809
O O16 0.036738 0.720581 0.165516
O O17 0.000000 0.709344 0.000000
#
# Coordination Sequence:
#
# PCOD8112046 Si02
#       7
#     8   8   8   8   8   8   8
#     4  11  22  38  63  92 125 160 209 259 321 379
#     4  11  23  39  64  97 125 159 211 269 319 379
#     4  10  22  41  66  97 129 172 213 266 331 398
#     4  11  22  37  59  89 124 162 208 266 315 370
#     4  11  24  41  59  87 124 165 209 258 313 379
#     4  12  21  38  65  89 120 168 205 259 318 380
#     4  12  23  38  62  87 124 165 214 254 316 380
#
# _framework density 21.015722
#
# number of rings (size 3 to 8) (size 9 to 14) (size 15 to 20)
#    0.000    0.857    5.714    2.143    0.000    4.286 
#    0.000    1.429    0.000    0.429    0.000    0.000 
#    0.000    0.000    0.000    0.000    0.000    0.000 
#
# Total GULP energy -346959.627284 kJ/mol
# GULP energy per Si atom -12391.415260 kJ/mol
# Density = 2.096789 g / cm^3
# Si number density = 21.015722 Si / 1000 Ang^3
#
#
#
# Elastic Constant Matrix: (Units=GPa)
#
#
# Indices 1 2 3 4 5 6 
#
# 1 68.4142 31.2666 23.0452 0.0000 7.8491 0.0000
# 2 31.2666 111.6448 35.0847 0.0000 -7.1843 0.0000
# 3 23.0452 35.0847 153.9447 0.0000 19.9884 0.0000
# 4 0.0000 0.0000 0.0000 26.7765 0.0000 2.1669
# 5 7.8491 -7.1843 19.9884 0.0000 26.4690 0.0000
# 6 0.0000 0.0000 0.0000 2.1669 0.0000 13.4086
#
#
#
# Elastic Compliance Matrix: (Units=1/GPa)
#
#
# Indices 1 2 3 4 5 6 
#
# 1 0.017942 -0.005207 -0.000693 0.000000 -0.006211 0.000000
# 2 -0.005207 0.011728 -0.002780 0.000000 0.006826 0.000000
# 3 -0.000693 -0.002780 0.008098 0.000000 -0.006665 0.000000
# 4 0.000000 0.000000 0.000000 0.037841 0.000000 -0.006115
# 5 -0.006211 0.006826 -0.006665 0.000000 0.046508 0.000000
# 6 0.000000 0.000000 0.000000 -0.006115 0.000000 0.075567
#
#
# Mechanical properties :
#
#
# Convention : Reuss Voigt Hill
#
# Bulk Modulus (GPa) = 48.99572 56.97740 52.98656
# Shear Modulus (GPa) = 22.53810 29.63797 26.08804
#
# Velocity S-wave (km/s) = 3.27837 3.75944 3.52711
# Velocity P-wave (km/s) = 6.13960 6.78345 6.46954
#
# Compressibility (1/GPa) = 0.02040995
#
# Stress axis : x y z
#
# Youngs Moduli (GPa) = 55.73402 85.26617 123.48050
#
# Poissons Ratio (x) = 0.44396 0.08556
# Poissons Ratio (y) = 0.29019 0.34325
# Poissons Ratio (z) = 0.03862 0.23702
#
# Static dielectric constant tensor:
#      x y z
#    x 3.681900 0.000000 0.323530 
#    y 0.000000 3.681300 0.000000 
#    z 0.323530 0.000000 2.970180 
# 
# 
# High freq. dielectric constant tensor:
#      x y z
#    x 1.800870 0.000000 0.015140 
#    y 0.000000 1.812460 0.000000 
#    z 0.015140 0.000000 1.851580 
# 
# From -- ./inp_files/263394.got.cif
#   From: 2010.06.25/outbox.cif.g09.slc.cpg/sg12_132_cif.got.tgz:263394.got - 2010.06.28 00:19:55.
