data_PCOD8112313
_publ_section_title
;
Structure prediction by ZEFSAII (Michael W. Deem and Ramdas Pophale) SiO2 
 PCOD8112313
Probable space group: C 2/M
;
_chemical_formula_sum "Si O2"
_cell_formula_units_Z 36
_cell_length_a 14.007388
_cell_length_b 19.820785
_cell_length_c 11.198885
_cell_angle_alpha 90.000000
_cell_angle_beta 29.616083
_cell_angle_gamma 90.000000
_cell_volume 1536.537479
_symmetry_space_group_name_H-M "C 2/M"
_symmetry_group_IT_number 12
_symmetry_cell_setting 'monoclinic'
loop_
_space_group_symop_operation_xyz
x,y,z
-x,y,-z
-x,-y,-z
x,-y,z
1/2+x,1/2+y,z
1/2-x,1/2+y,-z
1/2-x,1/2-y,-z
1/2+x,1/2-y,z
loop_
_atom_site_type_symbol
_atom_site_label
_atom_site_fract_x
_atom_site_fract_y
_atom_site_fract_z
Si Si1 0.713688 0.073625 0.221801
Si Si2 0.635249 0.323349 0.514227
Si Si3 0.000000 0.615670 0.000000
Si Si4 0.196498 0.075019 0.143732
Si Si5 0.325944 0.302830 0.255808
O O1 0.500000 0.067298 0.500000
O O2 0.812480 0.129927 0.193268
O O3 0.814989 0.000000 0.128009
O O4 0.715977 0.094256 0.079906
O O5 0.465666 0.369332 0.641918
O O6 0.609145 0.326130 0.683996
O O7 0.632682 0.244644 0.471486
O O8 0.852174 0.344631 0.245640
O O9 0.868496 0.572437 0.052657
O O10 0.101328 0.000000 0.245475
O O11 0.500000 0.261848 0.000000
#
# Coordination Sequence:
#
# PCOD8112313 Si02
#       5
#     8   8   4   8   8
#     4  10  22  42  70 106 139 179 234 295 359 416
#     4  11  25  44  70 107 143 185 238 283 360 425
#     4  12  25  44  66 100 145 186 240 292 347 426
#     4  11  25  45  71 102 143 191 237 293 354 421
#     4  11  22  45  72 104 141 184 233 296 352 419
#
# _framework density 23.429300999999999
#
# number of rings (size 3 to 8) (size 9 to 14) (size 15 to 20)
#    0.000    1.111    3.333    2.333    0.000    5.778 
#    0.000    4.444    0.000    0.000    0.000    0.000 
#    0.000    0.000    0.000    0.000    0.000    0.000 
#
# Total GULP energy -223002.508355 kJ/mol
# GULP energy per Si atom -12389.028242 kJ/mol
# Density = 2.337597 g / cm^3
# Si number density = 23.429301 Si / 1000 Ang^3
#
#
#
# Elastic Constant Matrix: (Units=GPa)
#
#
# Indices 1 2 3 4 5 6 
#
# 1 140.8769 76.0403 63.1599 0.0435 13.5265 0.1030
# 2 76.0403 133.2000 48.1651 -0.0365 0.1786 0.0124
# 3 63.1599 48.1651 136.7517 0.1661 16.2222 0.3335
# 4 0.0435 -0.0365 0.1661 30.3814 -0.0200 -20.3094
# 5 13.5265 0.1786 16.2222 -0.0200 47.9261 -0.0116
# 6 0.1030 0.0124 0.3335 -20.3094 -0.0116 -55.3044
#
#
#
# Elastic Compliance Matrix: (Units=1/GPa)
#
#
# Indices 1 2 3 4 5 6 
#
# 1 0.011738 -0.005537 -0.003209 -0.000005 -0.002206 0.000004
# 2 -0.005537 0.011265 -0.001657 0.000016 0.002082 -0.000024
# 3 -0.003209 -0.001657 0.009658 -0.000013 -0.002357 0.000057
# 4 -0.000005 0.000016 -0.000013 0.026427 0.000015 -0.009705
# 5 -0.002206 0.002082 -0.002357 0.000015 0.022278 -0.000028
# 6 0.000004 -0.000024 0.000057 -0.009705 -0.000028 -0.014517
#
#
# Mechanical properties :
#
#
# Convention : Reuss Voigt Hill
#
# Bulk Modulus (GPa) = 84.36413 87.28436 85.82424
# Shear Modulus (GPa) = 54.58061 19.49817 37.03939
#
# Velocity S-wave (km/s) = 4.83182 2.88794 3.98037
# Velocity P-wave (km/s) = 8.19846 6.96100 7.60494
#
# Compressibility (1/GPa) = 0.01185338
#
# Stress axis : x y z
#
# Youngs Moduli (GPa) = 85.19383 88.76976 103.54276
#
# Poissons Ratio (x) = 0.49156 0.33229
# Poissons Ratio (y) = 0.47176 0.17158
# Poissons Ratio (z) = 0.27341 0.14710
#
# Static dielectric constant tensor:
#      x y z
#    x 3.928310 -0.000120 0.388890 
#    y -0.000120 4.606310 -0.000440 
#    z 0.388890 -0.000440 3.964160 
# 
# 
# High freq. dielectric constant tensor:
#      x y z
#    x 1.917070 -0.000010 0.029840 
#    y -0.000010 1.934760 0.000020 
#    z 0.029840 0.000020 1.945150 
# 
# From -- ./inp_files/147439.got.cif
#   From: 2010.06.25/outbox.cif.g09.slc.cpg/sg12_74_cif.got.tgz:147439.got - 2010.06.28 00:19:55.
