data_PCOD8112500
_publ_section_title
;
Structure prediction by ZEFSAII (Michael W. Deem and Ramdas Pophale) SiO2 
 PCOD8112500
Probable space group: C 2/M
;
_chemical_formula_sum "Si O2"
_cell_formula_units_Z 60
_cell_length_a 23.036107
_cell_length_b 21.051278
_cell_length_c 11.843300
_cell_angle_alpha 90.000000
_cell_angle_beta 30.232775
_cell_angle_gamma 90.000000
_cell_volume 2891.825321
_symmetry_space_group_name_H-M "C 2/M"
_symmetry_group_IT_number 12
_symmetry_cell_setting 'monoclinic'
loop_
_space_group_symop_operation_xyz
x,y,z
-x,y,-z
-x,-y,-z
x,-y,z
1/2+x,1/2+y,z
1/2-x,1/2+y,-z
1/2-x,1/2-y,-z
1/2+x,1/2-y,z
loop_
_atom_site_type_symbol
_atom_site_label
_atom_site_fract_x
_atom_site_fract_y
_atom_site_fract_z
Si Si1 0.769008 0.817799 0.608380
Si Si2 0.639500 0.719727 0.134739
Si Si3 0.085208 0.662670 0.111960
Si Si4 0.119766 0.426894 0.249790
Si Si5 0.163689 0.675613 0.543480
Si Si6 0.193940 0.116262 0.883817
Si Si7 0.500000 0.621116 0.500000
Si Si8 0.449135 0.571212 0.347730
O O1 0.684134 0.822280 0.856241
O O2 0.829829 0.748852 0.508893
O O3 0.693467 0.827424 0.624241
O O4 0.865147 0.873290 0.446158
O O5 0.599376 0.668397 0.292657
O O6 0.750000 0.750000 0.000000
O O7 0.554468 0.777282 0.245478
O O8 0.666188 0.686738 0.971568
O O9 0.139510 0.607003 0.096954
O O10 0.964453 0.646583 0.255329
O O11 0.109203 0.500000 0.237597
O O12 0.221425 0.417175 0.168771
O O13 0.000000 0.399921 0.500000
O O14 0.247962 0.626710 0.335653
O O15 0.074259 0.077329 0.076786
O O16 0.459993 0.576876 0.464960
O O17 0.402018 0.500000 0.400106
#
# Coordination Sequence:
#
# PCOD8112500 Si02
#       8
#     8   8   8   8   8   8   4   8
#     4  11  26  44  67  99 129 175 223 271 337 385
#     4  11  21  32  59  97 130 161 204 258 329 390
#     4  12  23  41  66  96 134 169 216 271 329 395
#     4  11  24  40  62  94 132 171 211 261 325 396
#     4  11  24  44  69  96 133 169 220 283 329 386
#     4  11  22  41  66  98 129 171 213 268 328 391
#     4  10  23  36  60  94 131 166 208 256 334 394
#     4  11  25  45  66  95 135 177 223 269 327 403
#
# _framework density 20.748142000000001
#
# number of rings (size 3 to 8) (size 9 to 14) (size 15 to 20)
#    0.000    0.933    4.000    3.400    4.667    1.067 
#    0.000    2.667    0.000    1.600    0.000    0.000 
#    0.000    0.000    0.000    0.000    0.000    0.000 
#
# Total GULP energy -371874.895307 kJ/mol
# GULP energy per Si atom -12395.829844 kJ/mol
# Density = 2.070092 g / cm^3
# Si number density = 20.748142 Si / 1000 Ang^3
#
#
#
# Elastic Constant Matrix: (Units=GPa)
#
#
# Indices 1 2 3 4 5 6 
#
# 1 72.8821 32.7700 28.7503 0.0000 2.9634 -0.0001
# 2 32.7700 106.2372 34.4119 0.0001 3.5818 0.0000
# 3 28.7503 34.4119 96.5599 0.0002 -3.9561 -0.0002
# 4 0.0000 0.0001 0.0002 16.9288 -0.0001 4.3436
# 5 2.9634 3.5818 -3.9561 -0.0001 31.1071 0.0001
# 6 -0.0001 0.0000 -0.0002 4.3436 0.0001 9.6539
#
#
#
# Elastic Compliance Matrix: (Units=1/GPa)
#
#
# Indices 1 2 3 4 5 6 
#
# 1 0.017053 -0.004000 -0.003719 0.000000 -0.001637 0.000000
# 2 -0.004000 0.011672 -0.003024 0.000000 -0.001347 0.000000
# 3 -0.003719 -0.003024 0.012636 0.000000 0.002309 0.000000
# 4 0.000000 0.000000 0.000000 0.066780 0.000000 -0.030047
# 5 -0.001637 -0.001347 0.002309 0.000000 0.032752 -0.000001
# 6 0.000000 0.000000 0.000000 -0.030047 -0.000001 0.117104
#
#
# Mechanical properties :
#
#
# Convention : Reuss Voigt Hill
#
# Bulk Modulus (GPa) = 50.31543 51.94930 51.13237
# Shear Modulus (GPa) = 17.47592 23.52109 20.49850
#
# Velocity S-wave (km/s) = 2.90537 3.37062 3.14661
# Velocity P-wave (km/s) = 5.96306 6.34354 6.15624
#
# Compressibility (1/GPa) = 0.01987462
#
# Stress axis : x y z
#
# Youngs Moduli (GPa) = 58.64050 85.67726 79.14071
#
# Poissons Ratio (x) = 0.34274 0.29431
# Poissons Ratio (y) = 0.23459 0.23929
# Poissons Ratio (z) = 0.21808 0.25906
#
# Static dielectric constant tensor:
#      x y z
#    x 5.708920 0.000000 0.513890 
#    y 0.000000 4.021500 0.000000 
#    z 0.513890 0.000000 4.095130 
# 
# 
# High freq. dielectric constant tensor:
#      x y z
#    x 1.807350 0.000000 -0.004110 
#    y 0.000000 1.810060 0.000000 
#    z -0.004110 0.000000 1.817760 
# 
# From -- ./inp_files/178014.got.cif
#   From: 2010.06.25/outbox.cif.g09.slc.cpg/sg12_90_cif.got.tgz:178014.got - 2010.06.28 00:19:55.
