data_PCOD8112730
_publ_section_title
;
Structure prediction by ZEFSAII (Michael W. Deem and Ramdas Pophale) SiO2 
 PCOD8112730
Probable space group: C 2/M
;
_chemical_formula_sum "Si O2"
_cell_formula_units_Z 40
_cell_length_a 8.955696
_cell_length_b 17.312918
_cell_length_c 15.087368
_cell_angle_alpha 90.000000
_cell_angle_beta 126.905405
_cell_angle_gamma 90.000000
_cell_volume 1870.557658
_symmetry_space_group_name_H-M "C 2/M"
_symmetry_group_IT_number 12
_symmetry_cell_setting 'monoclinic'
loop_
_space_group_symop_operation_xyz
x,y,z
-x,y,-z
-x,-y,-z
x,-y,z
1/2+x,1/2+y,z
1/2-x,1/2+y,-z
1/2-x,1/2-y,-z
1/2+x,1/2-y,z
loop_
_atom_site_type_symbol
_atom_site_label
_atom_site_fract_x
_atom_site_fract_y
_atom_site_fract_z
Si Si1 0.837404 0.913681 0.186090
Si Si2 0.254867 0.086263 0.392939
Si Si3 0.478814 0.173153 0.615102
Si Si4 0.080144 0.808297 0.932756
Si Si5 0.790284 0.291911 0.728995
O O1 0.846552 0.886530 0.087221
O O2 0.703823 0.858126 0.194504
O O3 0.036086 0.910239 0.304629
O O4 0.755562 0.000000 0.157929
O O5 0.321407 0.154478 0.484198
O O6 0.362743 0.105959 0.338859
O O7 0.311628 0.000000 0.445430
O O8 0.582920 0.256254 0.639347
O O9 0.375129 0.169732 0.671536
O O10 0.923009 0.775862 0.811055
O O11 0.250000 0.750000 0.000000
O O12 0.000000 0.828992 0.000000
#
# Coordination Sequence:
#
# PCOD8112730 Si02
#       5
#     8   8   8   8   8
#     4  11  25  45  65 100 138 166 213 277 330 378
#     4  10  23  41  62  96 140 176 212 265 320 385
#     4  11  21  38  64  93 133 174 222 250 320 381
#     4  12  23  44  71  92 124 168 221 277 327 387
#     4  12  23  41  65 101 125 174 222 273 313 388
#
# _framework density 21.383998999999999
#
# number of rings (size 3 to 8) (size 9 to 14) (size 15 to 20)
#    0.000    0.800    6.000    1.200    0.000   10.000 
#    0.000    4.000    0.000    0.000    0.000    0.000 
#    0.000    0.000    0.000    0.000    0.000    0.000 
#
# Total GULP energy -247885.018440 kJ/mol
# GULP energy per Si atom -12394.250922 kJ/mol
# Density = 2.133533 g / cm^3
# Si number density = 21.383999 Si / 1000 Ang^3
#
#
#
# Elastic Constant Matrix: (Units=GPa)
#
#
# Indices 1 2 3 4 5 6 
#
# 1 104.0195 29.8117 25.2941 0.0000 -41.7614 0.0000
# 2 29.8117 126.6834 33.9708 0.0000 -25.9400 0.0000
# 3 25.2941 33.9708 69.0480 0.0000 -21.3238 0.0000
# 4 0.0000 0.0000 0.0000 31.6705 0.0000 -4.4693
# 5 -41.7614 -25.9400 -21.3238 0.0000 48.6542 0.0000
# 6 0.0000 0.0000 0.0000 -4.4693 0.0000 22.0242
#
#
#
# Elastic Compliance Matrix: (Units=1/GPa)
#
#
# Indices 1 2 3 4 5 6 
#
# 1 0.014897 -0.000700 -0.001480 0.000000 0.011765 0.000000
# 2 -0.000700 0.009621 -0.003560 0.000000 0.002968 0.000000
# 3 -0.001480 -0.003560 0.018271 0.000000 0.004840 0.000000
# 4 0.000000 0.000000 0.000000 0.032506 0.000000 0.006596
# 5 0.011765 0.002968 0.004840 0.000000 0.034355 0.000000
# 6 0.000000 0.000000 0.000000 0.006596 0.000000 0.046743
#
#
# Mechanical properties :
#
#
# Convention : Reuss Voigt Hill
#
# Bulk Modulus (GPa) = 31.93894 53.10045 42.51969
# Shear Modulus (GPa) = 28.04107 34.51471 31.27789
#
# Velocity S-wave (km/s) = 3.62513 4.02187 3.82865
# Velocity P-wave (km/s) = 5.70004 6.81565 6.28265
#
# Compressibility (1/GPa) = 0.03130975
#
# Stress axis : x y z
#
# Youngs Moduli (GPa) = 67.12549 103.94046 54.73195
#
# Poissons Ratio (x) = 0.07275 0.08098
# Poissons Ratio (y) = 0.04698 0.19486
# Poissons Ratio (z) = 0.09932 0.37006
#
# Static dielectric constant tensor:
#      x y z
#    x 5.930320 0.000000 0.801190 
#    y 0.000000 4.104900 0.000000 
#    z 0.801190 0.000000 4.113610 
# 
# 
# High freq. dielectric constant tensor:
#      x y z
#    x 1.850260 0.000000 0.003570 
#    y 0.000000 1.833560 0.000000 
#    z 0.003570 0.000000 1.827960 
# 
# From -- ./inp_files/118893.got.cif
#   From: 2010.06.25/outbox.cif.g09.slc.cpg/sg12_60_cif.got.tgz:118893.got - 2010.06.28 00:19:55.
