data_PCOD8112561
_publ_section_title
;
Structure prediction by ZEFSAII (Michael W. Deem and Ramdas Pophale) SiO2 
 PCOD8112561
Probable space group: C 2/M
;
_chemical_formula_sum "Si O2"
_cell_formula_units_Z 48
_cell_length_a 11.148797
_cell_length_b 22.159554
_cell_length_c 9.636564
_cell_angle_alpha 90.000000
_cell_angle_beta 105.332282
_cell_angle_gamma 90.000000
_cell_volume 2296.002222
_symmetry_space_group_name_H-M "C 2/M"
_symmetry_group_IT_number 12
_symmetry_cell_setting 'monoclinic'
loop_
_space_group_symop_operation_xyz
x,y,z
-x,y,-z
-x,-y,-z
x,-y,z
1/2+x,1/2+y,z
1/2-x,1/2+y,-z
1/2-x,1/2-y,-z
1/2+x,1/2-y,z
loop_
_atom_site_type_symbol
_atom_site_label
_atom_site_fract_x
_atom_site_fract_y
_atom_site_fract_z
Si Si1 0.211301 0.631872 0.720408
Si Si2 0.963714 0.930280 0.832377
Si Si3 0.614909 0.386528 0.636273
Si Si4 0.854595 0.246453 0.411468
Si Si5 0.459467 0.071378 0.138059
Si Si6 0.350617 0.931857 0.571115
O O1 0.355558 0.614679 0.747495
O O2 0.186178 0.703333 0.713712
O O3 0.168627 0.602559 0.853264
O O4 0.134487 0.606324 0.564686
O O5 0.083496 0.915442 0.775442
O O6 0.922078 0.000000 0.801423
O O7 0.000000 0.915893 0.000000
O O8 0.500000 0.386709 0.500000
O O9 0.662765 0.317955 0.668392
O O10 0.714326 0.429209 0.593869
O O11 0.750000 0.250000 0.500000
O O12 0.000000 0.255709 0.500000
O O13 0.558998 0.092970 0.281896
O O14 0.440086 0.000000 0.127218
O O15 0.500000 0.095790 0.000000
O O16 0.383492 0.000000 0.540794
#
# Coordination Sequence:
#
# PCOD8112561 Si02
#       6
#     8   8   8   8   8   8
#     4  12  22  40  65  94 123 167 218 269 324 390
#     4  11  25  43  65  94 134 175 213 270 339 399
#     4  11  22  40  64  95 124 164 218 267 320 384
#     4  11  22  41  67  98 134 173 219 278 336 389
#     4  10  23  39  57  87 127 166 205 256 323 390
#     4  11  21  35  62  92 121 158 211 271 318 379
#
# _framework density 20.905902000000001
#
# number of rings (size 3 to 8) (size 9 to 14) (size 15 to 20)
#    0.000    1.000    3.333    4.500    2.333    2.000 
#    0.000    1.667    0.000    0.000    0.000    0.000 
#    0.000    0.000    0.000    0.000    0.000    0.000 
#
# Total GULP energy -297615.817588 kJ/mol
# GULP energy per Si atom -12400.659066 kJ/mol
# Density = 2.085832 g / cm^3
# Si number density = 20.905902 Si / 1000 Ang^3
#
#
#
# Elastic Constant Matrix: (Units=GPa)
#
#
# Indices 1 2 3 4 5 6 
#
# 1 91.3421 14.2054 23.7795 0.0000 -23.1793 0.0000
# 2 14.2054 66.8064 27.3814 0.0000 2.4905 0.0000
# 3 23.7795 27.3814 105.4217 0.0000 -27.3482 0.0000
# 4 0.0000 0.0000 0.0000 16.1121 0.0000 -3.6679
# 5 -23.1793 2.4905 -27.3482 0.0000 42.8938 0.0000
# 6 0.0000 0.0000 0.0000 -3.6679 0.0000 33.8276
#
#
#
# Elastic Compliance Matrix: (Units=1/GPa)
#
#
# Indices 1 2 3 4 5 6 
#
# 1 0.013312 -0.002933 -0.000396 0.000000 0.007111 0.000000
# 2 -0.002933 0.018152 -0.005677 0.000000 -0.006258 0.000000
# 3 -0.000396 -0.005677 0.013275 0.000000 0.008580 0.000000
# 4 0.000000 0.000000 0.000000 0.063636 0.000000 0.006900
# 5 0.007111 -0.006258 0.008580 0.000000 0.032990 0.000000
# 6 0.000000 0.000000 0.000000 0.006900 0.000000 0.030310
#
#
# Mechanical properties :
#
#
# Convention : Reuss Voigt Hill
#
# Bulk Modulus (GPa) = 37.41495 43.81140 40.61318
# Shear Modulus (GPa) = 25.17676 31.78028 28.47852
#
# Velocity S-wave (km/s) = 3.47405 3.90315 3.69484
# Velocity P-wave (km/s) = 5.83333 6.42766 6.13769
#
# Compressibility (1/GPa) = 0.02672728
#
# Stress axis : x y z
#
# Youngs Moduli (GPa) = 75.12164 55.08945 75.32887
#
# Poissons Ratio (x) = 0.16160 0.02983
# Poissons Ratio (y) = 0.22036 0.42761
# Poissons Ratio (z) = 0.02975 0.31272
#
# Static dielectric constant tensor:
#      x y z
#    x 4.431690 0.000000 -0.302340 
#    y 0.000000 3.920100 0.000000 
#    z -0.302340 0.000000 3.708510 
# 
# 
# High freq. dielectric constant tensor:
#      x y z
#    x 1.837180 0.000000 -0.015480 
#    y 0.000000 1.813200 0.000000 
#    z -0.015480 0.000000 1.801400 
# 
# From -- ./inp_files/50591.got.cif
#   From: 2010.06.25/outbox.cif.g09.slc.cpg/sg12_26_cif.got.tgz:50591.got - 2010.06.28 00:19:55.
