data_PCOD8112252
_publ_section_title
;
Structure prediction by ZEFSAII (Michael W. Deem and Ramdas Pophale) SiO2 
 PCOD8112252
Probable space group: C 2/M
;
_chemical_formula_sum "Si O2"
_cell_formula_units_Z 58
_cell_length_a 20.128770
_cell_length_b 7.830052
_cell_length_c 22.929133
_cell_angle_alpha 90.000000
_cell_angle_beta 134.779872
_cell_angle_gamma 90.000000
_cell_volume 2565.173038
_symmetry_space_group_name_H-M "C 2/M"
_symmetry_group_IT_number 12
_symmetry_cell_setting 'monoclinic'
loop_
_space_group_symop_operation_xyz
x,y,z
-x,y,-z
-x,-y,-z
x,-y,z
1/2+x,1/2+y,z
1/2-x,1/2+y,-z
1/2-x,1/2-y,-z
1/2+x,1/2-y,z
loop_
_atom_site_type_symbol
_atom_site_label
_atom_site_fract_x
_atom_site_fract_y
_atom_site_fract_z
Si Si1 0.578497 0.693622 0.306588
Si Si2 0.000000 0.500000 0.000000
Si Si3 0.648588 0.194604 0.679915
Si Si4 0.724721 0.306318 0.608228
Si Si5 0.263704 0.693030 0.145175
Si Si6 0.556240 0.297452 0.424546
Si Si7 0.421694 0.309342 0.018367
Si Si8 0.903726 0.694181 0.135244
O O1 0.541991 0.500000 0.282902
O O2 0.682855 0.697427 0.345966
O O3 0.575825 0.764459 0.370876
O O4 0.510595 0.804310 0.223887
O O5 0.012279 0.650564 0.958442
O O6 0.696256 0.301848 0.658187
O O7 0.685707 0.262226 0.763942
O O8 0.537079 0.211730 0.608589
O O9 0.677970 0.000000 0.689539
O O10 0.746057 0.500000 0.603187
O O11 0.641341 0.230768 0.517024
O O12 0.223806 0.500000 0.124137
O O13 0.338661 0.707174 0.140474
O O14 0.172868 0.808026 0.078911
O O15 0.545287 0.500000 0.422380
O O16 0.467160 0.500000 0.037958
O O17 0.393058 0.290264 0.067855
O O18 0.869257 0.500000 0.108284
#
# Coordination Sequence:
#
# PCOD8112252 Si02
#       8
#     8   2   8   8   8   8   8   8
#     4  11  23  41  66  99 135 181 230 289 351 414
#     4  12  26  52  68 110 144 192 228 280 352 414
#     4  12  25  41  65  99 134 180 232 289 349 417
#     4  11  24  42  64  94 133 180 229 285 355 422
#     4  12  24  45  72 104 140 179 233 293 353 412
#     4  10  22  42  67  94 131 178 228 287 352 418
#     4  12  26  48  76 108 145 190 237 285 345 421
#     4  12  24  44  71 106 141 180 234 290 350 414
#
# _framework density 22.61056
#
# number of rings (size 3 to 8) (size 9 to 14) (size 15 to 20)
#    0.000    0.552    2.759    6.000    0.000    4.414 
#    2.483    2.759    0.000    0.000    0.000    0.000 
#    0.000    0.000    0.000    0.000    0.000    0.000 
#
# Total GULP energy -359254.467835 kJ/mol
# GULP energy per Si atom -12388.085098 kJ/mol
# Density = 2.255910 g / cm^3
# Si number density = 22.610560 Si / 1000 Ang^3
#
#
#
# Elastic Constant Matrix: (Units=GPa)
#
#
# Indices 1 2 3 4 5 6 
#
# 1 98.4492 5.6668 5.3146 0.0000 -5.2605 0.0000
# 2 5.6668 124.4290 14.1155 0.0000 -4.5256 0.0002
# 3 5.3146 14.1155 55.9821 0.0000 -7.1054 0.0000
# 4 0.0000 0.0000 0.0000 22.8602 0.0000 -0.4330
# 5 -5.2605 -4.5256 -7.1054 0.0000 19.9901 0.0000
# 6 0.0000 0.0002 0.0000 -0.4330 0.0000 7.6714
#
#
#
# Elastic Compliance Matrix: (Units=1/GPa)
#
#
# Indices 1 2 3 4 5 6 
#
# 1 0.010338 -0.000315 -0.000592 0.000000 0.002439 0.000000
# 2 -0.000315 0.008310 -0.001924 0.000000 0.001115 0.000000
# 3 -0.000592 -0.001924 0.019195 0.000000 0.006231 0.000000
# 4 0.000000 0.000000 0.000000 0.043791 0.000000 0.002472
# 5 0.002439 0.001115 0.006231 0.000000 0.053134 0.000000
# 6 0.000000 0.000000 0.000000 0.002472 0.000000 0.130493
#
#
# Mechanical properties :
#
#
# Convention : Reuss Voigt Hill
#
# Bulk Modulus (GPa) = 31.07497 36.56156 33.81827
# Shear Modulus (GPa) = 17.75253 27.02192 22.38723
#
# Velocity S-wave (km/s) = 2.80508 3.46077 3.15004
# Velocity P-wave (km/s) = 4.92592 5.67226 5.31221
#
# Compressibility (1/GPa) = 0.03218024
#
# Stress axis : x y z
#
# Youngs Moduli (GPa) = 96.73107 120.33918 52.09667
#
# Poissons Ratio (x) = 0.03790 0.03087
# Poissons Ratio (y) = 0.03046 0.10023
# Poissons Ratio (z) = 0.05731 0.23152
#
# Static dielectric constant tensor:
#      x y z
#    x 4.084420 0.000000 -0.124470 
#    y 0.000000 4.084820 0.000000 
#    z -0.124470 0.000000 4.103450 
# 
# 
# High freq. dielectric constant tensor:
#      x y z
#    x 1.898620 0.000000 -0.012850 
#    y 0.000000 1.902270 0.000000 
#    z -0.012850 0.000000 1.889430 
# 
# From -- ./inp_files/346566.got.cif
#   From: 2010.06.25/outbox.cif.g09.slc.cpg/sg12_174_cif.got.tgz:346566.got - 2010.06.28 00:19:55.
