data_PCOD8112318
_publ_section_title
;
Structure prediction by ZEFSAII (Michael W. Deem and Ramdas Pophale) SiO2 
 PCOD8112318
Probable space group: C 2/M
;
_chemical_formula_sum "Si O2"
_cell_formula_units_Z 40
_cell_length_a 23.352657
_cell_length_b 15.534005
_cell_length_c 16.235991
_cell_angle_alpha 90.000000
_cell_angle_beta 162.259243
_cell_angle_gamma 90.000000
_cell_volume 1794.676525
_symmetry_space_group_name_H-M "C 2/M"
_symmetry_group_IT_number 12
_symmetry_cell_setting 'monoclinic'
loop_
_space_group_symop_operation_xyz
x,y,z
-x,y,-z
-x,-y,-z
x,-y,z
1/2+x,1/2+y,z
1/2-x,1/2+y,-z
1/2-x,1/2-y,-z
1/2+x,1/2-y,z
loop_
_atom_site_type_symbol
_atom_site_label
_atom_site_fract_x
_atom_site_fract_y
_atom_site_fract_z
Si Si1 0.214556 0.000000 0.322897
Si Si2 0.597139 0.856098 0.314727
Si Si3 0.700069 0.306251 0.744236
Si Si4 0.325811 0.315682 0.482110
Si Si5 0.767529 0.168896 0.961984
Si Si6 0.962748 0.500000 0.354423
O O1 0.271629 0.919478 0.455574
O O2 0.331237 0.000000 0.399830
O O3 0.000000 0.000000 0.000000
O O4 0.631663 0.765961 0.404027
O O5 0.659670 0.863903 0.303894
O O6 0.369744 0.869806 0.006455
O O7 0.500000 0.346979 0.500000
O O8 0.727075 0.293273 0.683729
O O9 0.712790 0.208995 0.798172
O O10 0.520925 0.369024 0.748000
O O11 0.750000 0.250000 0.000000
O O12 0.640906 0.088032 0.815091
O O13 0.000000 0.500000 0.500000
#
# Coordination Sequence:
#
# PCOD8112318 Si02
#       6
#     4   8   8   8   8   4
#     4  12  30  48  67  97 148 177 229 308 375 422
#     4  10  25  44  66  98 138 187 238 287 351 443
#     4  11  21  39  73  99 137 182 237 293 352 412
#     4  10  22  42  70  98 137 189 237 285 355 430
#     4  11  23  42  69 106 152 188 242 302 357 439
#     4  12  28  42  73 112 139 190 242 301 371 435
#
# _framework density 22.288139000000001
#
# number of rings (size 3 to 8) (size 9 to 14) (size 15 to 20)
#    0.000    1.200    2.000    3.600    5.600    3.200 
#    0.000    3.500    0.000    0.000    0.000    0.000 
#    0.000    0.000    0.000    0.000    0.000    0.000 
#
# Total GULP energy -247768.931687 kJ/mol
# GULP energy per Si atom -12388.446584 kJ/mol
# Density = 2.223741 g / cm^3
# Si number density = 22.288139 Si / 1000 Ang^3
#
#
#
# Elastic Constant Matrix: (Units=GPa)
#
#
# Indices 1 2 3 4 5 6 
#
# 1 176.2302 33.4491 63.2776 0.0002 2.3246 0.0001
# 2 33.4491 73.8658 52.9511 0.0000 12.3790 0.0000
# 3 63.2776 52.9511 187.7200 0.0004 26.0153 0.0003
# 4 0.0002 0.0000 0.0004 26.5075 0.0003 -3.2074
# 5 2.3246 12.3790 26.0153 0.0003 44.0400 0.0002
# 6 0.0001 0.0000 0.0003 -3.2074 0.0002 27.7296
#
#
#
# Elastic Compliance Matrix: (Units=1/GPa)
#
#
# Indices 1 2 3 4 5 6 
#
# 1 0.006700 -0.001885 -0.001907 0.000000 0.001303 0.000000
# 2 -0.001885 0.017683 -0.004005 0.000000 -0.002505 0.000000
# 3 -0.001907 -0.004005 0.007548 0.000000 -0.003232 0.000000
# 4 0.000000 0.000000 0.000000 0.038261 0.000000 0.004426
# 5 0.001303 -0.002505 -0.003232 0.000000 0.025251 0.000000
# 6 0.000000 0.000000 0.000000 0.004426 0.000000 0.036574
#
#
# Mechanical properties :
#
#
# Convention : Reuss Voigt Hill
#
# Bulk Modulus (GPa) = 61.21807 81.90793 71.56300
# Shear Modulus (GPa) = 32.66765 38.86464 35.76615
#
# Velocity S-wave (km/s) = 3.83260 4.18034 4.01024
# Velocity P-wave (km/s) = 6.86377 7.75433 7.32260
#
# Compressibility (1/GPa) = 0.01633504
#
# Stress axis : x y z
#
# Youngs Moduli (GPa) = 149.25780 56.55254 132.49077
#
# Poissons Ratio (x) = 0.10660 0.25269
# Poissons Ratio (y) = 0.28136 0.53066
# Poissons Ratio (z) = 0.28467 0.22651
#
# Static dielectric constant tensor:
#      x y z
#    x 4.621690 0.000000 0.487840 
#    y 0.000000 3.547720 0.000000 
#    z 0.487840 0.000000 4.917510 
# 
# 
# High freq. dielectric constant tensor:
#      x y z
#    x 1.903830 0.000000 0.006300 
#    y 0.000000 1.828690 0.000000 
#    z 0.006300 0.000000 1.896550 
# 
# From -- ./inp_files/234781.got.cif
#   From: 2010.06.25/outbox.cif.g09.slc.cpg/sg12_118_cif.got.tgz:234781.got - 2010.06.28 00:19:55.
