data_PCOD8112585
_publ_section_title
;
Structure prediction by ZEFSAII (Michael W. Deem and Ramdas Pophale) SiO2 
 PCOD8112585
Probable space group: C 2/M
;
_chemical_formula_sum "Si O2"
_cell_formula_units_Z 32
_cell_length_a 5.209213
_cell_length_b 28.705294
_cell_length_c 12.466215
_cell_angle_alpha 90.000000
_cell_angle_beta 129.456531
_cell_angle_gamma 90.000000
_cell_volume 1439.282959
_symmetry_space_group_name_H-M "C 2/M"
_symmetry_group_IT_number 12
_symmetry_cell_setting 'monoclinic'
loop_
_space_group_symop_operation_xyz
x,y,z
-x,y,-z
-x,-y,-z
x,-y,z
1/2+x,1/2+y,z
1/2-x,1/2+y,-z
1/2-x,1/2-y,-z
1/2+x,1/2-y,z
loop_
_atom_site_type_symbol
_atom_site_label
_atom_site_fract_x
_atom_site_fract_y
_atom_site_fract_z
Si Si1 0.744260 0.280145 0.841605
Si Si2 0.639933 0.357397 0.647443
Si Si3 0.939378 0.051043 0.273748
Si Si4 0.770347 0.413747 0.154489
O O1 0.432055 0.255044 0.812513
O O2 0.589380 0.322468 0.732865
O O3 0.000000 0.299141 0.000000
O O4 0.500000 0.335659 0.500000
O O5 0.437905 0.406090 0.617602
O O6 0.034942 0.369117 0.743163
O O7 0.536563 0.054163 0.161142
O O8 0.093020 0.055585 0.197189
O O9 0.042665 0.000000 0.347344
O O10 0.500000 0.393886 0.000000
#
# Coordination Sequence:
#
# PCOD8112585 Si02
#       4
#     8   8   8   8
#     4  10  24  44  70  99 128 167 215 269 332 394
#     4  10  26  44  67  99 135 175 220 268 327 390
#     4  10  23  41  65  96 134 175 222 272 323 383
#     4  10  23  39  64  94 129 174 219 272 323 381
#
# _framework density 22.233293
#
# number of rings (size 3 to 8) (size 9 to 14) (size 15 to 20)
#    1.500    0.500    0.000    1.500    7.000    6.500 
#    0.000    1.250    0.000    0.000    0.000    0.000 
#    0.000    0.000    0.000    0.000    0.000    0.000 
#
# Total GULP energy -198240.062804 kJ/mol
# GULP energy per Si atom -12390.003925 kJ/mol
# Density = 2.218269 g / cm^3
# Si number density = 22.233293 Si / 1000 Ang^3
#
#
#
# Elastic Constant Matrix: (Units=GPa)
#
#
# Indices 1 2 3 4 5 6 
#
# 1 117.6346 5.6447 19.9187 0.0000 -16.6472 0.0000
# 2 5.6447 108.6836 55.4118 0.0000 -18.7903 0.0000
# 3 19.9187 55.4118 124.1343 0.0000 -19.1019 0.0000
# 4 0.0000 0.0000 0.0000 15.8464 0.0000 -10.4104
# 5 -16.6472 -18.7903 -19.1019 0.0000 22.2381 0.0000
# 6 0.0000 0.0000 0.0000 -10.4104 0.0000 12.1290
#
#
#
# Elastic Compliance Matrix: (Units=1/GPa)
#
#
# Indices 1 2 3 4 5 6 
#
# 1 0.009663 0.001289 -0.000974 0.000000 0.007487 0.000000
# 2 0.001289 0.012912 -0.004774 0.000000 0.007774 0.000000
# 3 -0.000974 -0.004774 0.011074 0.000000 0.004749 0.000000
# 4 0.000000 0.000000 0.000000 0.144696 0.000000 0.124194
# 5 0.007487 0.007774 0.004749 0.000000 0.061220 0.000000
# 6 0.000000 0.000000 0.000000 0.124194 0.000000 0.189044
#
#
# Mechanical properties :
#
#
# Convention : Reuss Voigt Hill
#
# Bulk Modulus (GPa) = 40.43480 56.93364 48.68422
# Shear Modulus (GPa) = 11.21649 28.00785 19.61217
#
# Velocity S-wave (km/s) = 2.24852 3.55311 2.97325
# Velocity P-wave (km/s) = 4.99672 6.51888 5.80788
#
# Compressibility (1/GPa) = 0.02473117
#
# Stress axis : x y z
#
# Youngs Moduli (GPa) = 103.48291 77.44494 90.30081
#
# Poissons Ratio (x) = -0.09983 0.08795
# Poissons Ratio (y) = -0.13339 0.43114
# Poissons Ratio (z) = 0.10079 0.36976
#
# Static dielectric constant tensor:
#      x y z
#    x 4.007160 0.000000 -0.075600 
#    y 0.000000 3.769940 0.000000 
#    z -0.075600 0.000000 3.626300 
# 
# 
# High freq. dielectric constant tensor:
#      x y z
#    x 1.886670 0.000000 -0.009400 
#    y 0.000000 1.862630 0.000000 
#    z -0.009400 0.000000 1.844890 
# 
# From -- ./inp_files/34509.got.cif
#   From: 2010.06.25/outbox.cif.g09.slc.cpg/sg12_18_cif.got.tgz:34509.got - 2010.06.28 00:19:55.
