data_PCOD8112993
_publ_section_title
;
Structure prediction by ZEFSAII (Michael W. Deem and Ramdas Pophale) SiO2 
 PCOD8112993
Probable space group: C 2/M
;
_chemical_formula_sum "Si O2"
_cell_formula_units_Z 56
_cell_length_a 26.864797
_cell_length_b 8.642443
_cell_length_c 11.743866
_cell_angle_alpha 90.000000
_cell_angle_beta 76.820896
_cell_angle_gamma 90.000000
_cell_volume 2654.846697
_symmetry_space_group_name_H-M "C 2/M"
_symmetry_group_IT_number 12
_symmetry_cell_setting 'monoclinic'
loop_
_space_group_symop_operation_xyz
x,y,z
-x,y,-z
-x,-y,-z
x,-y,z
1/2+x,1/2+y,z
1/2-x,1/2+y,-z
1/2-x,1/2-y,-z
1/2+x,1/2-y,z
loop_
_atom_site_type_symbol
_atom_site_label
_atom_site_fract_x
_atom_site_fract_y
_atom_site_fract_z
Si Si1 0.866948 0.822152 0.447981
Si Si2 0.643491 0.318789 0.801892
Si Si3 0.243595 0.182707 0.878991
Si Si4 0.842022 0.680992 0.688978
Si Si5 0.058240 0.681300 0.989484
Si Si6 0.433520 0.319120 0.779902
Si Si7 0.974770 0.675815 0.390891
O O1 0.843264 0.784717 0.336722
O O2 0.838451 0.717035 0.556430
O O3 0.927023 0.788924 0.412016
O O4 0.858662 0.000000 0.485525
O O5 0.633497 0.500000 0.826467
O O6 0.691005 0.256680 0.851388
O O7 0.592335 0.226307 0.862731
O O8 0.290242 0.238079 0.775642
O O9 0.242823 0.000000 0.887584
O O10 0.250000 0.250000 0.000000
O O11 0.851936 0.500000 0.702531
O O12 0.889089 0.774796 0.716043
O O13 0.061672 0.500000 0.011335
O O14 0.082359 0.772218 0.084162
O O15 0.000000 0.734585 0.000000
O O16 0.443959 0.500000 0.764712
O O17 0.485190 0.226746 0.725701
O O18 0.957490 0.500000 0.374972
O O19 0.000000 0.690997 0.500000
#
# Coordination Sequence:
#
# PCOD8112993 Si02
#       7
#     8   8   8   8   8   8   8
#     4  11  23  39  62  92 126 163 205 252 305 367
#     4  10  23  43  64  90 125 162 203 254 309 362
#     4  10  23  43  66  91 121 157 202 255 308 363
#     4  11  23  40  62  90 123 160 204 253 304 362
#     4  11  24  41  62  90 124 161 204 250 303 367
#     4  12  24  38  61  90 123 161 205 256 307 362
#     4  11  22  37  59  87 124 165 203 250 303 358
#
# _framework density 21.093495999999998
#
# number of rings (size 3 to 8) (size 9 to 14) (size 15 to 20)
#    0.000    1.143    1.429    4.714    0.000    9.714 
#    0.000    0.000    0.000    0.000    0.000    0.000 
#    0.000    0.000    0.000    0.000    0.000    0.000 
#
# Total GULP energy -347401.117645 kJ/mol
# GULP energy per Si atom -12407.182773 kJ/mol
# Density = 2.104549 g / cm^3
# Si number density = 21.093496 Si / 1000 Ang^3
#
#
#
# Elastic Constant Matrix: (Units=GPa)
#
#
# Indices 1 2 3 4 5 6 
#
# 1 112.4278 24.4081 53.4846 0.0000 -4.0509 0.0000
# 2 24.4081 53.3810 27.1469 0.0000 7.5387 0.0000
# 3 53.4846 27.1469 132.1056 0.0000 -2.8627 0.0000
# 4 0.0000 0.0000 0.0000 -6.6718 0.0000 25.9563
# 5 -4.0509 7.5387 -2.8627 0.0000 39.6757 0.0000
# 6 0.0000 0.0000 0.0000 25.9563 0.0000 12.4805
#
#
#
# Elastic Compliance Matrix: (Units=1/GPa)
#
#
# Indices 1 2 3 4 5 6 
#
# 1 0.011586 -0.003519 -0.003934 0.000000 0.001568 0.000000
# 2 -0.003519 0.022744 -0.003356 0.000000 -0.004923 0.000000
# 3 -0.003934 -0.003356 0.009873 0.000000 0.000948 0.000000
# 4 0.000000 0.000000 0.000000 -0.016487 0.000000 0.034289
# 5 0.001568 -0.004923 0.000948 0.000000 0.026368 0.000000
# 6 0.000000 0.000000 0.000000 0.034289 0.000000 0.008814
#
#
# Mechanical properties :
#
#
# Convention : Reuss Voigt Hill
#
# Bulk Modulus (GPa) = 44.27485 56.44373 50.35929
# Shear Modulus (GPa) = 54.32229 21.95521 38.13875
#
# Velocity S-wave (km/s) = 5.08026 3.22972 4.25677
# Velocity P-wave (km/s) = 7.44630 6.38162 6.93442
#
# Compressibility (1/GPa) = 0.02258618
#
# Stress axis : x y z
#
# Youngs Moduli (GPa) = 86.30799 43.96770 101.29098
#
# Poissons Ratio (x) = 0.15471 0.39847
# Poissons Ratio (y) = 0.30368 0.33992
# Poissons Ratio (z) = 0.33953 0.14755
#
# Static dielectric constant tensor:
#      x y z
#    x 3.849180 0.000000 0.025780 
#    y 0.000000 3.726760 0.000000 
#    z 0.025780 0.000000 3.992220 
# 
# 
# High freq. dielectric constant tensor:
#      x y z
#    x 1.821840 0.000000 0.002900 
#    y 0.000000 1.825680 0.000000 
#    z 0.002900 0.000000 1.844210 
# 
# From -- ./inp_files/180785.got.cif
#   From: 2010.06.25/outbox.cif.g09.slc.cpg/sg12_91_cif.got.tgz:180785.got - 2010.06.28 00:19:55.
