data_PCOD8112794
_publ_section_title
;
Structure prediction by ZEFSAII (Michael W. Deem and Ramdas Pophale) SiO2 
 PCOD8112794
Probable space group: C 2/M
;
_chemical_formula_sum "Si O2"
_cell_formula_units_Z 56
_cell_length_a 19.978873
_cell_length_b 8.826431
_cell_length_c 19.447886
_cell_angle_alpha 90.000000
_cell_angle_beta 58.898470
_cell_angle_gamma 90.000000
_cell_volume 2936.505175
_symmetry_space_group_name_H-M "C 2/M"
_symmetry_group_IT_number 12
_symmetry_cell_setting 'monoclinic'
loop_
_space_group_symop_operation_xyz
x,y,z
-x,y,-z
-x,-y,-z
x,-y,z
1/2+x,1/2+y,z
1/2-x,1/2+y,-z
1/2-x,1/2-y,-z
1/2+x,1/2-y,z
loop_
_atom_site_type_symbol
_atom_site_label
_atom_site_fract_x
_atom_site_fract_y
_atom_site_fract_z
Si Si1 0.944410 0.176642 0.321612
Si Si2 0.198957 0.323782 0.331356
Si Si3 0.962226 0.823779 0.592103
Si Si4 0.778673 0.321437 0.414945
Si Si5 0.076224 0.832506 0.006615
Si Si6 0.991503 0.322871 0.166035
Si Si7 0.847964 0.176673 0.166684
O O1 0.864413 0.264606 0.351026
O O2 0.004336 0.237245 0.231856
O O3 0.976001 0.211284 0.380748
O O4 0.928785 0.000000 0.319132
O O5 0.199696 0.500000 0.350588
O O6 0.113975 0.274451 0.350602
O O7 0.218630 0.226545 0.387880
O O8 0.260358 0.288533 0.237900
O O9 0.000000 0.772315 0.500000
O O10 0.939165 0.000000 0.602631
O O11 0.778036 0.500000 0.422767
O O12 0.750000 0.250000 0.500000
O O13 0.063550 0.719550 0.077193
O O14 0.092634 0.000000 0.027892
O O15 0.146313 0.780891 0.917902
O O16 0.000000 0.834471 0.000000
O O17 0.992699 0.500000 0.178727
O O18 0.908272 0.275469 0.178633
O O19 0.870396 0.000000 0.165181
#
# Coordination Sequence:
#
# PCOD8112794 Si02
#       7
#     8   8   8   8   8   8   8
#     4  11  22  38  59  82 113 151 189 234 286 342
#     4  11  22  37  60  86 115 149 186 232 282 341
#     4  10  23  42  61  81 109 148 192 237 287 342
#     4  12  24  38  58  85 114 145 184 234 286 337
#     4   8  15  29  49  74 109 150 184 223 275 338
#     4  11  20  30  50  82 115 148 186 234 280 330
#     4   9  18  33  53  79 113 150 186 224 280 341
#
# _framework density 19.070287
#
# number of rings (size 3 to 8) (size 9 to 14) (size 15 to 20)
#    0.000    1.714    1.429    5.143    0.000    5.714 
#    0.000    0.000    0.000    0.857    0.000    0.000 
#    0.000    0.000    0.000    0.000    0.000    0.000 
#
# Total GULP energy -347230.913154 kJ/mol
# GULP energy per Si atom -12401.104041 kJ/mol
# Density = 1.902688 g / cm^3
# Si number density = 19.070287 Si / 1000 Ang^3
#
#
#
# Elastic Constant Matrix: (Units=GPa)
#
#
# Indices 1 2 3 4 5 6 
#
# 1 43.7031 25.0658 16.4101 0.0001 -2.8873 -0.0005
# 2 25.0658 110.3474 40.1409 0.0001 1.0039 0.0000
# 3 16.4101 40.1409 125.5443 0.0000 -4.6127 0.0001
# 4 0.0001 0.0001 0.0000 28.9649 0.0000 -2.8051
# 5 -2.8873 1.0039 -4.6127 0.0000 26.0460 0.0002
# 6 -0.0005 0.0000 0.0001 -2.8051 0.0002 26.1634
#
#
#
# Elastic Compliance Matrix: (Units=1/GPa)
#
#
# Indices 1 2 3 4 5 6 
#
# 1 0.026861 -0.005533 -0.001635 0.000000 0.002901 0.000001
# 2 -0.005533 0.011420 -0.002986 0.000000 -0.001582 0.000000
# 3 -0.001635 -0.002986 0.009191 0.000000 0.001562 0.000000
# 4 0.000000 0.000000 0.000000 0.034887 0.000000 0.003740
# 5 0.002901 -0.001582 0.001562 0.000000 0.039053 0.000000
# 6 0.000001 0.000000 0.000000 0.003740 0.000000 0.038622
#
#
# Mechanical properties :
#
#
# Convention : Reuss Voigt Hill
#
# Bulk Modulus (GPa) = 36.81514 49.20317 43.00915
# Shear Modulus (GPa) = 26.39954 29.43340 27.91647
#
# Velocity S-wave (km/s) = 3.72469 3.93290 3.83021
# Velocity P-wave (km/s) = 6.15180 6.81766 6.49327
#
# Compressibility (1/GPa) = 0.02716274
#
# Stress axis : x y z
#
# Youngs Moduli (GPa) = 37.22889 87.56694 108.79918
#
# Poissons Ratio (x) = 0.48451 0.17792
# Poissons Ratio (y) = 0.20599 0.32490
# Poissons Ratio (z) = 0.06088 0.26149
#
# Static dielectric constant tensor:
#      x y z
#    x 3.119890 0.000000 -0.108890 
#    y 0.000000 3.486030 0.000000 
#    z -0.108890 0.000000 4.062380 
# 
# 
# High freq. dielectric constant tensor:
#      x y z
#    x 1.696230 0.000000 -0.005500 
#    y 0.000000 1.743380 0.000000 
#    z -0.005500 0.000000 1.766240 
# 
# From -- ./inp_files/275154.got.cif
#   From: 2010.06.25/outbox.cif.g09.slc.cpg/sg12_138_cif.got.tgz:275154.got - 2010.06.28 00:19:55.
