data_PCOD8112442
_publ_section_title
;
Structure prediction by ZEFSAII (Michael W. Deem and Ramdas Pophale) SiO2 
 PCOD8112442
Probable space group: C 2/M
;
_chemical_formula_sum "Si O2"
_cell_formula_units_Z 56
_cell_length_a 9.329570
_cell_length_b 17.193485
_cell_length_c 16.549896
_cell_angle_alpha 90.000000
_cell_angle_beta 104.336310
_cell_angle_gamma 90.000000
_cell_volume 2572.061753
_symmetry_space_group_name_H-M "C 2/M"
_symmetry_group_IT_number 12
_symmetry_cell_setting 'monoclinic'
loop_
_space_group_symop_operation_xyz
x,y,z
-x,y,-z
-x,-y,-z
x,-y,z
1/2+x,1/2+y,z
1/2-x,1/2+y,-z
1/2-x,1/2-y,-z
1/2+x,1/2-y,z
loop_
_atom_site_type_symbol
_atom_site_label
_atom_site_fract_x
_atom_site_fract_y
_atom_site_fract_z
Si Si1 0.032906 0.588774 0.154592
Si Si2 0.573318 0.590621 0.198583
Si Si3 0.235324 0.163155 0.080495
Si Si4 0.323471 0.331357 0.489072
Si Si5 0.786885 0.591198 0.368046
Si Si6 0.097893 0.408260 0.347216
Si Si7 0.212308 0.164608 0.893668
O O1 0.979314 0.500000 0.146731
O O2 0.075111 0.614582 0.251023
O O3 0.169692 0.599191 0.113526
O O4 0.907660 0.643570 0.100878
O O5 0.531092 0.500000 0.204798
O O6 0.654568 0.600066 0.124400
O O7 0.680156 0.623697 0.283245
O O8 0.430398 0.645729 0.180567
O O9 0.221028 0.250090 0.115287
O O10 0.166773 0.158622 0.981357
O O11 0.500000 0.325431 0.500000
O O12 0.250000 0.250000 0.500000
O O13 0.283421 0.389270 0.555966
O O14 0.245710 0.364681 0.397844
O O15 0.795273 0.500000 0.358544
O O16 0.954950 0.622159 0.378696
O O17 0.122179 0.500000 0.361518
#
# Coordination Sequence:
#
# PCOD8112442 Si02
#       7
#     8   8   8   8   8   8   8
#     4  11  23  41  66  95 127 170 222 272 324 388
#     4  11  23  41  66  95 127 170 222 272 324 388
#     4  11  23  43  61  88 131 176 221 265 340 395
#     4  12  27  44  67 101 135 169 213 264 317 384
#     4  10  22  44  69  94 130 173 213 262 328 392
#     4  10  22  44  69  94 130 173 213 262 328 392
#     4  11  25  39  61  94 131 172 217 279 330 389
#
# _framework density 21.772417000000001
#
# number of rings (size 3 to 8) (size 9 to 14) (size 15 to 20)
#    0.000    1.143    1.429    4.286    2.000   10.286 
#    0.000    0.000    0.000    0.000    0.000    0.000 
#    0.000    0.000    0.000    0.000    0.000    0.000 
#
# Total GULP energy -347282.048242 kJ/mol
# GULP energy per Si atom -12402.930294 kJ/mol
# Density = 2.172286 g / cm^3
# Si number density = 21.772417 Si / 1000 Ang^3
#
#
#
# Elastic Constant Matrix: (Units=GPa)
#
#
# Indices 1 2 3 4 5 6 
#
# 1 91.7700 10.0052 2.6929 0.0000 16.4495 0.0000
# 2 10.0052 54.2289 29.5889 0.0000 12.0464 0.0000
# 3 2.6929 29.5889 64.7351 0.0000 17.5511 0.0000
# 4 0.0000 0.0000 0.0000 31.0525 0.0000 7.1973
# 5 16.4495 12.0464 17.5511 0.0000 42.3850 0.0000
# 6 0.0000 0.0000 0.0000 7.1973 0.0000 28.6264
#
#
#
# Elastic Compliance Matrix: (Units=1/GPa)
#
#
# Indices 1 2 3 4 5 6 
#
# 1 0.011927 -0.002101 0.001754 0.000000 -0.004758 0.000000
# 2 -0.002101 0.025200 -0.010938 0.000000 -0.001818 0.000000
# 3 0.001754 -0.010938 0.022209 0.000000 -0.006769 0.000000
# 4 0.000000 0.000000 0.000000 0.034196 0.000000 -0.008598
# 5 -0.004758 -0.001818 -0.006769 0.000000 0.028759 0.000000
# 6 0.000000 0.000000 0.000000 -0.008598 0.000000 0.037094
#
#
# Mechanical properties :
#
#
# Convention : Reuss Voigt Hill
#
# Bulk Modulus (GPa) = 27.19830 32.81198 30.00514
# Shear Modulus (GPa) = 25.74517 31.64259 28.69388
#
# Velocity S-wave (km/s) = 3.44243 3.81640 3.63423
# Velocity P-wave (km/s) = 5.32162 5.87563 5.60547
#
# Compressibility (1/GPa) = 0.03676700
#
# Stress axis : x y z
#
# Youngs Moduli (GPa) = 83.84155 39.68280 45.02632
#
# Poissons Ratio (x) = 0.08336 -0.07898
# Poissons Ratio (y) = 0.17612 0.49250
# Poissons Ratio (z) = -0.14706 0.43405
#
# Static dielectric constant tensor:
#      x y z
#    x 5.599870 0.000000 -1.894430 
#    y 0.000000 3.821820 0.000000 
#    z -1.894430 0.000000 6.703220 
# 
# 
# High freq. dielectric constant tensor:
#      x y z
#    x 1.861440 0.000000 0.008790 
#    y 0.000000 1.850090 0.000000 
#    z 0.008790 0.000000 1.862780 
# 
# From -- ./inp_files/257174.got.cif
#   From: 2010.06.25/outbox.cif.g09.slc.cpg/sg12_129_cif.got.tgz:257174.got - 2010.06.28 00:19:55.
