data_PCOD8112653
_publ_section_title
;
Structure prediction by ZEFSAII (Michael W. Deem and Ramdas Pophale) SiO2 
 PCOD8112653
Probable space group: C 2/M
;
_chemical_formula_sum "Si O2"
_cell_formula_units_Z 64
_cell_length_a 16.412831
_cell_length_b 14.905190
_cell_length_c 11.991466
_cell_angle_alpha 90.000000
_cell_angle_beta 97.683846
_cell_angle_gamma 90.000000
_cell_volume 2907.208127
_symmetry_space_group_name_H-M "C 2/M"
_symmetry_group_IT_number 12
_symmetry_cell_setting 'monoclinic'
loop_
_space_group_symop_operation_xyz
x,y,z
-x,y,-z
-x,-y,-z
x,-y,z
1/2+x,1/2+y,z
1/2-x,1/2+y,-z
1/2-x,1/2-y,-z
1/2+x,1/2-y,z
loop_
_atom_site_type_symbol
_atom_site_label
_atom_site_fract_x
_atom_site_fract_y
_atom_site_fract_z
Si Si1 0.582372 0.255608 0.443400
Si Si2 0.687440 0.778812 0.663100
Si Si3 0.391175 0.099935 0.177160
Si Si4 0.316047 0.102423 0.938284
Si Si5 0.158681 0.100208 0.786039
Si Si6 0.056548 0.326762 0.203404
Si Si7 0.989662 0.136581 0.871275
Si Si8 0.651944 0.398873 0.313523
O O1 0.500000 0.256154 0.500000
O O2 0.658863 0.218388 0.529450
O O3 0.576255 0.190361 0.336407
O O4 0.598878 0.357909 0.405825
O O5 0.621640 0.834088 0.722262
O O6 0.683406 0.674643 0.699240
O O7 0.774731 0.827791 0.694737
O O8 0.489467 0.094457 0.176068
O O9 0.357835 0.000000 0.197336
O O10 0.342896 0.142688 0.062475
O O11 0.218395 0.113807 0.904172
O O12 0.359187 0.151292 0.842827
O O13 0.345471 0.000000 0.943291
O O14 0.065508 0.104568 0.809910
O O15 0.173915 0.000000 0.738035
O O16 0.013519 0.243148 0.135287
O O17 0.905111 0.095789 0.806722
O O18 0.000000 0.103111 0.000000
O O19 0.683065 0.500000 0.347308
#
# Coordination Sequence:
#
# PCOD8112653 Si02
#       8
#     8   8   8   8   8   8   8   8
#     4  11  23  45  68  92 128 176 226 279 329 380
#     4  12  24  45  67  99 137 173 221 276 329 388
#     4  11  22  39  67  99 138 178 215 266 329 401
#     4  10  23  40  65 100 135 173 221 273 323 393
#     4  11  24  42  65  98 131 173 224 268 328 390
#     4  11  21  42  66  98 132 174 227 266 330 393
#     4  11  23  40  65  95 135 179 219 269 328 387
#     4  11  26  44  67 100 134 175 221 269 333 397
#
# _framework density 22.014247999999998
#
# number of rings (size 3 to 8) (size 9 to 14) (size 15 to 20)
#    0.000    1.000    2.500    4.875    1.750    3.250 
#    0.000    4.375    0.000    0.000    0.000    0.000 
#    0.000    0.000    0.000    0.000    0.000    0.000 
#
# Total GULP energy -396764.807595 kJ/mol
# GULP energy per Si atom -12398.900237 kJ/mol
# Density = 2.196414 g / cm^3
# Si number density = 22.014248 Si / 1000 Ang^3
#
#
#
# Elastic Constant Matrix: (Units=GPa)
#
#
# Indices 1 2 3 4 5 6 
#
# 1 107.9209 30.3404 27.0913 0.0000 18.9652 0.0000
# 2 30.3404 110.3243 38.6090 0.0000 5.5524 0.0000
# 3 27.0913 38.6090 117.8622 0.0000 20.3150 0.0000
# 4 0.0000 0.0000 0.0000 16.4293 0.0000 4.8665
# 5 18.9652 5.5524 20.3150 0.0000 34.3262 0.0000
# 6 0.0000 0.0000 0.0000 4.8665 0.0000 23.6235
#
#
#
# Elastic Compliance Matrix: (Units=1/GPa)
#
#
# Indices 1 2 3 4 5 6 
#
# 1 0.011097 -0.002498 -0.000830 0.000000 -0.005236 0.000000
# 2 -0.002498 0.010804 -0.003231 0.000000 0.001545 0.000000
# 3 -0.000830 -0.003231 0.010651 0.000000 -0.005322 0.000000
# 4 0.000000 0.000000 0.000000 0.064822 0.000000 -0.013354
# 5 -0.005236 0.001545 -0.005322 0.000000 0.034925 0.000000
# 6 0.000000 0.000000 0.000000 -0.013354 0.000000 0.045082
#
#
# Mechanical properties :
#
#
# Convention : Reuss Voigt Hill
#
# Bulk Modulus (GPa) = 51.45664 58.68766 55.07215
# Shear Modulus (GPa) = 25.38367 30.88024 28.13196
#
# Velocity S-wave (km/s) = 3.39935 3.74938 3.57865
# Velocity P-wave (km/s) = 6.23157 6.74245 6.49204
#
# Compressibility (1/GPa) = 0.01943384
#
# Stress axis : x y z
#
# Youngs Moduli (GPa) = 90.11706 92.55676 93.88654
#
# Poissons Ratio (x) = 0.23118 0.07793
# Poissons Ratio (y) = 0.22509 0.30338
# Poissons Ratio (z) = 0.07480 0.29908
#
# Static dielectric constant tensor:
#      x y z
#    x 4.011250 0.000000 0.112520 
#    y 0.000000 3.974470 0.000000 
#    z 0.112520 0.000000 3.946550 
# 
# 
# High freq. dielectric constant tensor:
#      x y z
#    x 1.878100 0.000000 0.010600 
#    y 0.000000 1.865510 0.000000 
#    z 0.010600 0.000000 1.858180 
# 
# From -- ./inp_files/156633.got.cif
#   From: 2010.06.25/outbox.cif.g09.slc.cpg/sg12_79_cif.got.tgz:156633.got - 2010.06.28 00:19:55.
