data_PCOD8112782
_publ_section_title
;
Structure prediction by ZEFSAII (Michael W. Deem and Ramdas Pophale) SiO2 
 PCOD8112782
Probable space group: C 2/M
;
_chemical_formula_sum "Si O2"
_cell_formula_units_Z 48
_cell_length_a 25.964745
_cell_length_b 10.150035
_cell_length_c 14.424889
_cell_angle_alpha 90.000000
_cell_angle_beta 142.220539
_cell_angle_gamma 90.000000
_cell_volume 2328.937970
_symmetry_space_group_name_H-M "C 2/M"
_symmetry_group_IT_number 12
_symmetry_cell_setting 'monoclinic'
loop_
_space_group_symop_operation_xyz
x,y,z
-x,y,-z
-x,-y,-z
x,-y,z
1/2+x,1/2+y,z
1/2-x,1/2+y,-z
1/2-x,1/2-y,-z
1/2+x,1/2-y,z
loop_
_atom_site_type_symbol
_atom_site_label
_atom_site_fract_x
_atom_site_fract_y
_atom_site_fract_z
Si Si1 0.487336 0.749463 0.747992
Si Si2 0.858030 0.230462 0.904836
Si Si3 0.946469 0.647534 0.342350
Si Si4 0.873319 0.500000 0.625369
Si Si5 0.374171 0.500000 0.587044
Si Si6 0.689007 0.500000 0.295148
Si Si7 0.743031 0.852936 0.908717
Si Si8 0.191048 0.500000 0.257782
O O1 0.547376 0.771591 0.744416
O O2 0.427586 0.871985 0.682118
O O3 0.428762 0.626986 0.641662
O O4 0.547238 0.721034 0.920986
O O5 0.791307 0.196820 0.888215
O O6 0.842178 0.375983 0.845995
O O7 0.846603 0.129380 0.804825
O O8 0.980557 0.500000 0.370323
O O9 0.854345 0.640934 0.254015
O O10 0.000000 0.716071 0.500000
O O11 0.790576 0.500000 0.442391
O O12 0.847527 0.500000 0.695339
O O13 0.347664 0.500000 0.655270
O O14 0.292104 0.500000 0.405166
O O15 0.775235 0.000000 0.983091
O O16 0.750000 0.750000 0.000000
#
# Coordination Sequence:
#
# PCOD8112782 Si02
#       8
#     8   8   8   4   4   4   8   4
#     4  12  24  42  69 102 133 170 220 283 328 391
#     4  12  25  42  70 101 134 174 222 272 338 393
#     4  10  23  41  67  97 126 170 222 262 315 391
#     4  11  25  45  71  93 129 180 234 268 318 401
#     4  11  27  45  65  97 141 170 216 282 344 387
#     4  11  25  47  69  93 129 185 226 265 328 413
#     4  11  24  42  67  96 133 173 214 267 326 399
#     4  11  27  45  65  99 135 175 220 279 338 391
#
# _framework density 20.610251000000002
#
# number of rings (size 3 to 8) (size 9 to 14) (size 15 to 20)
#    0.000    0.833    3.333    3.000    5.833    6.667 
#    0.000    0.417    0.000    0.000    0.000    0.000 
#    0.000    0.000    0.000    0.000    0.000    0.000 
#
# Total GULP energy -297671.074312 kJ/mol
# GULP energy per Si atom -12402.961430 kJ/mol
# Density = 2.056334 g / cm^3
# Si number density = 20.610251 Si / 1000 Ang^3
#
#
#
# Elastic Constant Matrix: (Units=GPa)
#
#
# Indices 1 2 3 4 5 6 
#
# 1 57.9615 24.6009 9.2335 0.0000 7.9506 0.0000
# 2 24.6009 124.8356 17.3368 0.0000 3.3885 0.0000
# 3 9.2335 17.3368 101.0020 0.0000 7.1102 0.0000
# 4 0.0000 0.0000 0.0000 36.9532 0.0000 -3.4696
# 5 7.9506 3.3885 7.1102 0.0000 33.6621 0.0000
# 6 0.0000 0.0000 0.0000 -3.4696 0.0000 23.8622
#
#
#
# Elastic Compliance Matrix: (Units=1/GPa)
#
#
# Indices 1 2 3 4 5 6 
#
# 1 0.019479 -0.003607 -0.000876 0.000000 -0.004053 0.000000
# 2 -0.003607 0.008884 -0.001210 0.000000 0.000213 0.000000
# 3 -0.000876 -0.001210 0.010319 0.000000 -0.001851 0.000000
# 4 0.000000 0.000000 0.000000 0.027436 0.000000 0.003989
# 5 -0.004053 0.000213 -0.001851 0.000000 0.031034 0.000000
# 6 0.000000 0.000000 0.000000 0.003989 0.000000 0.042487
#
#
# Mechanical properties :
#
#
# Convention : Reuss Voigt Hill
#
# Bulk Modulus (GPa) = 36.63695 42.90460 39.77078
# Shear Modulus (GPa) = 31.22585 34.40404 32.81494
#
# Velocity S-wave (km/s) = 3.89660 4.09010 3.99452
# Velocity P-wave (km/s) = 6.16923 6.57020 6.37287
#
# Compressibility (1/GPa) = 0.02729485
#
# Stress axis : x y z
#
# Youngs Moduli (GPa) = 51.33665 112.56676 96.90945
#
# Poissons Ratio (x) = 0.40603 0.08493
# Poissons Ratio (y) = 0.18517 0.11727
# Poissons Ratio (z) = 0.04499 0.13622
#
# Static dielectric constant tensor:
#      x y z
#    x 3.658070 0.000000 0.175950 
#    y 0.000000 3.540750 0.000000 
#    z 0.175950 0.000000 3.938760 
# 
# 
# High freq. dielectric constant tensor:
#      x y z
#    x 1.816930 0.000000 0.006210 
#    y 0.000000 1.815490 0.000000 
#    z 0.006210 0.000000 1.818280 
# 
# From -- ./inp_files/244948.got.cif
#   From: 2010.06.25/outbox.cif.g09.slc.cpg/sg12_123_cif.got.tgz:244948.got - 2010.06.28 00:19:55.
