data_PCOD8112155
_publ_section_title
;
Structure prediction by ZEFSAII (Michael W. Deem and Ramdas Pophale) SiO2 
 PCOD8112155
Probable space group: C 2/M
;
_chemical_formula_sum "Si O2"
_cell_formula_units_Z 64
_cell_length_a 15.450166
_cell_length_b 14.670574
_cell_length_c 17.516382
_cell_angle_alpha 90.000000
_cell_angle_beta 50.729332
_cell_angle_gamma 90.000000
_cell_volume 3073.674250
_symmetry_space_group_name_H-M "C 2/M"
_symmetry_group_IT_number 12
_symmetry_cell_setting 'monoclinic'
loop_
_space_group_symop_operation_xyz
x,y,z
-x,y,-z
-x,-y,-z
x,-y,z
1/2+x,1/2+y,z
1/2-x,1/2+y,-z
1/2-x,1/2-y,-z
1/2+x,1/2-y,z
loop_
_atom_site_type_symbol
_atom_site_label
_atom_site_fract_x
_atom_site_fract_y
_atom_site_fract_z
Si Si1 0.495878 0.779537 0.168190
Si Si2 0.528340 0.269401 0.659063
Si Si3 0.226258 0.104486 0.488520
Si Si4 0.038751 0.399520 0.565047
Si Si5 0.829887 0.101451 0.797169
Si Si6 0.450466 0.397697 0.944533
Si Si7 0.710080 0.103712 0.016902
Si Si8 0.695156 0.898314 0.723213
O O1 0.437700 0.784773 0.284089
O O2 0.491449 0.676279 0.141542
O O3 0.618129 0.824200 0.095689
O O4 0.403515 0.842080 0.178820
O O5 0.627694 0.327484 0.567511
O O6 0.477693 0.189824 0.632793
O O7 0.432668 0.332157 0.746750
O O8 0.329137 0.117119 0.490735
O O9 0.257718 0.134400 0.385080
O O10 0.182961 0.000000 0.514865
O O11 0.006955 0.500000 0.618216
O O12 0.000000 0.402176 0.500000
O O13 0.792958 0.105587 0.730393
O O14 0.870851 0.000000 0.795297
O O15 0.740014 0.129102 0.912302
O O16 0.482678 0.500000 0.899155
O O17 0.500000 0.379703 0.000000
O O18 0.316394 0.385279 0.014225
O O19 0.664331 0.000000 0.047475
O O20 0.648636 0.000000 0.738080
#
# Coordination Sequence:
#
# PCOD8112155 Si02
#       8
#     8   8   8   8   8   8   8   8
#     4  12  24  37  67  93 122 162 210 254 314 368
#     4  12  24  37  67  93 122 162 210 254 314 368
#     4  10  22  42  64  90 127 162 203 258 316 370
#     4  10  23  42  63  87 124 169 209 255 303 362
#     4  10  23  41  62  93 128 160 200 255 315 375
#     4  10  23  42  63  87 124 169 209 255 303 362
#     4  10  22  42  64  90 127 162 203 258 316 370
#     4  10  23  41  62  93 128 160 200 255 315 375
#
# _framework density 20.821985000000002
#
# number of rings (size 3 to 8) (size 9 to 14) (size 15 to 20)
#    0.000    1.500    2.500    1.500    3.500    1.000 
#    0.000    3.750    0.000    5.250    0.000    0.000 
#    0.000    0.000    0.000    0.000    0.000    0.000 
#
# Total GULP energy -396418.358866 kJ/mol
# GULP energy per Si atom -12388.073715 kJ/mol
# Density = 2.077459 g / cm^3
# Si number density = 20.821985 Si / 1000 Ang^3
#
#
#
# Elastic Constant Matrix: (Units=GPa)
#
#
# Indices 1 2 3 4 5 6 
#
# 1 79.4824 29.0351 40.5089 0.0000 24.3898 0.0000
# 2 29.0351 131.9811 67.7429 0.0000 -0.9441 0.0000
# 3 40.5089 67.7429 99.4622 0.0000 7.6348 0.0000
# 4 0.0000 0.0000 0.0000 33.7716 0.0000 -1.5556
# 5 24.3898 -0.9441 7.6348 0.0000 25.6227 0.0000
# 6 0.0000 0.0000 0.0000 -1.5556 0.0000 25.9213
#
#
#
# Elastic Compliance Matrix: (Units=1/GPa)
#
#
# Indices 1 2 3 4 5 6 
#
# 1 0.022538 -0.001782 -0.006462 0.000000 -0.019594 0.000000
# 2 -0.001782 0.011998 -0.007789 0.000000 0.004459 0.000000
# 3 -0.006462 -0.007789 0.017951 0.000000 0.000515 0.000000
# 4 0.000000 0.000000 0.000000 0.029693 0.000000 0.001782
# 5 -0.019594 0.004459 0.000515 0.000000 0.057690 0.000000
# 6 0.000000 0.000000 0.000000 0.001782 0.000000 0.038685
#
#
# Mechanical properties :
#
#
# Convention : Reuss Voigt Hill
#
# Bulk Modulus (GPa) = 48.96356 65.05549 57.00953
# Shear Modulus (GPa) = 22.99618 28.63905 25.81761
#
# Velocity S-wave (km/s) = 3.32688 3.71269 3.52507
# Velocity P-wave (km/s) = 6.19063 7.04913 6.63378
#
# Compressibility (1/GPa) = 0.02042335
#
# Stress axis : x y z
#
# Youngs Moduli (GPa) = 44.36934 83.34411 55.70710
#
# Poissons Ratio (x) = 0.14850 0.35996
# Poissons Ratio (y) = 0.07906 0.43388
# Poissons Ratio (z) = 0.28670 0.64914
#
# Static dielectric constant tensor:
#      x y z
#    x 3.812910 0.000000 0.211070 
#    y 0.000000 4.239190 0.000000 
#    z 0.211070 0.000000 3.499360 
# 
# 
# High freq. dielectric constant tensor:
#      x y z
#    x 1.815250 0.000000 0.013740 
#    y 0.000000 1.845640 0.000000 
#    z 0.013740 0.000000 1.792880 
# 
# From -- ./inp_files/270657.got.cif
#   From: 2010.06.25/outbox.cif.g09.slc.cpg/sg12_136_cif.got.tgz:270657.got - 2010.06.28 00:19:55.
