data_PCOD8112038
_publ_section_title
;
Structure prediction by ZEFSAII (Michael W. Deem and Ramdas Pophale) SiO2 
 PCOD8112038
Probable space group: C 2/M
;
_chemical_formula_sum "Si O2"
_cell_formula_units_Z 64
_cell_length_a 14.259165
_cell_length_b 27.947380
_cell_length_c 12.219554
_cell_angle_alpha 90.000000
_cell_angle_beta 142.155251
_cell_angle_gamma 90.000000
_cell_volume 2987.597585
_symmetry_space_group_name_H-M "C 2/M"
_symmetry_group_IT_number 12
_symmetry_cell_setting 'monoclinic'
loop_
_space_group_symop_operation_xyz
x,y,z
-x,y,-z
-x,-y,-z
x,-y,z
1/2+x,1/2+y,z
1/2-x,1/2+y,-z
1/2-x,1/2-y,-z
1/2+x,1/2-y,z
loop_
_atom_site_type_symbol
_atom_site_label
_atom_site_fract_x
_atom_site_fract_y
_atom_site_fract_z
Si Si1 0.196535 0.881259 0.795981
Si Si2 0.179305 0.900857 0.145691
Si Si3 0.171018 0.444720 0.503641
Si Si4 0.825973 0.798604 0.602665
Si Si5 0.842646 0.445125 0.109813
Si Si6 0.166775 0.689841 0.681799
Si Si7 0.843968 0.777837 0.174539
Si Si8 0.837885 0.109437 0.484736
O O1 0.236782 0.825491 0.853736
O O2 0.226178 0.893675 0.696912
O O3 0.020407 0.891469 0.660684
O O4 0.309138 0.913623 0.971784
O O5 0.269171 0.914003 0.339257
O O6 0.208602 0.938825 0.076172
O O7 0.247535 0.849876 0.163999
O O8 0.000000 0.897840 0.000000
O O9 0.177237 0.500000 0.543398
O O10 0.278373 0.436175 0.497299
O O11 0.999923 0.429034 0.312892
O O12 0.750000 0.750000 0.500000
O O13 0.783749 0.807622 0.688680
O O14 0.767871 0.842591 0.474834
O O15 0.004753 0.793118 0.749033
O O16 0.849534 0.500000 0.078138
O O17 0.135606 0.741643 0.705640
O O18 0.000000 0.669243 0.500000
O O19 0.750000 0.750000 0.000000
#
# Coordination Sequence:
#
# PCOD8112038 Si02
#       8
#     8   8   8   8   8   8   8   8
#     4  10  23  43  66  93 135 176 226 275 336 399
#     4  12  26  42  68 101 138 172 222 277 337 406
#     4  11  24  44  69  98 131 173 223 277 342 407
#     4  11  22  40  65  93 129 177 226 271 335 398
#     4  11  25  44  68  97 133 175 223 280 342 407
#     4  12  24  41  68  97 133 180 227 275 334 404
#     4  11  25  40  61  96 135 178 225 281 332 398
#     4  10  22  41  66  95 128 175 223 280 333 398
#
# _framework density 21.421894999999999
#
# number of rings (size 3 to 8) (size 9 to 14) (size 15 to 20)
#    0.000    1.000    2.500    3.750    5.250    5.500 
#    0.000    3.750    0.000    0.000    0.000    0.000 
#    0.000    0.000    0.000    0.000    0.000    0.000 
#
# Total GULP energy -396809.795368 kJ/mol
# GULP energy per Si atom -12400.306105 kJ/mol
# Density = 2.137314 g / cm^3
# Si number density = 21.421895 Si / 1000 Ang^3
#
#
#
# Elastic Constant Matrix: (Units=GPa)
#
#
# Indices 1 2 3 4 5 6 
#
# 1 105.9493 23.6541 27.9396 0.0000 -9.6305 0.0000
# 2 23.6541 95.3901 50.6919 0.0000 4.9961 0.0000
# 3 27.9396 50.6919 119.1797 0.0000 -5.2949 0.0000
# 4 0.0000 0.0000 0.0000 31.2663 0.0000 5.7245
# 5 -9.6305 4.9961 -5.2949 0.0000 28.4612 0.0000
# 6 0.0000 0.0000 0.0000 5.7245 0.0000 28.9721
#
#
#
# Elastic Compliance Matrix: (Units=1/GPa)
#
#
# Indices 1 2 3 4 5 6 
#
# 1 0.010614 -0.002054 -0.001451 0.000000 0.003682 0.000000
# 2 -0.002054 0.014293 -0.005788 0.000000 -0.004281 0.000000
# 3 -0.001451 -0.005788 0.011310 0.000000 0.002629 0.000000
# 4 0.000000 0.000000 0.000000 0.033184 0.000000 -0.006557
# 5 0.003682 -0.004281 0.002629 0.000000 0.037622 0.000000
# 6 0.000000 0.000000 0.000000 -0.006557 0.000000 0.035812
#
#
# Mechanical properties :
#
#
# Convention : Reuss Voigt Hill
#
# Bulk Modulus (GPa) = 56.71916 58.34337 57.53126
# Shear Modulus (GPa) = 29.88706 32.28880 31.08793
#
# Velocity S-wave (km/s) = 3.73924 3.88658 3.81362
# Velocity P-wave (km/s) = 6.72140 6.88732 6.80487
#
# Compressibility (1/GPa) = 0.01763073
#
# Stress axis : x y z
#
# Youngs Moduli (GPa) = 94.21177 69.96661 88.42092
#
# Poissons Ratio (x) = 0.14369 0.12832
# Poissons Ratio (y) = 0.19348 0.51177
# Poissons Ratio (z) = 0.13672 0.40496
#
# Static dielectric constant tensor:
#      x y z
#    x 3.873210 0.000000 -0.094970 
#    y 0.000000 4.272880 0.000000 
#    z -0.094970 0.000000 3.821460 
# 
# 
# High freq. dielectric constant tensor:
#      x y z
#    x 1.846130 0.000000 -0.003060 
#    y 0.000000 1.852210 0.000000 
#    z -0.003060 0.000000 1.837340 
# 
# From -- ./inp_files/149812.got.cif
#   From: 2010.06.25/outbox.cif.g09.slc.cpg/sg12_75_cif.got.tgz:149812.got - 2010.06.28 00:19:55.
