data_PCOD8112900
_publ_section_title
;
Structure prediction by ZEFSAII (Michael W. Deem and Ramdas Pophale) SiO2 
 PCOD8112900
Probable space group: C 2/M
;
_chemical_formula_sum "Si O2"
_cell_formula_units_Z 48
_cell_length_a 26.789830
_cell_length_b 8.461086
_cell_length_c 11.523921
_cell_angle_alpha 90.000000
_cell_angle_beta 122.503923
_cell_angle_gamma 90.000000
_cell_volume 2202.959870
_symmetry_space_group_name_H-M "C 2/M"
_symmetry_group_IT_number 12
_symmetry_cell_setting 'monoclinic'
loop_
_space_group_symop_operation_xyz
x,y,z
-x,y,-z
-x,-y,-z
x,-y,z
1/2+x,1/2+y,z
1/2-x,1/2+y,-z
1/2-x,1/2-y,-z
1/2+x,1/2-y,z
loop_
_atom_site_type_symbol
_atom_site_label
_atom_site_fract_x
_atom_site_fract_y
_atom_site_fract_z
Si Si1 0.945176 0.316957 0.353875
Si Si2 0.343038 0.684265 0.375453
Si Si3 0.976075 0.816978 0.155087
Si Si4 0.389037 0.685766 0.682124
Si Si5 0.736962 0.684971 0.111044
Si Si6 0.871109 0.682493 0.899509
O O1 0.950362 0.500000 0.325471
O O2 0.884861 0.288129 0.346424
O O3 0.944592 0.211968 0.238410
O O4 0.000000 0.260949 0.500000
O O5 0.357160 0.500000 0.374626
O O6 0.353372 0.732544 0.521870
O O7 0.276347 0.724763 0.256203
O O8 0.043301 0.754584 0.245255
O O9 0.974277 0.000000 0.120422
O O10 0.939697 0.724724 0.010554
O O11 0.386644 0.500000 0.702447
O O12 0.357386 0.774344 0.748977
O O13 0.750425 0.500000 0.129926
O O14 0.669380 0.717502 0.062626
O O15 0.750000 0.750000 0.000000
O O16 0.858319 0.500000 0.905733
#
# Coordination Sequence:
#
# PCOD8112900 Si02
#       6
#     8   8   8   8   8   8
#     4  11  22  36  59  93 131 166 208 259 313 371
#     4  11  23  42  67  96 130 168 213 263 317 377
#     4  11  22  40  65  93 129 172 216 263 317 377
#     4  10  23  42  65  94 129 170 213 259 316 380
#     4  12  26  47  71  95 126 165 211 263 318 378
#     4  12  26  43  65  94 128 169 215 263 317 377
#
# _framework density 21.788867
#
# number of rings (size 3 to 8) (size 9 to 14) (size 15 to 20)
#    0.000    0.833    1.667    6.000    0.000    6.000 
#    0.000    0.000    0.000    0.000    0.000    0.000 
#    0.000    0.000    0.000    0.000    0.000    0.000 
#
# Total GULP energy -297805.588381 kJ/mol
# GULP energy per Si atom -12408.566183 kJ/mol
# Density = 2.173927 g / cm^3
# Si number density = 21.788867 Si / 1000 Ang^3
#
#
#
# Elastic Constant Matrix: (Units=GPa)
#
#
# Indices 1 2 3 4 5 6 
#
# 1 83.4797 23.9723 41.1996 0.0000 -9.5453 0.0000
# 2 23.9723 75.8605 35.2048 0.0000 -7.2317 0.0000
# 3 41.1996 35.2048 143.6562 0.0000 -6.0135 0.0000
# 4 0.0000 0.0000 0.0000 36.8433 0.0000 0.0375
# 5 -9.5453 -7.2317 -6.0135 0.0000 40.8832 0.0000
# 6 0.0000 0.0000 0.0000 0.0375 0.0000 34.2760
#
#
#
# Elastic Compliance Matrix: (Units=1/GPa)
#
#
# Indices 1 2 3 4 5 6 
#
# 1 0.014770 -0.002839 -0.003438 0.000000 0.002441 0.000000
# 2 -0.002839 0.015602 -0.002940 0.000000 0.001665 0.000000
# 3 -0.003438 -0.002940 0.008665 0.000000 -0.000048 0.000000
# 4 0.000000 0.000000 0.000000 0.027142 0.000000 -0.000030
# 5 0.002441 0.001665 -0.000048 0.000000 0.025317 0.000000
# 6 0.000000 0.000000 0.000000 -0.000030 0.000000 0.029175
#
#
# Mechanical properties :
#
#
# Convention : Reuss Voigt Hill
#
# Bulk Modulus (GPa) = 48.53423 55.97221 52.25322
# Shear Modulus (GPa) = 34.25280 35.90847 35.08063
#
# Velocity S-wave (km/s) = 3.96919 4.06398 4.01687
# Velocity P-wave (km/s) = 6.58248 6.91126 6.74887
#
# Compressibility (1/GPa) = 0.02060402
#
# Stress axis : x y z
#
# Youngs Moduli (GPa) = 67.70429 64.09371 115.40124
#
# Poissons Ratio (x) = 0.18198 0.39675
# Poissons Ratio (y) = 0.19223 0.33923
# Poissons Ratio (z) = 0.23277 0.18841
#
# Static dielectric constant tensor:
#      x y z
#    x 3.816300 0.000000 0.050060 
#    y 0.000000 3.764440 0.000000 
#    z 0.050060 0.000000 4.139250 
# 
# 
# High freq. dielectric constant tensor:
#      x y z
#    x 1.854020 0.000000 -0.003130 
#    y 0.000000 1.855210 0.000000 
#    z -0.003130 0.000000 1.870780 
# 
# From -- ./inp_files/179738.got.cif
#   From: 2010.06.25/outbox.cif.g09.slc.cpg/sg12_90_cif.got.tgz:179738.got - 2010.06.28 00:19:55.
