data_PCOD8112465
_publ_section_title
;
Structure prediction by ZEFSAII (Michael W. Deem and Ramdas Pophale) SiO2 
 PCOD8112465
Probable space group: C 2/M
;
_chemical_formula_sum "Si O2"
_cell_formula_units_Z 44
_cell_length_a 14.448621
_cell_length_b 22.874215
_cell_length_c 10.363068
_cell_angle_alpha 90.000000
_cell_angle_beta 140.085730
_cell_angle_gamma 90.000000
_cell_volume 2197.621205
_symmetry_space_group_name_H-M "C 2/M"
_symmetry_group_IT_number 12
_symmetry_cell_setting 'monoclinic'
loop_
_space_group_symop_operation_xyz
x,y,z
-x,y,-z
-x,-y,-z
x,-y,z
1/2+x,1/2+y,z
1/2-x,1/2+y,-z
1/2-x,1/2-y,-z
1/2+x,1/2-y,z
loop_
_atom_site_type_symbol
_atom_site_label
_atom_site_fract_x
_atom_site_fract_y
_atom_site_fract_z
Si Si1 0.216110 0.717841 0.595835
Si Si2 0.677532 0.905943 0.466939
Si Si3 0.326788 0.500000 0.098164
Si Si4 0.011053 0.888380 0.285357
Si Si5 0.827178 0.500000 0.336315
Si Si6 0.519781 0.000000 0.872767
Si Si7 0.500000 0.335106 0.000000
Si Si8 0.500000 0.700350 0.500000
O O1 0.250000 0.750000 0.500000
O O2 0.129275 0.658206 0.465329
O O3 0.132100 0.757689 0.606797
O O4 0.363924 0.705290 0.827004
O O5 0.816313 0.899707 0.521445
O O6 0.723393 0.942494 0.641711
O O7 0.547936 0.940735 0.259376
O O8 0.265044 0.500000 0.889514
O O9 0.190396 0.500000 0.044521
O O10 0.425022 0.445033 0.236101
O O11 0.964152 0.838099 0.335566
O O12 0.967791 0.873388 0.092513
O O13 0.000000 0.500000 0.500000
O O14 0.500000 0.000000 0.000000
#
# Coordination Sequence:
#
# PCOD8112465 Si02
#       8
#     8   8   4   8   4   4   4   4
#     4  11  23  45  69  97 134 178 221 280 332 396
#     4  10  22  45  67  89 139 170 212 275 344 383
#     4  12  23  39  68  97 126 164 229 270 323 406
#     4  11  25  43  68  97 129 178 221 277 329 408
#     4  11  21  40  64 102 123 161 222 276 332 392
#     4  11  26  41  62 103 134 173 216 269 344 402
#     4  10  22  47  70  98 130 171 230 268 342 394
#     4  12  26  45  66 101 136 174 232 270 344 394
#
# _framework density 20.021647999999999
#
# number of rings (size 3 to 8) (size 9 to 14) (size 15 to 20)
#    0.000    1.091    5.455    3.273    3.818    3.636 
#    4.909    0.000    0.000    0.000    0.000    0.000 
#    0.000    0.000    0.000    0.000    0.000    0.000 
#
# Total GULP energy -272757.483466 kJ/mol
# GULP energy per Si atom -12398.067430 kJ/mol
# Density = 1.997608 g / cm^3
# Si number density = 20.021648 Si / 1000 Ang^3
#
#
#
# Elastic Constant Matrix: (Units=GPa)
#
#
# Indices 1 2 3 4 5 6 
#
# 1 138.8456 67.9109 30.0038 0.0000 4.3947 0.0000
# 2 67.9109 165.6579 42.6306 0.0000 6.0645 0.0000
# 3 30.0038 42.6306 66.1980 0.0000 8.4197 0.0000
# 4 0.0000 0.0000 0.0000 16.1262 0.0000 8.1696
# 5 4.3947 6.0645 8.4197 0.0000 39.7296 0.0000
# 6 0.0000 0.0000 0.0000 8.1696 0.0000 42.3043
#
#
#
# Elastic Compliance Matrix: (Units=1/GPa)
#
#
# Indices 1 2 3 4 5 6 
#
# 1 0.009245 -0.003250 -0.002087 0.000000 -0.000084 0.000000
# 2 -0.003250 0.008379 -0.003911 0.000000 -0.000091 0.000000
# 3 -0.002087 -0.003911 0.018977 0.000000 -0.003194 0.000000
# 4 0.000000 0.000000 0.000000 0.068736 0.000000 -0.013274
# 5 -0.000084 -0.000091 -0.003194 0.000000 0.025870 0.000000
# 6 0.000000 0.000000 0.000000 -0.013274 0.000000 0.026202
#
#
# Mechanical properties :
#
#
# Convention : Reuss Voigt Hill
#
# Bulk Modulus (GPa) = 55.23274 72.42134 63.82704
# Shear Modulus (GPa) = 27.48162 34.97574 31.22868
#
# Velocity S-wave (km/s) = 3.70887 4.18412 3.95365
# Velocity P-wave (km/s) = 6.78140 7.71962 7.26567
#
# Compressibility (1/GPa) = 0.01810520
#
# Stress axis : x y z
#
# Youngs Moduli (GPa) = 108.16078 119.35009 52.69548
#
# Poissons Ratio (x) = 0.38790 0.10996
# Poissons Ratio (y) = 0.35153 0.20610
# Poissons Ratio (z) = 0.22570 0.46680
#
# Static dielectric constant tensor:
#      x y z
#    x 4.143210 0.000000 0.730060 
#    y 0.000000 3.877350 0.000000 
#    z 0.730060 0.000000 5.281610 
# 
# 
# High freq. dielectric constant tensor:
#      x y z
#    x 1.794900 0.000000 -0.002150 
#    y 0.000000 1.795950 0.000000 
#    z -0.002150 0.000000 1.769670 
# 
# From -- ./inp_files/147824.got.cif
#   From: 2010.06.25/outbox.cif.g09.slc.cpg/sg12_74_cif.got.tgz:147824.got - 2010.06.28 00:19:55.
