data_PCOD8112552
_publ_section_title
;
Structure prediction by ZEFSAII (Michael W. Deem and Ramdas Pophale) SiO2 
 PCOD8112552
Probable space group: C 2/M
;
_chemical_formula_sum "Si O2"
_cell_formula_units_Z 40
_cell_length_a 13.681236
_cell_length_b 11.941871
_cell_length_c 15.482977
_cell_angle_alpha 90.000000
_cell_angle_beta 64.093786
_cell_angle_gamma 90.000000
_cell_volume 2275.403217
_symmetry_space_group_name_H-M "C 2/M"
_symmetry_group_IT_number 12
_symmetry_cell_setting 'monoclinic'
loop_
_space_group_symop_operation_xyz
x,y,z
-x,y,-z
-x,-y,-z
x,-y,z
1/2+x,1/2+y,z
1/2-x,1/2+y,-z
1/2-x,1/2-y,-z
1/2+x,1/2-y,z
loop_
_atom_site_type_symbol
_atom_site_label
_atom_site_fract_x
_atom_site_fract_y
_atom_site_fract_z
Si Si1 0.325290 0.274176 0.390445
Si Si2 0.608967 0.500000 0.561288
Si Si3 0.931585 0.370782 0.108547
Si Si4 0.024013 0.630128 0.259043
Si Si5 0.361825 0.500000 0.637711
Si Si6 0.779311 0.227340 0.744521
O O1 0.250000 0.250000 0.500000
O O2 0.376475 0.394769 0.383018
O O3 0.419801 0.180867 0.348646
O O4 0.253399 0.284273 0.332597
O O5 0.487964 0.500000 0.575532
O O6 0.684499 0.500000 0.444205
O O7 0.894942 0.500000 0.113154
O O8 0.826150 0.290814 0.154363
O O9 0.006909 0.356071 0.163513
O O10 0.000000 0.330220 0.000000
O O11 0.034641 0.500000 0.281416
O O12 0.133990 0.694765 0.241087
O O13 0.325362 0.606019 0.705766
#
# Coordination Sequence:
#
# PCOD8112552 Si02
#       6
#     8   4   8   8   4   8
#     4  11  23  35  55  80 112 151 187 226 273 316
#     4  11  22  36  54  78 113 148 198 228 258 321
#     4   9  19  37  62  85 106 139 182 228 280 335
#     4  10  23  39  54  82 116 144 183 229 278 329
#     4  11  20  36  57  79 108 151 195 228 260 316
#     4  11  21  37  58  82 112 149 181 230 276 324
#
# _framework density 17.579301999999998
#
# number of rings (size 3 to 8) (size 9 to 14) (size 15 to 20)
#    0.000    1.600    5.000    0.000    4.200    1.600 
#    0.000    1.000    0.000    0.600    0.000    0.000 
#    0.000    0.000    0.000    0.000    0.000    0.000 
#
# Total GULP energy -247965.190858 kJ/mol
# GULP energy per Si atom -12398.259543 kJ/mol
# Density = 1.753929 g / cm^3
# Si number density = 17.579302 Si / 1000 Ang^3
#
#
#
# Elastic Constant Matrix: (Units=GPa)
#
#
# Indices 1 2 3 4 5 6 
#
# 1 117.8188 57.8051 58.0214 0.0000 -5.0119 0.0000
# 2 57.8051 126.2814 53.0876 0.0000 2.5161 0.0000
# 3 58.0214 53.0876 139.5930 0.0000 -12.0845 0.0000
# 4 0.0000 0.0000 0.0000 22.5127 0.0000 6.9214
# 5 -5.0119 2.5161 -12.0845 0.0000 17.8449 0.0000
# 6 0.0000 0.0000 0.0000 6.9214 0.0000 22.4559
#
#
#
# Elastic Compliance Matrix: (Units=1/GPa)
#
#
# Indices 1 2 3 4 5 6 
#
# 1 0.012298 -0.004263 -0.003335 0.000000 0.001797 0.000000
# 2 -0.004263 0.011179 -0.002889 0.000000 -0.004730 0.000000
# 3 -0.003335 -0.002889 0.010201 0.000000 0.006379 0.000000
# 4 0.000000 0.000000 0.000000 0.049069 0.000000 -0.015124
# 5 0.001797 -0.004730 0.006379 0.000000 0.061529 0.000000
# 6 0.000000 0.000000 0.000000 -0.015124 0.000000 0.049193
#
#
# Mechanical properties :
#
#
# Convention : Reuss Voigt Hill
#
# Bulk Modulus (GPa) = 78.71641 80.16906 79.44274
# Shear Modulus (GPa) = 22.86468 26.88130 24.87299
#
# Velocity S-wave (km/s) = 3.61038 3.91467 3.76560
# Velocity P-wave (km/s) = 7.89018 8.13241 8.01221
#
# Compressibility (1/GPa) = 0.01270383
#
# Stress axis : x y z
#
# Youngs Moduli (GPa) = 81.31432 89.45316 98.03362
#
# Poissons Ratio (x) = 0.38136 0.32691
# Poissons Ratio (y) = 0.34667 0.28321
# Poissons Ratio (z) = 0.27116 0.25842
#
# Static dielectric constant tensor:
#      x y z
#    x 3.350450 0.000000 -0.025950 
#    y 0.000000 3.371910 0.000000 
#    z -0.025950 0.000000 3.168410 
# 
# 
# High freq. dielectric constant tensor:
#      x y z
#    x 1.682320 0.000000 -0.003850 
#    y 0.000000 1.680060 0.000000 
#    z -0.003850 0.000000 1.678240 
# 
# From -- ./inp_files/188860.got.cif
#   From: 2010.06.25/outbox.cif.g09.slc.cpg/sg12_95_cif.got.tgz:188860.got - 2010.06.28 00:19:55.
