data_PCOD8112833
_publ_section_title
;
Structure prediction by ZEFSAII (Michael W. Deem and Ramdas Pophale) SiO2 
 PCOD8112833
Probable space group: C 2/M
;
_chemical_formula_sum "Si O2"
_cell_formula_units_Z 56
_cell_length_a 25.082435
_cell_length_b 8.927512
_cell_length_c 18.055044
_cell_angle_alpha 90.000000
_cell_angle_beta 42.897778
_cell_angle_gamma 90.000000
_cell_volume 2752.007600
_symmetry_space_group_name_H-M "C 2/M"
_symmetry_group_IT_number 12
_symmetry_cell_setting 'monoclinic'
loop_
_space_group_symop_operation_xyz
x,y,z
-x,y,-z
-x,-y,-z
x,-y,z
1/2+x,1/2+y,z
1/2-x,1/2+y,-z
1/2-x,1/2-y,-z
1/2+x,1/2-y,z
loop_
_atom_site_type_symbol
_atom_site_label
_atom_site_fract_x
_atom_site_fract_y
_atom_site_fract_z
Si Si1 0.632332 0.823057 0.203034
Si Si2 0.790163 0.673579 0.300347
Si Si3 0.776076 0.826121 0.157981
Si Si4 0.097549 0.173119 0.090900
Si Si5 0.487504 0.671937 0.426535
Si Si6 0.648814 0.175464 0.512059
Si Si7 0.433502 0.171342 0.251536
O O1 0.703209 0.768834 0.182832
O O2 0.642936 0.759358 0.109845
O O3 0.550143 0.766924 0.317675
O O4 0.630468 0.000000 0.199489
O O5 0.766692 0.500000 0.328944
O O6 0.778977 0.729172 0.228623
O O7 0.736726 0.764944 0.412471
O O8 0.880195 0.697428 0.233317
O O9 0.765564 0.000000 0.189771
O O10 0.856057 0.798230 0.032162
O O11 0.008871 0.224904 0.169264
O O12 0.097518 0.000000 0.112662
O O13 0.500000 0.690721 0.500000
O O14 0.493056 0.500000 0.395490
O O15 0.402554 0.738483 0.496545
O O16 0.618198 0.214848 0.624721
O O17 0.646102 0.000000 0.498364
O O18 0.462106 0.000000 0.228278
#
# Coordination Sequence:
#
# PCOD8112833 Si02
#       7
#     8   8   8   8   8   8   8
#     4  11  22  39  62  88 123 162 203 251 305 368
#     4  11  24  41  63  91 124 162 206 256 307 362
#     4  10  24  43  62  90 125 163 206 252 309 367
#     4  11  23  40  65  93 122 160 207 257 305 362
#     4  11  23  37  57  89 126 161 203 251 299 359
#     4  11  22  39  63  89 122 162 204 250 305 368
#     4  10  23  42  63  91 124 162 206 251 308 367
#
# _framework density 20.348782
#
# number of rings (size 3 to 8) (size 9 to 14) (size 15 to 20)
#    0.000    1.286    1.429    3.857    0.000    8.000 
#    0.000    2.857    0.000    0.000    0.000    0.000 
#    0.000    0.000    0.000    0.000    0.000    0.000 
#
# Total GULP energy -347371.530824 kJ/mol
# GULP energy per Si atom -12406.126101 kJ/mol
# Density = 2.030247 g / cm^3
# Si number density = 20.348782 Si / 1000 Ang^3
#
#
#
# Elastic Constant Matrix: (Units=GPa)
#
#
# Indices 1 2 3 4 5 6 
#
# 1 109.3571 41.5889 21.4765 -0.0025 -3.7616 0.0032
# 2 41.5889 77.6475 23.9145 -0.0129 3.8803 0.0081
# 3 21.4765 23.9145 71.6736 -0.0019 -2.0439 0.0001
# 4 -0.0025 -0.0129 -0.0019 30.1324 0.0048 -0.9295
# 5 -3.7616 3.8803 -2.0439 0.0048 18.8558 -0.0011
# 6 0.0032 0.0081 0.0001 -0.9295 -0.0011 33.7413
#
#
#
# Elastic Compliance Matrix: (Units=1/GPa)
#
#
# Indices 1 2 3 4 5 6 
#
# 1 0.011857 -0.006086 -0.001424 -0.000002 0.003463 0.000000
# 2 -0.006086 0.017709 -0.004237 0.000008 -0.005318 -0.000004
# 3 -0.001424 -0.004237 0.015858 -0.000001 0.002307 0.000001
# 4 -0.000002 0.000008 -0.000001 0.033215 -0.000011 0.000915
# 5 0.003463 -0.005318 0.002307 -0.000011 0.055069 0.000003
# 6 0.000000 -0.000004 0.000001 0.000915 0.000003 0.029662
#
#
# Mechanical properties :
#
#
# Convention : Reuss Voigt Hill
#
# Bulk Modulus (GPa) = 45.59511 48.07092 46.83301
# Shear Modulus (GPa) = 25.75006 27.99248 26.87127
#
# Velocity S-wave (km/s) = 3.56115 3.71298 3.63786
# Velocity P-wave (km/s) = 6.27412 6.48509 6.38047
#
# Compressibility (1/GPa) = 0.02193218
#
# Stress axis : x y z
#
# Youngs Moduli (GPa) = 84.33506 56.46889 63.05891
#
# Poissons Ratio (x) = 0.34365 0.08978
# Poissons Ratio (y) = 0.51323 0.26717
# Poissons Ratio (z) = 0.12007 0.23925
#
# Static dielectric constant tensor:
#      x y z
#    x 3.820910 -0.000010 -0.033950 
#    y -0.000010 3.738170 0.000010 
#    z -0.033950 0.000010 3.736190 
# 
# 
# High freq. dielectric constant tensor:
#      x y z
#    x 1.806490 0.000000 -0.001930 
#    y 0.000000 1.802370 0.000000 
#    z -0.001930 0.000000 1.798420 
# 
# From -- ./inp_files/288467.got.cif
#   From: 2010.06.25/outbox.cif.g09.slc.cpg/sg12_145_cif.got.tgz:288467.got - 2010.06.28 00:19:55.
