data_PCOD8112842
_publ_section_title
;
Structure prediction by ZEFSAII (Michael W. Deem and Ramdas Pophale) SiO2 
 PCOD8112842
Probable space group: C 2/M
;
_chemical_formula_sum "Si O2"
_cell_formula_units_Z 64
_cell_length_a 29.865338
_cell_length_b 18.117593
_cell_length_c 9.186374
_cell_angle_alpha 90.000000
_cell_angle_beta 140.902882
_cell_angle_gamma 90.000000
_cell_volume 3134.666525
_symmetry_space_group_name_H-M "C 2/M"
_symmetry_group_IT_number 12
_symmetry_cell_setting 'monoclinic'
loop_
_space_group_symop_operation_xyz
x,y,z
-x,y,-z
-x,-y,-z
x,-y,z
1/2+x,1/2+y,z
1/2-x,1/2+y,-z
1/2-x,1/2-y,-z
1/2+x,1/2-y,z
loop_
_atom_site_type_symbol
_atom_site_label
_atom_site_fract_x
_atom_site_fract_y
_atom_site_fract_z
Si Si1 0.358370 0.675398 0.841438
Si Si2 0.772748 0.081965 0.423121
Si Si3 0.010793 0.339893 0.353634
Si Si4 0.137037 0.917257 0.609598
Si Si5 0.130774 0.347637 0.169653
Si Si6 0.513685 0.688952 0.204246
Si Si7 0.628571 0.084477 0.477067
Si Si8 0.710317 0.414789 0.084094
O O1 0.332944 0.637568 0.630153
O O2 0.348483 0.762627 0.799844
O O3 0.306778 0.642159 0.832065
O O4 0.440181 0.654821 0.080124
O O5 0.788610 0.082780 0.291343
O O6 0.693231 0.104186 0.259619
O O7 0.784465 0.000000 0.518447
O O8 0.032860 0.260254 0.347319
O O9 0.073946 0.394752 0.467441
O O10 0.000000 0.337921 0.500000
O O11 0.939074 0.368189 0.096885
O O12 0.076178 0.868674 0.382921
O O13 0.106028 0.000000 0.538750
O O14 0.159956 0.888983 0.825557
O O15 0.118061 0.364917 0.307468
O O16 0.500000 0.710125 0.000000
O O17 0.706745 0.095242 0.742047
O O18 0.615866 0.000000 0.398043
O O19 0.694556 0.500000 0.087266
#
# Coordination Sequence:
#
# PCOD8112842 Si02
#       8
#     8   8   8   8   8   8   8   8
#     4  11  22  39  65  94 127 166 217 265 312 380
#     4  11  22  39  64  95 129 166 214 266 314 375
#     4  11  27  44  65  97 128 164 214 268 325 381
#     4  10  24  40  62  96 133 173 215 262 321 374
#     4  11  24  41  66  98 126 168 213 264 317 383
#     4  11  23  43  66  91 133 173 213 266 315 377
#     4  11  24  45  71  94 127 171 213 261 321 388
#     4  10  23  42  63  95 132 170 213 263 321 380
#
# _framework density 20.416846
#
# number of rings (size 3 to 8) (size 9 to 14) (size 15 to 20)
#    0.000    1.250    2.500    3.000    5.250    3.000 
#    0.000    2.500    0.000    0.000    0.000    0.000 
#    0.000    0.000    0.000    0.000    0.000    0.000 
#
# Total GULP energy -396750.740832 kJ/mol
# GULP energy per Si atom -12398.460651 kJ/mol
# Density = 2.037038 g / cm^3
# Si number density = 20.416846 Si / 1000 Ang^3
#
#
#
# Elastic Constant Matrix: (Units=GPa)
#
#
# Indices 1 2 3 4 5 6 
#
# 1 88.1261 56.5850 38.8802 0.0000 -1.1232 0.0000
# 2 56.5850 87.2681 44.9471 0.0000 2.8340 0.0000
# 3 38.8802 44.9471 97.9455 0.0000 -2.2089 0.0000
# 4 0.0000 0.0000 0.0000 25.3773 0.0000 3.0968
# 5 -1.1232 2.8340 -2.2089 0.0000 38.2000 0.0000
# 6 0.0000 0.0000 0.0000 3.0968 0.0000 27.6050
#
#
#
# Elastic Compliance Matrix: (Units=1/GPa)
#
#
# Indices 1 2 3 4 5 6 
#
# 1 0.019998 -0.011701 -0.002539 0.000000 0.001309 0.000000
# 2 -0.011701 0.021940 -0.005475 0.000000 -0.002288 0.000000
# 3 -0.002539 -0.005475 0.013756 0.000000 0.001127 0.000000
# 4 0.000000 0.000000 0.000000 0.039952 0.000000 -0.004482
# 5 0.001309 -0.002288 0.001127 0.000000 0.026451 0.000000
# 6 0.000000 0.000000 0.000000 -0.004482 0.000000 0.036728
#
#
# Mechanical properties :
#
#
# Convention : Reuss Voigt Hill
#
# Bulk Modulus (GPa) = 61.49020 61.57381 61.53200
# Shear Modulus (GPa) = 24.54870 27.09829 25.82350
#
# Velocity S-wave (km/s) = 3.47129 3.64710 3.56028
# Velocity P-wave (km/s) = 6.80068 6.92524 6.86324
#
# Compressibility (1/GPa) = 0.01626275
#
# Stress axis : x y z
#
# Youngs Moduli (GPa) = 50.00619 45.57808 72.69798
#
# Poissons Ratio (x) = 0.53332 0.18457
# Poissons Ratio (y) = 0.58514 0.39803
# Poissons Ratio (z) = 0.12696 0.24954
#
# Static dielectric constant tensor:
#      x y z
#    x 3.792840 0.000000 0.069430 
#    y 0.000000 3.700920 0.000000 
#    z 0.069430 0.000000 3.711520 
# 
# 
# High freq. dielectric constant tensor:
#      x y z
#    x 1.809440 0.000000 0.006180 
#    y 0.000000 1.800010 0.000000 
#    z 0.006180 0.000000 1.798330 
# 
# From -- ./inp_files/112870.got.cif
#   From: 2010.06.25/outbox.cif.g09.slc.cpg/sg12_57_cif.got.tgz:112870.got - 2010.06.28 00:19:55.
