data_PCOD8112899
_publ_section_title
;
Structure prediction by ZEFSAII (Michael W. Deem and Ramdas Pophale) SiO2 
 PCOD8112899
Probable space group: C 2/M
;
_chemical_formula_sum "Si O2"
_cell_formula_units_Z 64
_cell_length_a 8.066863
_cell_length_b 25.937541
_cell_length_c 15.255036
_cell_angle_alpha 90.000000
_cell_angle_beta 91.226824
_cell_angle_gamma 90.000000
_cell_volume 3191.149523
_symmetry_space_group_name_H-M "C 2/M"
_symmetry_group_IT_number 12
_symmetry_cell_setting 'monoclinic'
loop_
_space_group_symop_operation_xyz
x,y,z
-x,y,-z
-x,-y,-z
x,-y,z
1/2+x,1/2+y,z
1/2-x,1/2+y,-z
1/2-x,1/2-y,-z
1/2+x,1/2-y,z
loop_
_atom_site_type_symbol
_atom_site_label
_atom_site_fract_x
_atom_site_fract_y
_atom_site_fract_z
Si Si1 0.811195 0.764393 0.208192
Si Si2 0.816803 0.060201 0.209991
Si Si3 0.805352 0.808578 0.501016
Si Si4 0.185837 0.355274 0.320701
Si Si5 0.819365 0.661367 0.315274
Si Si6 0.500119 0.060104 0.096604
Si Si7 0.662645 0.397360 0.163195
Si Si8 0.412449 0.705422 0.909359
O O1 0.705300 0.808448 0.252840
O O2 0.844281 0.718821 0.277364
O O3 0.736269 0.744671 0.114076
O O4 0.980666 0.790482 0.179006
O O5 0.798633 0.095127 0.296973
O O6 0.663721 0.080895 0.148384
O O7 0.994798 0.068581 0.164598
O O8 0.799615 0.000000 0.234026
O O9 0.750000 0.750000 0.500000
O O10 0.730674 0.838589 0.418524
O O11 0.744017 0.836891 0.586960
O O12 0.000000 0.811020 0.500000
O O13 0.992164 0.369584 0.315506
O O14 0.686473 0.629626 0.257502
O O15 0.326033 0.069671 0.143422
O O16 0.526289 0.000000 0.087323
O O17 0.500000 0.085893 0.000000
O O18 0.646820 0.353964 0.086917
O O19 0.500000 0.721998 0.000000
#
# Coordination Sequence:
#
# PCOD8112899 Si02
#       8
#     8   8   8   8   8   8   8   8
#     4  11  22  38  59  85 129 167 211 257 314 381
#     4  11  24  43  68  96 129 173 218 271 331 385
#     4  12  25  37  63  97 131 168 213 263 322 388
#     4  12  22  41  66  92 132 167 210 267 323 387
#     4  11  23  41  62  96 126 170 205 260 323 387
#     4  10  23  42  65  94 126 166 223 284 333 378
#     4  11  23  40  66  93 128 172 217 266 329 388
#     4  11  24  38  57  89 128 174 217 258 316 385
#
# _framework density 20.055468000000001
#
# number of rings (size 3 to 8) (size 9 to 14) (size 15 to 20)
#    0.000    0.875    5.000    2.625    3.500    0.000 
#    0.000    3.750    0.000    5.625    0.000    0.000 
#    0.000    0.000    0.000    0.000    0.000    0.000 
#
# Total GULP energy -396767.338864 kJ/mol
# GULP energy per Si atom -12398.979340 kJ/mol
# Density = 2.000982 g / cm^3
# Si number density = 20.055468 Si / 1000 Ang^3
#
#
#
# Elastic Constant Matrix: (Units=GPa)
#
#
# Indices 1 2 3 4 5 6 
#
# 1 133.4125 20.1119 26.3074 0.0000 -5.7276 0.0000
# 2 20.1119 62.2609 35.3012 0.0000 2.7751 0.0000
# 3 26.3074 35.3012 103.3798 0.0000 2.7294 0.0000
# 4 0.0000 0.0000 0.0000 22.3994 0.0000 -3.9764
# 5 -5.7276 2.7751 2.7294 0.0000 33.9865 0.0000
# 6 0.0000 0.0000 0.0000 -3.9764 0.0000 31.6552
#
#
#
# Elastic Compliance Matrix: (Units=1/GPa)
#
#
# Indices 1 2 3 4 5 6 
#
# 1 0.008139 -0.001864 -0.001478 0.000000 0.001642 0.000000
# 2 -0.001864 0.020385 -0.006448 0.000000 -0.001461 0.000000
# 3 -0.001478 -0.006448 0.012270 0.000000 -0.000708 0.000000
# 4 0.000000 0.000000 0.000000 0.045662 0.000000 0.005736
# 5 0.001642 -0.001461 -0.000708 0.000000 0.029876 0.000000
# 6 0.000000 0.000000 0.000000 0.005736 0.000000 0.032311
#
#
# Mechanical properties :
#
#
# Convention : Reuss Voigt Hill
#
# Bulk Modulus (GPa) = 47.14100 51.38825 49.26462
# Shear Modulus (GPa) = 28.52368 32.09707 30.31038
#
# Velocity S-wave (km/s) = 3.77535 4.00486 3.89180
# Velocity P-wave (km/s) = 6.52386 6.86031 6.69420
#
# Compressibility (1/GPa) = 0.02121296
#
# Stress axis : x y z
#
# Youngs Moduli (GPa) = 122.87267 49.05673 81.50263
#
# Poissons Ratio (x) = 0.09145 0.12044
# Poissons Ratio (y) = 0.22907 0.52551
# Poissons Ratio (z) = 0.18158 0.31631
#
# Static dielectric constant tensor:
#      x y z
#    x 3.871520 0.000000 0.066100 
#    y 0.000000 3.474090 0.000000 
#    z 0.066100 0.000000 3.713450 
# 
# 
# High freq. dielectric constant tensor:
#      x y z
#    x 1.806230 0.000000 0.002220 
#    y 0.000000 1.762560 0.000000 
#    z 0.002220 0.000000 1.778940 
# 
# From -- ./inp_files/198868.got.cif
#   From: 2010.06.25/outbox.cif.g09.slc.cpg/sg12_100_cif.got.tgz:198868.got - 2010.06.28 00:19:55.
