data_PCOD8112650
_publ_section_title
;
Structure prediction by ZEFSAII (Michael W. Deem and Ramdas Pophale) SiO2 
 PCOD8112650
Probable space group: C 2/M
;
_chemical_formula_sum "Si O2"
_cell_formula_units_Z 40
_cell_length_a 10.190922
_cell_length_b 15.164901
_cell_length_c 12.609310
_cell_angle_alpha 90.000000
_cell_angle_beta 92.129539
_cell_angle_gamma 90.000000
_cell_volume 1947.351450
_symmetry_space_group_name_H-M "C 2/M"
_symmetry_group_IT_number 12
_symmetry_cell_setting 'monoclinic'
loop_
_space_group_symop_operation_xyz
x,y,z
-x,y,-z
-x,-y,-z
x,-y,z
1/2+x,1/2+y,z
1/2-x,1/2+y,-z
1/2-x,1/2-y,-z
1/2+x,1/2-y,z
loop_
_atom_site_type_symbol
_atom_site_label
_atom_site_fract_x
_atom_site_fract_y
_atom_site_fract_z
Si Si1 0.104006 0.000000 0.406380
Si Si2 0.099507 0.500000 0.600901
Si Si3 0.378039 0.265005 0.072112
Si Si4 0.282395 0.601298 0.233081
Si Si5 0.993226 0.653390 0.253141
Si Si6 0.486546 0.326362 0.376360
O O1 0.255898 0.000000 0.446624
O O2 0.076778 0.909522 0.341371
O O3 0.000000 0.000000 0.500000
O O4 0.083824 0.586449 0.673103
O O5 0.000000 0.500000 0.500000
O O6 0.357734 0.353915 0.137794
O O7 0.403333 0.180588 0.149933
O O8 0.500000 0.280865 0.000000
O O9 0.250000 0.250000 0.000000
O O10 0.323615 0.500000 0.237037
O O11 0.335380 0.649163 0.342111
O O12 0.126417 0.608887 0.216288
O O13 0.036637 0.740628 0.317238
O O14 0.500000 0.306501 0.500000
#
# Coordination Sequence:
#
# PCOD8112650 Si02
#       6
#     4   4   8   8   8   8
#     4  10  24  42  62  94 134 186 232 271 330 402
#     4  12  28  44  69 104 149 183 232 284 337 413
#     4  11  24  47  72  98 133 176 226 292 354 408
#     4  11  23  42  68 101 138 174 227 285 345 413
#     4  11  25  42  69 102 138 182 231 281 348 414
#     4  10  23  40  64  95 137 186 226 275 337 405
#
# _framework density 20.540718999999999
#
# number of rings (size 3 to 8) (size 9 to 14) (size 15 to 20)
#    0.000    1.200    4.000    0.600   11.200    1.200 
#    1.800    1.500    0.000    0.000    0.000    0.000 
#    0.000    0.000    0.000    0.000    0.000    0.000 
#
# Total GULP energy -247963.201198 kJ/mol
# GULP energy per Si atom -12398.160060 kJ/mol
# Density = 2.049397 g / cm^3
# Si number density = 20.540719 Si / 1000 Ang^3
#
#
#
# Elastic Constant Matrix: (Units=GPa)
#
#
# Indices 1 2 3 4 5 6 
#
# 1 145.6051 30.8637 60.0556 0.0000 1.9572 0.0000
# 2 30.8637 126.6337 47.9379 0.0000 -3.7127 0.0000
# 3 60.0556 47.9379 132.7883 0.0000 14.1499 0.0000
# 4 0.0000 0.0000 0.0000 28.9909 0.0000 -1.3303
# 5 1.9572 -3.7127 14.1499 0.0000 41.7151 0.0000
# 6 0.0000 0.0000 0.0000 -1.3303 0.0000 29.5867
#
#
#
# Elastic Compliance Matrix: (Units=1/GPa)
#
#
# Indices 1 2 3 4 5 6 
#
# 1 0.008523 -0.000651 -0.003705 0.000000 0.000799 0.000000
# 2 -0.000651 0.009361 -0.003296 0.000000 0.001982 0.000000
# 3 -0.003705 -0.003296 0.010799 0.000000 -0.003783 0.000000
# 4 0.000000 0.000000 0.000000 0.034565 0.000000 0.001554
# 5 0.000799 0.001982 -0.003783 0.000000 0.025394 0.000000
# 6 0.000000 0.000000 0.000000 0.001554 0.000000 0.033869
#
#
# Mechanical properties :
#
#
# Convention : Reuss Voigt Hill
#
# Bulk Modulus (GPa) = 74.74162 75.86017 75.30089
# Shear Modulus (GPa) = 35.14288 37.80320 36.47304
#
# Velocity S-wave (km/s) = 4.14078 4.29465 4.21841
# Velocity P-wave (km/s) = 7.70243 7.84881 7.77596
#
# Compressibility (1/GPa) = 0.01337943
#
# Stress axis : x y z
#
# Youngs Moduli (GPa) = 117.32581 106.82118 92.59845
#
# Poissons Ratio (x) = 0.06959 0.34305
# Poissons Ratio (y) = 0.07643 0.30522
# Poissons Ratio (z) = 0.43466 0.35209
#
# Static dielectric constant tensor:
#      x y z
#    x 3.760500 0.000000 0.260580 
#    y 0.000000 4.092100 0.000000 
#    z 0.260580 0.000000 3.784300 
# 
# 
# High freq. dielectric constant tensor:
#      x y z
#    x 1.806870 0.000000 0.015550 
#    y 0.000000 1.816960 0.000000 
#    z 0.015550 0.000000 1.795930 
# 
# From -- ./inp_files/194611.got.cif
#   From: 2010.06.25/outbox.cif.g09.slc.cpg/sg12_98_cif.got.tgz:194611.got - 2010.06.28 00:19:55.
