data_PCOD8112074
_publ_section_title
;
Structure prediction by ZEFSAII (Michael W. Deem and Ramdas Pophale) SiO2 
 PCOD8112074
Probable space group: C 2/M
;
_chemical_formula_sum "Si O2"
_cell_formula_units_Z 64
_cell_length_a 9.106319
_cell_length_b 17.361391
_cell_length_c 29.706668
_cell_angle_alpha 90.000000
_cell_angle_beta 39.844917
_cell_angle_gamma 90.000000
_cell_volume 3009.151419
_symmetry_space_group_name_H-M "C 2/M"
_symmetry_group_IT_number 12
_symmetry_cell_setting 'monoclinic'
loop_
_space_group_symop_operation_xyz
x,y,z
-x,y,-z
-x,-y,-z
x,-y,z
1/2+x,1/2+y,z
1/2-x,1/2+y,-z
1/2-x,1/2-y,-z
1/2+x,1/2-y,z
loop_
_atom_site_type_symbol
_atom_site_label
_atom_site_fract_x
_atom_site_fract_y
_atom_site_fract_z
Si Si1 0.433072 0.340883 0.216525
Si Si2 0.752502 0.832910 0.428173
Si Si3 0.007062 0.411271 0.712051
Si Si4 0.601974 0.910026 0.928490
Si Si5 0.000085 0.910963 0.709520
Si Si6 0.604660 0.670863 0.428305
Si Si7 0.258291 0.910773 0.929499
Si Si8 0.439187 0.837113 0.210451
O O1 0.220146 0.358665 0.234267
O O2 0.665673 0.365293 0.137149
O O3 0.361510 0.389104 0.277999
O O4 0.442886 0.250670 0.225218
O O5 0.500000 0.864203 0.500000
O O6 0.725766 0.752953 0.407728
O O7 0.862969 0.894170 0.368354
O O8 0.908217 0.822601 0.436158
O O9 0.942383 0.500000 0.721421
O O10 0.197953 0.389303 0.630498
O O11 0.112883 0.393696 0.735721
O O12 0.410323 0.890997 0.936849
O O13 0.662395 0.000000 0.915794
O O14 0.500000 0.881696 0.000000
O O15 0.777887 0.856810 0.769796
O O16 0.930602 0.000000 0.726733
O O17 0.500000 0.641393 0.500000
O O18 0.330685 0.858768 0.870156
O O19 0.279943 0.000000 0.910792
O O20 0.000000 0.887145 0.000000
#
# Coordination Sequence:
#
# PCOD8112074 Si02
#       8
#     8   8   8   8   8   8   8   8
#     4  12  26  44  67 101 130 177 220 273 328 394
#     4  11  24  42  69 100 134 177 221 271 333 394
#     4  12  27  43  66 100 136 172 217 274 332 389
#     4  10  22  42  66  94 132 173 217 269 327 393
#     4  12  25  45  70  96 133 176 223 274 325 392
#     4  11  24  43  68  98 137 177 220 271 332 396
#     4  10  22  41  67  96 129 173 218 267 330 394
#     4  12  24  44  69  97 133 171 222 273 333 386
#
# _framework density 21.268453999999998
#
# number of rings (size 3 to 8) (size 9 to 14) (size 15 to 20)
#    0.000    0.750    2.500    6.000    5.250    1.000 
#    0.000    1.250    0.000    0.000    0.000    0.000 
#    0.000    0.000    0.000    0.000    0.000    0.000 
#
# Total GULP energy -396894.078640 kJ/mol
# GULP energy per Si atom -12402.939958 kJ/mol
# Density = 2.122005 g / cm^3
# Si number density = 21.268454 Si / 1000 Ang^3
#
#
#
# Elastic Constant Matrix: (Units=GPa)
#
#
# Indices 1 2 3 4 5 6 
#
# 1 85.3258 37.9138 42.8348 -0.0053 -4.3947 0.0057
# 2 37.9138 109.2968 66.6851 0.0049 1.9628 -0.0038
# 3 42.8348 66.6851 141.4987 0.0054 -0.4506 0.0021
# 4 -0.0053 0.0049 0.0054 41.9584 -0.0012 1.1173
# 5 -4.3947 1.9628 -0.4506 -0.0012 43.5639 -0.0024
# 6 0.0057 -0.0038 0.0021 1.1173 -0.0024 25.7534
#
#
#
# Elastic Compliance Matrix: (Units=1/GPa)
#
#
# Indices 1 2 3 4 5 6 
#
# 1 0.014748 -0.003402 -0.002856 0.000003 0.001612 -0.000004
# 2 -0.003402 0.013645 -0.005404 -0.000001 -0.001014 0.000003
# 3 -0.002856 -0.005404 0.010479 -0.000001 0.000064 -0.000001
# 4 0.000003 -0.000001 -0.000001 0.023861 0.000001 -0.001035
# 5 0.001612 -0.001014 0.000064 0.000001 0.023164 0.000002
# 6 -0.000004 0.000003 -0.000001 -0.001035 0.000002 0.038875
#
#
# Mechanical properties :
#
#
# Convention : Reuss Voigt Hill
#
# Bulk Modulus (GPa) = 64.31920 70.10988 67.21454
# Shear Modulus (GPa) = 32.62048 34.83432 33.72740
#
# Velocity S-wave (km/s) = 3.92056 4.05141 3.98652
# Velocity P-wave (km/s) = 7.12753 7.41088 7.27058
#
# Compressibility (1/GPa) = 0.01554746
#
# Stress axis : x y z
#
# Youngs Moduli (GPa) = 67.80385 73.28769 95.43199
#
# Poissons Ratio (x) = 0.24936 0.27256
# Poissons Ratio (y) = 0.23070 0.51569
# Poissons Ratio (z) = 0.19365 0.39603
#
# Static dielectric constant tensor:
#      x y z
#    x 3.955230 0.000000 -0.016840 
#    y 0.000000 3.587940 0.000010 
#    z -0.016840 0.000010 3.925790 
# 
# 
# High freq. dielectric constant tensor:
#      x y z
#    x 1.849770 0.000000 0.000120 
#    y 0.000000 1.822170 0.000000 
#    z 0.000120 0.000000 1.846960 
# 
# From -- ./inp_files/372955.got.cif
#   From: 2010.06.25/outbox.cif.g09.slc.cpg/sg12_187_cif.got.tgz:372955.got - 2010.06.28 00:19:55.
