data_PCOD8112518
_publ_section_title
;
Structure prediction by ZEFSAII (Michael W. Deem and Ramdas Pophale) SiO2 
 PCOD8112518
Probable space group: C 2/M
;
_chemical_formula_sum "Si O2"
_cell_formula_units_Z 64
_cell_length_a 9.765813
_cell_length_b 28.128683
_cell_length_c 14.189277
_cell_angle_alpha 90.000000
_cell_angle_beta 132.294871
_cell_angle_gamma 90.000000
_cell_volume 2883.159064
_symmetry_space_group_name_H-M "C 2/M"
_symmetry_group_IT_number 12
_symmetry_cell_setting 'monoclinic'
loop_
_space_group_symop_operation_xyz
x,y,z
-x,y,-z
-x,-y,-z
x,-y,z
1/2+x,1/2+y,z
1/2-x,1/2+y,-z
1/2-x,1/2-y,-z
1/2+x,1/2-y,z
loop_
_atom_site_type_symbol
_atom_site_label
_atom_site_fract_x
_atom_site_fract_y
_atom_site_fract_z
Si Si1 0.750114 0.804319 0.739969
Si Si2 0.140924 0.649919 0.144228
Si Si3 0.047050 0.767936 0.417237
Si Si4 0.154564 0.210017 0.892762
Si Si5 0.001119 0.878893 0.390195
Si Si6 0.700673 0.553340 0.139570
Si Si7 0.695363 0.855587 0.898747
Si Si8 0.703305 0.900152 0.621092
O O1 0.601956 0.764826 0.706928
O O2 0.796737 0.829571 0.859590
O O3 0.674870 0.844554 0.634136
O O4 0.934781 0.780873 0.776931
O O5 0.232569 0.700380 0.152202
O O6 0.299020 0.612041 0.249229
O O7 0.014934 0.662328 0.177509
O O8 0.000000 0.627935 0.000000
O O9 0.250000 0.750000 0.500000
O O10 0.000000 0.754666 0.500000
O O11 0.034040 0.823185 0.390300
O O12 0.250000 0.250000 0.000000
O O13 0.174063 0.157985 0.952151
O O14 0.000000 0.893859 0.500000
O O15 0.160755 0.906497 0.406553
O O16 0.780812 0.500000 0.170888
O O17 0.822476 0.588267 0.130641
O O18 0.707100 0.570194 0.251505
O O19 0.500000 0.555725 0.000000
O O20 0.500000 0.920365 0.500000
#
# Coordination Sequence:
#
# PCOD8112518 Si02
#       8
#     8   8   8   8   8   8   8   8
#     4  11  22  37  61  85 126 177 235 279 331 392
#     4  10  24  41  61  91 132 180 220 282 336 402
#     4  11  25  37  52  78 121 176 232 279 314 379
#     4  11  24  39  58  93 136 185 232 278 331 398
#     4  11  25  41  62  92 135 184 232 275 344 410
#     4  10  23  45  76 107 135 169 222 286 351 423
#     4  10  23  37  64  94 130 168 218 276 339 400
#     4  11  23  43  69  99 132 175 228 286 346 420
#
# _framework density 22.197872
#
# number of rings (size 3 to 8) (size 9 to 14) (size 15 to 20)
#    0.000    1.375    1.250    3.750   14.000    1.250 
#    0.000    0.000    0.000    4.500    0.000    0.000 
#    0.000    0.000    0.000    0.000    0.000    0.000 
#
# Total GULP energy -396475.628605 kJ/mol
# GULP energy per Si atom -12389.863394 kJ/mol
# Density = 2.214735 g / cm^3
# Si number density = 22.197872 Si / 1000 Ang^3
#
#
#
# Elastic Constant Matrix: (Units=GPa)
#
#
# Indices 1 2 3 4 5 6 
#
# 1 146.3122 35.0950 42.5775 0.0000 19.6748 0.0000
# 2 35.0950 96.8934 23.7961 0.0000 -1.7583 0.0000
# 3 42.5775 23.7961 138.3318 0.0000 12.2214 0.0000
# 4 0.0000 0.0000 0.0000 21.1392 0.0000 -3.4468
# 5 19.6748 -1.7583 12.2214 0.0000 39.9661 0.0000
# 6 0.0000 0.0000 0.0000 -3.4468 0.0000 18.3770
#
#
#
# Elastic Compliance Matrix: (Units=1/GPa)
#
#
# Indices 1 2 3 4 5 6 
#
# 1 0.008520 -0.002706 -0.001825 0.000000 -0.003755 0.000000
# 2 -0.002706 0.011680 -0.001377 0.000000 0.002267 0.000000
# 3 -0.001825 -0.001377 0.008174 0.000000 -0.001662 0.000000
# 4 0.000000 0.000000 0.000000 0.048798 0.000000 0.009152
# 5 -0.003755 0.002267 -0.001662 0.000000 0.027478 0.000000
# 6 0.000000 0.000000 0.000000 0.009152 0.000000 0.056132
#
#
# Mechanical properties :
#
#
# Convention : Reuss Voigt Hill
#
# Bulk Modulus (GPa) = 60.39032 64.94164 62.66598
# Shear Modulus (GPa) = 28.07148 34.56771 31.31960
#
# Velocity S-wave (km/s) = 3.55998 3.95049 3.76031
# Velocity P-wave (km/s) = 6.64549 7.08010 6.86623
#
# Compressibility (1/GPa) = 0.01655895
#
# Stress axis : x y z
#
# Youngs Moduli (GPa) = 117.37375 85.61720 122.33347
#
# Poissons Ratio (x) = 0.23166 0.22327
# Poissons Ratio (y) = 0.31759 0.16841
# Poissons Ratio (z) = 0.21422 0.11786
#
# Static dielectric constant tensor:
#      x y z
#    x 4.444020 0.000000 -0.077510 
#    y 0.000000 3.722760 0.000000 
#    z -0.077510 0.000000 4.394390 
# 
# 
# High freq. dielectric constant tensor:
#      x y z
#    x 1.892120 0.000000 -0.006890 
#    y 0.000000 1.811560 0.000000 
#    z -0.006890 0.000000 1.891960 
# 
# From -- ./inp_files/201328.got.cif
#   From: 2010.06.25/outbox.cif.g09.slc.cpg/sg12_101_cif.got.tgz:201328.got - 2010.06.28 00:19:55.
