data_PCOD8112185
_publ_section_title
;
Structure prediction by ZEFSAII (Michael W. Deem and Ramdas Pophale) SiO2 
 PCOD8112185
Probable space group: C 2/M
;
_chemical_formula_sum "Si O2"
_cell_formula_units_Z 52
_cell_length_a 9.662208
_cell_length_b 27.757948
_cell_length_c 9.420520
_cell_angle_alpha 90.000000
_cell_angle_beta 78.725320
_cell_angle_gamma 90.000000
_cell_volume 2477.851658
_symmetry_space_group_name_H-M "C 2/M"
_symmetry_group_IT_number 12
_symmetry_cell_setting 'monoclinic'
loop_
_space_group_symop_operation_xyz
x,y,z
-x,y,-z
-x,-y,-z
x,-y,z
1/2+x,1/2+y,z
1/2-x,1/2+y,-z
1/2-x,1/2-y,-z
1/2+x,1/2-y,z
loop_
_atom_site_type_symbol
_atom_site_label
_atom_site_fract_x
_atom_site_fract_y
_atom_site_fract_z
Si Si1 0.395648 0.342337 0.151380
Si Si2 0.358019 0.236936 0.099318
Si Si3 0.851302 0.500000 0.956970
Si Si4 0.000000 0.375718 0.500000
Si Si5 0.452286 0.406936 0.668882
Si Si6 0.841349 0.355752 0.271239
Si Si7 0.121207 0.401993 0.200987
Si Si8 0.435339 0.500000 0.854991
O O1 0.385607 0.285311 0.183955
O O2 0.453231 0.364272 0.285838
O O3 0.242585 0.363310 0.140680
O O4 0.500000 0.353822 0.000000
O O5 0.296201 0.194557 0.209568
O O6 0.500000 0.217427 0.000000
O O7 0.250000 0.250000 0.000000
O O8 0.831094 0.453328 0.864487
O O9 0.733802 0.500000 0.102200
O O10 0.000000 0.500000 0.000000
O O11 0.894814 0.343892 0.421820
O O12 0.901760 0.407944 0.623760
O O13 0.500000 0.417928 0.500000
O O14 0.288327 0.392525 0.704948
O O15 0.484105 0.453306 0.758907
O O16 0.972533 0.382516 0.163924
O O17 0.500000 0.500000 0.000000
#
# Coordination Sequence:
#
# PCOD8112185 Si02
#       8
#     8   8   4   4   8   8   8   4
#     4  11  23  42  67  98 133 174 223 271 329 390
#     4  11  23  39  66  99 129 171 220 268 332 386
#     4  12  24  38  65 103 122 161 223 274 324 384
#     4   8  22  43  64  88 132 174 216 247 348 370
#     4  12  25  44  67  97 133 174 224 273 328 393
#     4  10  22  43  66  93 132 170 216 271 323 391
#     4  10  22  42  65  92 132 172 215 266 328 390
#     4  12  27  45  67  96 134 176 217 268 338 395
#
# _framework density 20.985921000000001
#
# number of rings (size 3 to 8) (size 9 to 14) (size 15 to 20)
#    0.923    0.308    0.000    7.154    0.000    3.385 
#    1.385    3.077    0.000    0.000    0.000    0.000 
#    0.000    0.000    0.000    0.000    0.000    0.000 
#
# Total GULP energy -322333.391263 kJ/mol
# GULP energy per Si atom -12397.438126 kJ/mol
# Density = 2.093816 g / cm^3
# Si number density = 20.985921 Si / 1000 Ang^3
#
#
#
# Elastic Constant Matrix: (Units=GPa)
#
#
# Indices 1 2 3 4 5 6 
#
# 1 114.0745 20.3115 19.9616 0.0000 -0.7469 0.0000
# 2 20.3115 126.1463 55.8002 0.0000 -0.7882 0.0000
# 3 19.9616 55.8002 115.0141 0.0000 4.1038 0.0000
# 4 0.0000 0.0000 0.0000 25.4026 0.0000 6.1769
# 5 -0.7469 -0.7882 4.1038 0.0000 45.0088 0.0000
# 6 0.0000 0.0000 0.0000 6.1769 0.0000 28.9567
#
#
#
# Elastic Compliance Matrix: (Units=1/GPa)
#
#
# Indices 1 2 3 4 5 6 
#
# 1 0.009137 -0.000973 -0.001122 0.000000 0.000237 0.000000
# 2 -0.000973 0.010215 -0.004808 0.000000 0.000601 0.000000
# 3 -0.001122 -0.004808 0.011262 0.000000 -0.001130 0.000000
# 4 0.000000 0.000000 0.000000 0.041520 0.000000 -0.008857
# 5 0.000237 0.000601 -0.001130 0.000000 0.022335 0.000000
# 6 0.000000 0.000000 0.000000 -0.008857 0.000000 0.036424
#
#
# Mechanical properties :
#
#
# Convention : Reuss Voigt Hill
#
# Bulk Modulus (GPa) = 59.49895 60.82017 60.15956
# Shear Modulus (GPa) = 33.26613 37.15105 35.20859
#
# Velocity S-wave (km/s) = 3.98573 4.21204 4.10045
# Velocity P-wave (km/s) = 7.04236 7.25943 7.15172
#
# Compressibility (1/GPa) = 0.01680702
#
# Stress axis : x y z
#
# Youngs Moduli (GPa) = 109.44007 97.89799 88.79090
#
# Poissons Ratio (x) = 0.09530 0.09963
# Poissons Ratio (y) = 0.10654 0.42693
# Poissons Ratio (z) = 0.12280 0.47072
#
# Static dielectric constant tensor:
#      x y z
#    x 3.969660 0.000000 0.007380 
#    y 0.000000 3.796200 0.000000 
#    z 0.007380 0.000000 3.746400 
# 
# 
# High freq. dielectric constant tensor:
#      x y z
#    x 1.840710 0.000000 0.002330 
#    y 0.000000 1.815950 0.000000 
#    z 0.002330 0.000000 1.813900 
# 
# From -- ./inp_files/52641.got.cif
#   From: 2010.06.25/outbox.cif.g09.slc.cpg/sg12_27_cif.got.tgz:52641.got - 2010.06.28 00:19:55.
