data_PCOD8112840
_publ_section_title
;
Structure prediction by ZEFSAII (Michael W. Deem and Ramdas Pophale) SiO2 
 PCOD8112840
Probable space group: C 2/M
;
_chemical_formula_sum "Si O2"
_cell_formula_units_Z 40
_cell_length_a 9.544633
_cell_length_b 9.599645
_cell_length_c 21.453919
_cell_angle_alpha 90.000000
_cell_angle_beta 101.206912
_cell_angle_gamma 90.000000
_cell_volume 1928.234372
_symmetry_space_group_name_H-M "C 2/M"
_symmetry_group_IT_number 12
_symmetry_cell_setting 'monoclinic'
loop_
_space_group_symop_operation_xyz
x,y,z
-x,y,-z
-x,-y,-z
x,-y,z
1/2+x,1/2+y,z
1/2-x,1/2+y,-z
1/2-x,1/2-y,-z
1/2+x,1/2-y,z
loop_
_atom_site_type_symbol
_atom_site_label
_atom_site_fract_x
_atom_site_fract_y
_atom_site_fract_z
Si Si1 0.455759 0.235962 0.851187
Si Si2 0.619040 0.000000 0.062175
Si Si3 0.237325 0.161847 0.436373
Si Si4 0.988282 0.339570 0.363539
Si Si5 0.441145 0.500000 0.064297
Si Si6 0.819768 0.341253 0.229078
O O1 0.504117 0.371020 0.891783
O O2 0.329285 0.261166 0.790770
O O3 0.588422 0.171328 0.825902
O O4 0.394459 0.134698 0.897286
O O5 0.771422 0.000000 0.041892
O O6 0.500000 0.000000 0.000000
O O7 0.250000 0.250000 0.500000
O O8 0.389223 0.168223 0.415667
O O9 0.119915 0.234751 0.382646
O O10 0.196034 0.000000 0.446355
O O11 0.040402 0.500000 0.358253
O O12 0.903939 0.282072 0.295939
O O13 0.500000 0.500000 0.000000
O O14 0.781134 0.500000 0.238865
#
# Coordination Sequence:
#
# PCOD8112840 Si02
#       6
#     8   4   8   8   4   8
#     4  12  24  44  67  95 127 169 215 264 328 383
#     4  12  28  44  66  98 130 164 219 267 318 390
#     4  11  23  41  65  96 133 174 218 265 317 379
#     4  10  23  42  63  95 129 171 216 265 322 379
#     4  12  28  44  68  96 128 172 213 267 322 390
#     4  11  23  42  68  94 129 167 213 270 322 382
#
# _framework density 20.744367
#
# number of rings (size 3 to 8) (size 9 to 14) (size 15 to 20)
#    0.000    0.800    4.000    3.000    2.800    5.600 
#    3.600    0.000    0.000    0.000    0.000    0.000 
#    0.000    0.000    0.000    0.000    0.000    0.000 
#
# Total GULP energy -248088.828288 kJ/mol
# GULP energy per Si atom -12404.441414 kJ/mol
# Density = 2.069715 g / cm^3
# Si number density = 20.744367 Si / 1000 Ang^3
#
#
#
# Elastic Constant Matrix: (Units=GPa)
#
#
# Indices 1 2 3 4 5 6 
#
# 1 79.1705 23.3173 7.1791 0.0000 10.1380 0.0000
# 2 23.3173 115.1853 29.0604 0.0000 16.5244 0.0000
# 3 7.1791 29.0604 100.1993 0.0000 15.5011 0.0000
# 4 0.0000 0.0000 0.0000 40.5767 0.0000 1.8488
# 5 10.1380 16.5244 15.5011 0.0000 46.6593 0.0000
# 6 0.0000 0.0000 0.0000 1.8488 0.0000 28.7292
#
#
#
# Elastic Compliance Matrix: (Units=1/GPa)
#
#
# Indices 1 2 3 4 5 6 
#
# 1 0.013623 -0.002472 0.000067 0.000000 -0.002107 0.000000
# 2 -0.002472 0.010112 -0.002408 0.000000 -0.002244 0.000000
# 3 0.000067 -0.002408 0.011115 0.000000 -0.002854 0.000000
# 4 0.000000 0.000000 0.000000 0.024717 0.000000 -0.001591
# 5 -0.002107 -0.002244 -0.002854 0.000000 0.023633 0.000000
# 6 0.000000 0.000000 0.000000 -0.001591 0.000000 0.034910
#
#
# Mechanical properties :
#
#
# Convention : Reuss Voigt Hill
#
# Bulk Modulus (GPa) = 39.64778 45.96321 42.80549
# Shear Modulus (GPa) = 36.72561 38.85961 37.79261
#
# Velocity S-wave (km/s) = 4.21216 4.33281 4.27291
# Velocity P-wave (km/s) = 6.54297 6.87285 6.70994
#
# Compressibility (1/GPa) = 0.02522209
#
# Stress axis : x y z
#
# Youngs Moduli (GPa) = 73.40626 98.89571 89.96531
#
# Poissons Ratio (x) = 0.24451 -0.00602
# Poissons Ratio (y) = 0.18149 0.21667
# Poissons Ratio (z) = -0.00491 0.23818
#
# Static dielectric constant tensor:
#      x y z
#    x 3.853620 0.000000 0.096120 
#    y 0.000000 3.908930 0.000000 
#    z 0.096120 0.000000 4.391750 
# 
# 
# High freq. dielectric constant tensor:
#      x y z
#    x 1.819520 0.000000 0.004280 
#    y 0.000000 1.818620 0.000000 
#    z 0.004280 0.000000 1.827660 
# 
# From -- ./inp_files/331769.got.cif
#   From: 2010.06.25/outbox.cif.g09.slc.cpg/sg12_166_cif.got.tgz:331769.got - 2010.06.28 00:19:55.
