data_PCOD8112146
_publ_section_title
;
Structure prediction by ZEFSAII (Michael W. Deem and Ramdas Pophale) SiO2 
 PCOD8112146
Probable space group: C 2/M
;
_chemical_formula_sum "Si O2"
_cell_formula_units_Z 64
_cell_length_a 15.400519
_cell_length_b 8.873695
_cell_length_c 33.058236
_cell_angle_alpha 90.000000
_cell_angle_beta 45.641954
_cell_angle_gamma 90.000000
_cell_volume 3230.102791
_symmetry_space_group_name_H-M "C 2/M"
_symmetry_group_IT_number 12
_symmetry_cell_setting 'monoclinic'
loop_
_space_group_symop_operation_xyz
x,y,z
-x,y,-z
-x,-y,-z
x,-y,z
1/2+x,1/2+y,z
1/2-x,1/2+y,-z
1/2-x,1/2-y,-z
1/2+x,1/2-y,z
loop_
_atom_site_type_symbol
_atom_site_label
_atom_site_fract_x
_atom_site_fract_y
_atom_site_fract_z
Si Si1 0.705779 0.172664 0.054905
Si Si2 0.623887 0.822200 0.938962
Si Si3 0.549988 0.828842 0.826124
Si Si4 0.012879 0.675882 0.244333
Si Si5 0.562136 0.178274 0.439522
Si Si6 0.833850 0.178070 0.364262
Si Si7 0.364543 0.179206 0.440390
Si Si8 0.790653 0.175143 0.166863
O O1 0.763182 0.249616 0.075141
O O2 0.561699 0.188222 0.106408
O O3 0.746635 0.000000 0.040288
O O4 0.750000 0.250000 0.000000
O O5 0.629213 0.768794 0.891115
O O6 0.634684 0.000000 0.937802
O O7 0.500000 0.765765 0.000000
O O8 0.510085 0.779740 0.794506
O O9 0.658698 0.720640 0.805495
O O10 0.597402 0.000000 0.810350
O O11 0.987451 0.500000 0.260977
O O12 0.150140 0.719094 0.210610
O O13 0.927076 0.779107 0.299117
O O14 0.500000 0.247191 0.500000
O O15 0.701123 0.235033 0.392816
O O16 0.486891 0.229693 0.424417
O O17 0.559946 0.000000 0.443179
O O18 0.874517 0.260360 0.391869
O O19 0.834686 0.000000 0.371756
O O20 0.250000 0.250000 0.500000
O O21 0.350193 0.000000 0.444887
O O22 0.809640 0.000000 0.152009
#
# Coordination Sequence:
#
# PCOD8112146 Si02
#       8
#     8   8   8   8   8   8   8   8
#     4  11  22  38  59  88 124 160 200 252 311 373
#     4  11  23  38  58  88 124 160 201 254 313 369
#     4  10  22  42  64  87 122 162 202 254 311 364
#     4  10  23  45  64  85 124 166 203 252 310 361
#     4   9  18  36  60  86 123 163 197 241 299 357
#     4  11  23  40  63  92 122 160 210 253 298 363
#     4  11  21  37  62  91 126 165 203 250 306 361
#     4  11  23  41  65  91 120 161 208 253 309 375
#
# _framework density 19.813611999999999
#
# number of rings (size 3 to 8) (size 9 to 14) (size 15 to 20)
#    0.000    1.500    2.500    2.625    0.000    7.500 
#    0.000    6.875    0.000    0.000    0.000    0.000 
#    0.000    0.000    0.000    0.000    0.000    0.000 
#
# Total GULP energy -396910.971234 kJ/mol
# GULP energy per Si atom -12403.467851 kJ/mol
# Density = 1.976852 g / cm^3
# Si number density = 19.813612 Si / 1000 Ang^3
#
#
#
# Elastic Constant Matrix: (Units=GPa)
#
#
# Indices 1 2 3 4 5 6 
#
# 1 163.8535 49.7499 53.2994 0.0009 -2.3858 0.0018
# 2 49.7499 71.8395 41.9755 0.0019 -4.8685 0.0029
# 3 53.2994 41.9755 112.8362 0.0003 -2.9860 0.0004
# 4 0.0009 0.0019 0.0003 35.8706 0.0002 3.2055
# 5 -2.3858 -4.8685 -2.9860 0.0002 27.7943 0.0005
# 6 0.0018 0.0029 0.0004 3.2055 0.0005 35.8896
#
#
#
# Elastic Compliance Matrix: (Units=1/GPa)
#
#
# Indices 1 2 3 4 5 6 
#
# 1 0.008149 -0.004357 -0.002236 0.000000 -0.000304 0.000000
# 2 -0.004357 0.020278 -0.005417 -0.000001 0.002596 -0.000001
# 3 -0.002236 -0.005417 0.011938 0.000000 0.000142 0.000000
# 4 0.000000 -0.000001 0.000000 0.028102 0.000000 -0.002510
# 5 -0.000304 0.002596 0.000142 0.000000 0.036423 -0.000001
# 6 0.000000 -0.000001 0.000000 -0.002510 -0.000001 0.028087
#
#
# Mechanical properties :
#
#
# Convention : Reuss Voigt Hill
#
# Bulk Modulus (GPa) = 61.18388 70.95321 66.06855
# Shear Modulus (GPa) = 30.77951 33.47785 32.12868
#
# Velocity S-wave (km/s) = 3.94566 4.11498 4.03121
# Velocity P-wave (km/s) = 7.19058 7.64627 7.42192
#
# Compressibility (1/GPa) = 0.01634417
#
# Stress axis : x y z
#
# Youngs Moduli (GPa) = 122.71425 49.31401 83.76897
#
# Poissons Ratio (x) = 0.21487 0.18734
# Poissons Ratio (y) = 0.53469 0.45375
# Poissons Ratio (z) = 0.27444 0.26712
#
# Static dielectric constant tensor:
#      x y z
#    x 3.910960 0.000000 0.017510 
#    y 0.000000 3.498790 0.000000 
#    z 0.017510 0.000000 3.573840 
# 
# 
# High freq. dielectric constant tensor:
#      x y z
#    x 1.790250 0.000000 0.002590 
#    y 0.000000 1.765420 0.000000 
#    z 0.002590 0.000000 1.769200 
# 
# From -- ./inp_files/375427.got.cif
#   From: 2010.06.25/outbox.cif.g09.slc.cpg/sg12_188_cif.got.tgz:375427.got - 2010.06.28 00:19:55.
