data_PCOD8112179
_publ_section_title
;
Structure prediction by ZEFSAII (Michael W. Deem and Ramdas Pophale) SiO2 
 PCOD8112179
Probable space group: C 2/M
;
_chemical_formula_sum "Si O2"
_cell_formula_units_Z 64
_cell_length_a 19.740153
_cell_length_b 8.927350
_cell_length_c 32.699616
_cell_angle_alpha 90.000000
_cell_angle_beta 146.510165
_cell_angle_gamma 90.000000
_cell_volume 3179.719386
_symmetry_space_group_name_H-M "C 2/M"
_symmetry_group_IT_number 12
_symmetry_cell_setting 'monoclinic'
loop_
_space_group_symop_operation_xyz
x,y,z
-x,y,-z
-x,-y,-z
x,-y,z
1/2+x,1/2+y,z
1/2-x,1/2+y,-z
1/2-x,1/2-y,-z
1/2+x,1/2-y,z
loop_
_atom_site_type_symbol
_atom_site_label
_atom_site_fract_x
_atom_site_fract_y
_atom_site_fract_z
Si Si1 0.966672 0.671177 0.277894
Si Si2 0.990812 0.669978 0.043531
Si Si3 0.220634 0.827072 0.286233
Si Si4 0.748168 0.175373 0.214689
Si Si5 0.260206 0.324643 0.961702
Si Si6 0.355226 0.325116 0.429141
Si Si7 0.037472 0.828075 0.806727
Si Si8 0.775571 0.669529 0.554920
O O1 0.941236 0.500000 0.252337
O O2 0.845996 0.738216 0.236978
O O3 0.006590 0.766069 0.258764
O O4 0.079140 0.682854 0.365615
O O5 0.952361 0.500000 0.035469
O O6 0.117012 0.712694 0.129154
O O7 0.890892 0.786727 0.008407
O O8 0.000000 0.688951 0.000000
O O9 0.258221 0.731002 0.266045
O O10 0.292944 0.767339 0.361711
O O11 0.074488 0.810047 0.218223
O O12 0.256439 0.000000 0.297306
O O13 0.777380 0.000000 0.228135
O O14 0.247373 0.500000 0.960699
O O15 0.153207 0.267373 0.878745
O O16 0.250000 0.250000 0.000000
O O17 0.500000 0.297171 0.500000
O O18 0.321516 0.500000 0.406700
O O19 0.301643 0.264448 0.445467
O O20 0.078378 0.000000 0.823144
O O21 0.732459 0.500000 0.527637
O O22 0.750000 0.750000 0.500000
#
# Coordination Sequence:
#
# PCOD8112179 Si02
#       8
#     8   8   8   8   8   8   8   8
#     4  11  23  41  64  93 127 164 209 260 309 366
#     4  10  22  42  65  91 125 164 210 261 315 376
#     4  11  24  41  63  92 126 165 210 262 311 370
#     4  11  24  40  63  92 126 169 210 259 316 373
#     4  12  25  40  63  93 126 164 207 259 313 371
#     4  10  22  42  66  93 125 165 208 253 308 373
#     4  11  23  41  65  92 124 164 208 256 312 375
#     4  10  23  41  63  93 129 165 206 255 307 368
#
# _framework density 20.127562999999999
#
# number of rings (size 3 to 8) (size 9 to 14) (size 15 to 20)
#    0.000    1.250    1.250    4.125    1.750    7.500 
#    0.000    0.000    0.000    0.000    0.000    0.000 
#    0.000    0.000    0.000    0.000    0.000    0.000 
#
# Total GULP energy -396969.787650 kJ/mol
# GULP energy per Si atom -12405.305864 kJ/mol
# Density = 2.008175 g / cm^3
# Si number density = 20.127563 Si / 1000 Ang^3
#
#
#
# Elastic Constant Matrix: (Units=GPa)
#
#
# Indices 1 2 3 4 5 6 
#
# 1 62.4493 37.6883 22.0290 0.0001 -2.9956 -0.0002
# 2 37.6883 112.9726 42.8890 -0.0001 6.0105 -0.0003
# 3 22.0290 42.8890 90.2433 0.0000 -4.8762 0.0000
# 4 0.0001 -0.0001 0.0000 35.0453 0.0000 -2.6170
# 5 -2.9956 6.0105 -4.8762 0.0000 38.2468 0.0000
# 6 -0.0002 -0.0003 0.0000 -2.6170 0.0000 36.5524
#
#
#
# Elastic Compliance Matrix: (Units=1/GPa)
#
#
# Indices 1 2 3 4 5 6 
#
# 1 0.020583 -0.006262 -0.001921 0.000000 0.002351 0.000000
# 2 -0.006262 0.012923 -0.004782 0.000000 -0.003131 0.000000
# 3 -0.001921 -0.004782 0.013952 0.000000 0.002380 0.000000
# 4 0.000000 0.000000 0.000000 0.028688 0.000000 0.002054
# 5 0.002351 -0.003131 0.002380 0.000000 0.027126 0.000000
# 6 0.000000 0.000000 0.000000 0.002054 0.000000 0.027505
#
#
# Mechanical properties :
#
#
# Convention : Reuss Voigt Hill
#
# Bulk Modulus (GPa) = 46.45573 52.31975 49.38774
# Shear Modulus (GPa) = 30.50969 32.83951 31.67460
#
# Velocity S-wave (km/s) = 3.89757 4.04365 3.97128
# Velocity P-wave (km/s) = 6.58677 6.91751 6.75417
#
# Compressibility (1/GPa) = 0.02152587
#
# Stress axis : x y z
#
# Youngs Moduli (GPa) = 48.58440 77.38158 71.67670
#
# Poissons Ratio (x) = 0.48458 0.13770
# Poissons Ratio (y) = 0.30425 0.34278
# Poissons Ratio (z) = 0.09334 0.37006
#
# Static dielectric constant tensor:
#      x y z
#    x 3.634000 0.000000 0.024010 
#    y 0.000000 3.761530 0.000000 
#    z 0.024010 0.000000 3.622390 
# 
# 
# High freq. dielectric constant tensor:
#      x y z
#    x 1.798920 0.000000 -0.000470 
#    y 0.000000 1.791310 0.000000 
#    z -0.000470 0.000000 1.797130 
# 
# From -- ./inp_files/378294.got.cif
#   From: 2010.06.25/outbox.cif.g09.slc.cpg/sg12_190_cif.got.tgz:378294.got - 2010.06.28 00:19:55.
