data_PCOD8112439
_publ_section_title
;
Structure prediction by ZEFSAII (Michael W. Deem and Ramdas Pophale) SiO2 
 PCOD8112439
Probable space group: C 2/M
;
_chemical_formula_sum "Si O2"
_cell_formula_units_Z 52
_cell_length_a 11.775255
_cell_length_b 22.463347
_cell_length_c 12.325858
_cell_angle_alpha 90.000000
_cell_angle_beta 51.537400
_cell_angle_gamma 90.000000
_cell_volume 2552.887411
_symmetry_space_group_name_H-M "C 2/M"
_symmetry_group_IT_number 12
_symmetry_cell_setting 'monoclinic'
loop_
_space_group_symop_operation_xyz
x,y,z
-x,y,-z
-x,-y,-z
x,-y,z
1/2+x,1/2+y,z
1/2-x,1/2+y,-z
1/2-x,1/2-y,-z
1/2+x,1/2-y,z
loop_
_atom_site_type_symbol
_atom_site_label
_atom_site_fract_x
_atom_site_fract_y
_atom_site_fract_z
Si Si1 0.372342 0.568683 0.789990
Si Si2 0.092651 0.069221 0.846508
Si Si3 0.851590 0.329253 0.025771
Si Si4 0.123279 0.265564 0.209050
Si Si5 0.849641 0.360611 0.631450
Si Si6 0.500000 0.380665 0.500000
Si Si7 0.849094 0.194690 0.420896
O O1 0.323835 0.500000 0.833002
O O2 0.512497 0.583539 0.780496
O O3 0.240764 0.610544 0.905801
O O4 0.417570 0.579414 0.638204
O O5 0.256391 0.094407 0.760274
O O6 0.109729 0.000000 0.855066
O O7 0.000000 0.097652 0.000000
O O8 0.772821 0.270981 0.120902
O O9 0.883861 0.315256 0.880664
O O10 0.000000 0.339498 0.000000
O O11 0.109893 0.299793 0.330753
O O12 0.995974 0.216620 0.273982
O O13 0.740775 0.350491 0.597737
O O14 0.000000 0.389775 0.500000
O O15 0.618275 0.338210 0.485703
O O16 0.750000 0.250000 0.500000
#
# Coordination Sequence:
#
# PCOD8112439 Si02
#       7
#     8   8   8   8   8   4   8
#     4  11  24  43  66  94 125 173 227 270 323 390
#     4  10  22  44  69  90 124 173 223 271 323 391
#     4  11  24  40  63  92 129 169 215 271 322 394
#     4  11  23  40  62  93 129 170 212 263 331 402
#     4  12  23  37  63  97 129 164 210 273 326 389
#     4  12  23  42  68  94 132 174 217 270 322 398
#     4  12  23  39  64  95 128 172 208 259 323 398
#
# _framework density 20.369092999999999
#
# number of rings (size 3 to 8) (size 9 to 14) (size 15 to 20)
#    0.000    0.769    4.615    3.000    2.154    3.692 
#    0.000    0.000    0.000    0.000    0.000    0.000 
#    0.000    0.000    0.000    0.000    0.000    0.000 
#
# Total GULP energy -322428.476830 kJ/mol
# GULP energy per Si atom -12401.095263 kJ/mol
# Density = 2.032273 g / cm^3
# Si number density = 20.369093 Si / 1000 Ang^3
#
#
#
# Elastic Constant Matrix: (Units=GPa)
#
#
# Indices 1 2 3 4 5 6 
#
# 1 115.1362 52.3019 53.3482 0.0000 -10.4902 0.0000
# 2 52.3019 87.9855 39.5580 0.0000 -8.2892 0.0000
# 3 53.3482 39.5580 122.9687 0.0000 -10.0141 0.0000
# 4 0.0000 0.0000 0.0000 39.8652 0.0000 -2.2098
# 5 -10.4902 -8.2892 -10.0141 0.0000 41.5081 0.0000
# 6 0.0000 0.0000 0.0000 -2.2098 0.0000 30.6854
#
#
#
# Elastic Compliance Matrix: (Units=1/GPa)
#
#
# Indices 1 2 3 4 5 6 
#
# 1 0.013293 -0.006123 -0.003696 0.000000 0.001245 0.000000
# 2 -0.006123 0.016220 -0.002472 0.000000 0.001095 0.000000
# 3 -0.003696 -0.002472 0.010623 0.000000 0.001135 0.000000
# 4 0.000000 0.000000 0.000000 0.025185 0.000000 0.001814
# 5 0.001245 0.001095 0.001135 0.000000 0.024899 0.000000
# 6 0.000000 0.000000 0.000000 0.001814 0.000000 0.032719
#
#
# Mechanical properties :
#
#
# Convention : Reuss Voigt Hill
#
# Bulk Modulus (GPa) = 64.29198 68.50074 66.39636
# Shear Modulus (GPa) = 32.74281 34.47056 33.60668
#
# Velocity S-wave (km/s) = 4.01368 4.11822 4.06629
# Velocity P-wave (km/s) = 7.28777 7.50438 7.39687
#
# Compressibility (1/GPa) = 0.01555404
#
# Stress axis : x y z
#
# Youngs Moduli (GPa) = 75.23024 61.65298 94.13288
#
# Poissons Ratio (x) = 0.37748 0.34789
# Poissons Ratio (y) = 0.46061 0.23273
# Poissons Ratio (z) = 0.27803 0.15243
#
# Static dielectric constant tensor:
#      x y z
#    x 3.726080 0.000000 -0.095070 
#    y 0.000000 3.330190 0.000000 
#    z -0.095070 0.000000 4.300540 
# 
# 
# High freq. dielectric constant tensor:
#      x y z
#    x 1.798850 0.000000 0.001390 
#    y 0.000000 1.791920 0.000000 
#    z 0.001390 0.000000 1.804540 
# 
# From -- ./inp_files/135846.got.cif
#   From: 2010.06.25/outbox.cif.g09.slc.cpg/sg12_68_cif.got.tgz:135846.got - 2010.06.28 00:19:55.
