data_PCOD8112487
_publ_section_title
;
Structure prediction by ZEFSAII (Michael W. Deem and Ramdas Pophale) SiO2 
 PCOD8112487
Probable space group: C 2/M
;
_chemical_formula_sum "Si O2"
_cell_formula_units_Z 36
_cell_length_a 23.964643
_cell_length_b 10.582101
_cell_length_c 13.433229
_cell_angle_alpha 90.000000
_cell_angle_beta 28.929263
_cell_angle_gamma 90.000000
_cell_volume 1647.880877
_symmetry_space_group_name_H-M "C 2/M"
_symmetry_group_IT_number 12
_symmetry_cell_setting 'monoclinic'
loop_
_space_group_symop_operation_xyz
x,y,z
-x,y,-z
-x,-y,-z
x,-y,z
1/2+x,1/2+y,z
1/2-x,1/2+y,-z
1/2-x,1/2-y,-z
1/2+x,1/2-y,z
loop_
_atom_site_type_symbol
_atom_site_label
_atom_site_fract_x
_atom_site_fract_y
_atom_site_fract_z
Si Si1 0.366873 0.500000 0.735229
Si Si2 0.138327 0.228953 0.561282
Si Si3 0.619465 0.238744 0.368832
Si Si4 0.506646 0.500000 0.870089
Si Si5 0.118560 0.642226 0.781465
Si Si6 0.283986 0.500000 0.087017
O O1 0.500000 0.500000 0.500000
O O2 0.317420 0.369599 0.764960
O O3 0.349715 0.500000 0.879687
O O4 0.081290 0.250705 0.543709
O O5 0.128568 0.352884 0.645729
O O6 0.274200 0.207016 0.331089
O O7 0.077839 0.118701 0.718130
O O8 0.500000 0.211722 0.500000
O O9 0.706190 0.124423 0.215638
O O10 0.500000 0.500000 0.000000
O O11 0.376764 0.500000 0.030481
O O12 0.116260 0.500000 0.822919
O O13 0.000000 0.711158 0.000000
#
# Coordination Sequence:
#
# PCOD8112487 Si02
#       6
#     4   8   8   4   8   4
#     4  10  22  47  71  96 134 181 222 279 340 414
#     4  11  24  42  69  97 141 177 222 281 342 406
#     4  11  25  46  71 101 139 178 228 287 348 406
#     4  12  26  43  70 100 139 185 233 274 347 420
#     4  10  23  43  66  98 135 178 224 272 337 405
#     4  12  27  44  74 102 133 179 238 284 341 411
#
# _framework density 21.846240000000002
#
# number of rings (size 3 to 8) (size 9 to 14) (size 15 to 20)
#    0.000    1.111    1.111    5.000   10.889    0.000 
#    0.000    0.000    0.000    0.000    0.000    0.000 
#    0.000    0.000    0.000    0.000    0.000    0.000 
#
# Total GULP energy -223155.545951 kJ/mol
# GULP energy per Si atom -12397.530331 kJ/mol
# Density = 2.179652 g / cm^3
# Si number density = 21.846240 Si / 1000 Ang^3
#
#
#
# Elastic Constant Matrix: (Units=GPa)
#
#
# Indices 1 2 3 4 5 6 
#
# 1 165.4647 28.9652 70.2082 0.0000 7.3528 0.0000
# 2 28.9652 114.6500 46.7073 0.0000 -8.2810 0.0000
# 3 70.2082 46.7073 141.2917 0.0000 -5.0002 0.0000
# 4 0.0000 0.0000 0.0000 169.4919 0.0000 90.8889
# 5 7.3528 -8.2810 -5.0002 0.0000 49.7777 0.0000
# 6 0.0000 0.0000 0.0000 90.8889 0.0000 66.3532
#
#
#
# Elastic Compliance Matrix: (Units=1/GPa)
#
#
# Indices 1 2 3 4 5 6 
#
# 1 0.007805 -0.000561 -0.003750 0.000000 -0.001623 0.000000
# 2 -0.000561 0.010211 -0.003044 0.000000 0.001476 0.000000
# 3 -0.003750 -0.003044 0.009985 0.000000 0.001050 0.000000
# 4 0.000000 0.000000 0.000000 0.022225 0.000000 -0.030443
# 5 -0.001623 0.001476 0.001050 0.000000 0.020680 0.000000
# 6 0.000000 0.000000 0.000000 -0.030443 0.000000 0.056771
#
#
# Mechanical properties :
#
#
# Convention : Reuss Voigt Hill
#
# Bulk Modulus (GPa) = 75.25096 79.24087 77.24591
# Shear Modulus (GPa) = 34.05571 75.49293 54.77432
#
# Velocity S-wave (km/s) = 3.95255 5.88485 5.01269
# Velocity P-wave (km/s) = 7.43981 9.08439 8.30292
#
# Compressibility (1/GPa) = 0.01328887
#
# Stress axis : x y z
#
# Youngs Moduli (GPa) = 128.11850 97.93546 100.15368
#
# Poissons Ratio (x) = 0.05497 0.37561
# Poissons Ratio (y) = 0.07191 0.30490
# Poissons Ratio (z) = 0.48049 0.29814
#
# Static dielectric constant tensor:
#      x y z
#    x 3.978610 0.000000 0.033950 
#    y 0.000000 4.354490 0.000000 
#    z 0.033950 0.000000 4.100680 
# 
# 
# High freq. dielectric constant tensor:
#      x y z
#    x 1.859070 0.000000 0.004110 
#    y 0.000000 1.869030 0.000000 
#    z 0.004110 0.000000 1.866970 
# 
# From -- ./inp_files/175064.got.cif
#   From: 2010.06.25/outbox.cif.g09.slc.cpg/sg12_88_cif.got.tgz:175064.got - 2010.06.28 00:19:55.
