data_PCOD8112309
_publ_section_title
;
Structure prediction by ZEFSAII (Michael W. Deem and Ramdas Pophale) SiO2 
 PCOD8112309
Probable space group: C 2/M
;
_chemical_formula_sum "Si O2"
_cell_formula_units_Z 44
_cell_length_a 9.210540
_cell_length_b 17.126394
_cell_length_c 16.827788
_cell_angle_alpha 90.000000
_cell_angle_beta 50.371363
_cell_angle_gamma 90.000000
_cell_volume 2044.459446
_symmetry_space_group_name_H-M "C 2/M"
_symmetry_group_IT_number 12
_symmetry_cell_setting 'monoclinic'
loop_
_space_group_symop_operation_xyz
x,y,z
-x,y,-z
-x,-y,-z
x,-y,z
1/2+x,1/2+y,z
1/2-x,1/2+y,-z
1/2-x,1/2-y,-z
1/2+x,1/2-y,z
loop_
_atom_site_type_symbol
_atom_site_label
_atom_site_fract_x
_atom_site_fract_y
_atom_site_fract_z
Si Si1 0.599485 0.840072 0.263257
Si Si2 0.729869 0.500000 0.019650
Si Si3 0.539983 0.410847 0.397933
Si Si4 0.126473 0.410465 0.527598
Si Si5 0.000000 0.374467 0.000000
Si Si6 0.795259 0.000000 0.159341
Si Si7 0.155564 0.695926 0.788646
O O1 0.416845 0.853397 0.383048
O O2 0.702228 0.922533 0.225143
O O3 0.748095 0.780197 0.249152
O O4 0.527524 0.806850 0.204175
O O5 0.509185 0.500000 0.116749
O O6 0.832193 0.424672 0.020136
O O7 0.741397 0.500000 0.921306
O O8 0.500000 0.376770 0.500000
O O9 0.610077 0.500000 0.380982
O O10 0.340966 0.402652 0.422429
O O11 0.696919 0.368352 0.292161
O O12 0.082758 0.500000 0.566906
O O13 0.000000 0.381073 0.500000
O O14 0.909349 0.320206 0.099008
#
# Coordination Sequence:
#
# PCOD8112309 Si02
#       7
#     8   4   8   8   4   4   8
#     4  12  27  47  72 104 146 190 233 299 359 429
#     4  10  24  44  76 107 126 196 245 297 337 426
#     4  10  22  42  72 102 139 189 236 286 353 429
#     4  10  22  42  70 103 141 184 237 293 349 424
#     4  11  26  48  72 109 148 180 246 299 354 416
#     4  11  24  48  77  98 142 188 247 283 362 426
#     4  12  29  45  71 106 149 190 235 303 362 419
#
# _framework density 21.521581999999999
#
# number of rings (size 3 to 8) (size 9 to 14) (size 15 to 20)
#    0.000    1.091    4.545    0.000    8.909    3.636 
#    0.000    0.000    0.000    0.000    0.000    0.000 
#    0.000    0.000    0.000    0.000    0.000    0.000 
#
# Total GULP energy -272821.967777 kJ/mol
# GULP energy per Si atom -12400.998535 kJ/mol
# Density = 2.147260 g / cm^3
# Si number density = 21.521582 Si / 1000 Ang^3
#
#
#
# Elastic Constant Matrix: (Units=GPa)
#
#
# Indices 1 2 3 4 5 6 
#
# 1 116.1746 29.8363 24.0365 0.0000 -7.1774 0.0000
# 2 29.8363 107.3522 39.8497 0.0000 -6.4026 0.0000
# 3 24.0365 39.8497 113.6540 -0.0002 1.1596 0.0001
# 4 0.0000 0.0000 -0.0002 39.2833 0.0001 -3.7904
# 5 -7.1774 -6.4026 1.1596 0.0001 30.5872 0.0000
# 6 0.0000 0.0000 0.0001 -3.7904 0.0000 27.5029
#
#
#
# Elastic Compliance Matrix: (Units=1/GPa)
#
#
# Indices 1 2 3 4 5 6 
#
# 1 0.009520 -0.002047 -0.001314 0.000000 0.001855 0.000000
# 2 -0.002047 0.011326 -0.003559 0.000000 0.002025 0.000000
# 3 -0.001314 -0.003559 0.010339 0.000000 -0.001445 0.000000
# 4 0.000000 0.000000 0.000000 0.025799 0.000000 0.003556
# 5 0.001855 0.002025 -0.001445 0.000000 0.033607 0.000000
# 6 0.000000 0.000000 0.000000 0.003556 0.000000 0.036850
#
#
# Mechanical properties :
#
#
# Convention : Reuss Voigt Hill
#
# Bulk Modulus (GPa) = 57.65677 58.29176 57.97427
# Shear Modulus (GPa) = 33.99873 35.70525 34.85199
#
# Velocity S-wave (km/s) = 3.97892 4.07756 4.02854
# Velocity P-wave (km/s) = 6.92513 7.02230 6.97388
#
# Compressibility (1/GPa) = 0.01734402
#
# Stress axis : x y z
#
# Youngs Moduli (GPa) = 105.04077 88.29247 96.71941
#
# Poissons Ratio (x) = 0.18076 0.12714
# Poissons Ratio (y) = 0.21505 0.34421
# Poissons Ratio (z) = 0.13807 0.31422
#
# Static dielectric constant tensor:
#      x y z
#    x 4.139820 0.000000 -0.032800 
#    y 0.000000 3.712700 0.000000 
#    z -0.032800 0.000000 3.884020 
# 
# 
# High freq. dielectric constant tensor:
#      x y z
#    x 1.862310 0.000000 -0.004740 
#    y 0.000000 1.834590 0.000000 
#    z -0.004740 0.000000 1.845870 
# 
# From -- ./inp_files/197284.got.cif
#   From: 2010.06.25/outbox.cif.g09.slc.cpg/sg12_99_cif.got.tgz:197284.got - 2010.06.28 00:19:55.
