data_PCOD8112871
_publ_section_title
;
Structure prediction by ZEFSAII (Michael W. Deem and Ramdas Pophale) SiO2 
 PCOD8112871
Probable space group: C 2/M
;
_chemical_formula_sum "Si O2"
_cell_formula_units_Z 40
_cell_length_a 18.998303
_cell_length_b 8.717663
_cell_length_c 28.308160
_cell_angle_alpha 90.000000
_cell_angle_beta 24.122518
_cell_angle_gamma 90.000000
_cell_volume 1916.106627
_symmetry_space_group_name_H-M "C 2/M"
_symmetry_group_IT_number 12
_symmetry_cell_setting 'monoclinic'
loop_
_space_group_symop_operation_xyz
x,y,z
-x,y,-z
-x,-y,-z
x,-y,z
1/2+x,1/2+y,z
1/2-x,1/2+y,-z
1/2-x,1/2-y,-z
1/2+x,1/2-y,z
loop_
_atom_site_type_symbol
_atom_site_label
_atom_site_fract_x
_atom_site_fract_y
_atom_site_fract_z
Si Si1 0.991173 0.325352 0.952754
Si Si2 0.658750 0.325241 0.099902
Si Si3 0.289615 0.180155 0.712999
Si Si4 0.296196 0.180192 0.331620
Si Si5 0.633109 0.319322 0.530728
O O1 0.060481 0.500000 0.908063
O O2 0.104448 0.224027 0.847898
O O3 0.790944 0.318663 0.062132
O O4 0.000000 0.257799 0.000000
O O5 0.604190 0.500000 0.121570
O O6 0.493991 0.227485 0.214887
O O7 0.750000 0.250000 0.000000
O O8 0.299695 0.237326 0.652886
O O9 0.439071 0.255911 0.653201
O O10 0.314083 0.000000 0.699204
O O11 0.205788 0.230524 0.435342
O O12 0.282646 0.000000 0.330895
O O13 0.631024 0.500000 0.538590
O O14 0.750000 0.250000 0.500000
#
# Coordination Sequence:
#
# PCOD8112871 Si02
#       5
#     8   8   8   8   8
#     4  10  23  42  64  93 129 172 213 259 318 376
#     4  11  22  38  64  96 130 167 209 260 315 377
#     4  12  25  42  67  97 128 168 216 264 317 378
#     4  11  24  43  67  94 128 170 214 264 318 375
#     4  11  26  46  68  95 129 167 211 264 322 379
#
# _framework density 20.875664
#
# number of rings (size 3 to 8) (size 9 to 14) (size 15 to 20)
#    0.000    1.000    2.000    4.200    2.800    6.800 
#    0.000    0.000    0.000    0.000    0.000    0.000 
#    0.000    0.000    0.000    0.000    0.000    0.000 
#
# Total GULP energy -248135.996487 kJ/mol
# GULP energy per Si atom -12406.799824 kJ/mol
# Density = 2.082815 g / cm^3
# Si number density = 20.875664 Si / 1000 Ang^3
#
#
#
# Elastic Constant Matrix: (Units=GPa)
#
#
# Indices 1 2 3 4 5 6 
#
# 1 130.7921 42.7225 21.7648 0.0038 -6.5223 0.0018
# 2 42.7225 83.0991 24.3112 -0.0053 7.3250 0.0037
# 3 21.7648 24.3112 72.2344 -0.0091 -10.9068 0.0013
# 4 0.0038 -0.0053 -0.0091 33.5934 0.0037 -6.1902
# 5 -6.5223 7.3250 -10.9068 0.0037 38.8383 0.0005
# 6 0.0018 0.0037 0.0013 -6.1902 0.0005 34.4533
#
#
#
# Elastic Compliance Matrix: (Units=1/GPa)
#
#
# Indices 1 2 3 4 5 6 
#
# 1 0.009478 -0.004808 -0.000898 -0.000002 0.002246 0.000000
# 2 -0.004808 0.016392 -0.004863 0.000002 -0.005265 -0.000001
# 3 -0.000898 -0.004863 0.016570 0.000003 0.005420 0.000000
# 4 -0.000002 0.000002 0.000003 0.030787 -0.000003 0.005531
# 5 0.002246 -0.005265 0.005420 -0.000003 0.028640 -0.000001
# 6 0.000000 -0.000001 0.000000 0.005531 -0.000001 0.030019
#
#
# Mechanical properties :
#
#
# Convention : Reuss Voigt Hill
#
# Bulk Modulus (GPa) = 46.94701 51.52474 49.23588
# Shear Modulus (GPa) = 31.22567 34.53214 32.87890
#
# Velocity S-wave (km/s) = 3.87174 4.07158 3.97292
# Velocity P-wave (km/s) = 6.52111 6.84390 6.68445
#
# Compressibility (1/GPa) = 0.02130061
#
# Stress axis : x y z
#
# Youngs Moduli (GPa) = 105.51127 61.00366 60.35123
#
# Poissons Ratio (x) = 0.29329 0.05422
# Poissons Ratio (y) = 0.50727 0.29351
# Poissons Ratio (z) = 0.09480 0.29668
#
# Static dielectric constant tensor:
#      x y z
#    x 4.059340 -0.000010 -0.167340 
#    y -0.000010 3.820740 0.000010 
#    z -0.167340 0.000010 3.802290 
# 
# 
# High freq. dielectric constant tensor:
#      x y z
#    x 1.830980 0.000000 -0.008890 
#    y 0.000000 1.823430 0.000000 
#    z -0.008890 0.000000 1.822320 
# 
# From -- ./inp_files/288591.got.cif
#   From: 2010.06.25/outbox.cif.g09.slc.cpg/sg12_145_cif.got.tgz:288591.got - 2010.06.28 00:19:55.
