data_PCOD8112924
_publ_section_title
;
Structure prediction by ZEFSAII (Michael W. Deem and Ramdas Pophale) SiO2 
 PCOD8112924
Probable space group: C 2/M
;
_chemical_formula_sum "Si O2"
_cell_formula_units_Z 48
_cell_length_a 15.776124
_cell_length_b 8.713519
_cell_length_c 29.040161
_cell_angle_alpha 90.000000
_cell_angle_beta 35.368070
_cell_angle_gamma 90.000000
_cell_volume 2310.689353
_symmetry_space_group_name_H-M "C 2/M"
_symmetry_group_IT_number 12
_symmetry_cell_setting 'monoclinic'
loop_
_space_group_symop_operation_xyz
x,y,z
-x,y,-z
-x,-y,-z
x,-y,z
1/2+x,1/2+y,z
1/2-x,1/2+y,-z
1/2-x,1/2-y,-z
1/2+x,1/2-y,z
loop_
_atom_site_type_symbol
_atom_site_label
_atom_site_fract_x
_atom_site_fract_y
_atom_site_fract_z
Si Si1 0.651070 0.320587 0.004829
Si Si2 0.380701 0.319369 0.413286
Si Si3 0.178337 0.322562 0.316272
Si Si4 0.848231 0.679591 0.162923
Si Si5 0.830683 0.677781 0.834408
Si Si6 0.377659 0.678163 0.309428
O O1 0.631900 0.500000 0.021857
O O2 0.493967 0.241795 0.074496
O O3 0.750000 0.250000 0.000000
O O4 0.726742 0.284633 0.923064
O O5 0.368562 0.500000 0.420847
O O6 0.250000 0.250000 0.500000
O O7 0.533815 0.271527 0.368131
O O8 0.362292 0.262840 0.368703
O O9 0.146571 0.500000 0.320126
O O10 0.315854 0.265297 0.225046
O O11 0.225870 0.296699 0.348566
O O12 0.862252 0.500000 0.166263
O O13 0.714103 0.715018 0.188372
O O14 0.818286 0.500000 0.825997
O O15 0.997511 0.722610 0.771700
O O16 0.422781 0.500000 0.287876
#
# Coordination Sequence:
#
# PCOD8112924 Si02
#       6
#     8   8   8   8   8   8
#     4  11  24  40  58  87 124 165 215 268 318 375
#     4  11  24  44  68  97 131 169 210 262 320 383
#     4  11  23  42  68  97 129 170 214 265 321 379
#     4  12  24  39  61  90 125 168 214 263 320 380
#     4  11  23  39  62  90 123 165 216 266 316 374
#     4  10  23  42  66  95 130 169 212 260 319 383
#
# _framework density 20.773022999999998
#
# number of rings (size 3 to 8) (size 9 to 14) (size 15 to 20)
#    0.000    1.000    1.667    5.000    0.000   10.000 
#    0.000    3.333    0.000    0.000    0.000    0.000 
#    0.000    0.000    0.000    0.000    0.000    0.000 
#
# Total GULP energy -297712.480290 kJ/mol
# GULP energy per Si atom -12404.686679 kJ/mol
# Density = 2.072574 g / cm^3
# Si number density = 20.773023 Si / 1000 Ang^3
#
#
#
# Elastic Constant Matrix: (Units=GPa)
#
#
# Indices 1 2 3 4 5 6 
#
# 1 128.1899 30.6531 44.6205 -0.0011 3.5918 -0.0026
# 2 30.6531 68.0330 33.2724 -0.0022 3.6794 -0.0027
# 3 44.6205 33.2724 119.4249 -0.0001 -5.5440 -0.0007
# 4 -0.0011 -0.0022 -0.0001 38.3150 -0.0007 -5.7251
# 5 3.5918 3.6794 -5.5440 -0.0007 20.0465 -0.0003
# 6 -0.0026 -0.0027 -0.0007 -5.7251 -0.0003 34.9116
#
#
#
# Elastic Compliance Matrix: (Units=1/GPa)
#
#
# Indices 1 2 3 4 5 6 
#
# 1 0.009522 -0.002775 -0.002877 0.000000 -0.001992 0.000000
# 2 -0.002775 0.018235 -0.004230 0.000001 -0.004020 0.000001
# 3 -0.002877 -0.004230 0.010826 0.000000 0.004286 0.000000
# 4 0.000000 0.000001 0.000000 0.026755 0.000001 0.004387
# 5 -0.001992 -0.004020 0.004286 0.000001 0.052164 0.000000
# 6 0.000000 0.000001 0.000000 0.004387 0.000000 0.029363
#
#
# Mechanical properties :
#
#
# Convention : Reuss Voigt Hill
#
# Bulk Modulus (GPa) = 53.13991 59.19334 56.16662
# Shear Modulus (GPa) = 28.91796 32.46140 30.68968
#
# Velocity S-wave (km/s) = 3.73512 3.95735 3.84784
# Velocity P-wave (km/s) = 6.65119 7.03122 6.84384
#
# Compressibility (1/GPa) = 0.01881825
#
# Stress axis : x y z
#
# Youngs Moduli (GPa) = 105.02217 54.83827 92.37179
#
# Poissons Ratio (x) = 0.15220 0.26574
# Poissons Ratio (y) = 0.29149 0.39074
# Poissons Ratio (z) = 0.30213 0.23197
#
# Static dielectric constant tensor:
#      x y z
#    x 3.799050 0.000010 -0.094760 
#    y 0.000010 3.782200 0.000020 
#    z -0.094760 0.000020 3.392400 
# 
# 
# High freq. dielectric constant tensor:
#      x y z
#    x 1.826640 0.000000 0.000620 
#    y 0.000000 1.820490 0.000000 
#    z 0.000620 0.000000 1.812930 
# 
# From -- ./inp_files/360247.got.cif
#   From: 2010.06.25/outbox.cif.g09.slc.cpg/sg12_181_cif.got.tgz:360247.got - 2010.06.28 00:19:55.
