data_PCOD8112212
_publ_section_title
;
Structure prediction by ZEFSAII (Michael W. Deem and Ramdas Pophale) SiO2 
 PCOD8112212
Probable space group: C 2/M
;
_chemical_formula_sum "Si O2"
_cell_formula_units_Z 52
_cell_length_a 5.148555
_cell_length_b 26.593279
_cell_length_c 20.005729
_cell_angle_alpha 90.000000
_cell_angle_beta 54.041556
_cell_angle_gamma 90.000000
_cell_volume 2217.164677
_symmetry_space_group_name_H-M "C 2/M"
_symmetry_group_IT_number 12
_symmetry_cell_setting 'monoclinic'
loop_
_space_group_symop_operation_xyz
x,y,z
-x,y,-z
-x,-y,-z
x,-y,z
1/2+x,1/2+y,z
1/2-x,1/2+y,-z
1/2-x,1/2-y,-z
1/2+x,1/2-y,z
loop_
_atom_site_type_symbol
_atom_site_label
_atom_site_fract_x
_atom_site_fract_y
_atom_site_fract_z
Si Si1 0.648399 0.556186 0.081980
Si Si2 0.382794 0.718206 0.700218
Si Si3 0.520291 0.441733 0.747922
Si Si4 0.621001 0.353444 0.551267
Si Si5 0.057309 0.283310 0.110900
Si Si6 0.768190 0.558875 0.347852
Si Si7 0.500000 0.365848 0.000000
O O1 0.488775 0.500000 0.099314
O O2 0.653335 0.575306 0.157696
O O3 0.459057 0.598500 0.070381
O O4 0.000000 0.553158 0.000000
O O5 0.709656 0.738318 0.683792
O O6 0.463389 0.672920 0.638895
O O7 0.154473 0.698022 0.794084
O O8 0.592251 0.500000 0.741690
O O9 0.288458 0.428840 0.721892
O O10 0.880262 0.418736 0.686399
O O11 0.500000 0.327988 0.500000
O O12 0.497308 0.411081 0.569535
O O13 0.000000 0.351015 0.500000
O O14 0.362978 0.252634 0.091219
O O15 0.180779 0.331297 0.050105
O O16 0.722180 0.500000 0.370689
#
# Coordination Sequence:
#
# PCOD8112212 Si02
#       7
#     8   8   8   8   8   8   4
#     4  10  24  40  58  94 137 177 225 274 324 384
#     4  10  23  45  68  93 126 170 209 264 329 385
#     4   9  20  39  62  86 122 174 225 265 306 370
#     4  12  26  41  65 103 132 164 212 268 320 393
#     4  10  24  45  68  95 132 167 219 276 326 395
#     4  10  22  42  66  92 128 174 214 261 320 379
#     4  12  25  38  68  98 128 180 215 272 338 380
#
# _framework density 23.453375999999999
#
# number of rings (size 3 to 8) (size 9 to 14) (size 15 to 20)
#    0.000    1.692    0.000    2.538    6.462    2.462 
#    2.769    0.000    0.000    0.000    0.000    0.000 
#    0.000    0.000    0.000    0.000    0.000    0.000 
#
# Total GULP energy -322374.017648 kJ/mol
# GULP energy per Si atom -12399.000679 kJ/mol
# Density = 2.339999 g / cm^3
# Si number density = 23.453376 Si / 1000 Ang^3
#
#
#
# Elastic Constant Matrix: (Units=GPa)
#
#
# Indices 1 2 3 4 5 6 
#
# 1 74.0505 -0.5282 0.5502 0.0000 -6.8864 0.0000
# 2 -0.5282 71.4593 34.3576 0.0000 -3.4246 0.0000
# 3 0.5502 34.3576 72.8533 0.0000 -1.8725 0.0000
# 4 0.0000 0.0000 0.0000 -48.5748 0.0000 -42.0303
# 5 -6.8864 -3.4246 -1.8725 0.0000 33.8997 0.0000
# 6 0.0000 0.0000 0.0000 -42.0303 0.0000 -10.5297
#
#
#
# Elastic Compliance Matrix: (Units=1/GPa)
#
#
# Indices 1 2 3 4 5 6 
#
# 1 0.013770 0.000326 -0.000185 0.000000 0.002820 0.000000
# 2 0.000326 0.018168 -0.008534 0.000000 0.001430 0.000000
# 3 -0.000185 -0.008534 0.017754 0.000000 0.000081 0.000000
# 4 0.000000 0.000000 0.000000 0.008390 0.000000 -0.033488
# 5 0.002820 0.001430 0.000081 0.000000 0.030221 0.000000
# 6 0.000000 0.000000 0.000000 -0.033488 0.000000 0.038703
#
#
# Mechanical properties :
#
#
# Convention : Reuss Voigt Hill
#
# Bulk Modulus (GPa) = 30.38918 31.90248 31.14583
# Shear Modulus (GPa) = 32.30807 7.22463 19.76635
#
# Velocity S-wave (km/s) = 3.71556 1.75702 2.90624
# Velocity P-wave (km/s) = 5.60290 4.21286 4.95685
#
# Compressibility (1/GPa) = 0.03290645
#
# Stress axis : x y z
#
# Youngs Moduli (GPa) = 72.62038 55.04207 56.32480
#
# Poissons Ratio (x) = -0.01794 0.01043
# Poissons Ratio (y) = -0.02367 0.48066
# Poissons Ratio (z) = 0.01345 0.46971
#
# Static dielectric constant tensor:
#      x y z
#    x 4.495920 0.000000 0.115750 
#    y 0.000000 4.183430 0.000000 
#    z 0.115750 0.000000 4.371270 
# 
# 
# High freq. dielectric constant tensor:
#      x y z
#    x 1.931590 0.000000 0.004560 
#    y 0.000000 1.915200 0.000000 
#    z 0.004560 0.000000 1.938270 
# 
# From -- ./inp_files/298348.got.cif
#   From: 2010.06.25/outbox.cif.g09.slc.cpg/sg12_150_cif.got.tgz:298348.got - 2010.06.28 00:19:55.
