data_PCOD8112605
_publ_section_title
;
Structure prediction by ZEFSAII (Michael W. Deem and Ramdas Pophale) SiO2 
 PCOD8112605
Probable space group: C 2/M
;
_chemical_formula_sum "Si O2"
_cell_formula_units_Z 44
_cell_length_a 5.254031
_cell_length_b 23.532349
_cell_length_c 20.602924
_cell_angle_alpha 90.000000
_cell_angle_beta 96.868302
_cell_angle_gamma 90.000000
_cell_volume 2529.058573
_symmetry_space_group_name_H-M "C 2/M"
_symmetry_group_IT_number 12
_symmetry_cell_setting 'monoclinic'
loop_
_space_group_symop_operation_xyz
x,y,z
-x,y,-z
-x,-y,-z
x,-y,z
1/2+x,1/2+y,z
1/2-x,1/2+y,-z
1/2-x,1/2-y,-z
1/2+x,1/2-y,z
loop_
_atom_site_type_symbol
_atom_site_label
_atom_site_fract_x
_atom_site_fract_y
_atom_site_fract_z
Si Si1 0.599217 0.931897 0.296319
Si Si2 0.268407 0.500000 0.541402
Si Si3 0.143245 0.104177 0.367528
Si Si4 0.295877 0.274169 0.574593
Si Si5 0.966752 0.067830 0.925639
Si Si6 0.933717 0.566845 0.855088
O O1 0.347561 0.898946 0.314880
O O2 0.609294 0.918230 0.220886
O O3 0.853248 0.904292 0.334727
O O4 0.587237 0.000000 0.309636
O O5 0.500000 0.500000 0.500000
O O6 0.274378 0.554827 0.584008
O O7 0.000000 0.500000 0.500000
O O8 0.169044 0.158885 0.414858
O O9 0.250000 0.250000 0.500000
O O10 0.553205 0.244948 0.610178
O O11 0.199601 0.092623 0.889647
O O12 0.701618 0.092668 0.888831
O O13 0.966070 0.000000 0.922688
O O14 0.000000 0.089552 0.000000
O O15 0.941221 0.500000 0.866016
#
# Coordination Sequence:
#
# PCOD8112605 Si02
#       6
#     8   4   8   8   8   8
#     4  11  20  36  52  78 106 136 175 215 265 321
#     4  12  26  36  56  80 106 132 159 212 277 328
#     4  12  23  39  57  77 105 133 171 216 274 322
#     4  10  23  40  58  76  97 129 169 212 261 321
#     4   9  15  24  37  60  91 132 181 220 243 271
#     4   9  17  26  42  62  93 133 172 215 250 289
#
# _framework density 17.397777000000001
#
# number of rings (size 3 to 8) (size 9 to 14) (size 15 to 20)
#    0.000    1.636    1.818    3.818    5.091    5.091 
#    0.000    0.000    0.000    0.000    0.000    0.000 
#    0.000    0.000    0.000    0.000    0.000  229.091 
#
# Total GULP energy -272637.903395 kJ/mol
# GULP energy per Si atom -12392.631972 kJ/mol
# Density = 1.735818 g / cm^3
# Si number density = 17.397777 Si / 1000 Ang^3
#
#
#
# Elastic Constant Matrix: (Units=GPa)
#
#
# Indices 1 2 3 4 5 6 
#
# 1 125.2548 7.3584 23.9189 0.0000 10.3042 0.0000
# 2 7.3584 72.2888 21.5718 0.0000 9.4238 0.0000
# 3 23.9189 21.5718 82.3395 0.0000 5.7425 0.0000
# 4 0.0000 0.0000 0.0000 10.9206 0.0000 1.5018
# 5 10.3042 9.4238 5.7425 0.0000 33.4094 0.0000
# 6 0.0000 0.0000 0.0000 1.5018 0.0000 20.5457
#
#
#
# Elastic Compliance Matrix: (Units=1/GPa)
#
#
# Indices 1 2 3 4 5 6 
#
# 1 0.008618 0.000130 -0.002378 0.000000 -0.002286 0.000000
# 2 0.000130 0.015449 -0.003824 0.000000 -0.003741 0.000000
# 3 -0.002378 -0.003824 0.013878 0.000000 -0.000573 0.000000
# 4 0.000000 0.000000 0.000000 0.092500 0.000000 -0.006761
# 5 -0.002286 -0.003741 -0.000573 0.000000 0.031790 0.000000
# 6 0.000000 0.000000 0.000000 -0.006761 0.000000 0.049166
#
#
# Mechanical properties :
#
#
# Convention : Reuss Voigt Hill
#
# Bulk Modulus (GPa) = 38.75911 42.84236 40.80073
# Shear Modulus (GPa) = 21.53818 28.11076 24.82447
#
# Velocity S-wave (km/s) = 3.52232 4.02402 3.78150
# Velocity P-wave (km/s) = 6.23449 6.80213 6.52449
#
# Compressibility (1/GPa) = 0.02580039
#
# Stress axis : x y z
#
# Youngs Moduli (GPa) = 116.03235 64.72910 72.05849
#
# Poissons Ratio (x) = -0.00844 0.17137
# Poissons Ratio (y) = -0.01514 0.27558
# Poissons Ratio (z) = 0.27596 0.24755
#
# Static dielectric constant tensor:
#      x y z
#    x 4.306520 0.000000 -0.082100 
#    y 0.000000 2.817830 0.000000 
#    z -0.082100 0.000000 3.283030 
# 
# 
# High freq. dielectric constant tensor:
#      x y z
#    x 1.709810 0.000000 -0.000200 
#    y 0.000000 1.609310 0.000000 
#    z -0.000200 0.000000 1.667300 
# 
# From -- ./inp_files/252904.got.cif
#   From: 2010.06.25/outbox.cif.g09.slc.cpg/sg12_127_cif.got.tgz:252904.got - 2010.06.28 00:19:55.
