data_PCOD8112311
_publ_section_title
;
Structure prediction by ZEFSAII (Michael W. Deem and Ramdas Pophale) SiO2 
 PCOD8112311
Probable space group: C 2/M
;
_chemical_formula_sum "Si O2"
_cell_formula_units_Z 40
_cell_length_a 10.155635
_cell_length_b 19.220768
_cell_length_c 13.952573
_cell_angle_alpha 90.000000
_cell_angle_beta 42.366840
_cell_angle_gamma 90.000000
_cell_volume 1835.318319
_symmetry_space_group_name_H-M "C 2/M"
_symmetry_group_IT_number 12
_symmetry_cell_setting 'monoclinic'
loop_
_space_group_symop_operation_xyz
x,y,z
-x,y,-z
-x,-y,-z
x,-y,z
1/2+x,1/2+y,z
1/2-x,1/2+y,-z
1/2-x,1/2-y,-z
1/2+x,1/2-y,z
loop_
_atom_site_type_symbol
_atom_site_label
_atom_site_fract_x
_atom_site_fract_y
_atom_site_fract_z
Si Si1 0.021408 0.818303 0.189717
Si Si2 0.104917 0.808124 0.539867
Si Si3 0.045574 0.674601 0.085150
Si Si4 0.830651 0.420490 0.663625
Si Si5 0.889194 0.578841 0.317474
O O1 0.047768 0.821915 0.291295
O O2 0.855297 0.870984 0.244166
O O3 0.965804 0.739693 0.189712
O O4 0.222317 0.837407 0.028618
O O5 0.250000 0.750000 0.500000
O O6 0.212360 0.880574 0.462183
O O7 0.000000 0.780887 0.500000
O O8 0.935755 0.607537 0.186484
O O9 0.000000 0.687348 0.000000
O O10 0.768742 0.500000 0.673200
O O11 0.000000 0.395773 0.500000
O O12 0.913924 0.414311 0.726002
O O13 0.818313 0.500000 0.346057
#
# Coordination Sequence:
#
# PCOD8112311 Si02
#       5
#     8   8   8   8   8
#     4  11  25  41  72  99 141 180 237 287 353 419
#     4  12  26  43  72 106 137 181 236 293 354 413
#     4  11  26  45  64  99 138 188 236 286 347 414
#     4  10  22  42  70 105 139 178 230 294 355 418
#     4  11  25  45  70 102 142 182 229 289 353 422
#
# _framework density 21.794584
#
# number of rings (size 3 to 8) (size 9 to 14) (size 15 to 20)
#    0.000    1.000    4.000    1.200    8.400    1.600 
#    0.000    4.000    0.000    0.000    0.000    0.000 
#    0.000    0.000    0.000    0.000    0.000    0.000 
#
# Total GULP energy -248080.265219 kJ/mol
# GULP energy per Si atom -12404.013261 kJ/mol
# Density = 2.174498 g / cm^3
# Si number density = 21.794584 Si / 1000 Ang^3
#
#
#
# Elastic Constant Matrix: (Units=GPa)
#
#
# Indices 1 2 3 4 5 6 
#
# 1 108.6633 55.4014 36.9130 0.0016 12.1818 -0.0002
# 2 55.4014 150.8953 75.0348 0.0015 -4.4408 -0.0003
# 3 36.9130 75.0348 120.9069 0.0034 14.8830 -0.0004
# 4 0.0016 0.0015 0.0034 36.4695 -0.0019 -5.2041
# 5 12.1818 -4.4408 14.8830 -0.0019 41.5881 0.0001
# 6 -0.0002 -0.0003 -0.0004 -5.2041 0.0001 35.7419
#
#
#
# Elastic Compliance Matrix: (Units=1/GPa)
#
#
# Indices 1 2 3 4 5 6 
#
# 1 0.011970 -0.004220 -0.000574 -0.000001 -0.003751 0.000000
# 2 -0.004220 0.011525 -0.006452 0.000001 0.004776 0.000000
# 3 -0.000574 -0.006452 0.013091 -0.000001 -0.005206 0.000000
# 4 -0.000001 0.000001 -0.000001 0.028002 0.000002 0.004077
# 5 -0.003751 0.004776 -0.005206 0.000002 0.027517 0.000000
# 6 0.000000 0.000000 0.000000 0.004077 0.000000 0.028572
#
#
# Mechanical properties :
#
#
# Convention : Reuss Voigt Hill
#
# Bulk Modulus (GPa) = 70.94948 79.46264 75.20606
# Shear Modulus (GPa) = 33.81420 36.96766 35.39093
#
# Velocity S-wave (km/s) = 3.94318 4.12295 4.03406
# Velocity P-wave (km/s) = 7.30451 7.69440 7.50199
#
# Compressibility (1/GPa) = 0.01409454
#
# Stress axis : x y z
#
# Youngs Moduli (GPa) = 83.54490 86.76491 76.38793
#
# Poissons Ratio (x) = 0.36612 0.04383
# Poissons Ratio (y) = 0.35254 0.49287
# Poissons Ratio (z) = 0.04794 0.55983
#
# Static dielectric constant tensor:
#      x y z
#    x 3.980440 0.000000 0.189810 
#    y 0.000000 3.888280 0.000000 
#    z 0.189810 0.000000 4.230590 
# 
# 
# High freq. dielectric constant tensor:
#      x y z
#    x 1.855560 0.000000 0.007650 
#    y 0.000000 1.854020 0.000000 
#    z 0.007650 0.000000 1.867800 
# 
# From -- ./inp_files/205923.got.cif
#   From: 2010.06.25/outbox.cif.g09.slc.cpg/sg12_103_cif.got.tgz:205923.got - 2010.06.28 00:19:55.
