data_PCOD8112931
_publ_section_title
;
Structure prediction by ZEFSAII (Michael W. Deem and Ramdas Pophale) SiO2 
 PCOD8112931
Probable space group: C 2/M
;
_chemical_formula_sum "Si O2"
_cell_formula_units_Z 44
_cell_length_a 17.625619
_cell_length_b 18.119039
_cell_length_c 6.391453
_cell_angle_alpha 90.000000
_cell_angle_beta 111.396603
_cell_angle_gamma 90.000000
_cell_volume 1900.487182
_symmetry_space_group_name_H-M "C 2/M"
_symmetry_group_IT_number 12
_symmetry_cell_setting 'monoclinic'
loop_
_space_group_symop_operation_xyz
x,y,z
-x,y,-z
-x,-y,-z
x,-y,z
1/2+x,1/2+y,z
1/2-x,1/2+y,-z
1/2-x,1/2-y,-z
1/2+x,1/2-y,z
loop_
_atom_site_type_symbol
_atom_site_label
_atom_site_fract_x
_atom_site_fract_y
_atom_site_fract_z
Si Si1 0.709358 0.820049 0.059731
Si Si2 0.007161 0.917375 0.245597
Si Si3 0.071450 0.682790 0.237542
Si Si4 0.834825 0.585267 0.371228
Si Si5 0.000000 0.792701 0.500000
Si Si6 0.693798 0.416741 0.541785
O O1 0.659992 0.867316 0.836685
O O2 0.750000 0.750000 0.000000
O O3 0.647509 0.790983 0.175376
O O4 0.780342 0.867319 0.236495
O O5 0.100842 0.903021 0.393407
O O6 0.952382 0.854235 0.305472
O O7 0.977403 0.000000 0.279809
O O8 0.000000 0.903216 0.000000
O O9 0.094375 0.609818 0.393466
O O10 0.053975 0.744914 0.396325
O O11 0.000000 0.666376 0.000000
O O12 0.849755 0.500000 0.330747
O O13 0.746995 0.599822 0.387505
O O14 0.710492 0.500000 0.630535
#
# Coordination Sequence:
#
# PCOD8112931 Si02
#       6
#     8   8   8   8   4   8
#     4  11  25  41  71 102 138 181 232 283 344 409
#     4  10  23  42  67 100 137 183 232 278 338 409
#     4  11  26  45  67 103 139 180 229 285 349 410
#     4  10  23  45  72 100 135 179 231 287 347 411
#     4  12  25  42  67  94 144 184 224 276 341 408
#     4   9  21  41  67  99 136 176 227 282 336 408
#
# _framework density 23.151955999999998
#
# number of rings (size 3 to 8) (size 9 to 14) (size 15 to 20)
#    0.000    1.636    0.000    2.455    7.636    4.000 
#    0.000    6.818    0.000    0.000    0.000    0.000 
#    0.000    0.000    0.000    0.000    0.000    0.000 
#
# Total GULP energy -272576.686053 kJ/mol
# GULP energy per Si atom -12389.849366 kJ/mol
# Density = 2.309926 g / cm^3
# Si number density = 23.151956 Si / 1000 Ang^3
#
#
#
# Elastic Constant Matrix: (Units=GPa)
#
#
# Indices 1 2 3 4 5 6 
#
# 1 74.3221 54.7798 57.2937 0.0000 -21.0898 0.0000
# 2 54.7798 158.8763 78.5574 0.0000 -24.5257 0.0000
# 3 57.2937 78.5574 180.4184 0.0000 -18.7834 0.0000
# 4 0.0000 0.0000 0.0000 36.2681 0.0000 -32.3534
# 5 -21.0898 -24.5257 -18.7834 0.0000 40.8348 0.0000
# 6 0.0000 0.0000 0.0000 -32.3534 0.0000 42.9739
#
#
#
# Elastic Compliance Matrix: (Units=1/GPa)
#
#
# Indices 1 2 3 4 5 6 
#
# 1 0.021946 -0.004373 -0.004368 0.000000 0.006699 0.000000
# 2 -0.004373 0.009361 -0.002454 0.000000 0.002234 0.000000
# 3 -0.004368 -0.002454 0.007993 0.000000 -0.000053 0.000000
# 4 0.000000 0.000000 0.000000 0.083959 0.000000 0.063209
# 5 0.006699 0.002234 -0.000053 0.000000 0.029266 0.000000
# 6 0.000000 0.000000 0.000000 0.063209 0.000000 0.070858
#
#
# Mechanical properties :
#
#
# Convention : Reuss Voigt Hill
#
# Bulk Modulus (GPa) = 59.14003 88.31984 73.72994
# Shear Modulus (GPa) = 19.88790 38.88109 29.38450
#
# Velocity S-wave (km/s) = 2.93408 4.10248 3.56645
# Velocity P-wave (km/s) = 6.08918 7.78917 6.99104
#
# Compressibility (1/GPa) = 0.01690902
#
# Stress axis : x y z
#
# Youngs Moduli (GPa) = 45.56625 106.83089 125.11292
#
# Poissons Ratio (x) = 0.46720 0.54644
# Poissons Ratio (y) = 0.19927 0.30707
# Poissons Ratio (z) = 0.19902 0.26220
#
# Static dielectric constant tensor:
#      x y z
#    x 4.026480 0.000000 -0.445530 
#    y 0.000000 4.442260 0.000000 
#    z -0.445530 0.000000 4.416450 
# 
# 
# High freq. dielectric constant tensor:
#      x y z
#    x 1.906000 0.000000 -0.020540 
#    y 0.000000 1.924600 0.000000 
#    z -0.020540 0.000000 1.935210 
# 
# From -- ./inp_files/16216.got.cif
#   From: 2010.06.25/outbox.cif.g09.slc.cpg/sg12_9_cif.got.tgz:16216.got - 2010.06.28 00:19:55.
