data_PCOD8112361
_publ_section_title
;
Structure prediction by ZEFSAII (Michael W. Deem and Ramdas Pophale) SiO2 
 PCOD8112361
Probable space group: C 2/M
;
_chemical_formula_sum "Si O2"
_cell_formula_units_Z 64
_cell_length_a 23.856289
_cell_length_b 23.554773
_cell_length_c 18.274557
_cell_angle_alpha 90.000000
_cell_angle_beta 162.475710
_cell_angle_gamma 90.000000
_cell_volume 3092.103195
_symmetry_space_group_name_H-M "C 2/M"
_symmetry_group_IT_number 12
_symmetry_cell_setting 'monoclinic'
loop_
_space_group_symop_operation_xyz
x,y,z
-x,y,-z
-x,-y,-z
x,-y,z
1/2+x,1/2+y,z
1/2-x,1/2+y,-z
1/2-x,1/2-y,-z
1/2+x,1/2-y,z
loop_
_atom_site_type_symbol
_atom_site_label
_atom_site_fract_x
_atom_site_fract_y
_atom_site_fract_z
Si Si1 0.816347 0.152060 0.734627
Si Si2 0.048366 0.226222 0.769376
Si Si3 0.802169 0.134743 0.486566
Si Si4 0.537614 0.241713 0.175981
Si Si5 0.651863 0.433467 0.590839
Si Si6 0.145965 0.567655 0.419195
Si Si7 0.247029 0.433689 0.126232
Si Si8 0.850332 0.260978 0.377748
O O1 0.702186 0.098430 0.563512
O O2 0.691368 0.175905 0.645503
O O3 0.863753 0.200891 0.732701
O O4 0.000000 0.126999 0.000000
O O5 0.980371 0.258685 0.757943
O O6 0.016650 0.159421 0.750698
O O7 0.921733 0.228906 0.538822
O O8 0.250000 0.250000 0.000000
O O9 0.664075 0.187943 0.317146
O O10 0.743371 0.098626 0.342892
O O11 0.788484 0.090636 0.535898
O O12 0.338610 0.232878 0.888852
O O13 0.692046 0.500000 0.634362
O O14 0.430686 0.420501 0.307982
O O15 0.728815 0.407667 0.762582
O O16 0.160591 0.500000 0.445368
O O17 0.937686 0.590067 0.141925
O O18 0.223649 0.500000 0.108363
O O19 0.000000 0.262634 0.500000
#
# Coordination Sequence:
#
# PCOD8112361 Si02
#       8
#     8   8   8   8   8   8   8   8
#     4  10  22  43  67  87 128 170 208 275 329 377
#     4  12  24  41  63  89 127 172 211 257 320 389
#     4  12  24  38  62  94 131 166 207 265 317 381
#     4  11  23  44  63  92 131 169 215 259 327 388
#     4   9  19  39  60  87 127 172 210 252 313 377
#     4  11  23  40  66  96 121 162 220 271 324 383
#     4   8  18  39  61  83 125 170 210 255 310 376
#     4  11  23  42  65  93 130 173 218 260 319 393
#
# _framework density 20.697886
#
# number of rings (size 3 to 8) (size 9 to 14) (size 15 to 20)
#    0.000    1.500    3.750    2.250    0.000    4.750 
#    2.250    1.875    0.000    0.375    0.000    0.000 
#    0.000    0.000    0.000    0.000    0.000    0.000 
#
# Total GULP energy -396425.267489 kJ/mol
# GULP energy per Si atom -12388.289609 kJ/mol
# Density = 2.065078 g / cm^3
# Si number density = 20.697886 Si / 1000 Ang^3
#
#
#
# Elastic Constant Matrix: (Units=GPa)
#
#
# Indices 1 2 3 4 5 6 
#
# 1 118.5318 36.8324 34.0334 -0.0001 -7.4593 -0.0003
# 2 36.8324 84.0563 38.0129 -0.0001 2.2836 -0.0001
# 3 34.0334 38.0129 103.8958 -0.0004 -7.1213 -0.0011
# 4 -0.0001 -0.0001 -0.0004 28.4834 0.0001 -2.8277
# 5 -7.4593 2.2836 -7.1213 0.0001 29.8724 -0.0004
# 6 -0.0003 -0.0001 -0.0011 -2.8277 -0.0004 35.0107
#
#
#
# Elastic Compliance Matrix: (Units=1/GPa)
#
#
# Indices 1 2 3 4 5 6 
#
# 1 0.010277 -0.003740 -0.001832 0.000000 0.002415 0.000000
# 2 -0.003740 0.015784 -0.004775 0.000000 -0.003279 0.000000
# 3 -0.001832 -0.004775 0.012165 0.000000 0.002807 0.000000
# 4 0.000000 0.000000 0.000000 0.035392 0.000000 0.002858
# 5 0.002415 -0.003279 0.002807 0.000000 0.034999 0.000000
# 6 0.000000 0.000000 0.000000 0.002858 0.000000 0.028794
#
#
# Mechanical properties :
#
#
# Convention : Reuss Voigt Hill
#
# Bulk Modulus (GPa) = 57.04117 58.24905 57.64511
# Shear Modulus (GPa) = 30.49757 31.84699 31.17228
#
# Velocity S-wave (km/s) = 3.84274 3.92683 3.88501
# Velocity P-wave (km/s) = 6.87805 6.98309 6.93077
#
# Compressibility (1/GPa) = 0.01753120
#
# Stress axis : x y z
#
# Youngs Moduli (GPa) = 97.30565 63.35560 82.20576
#
# Poissons Ratio (x) = 0.23696 0.15064
# Poissons Ratio (y) = 0.36394 0.39249
# Poissons Ratio (z) = 0.17831 0.30249
#
# Static dielectric constant tensor:
#      x y z
#    x 3.982360 0.000000 -0.001860 
#    y 0.000000 3.576520 0.000000 
#    z -0.001860 0.000000 4.242430 
# 
# 
# High freq. dielectric constant tensor:
#      x y z
#    x 1.818400 0.000000 -0.001950 
#    y 0.000000 1.790590 0.000000 
#    z -0.001950 0.000000 1.812440 
# 
# From -- ./inp_files/290961.got.cif
#   From: 2010.06.25/outbox.cif.g09.slc.cpg/sg12_146_cif.got.tgz:290961.got - 2010.06.28 00:19:55.
