data_PCOD8112090
_publ_section_title
;
Structure prediction by ZEFSAII (Michael W. Deem and Ramdas Pophale) SiO2 
 PCOD8112090
Probable space group: C 2/M
;
_chemical_formula_sum "Si O2"
_cell_formula_units_Z 44
_cell_length_a 9.054739
_cell_length_b 19.315272
_cell_length_c 11.847922
_cell_angle_alpha 90.000000
_cell_angle_beta 86.538088
_cell_angle_gamma 90.000000
_cell_volume 2068.357995
_symmetry_space_group_name_H-M "C 2/M"
_symmetry_group_IT_number 12
_symmetry_cell_setting 'monoclinic'
loop_
_space_group_symop_operation_xyz
x,y,z
-x,y,-z
-x,-y,-z
x,-y,z
1/2+x,1/2+y,z
1/2-x,1/2+y,-z
1/2-x,1/2-y,-z
1/2+x,1/2-y,z
loop_
_atom_site_type_symbol
_atom_site_label
_atom_site_fract_x
_atom_site_fract_y
_atom_site_fract_z
Si Si1 0.345013 0.873766 0.758907
Si Si2 0.684586 0.114083 0.709939
Si Si3 0.228698 0.772669 0.146531
Si Si4 0.500000 0.267528 0.000000
Si Si5 0.826756 0.323500 0.516022
Si Si6 0.838908 0.000000 0.853705
Si Si7 0.814863 0.000000 0.116850
O O1 0.513522 0.900264 0.744902
O O2 0.327473 0.805359 0.834721
O O3 0.281941 0.857033 0.637381
O O4 0.251029 0.932317 0.822877
O O5 0.732508 0.192405 0.737976
O O6 0.714941 0.116194 0.574105
O O7 0.785101 0.064497 0.780741
O O8 0.373098 0.779968 0.061643
O O9 0.089019 0.812215 0.090412
O O10 0.750000 0.250000 0.500000
O O11 0.000000 0.307614 0.500000
O O12 0.013341 0.000000 0.861060
O O13 0.774308 0.000000 0.984581
#
# Coordination Sequence:
#
# PCOD8112090 Si02
#       7
#     8   8   8   4   8   4   4
#     4  11  24  43  66  96 132 174 216 268 329 389
#     4  11  24  43  66  96 132 174 216 268 329 389
#     4  11  22  37  64  94 128 171 217 270 330 378
#     4  10  24  34  56  98 132 166 218 270 322 394
#     4  10  22  41  68 101 131 169 219 271 324 383
#     4  11  29  46  67  94 132 175 222 271 328 393
#     4  11  29  46  67  94 132 175 222 271 328 393
#
# _framework density 21.272912000000002
#
# number of rings (size 3 to 8) (size 9 to 14) (size 15 to 20)
#    0.000    1.273    3.636    0.545    7.636    3.636 
#    0.000    3.636    0.000    0.000    0.000    0.000 
#    0.000    0.000    0.000    0.000    0.000    0.000 
#
# Total GULP energy -272560.062932 kJ/mol
# GULP energy per Si atom -12389.093770 kJ/mol
# Density = 2.122449 g / cm^3
# Si number density = 21.272912 Si / 1000 Ang^3
#
#
#
# Elastic Constant Matrix: (Units=GPa)
#
#
# Indices 1 2 3 4 5 6 
#
# 1 111.3158 30.2231 56.4808 0.0000 15.6793 0.0000
# 2 30.2231 90.9834 52.7222 0.0000 4.3692 0.0000
# 3 56.4808 52.7222 162.2475 0.0000 16.4846 0.0000
# 4 0.0000 0.0000 0.0000 25.3205 0.0000 8.8579
# 5 15.6793 4.3692 16.4846 0.0000 33.0253 0.0000
# 6 0.0000 0.0000 0.0000 8.8579 0.0000 27.5394
#
#
#
# Elastic Compliance Matrix: (Units=1/GPa)
#
#
# Indices 1 2 3 4 5 6 
#
# 1 0.011562 -0.001908 -0.003026 0.000000 -0.003726 0.000000
# 2 -0.001908 0.013861 -0.003946 0.000000 0.001042 0.000000
# 3 -0.003026 -0.003946 0.008743 0.000000 -0.002406 0.000000
# 4 0.000000 0.000000 0.000000 0.044501 0.000000 -0.014314
# 5 -0.003726 0.001042 -0.002406 0.000000 0.033112 0.000000
# 6 0.000000 0.000000 0.000000 -0.014314 0.000000 0.040916
#
#
# Mechanical properties :
#
#
# Convention : Reuss Voigt Hill
#
# Bulk Modulus (GPa) = 60.95196 71.48878 66.22037
# Shear Modulus (GPa) = 28.42136 32.18508 30.30322
#
# Velocity S-wave (km/s) = 3.65915 3.89390 3.77835
# Velocity P-wave (km/s) = 6.82401 7.34133 7.08739
#
# Compressibility (1/GPa) = 0.01640636
#
# Stress axis : x y z
#
# Youngs Moduli (GPa) = 86.49134 72.14329 114.37072
#
# Poissons Ratio (x) = 0.13766 0.34611
# Poissons Ratio (y) = 0.16503 0.45129
# Poissons Ratio (z) = 0.26174 0.28466
#
# Static dielectric constant tensor:
#      x y z
#    x 4.079240 0.000000 0.273470 
#    y 0.000000 3.633110 0.000000 
#    z 0.273470 0.000000 4.239840 
# 
# 
# High freq. dielectric constant tensor:
#      x y z
#    x 1.846780 0.000000 0.016130 
#    y 0.000000 1.808840 0.000000 
#    z 0.016130 0.000000 1.858030 
# 
# From -- ./inp_files/120763.got.cif
#   From: 2010.06.25/outbox.cif.g09.slc.cpg/sg12_61_cif.got.tgz:120763.got - 2010.06.28 00:19:55.
