data_PCOD8112795
_publ_section_title
;
Structure prediction by ZEFSAII (Michael W. Deem and Ramdas Pophale) SiO2 
 PCOD8112795
Probable space group: C 2/M
;
_chemical_formula_sum "Si O2"
_cell_formula_units_Z 56
_cell_length_a 13.996391
_cell_length_b 9.836780
_cell_length_c 22.473806
_cell_angle_alpha 90.000000
_cell_angle_beta 66.643696
_cell_angle_gamma 90.000000
_cell_volume 2840.634857
_symmetry_space_group_name_H-M "C 2/M"
_symmetry_group_IT_number 12
_symmetry_cell_setting 'monoclinic'
loop_
_space_group_symop_operation_xyz
x,y,z
-x,y,-z
-x,-y,-z
x,-y,z
1/2+x,1/2+y,z
1/2-x,1/2+y,-z
1/2-x,1/2-y,-z
1/2+x,1/2-y,z
loop_
_atom_site_type_symbol
_atom_site_label
_atom_site_fract_x
_atom_site_fract_y
_atom_site_fract_z
Si Si1 0.156775 0.157296 0.500761
Si Si2 0.066674 0.843207 0.395668
Si Si3 0.873236 0.347268 0.725656
Si Si4 0.168784 0.854724 0.078176
Si Si5 0.883809 0.241539 0.033974
Si Si6 0.647962 0.651952 0.828117
Si Si7 0.021153 0.657607 0.181293
O O1 0.250000 0.250000 0.500000
O O2 0.135208 0.187075 0.436970
O O3 0.053656 0.193965 0.563491
O O4 0.186827 0.000000 0.502730
O O5 0.111989 0.754754 0.331695
O O6 0.076671 0.000000 0.375133
O O7 0.872242 0.500000 0.699892
O O8 0.767740 0.313839 0.786743
O O9 0.965128 0.331166 0.751103
O O10 0.293739 0.855169 0.056056
O O11 0.117450 0.727194 0.123645
O O12 0.129171 0.000000 0.113896
O O13 0.138881 0.856036 0.016131
O O14 0.877478 0.155342 0.095927
O O15 0.000000 0.306557 0.000000
O O16 0.620417 0.500000 0.812034
O O17 0.584365 0.765237 0.808149
O O18 0.015722 0.500000 0.162415
#
# Coordination Sequence:
#
# PCOD8112795 Si02
#       7
#     8   8   8   8   8   8   8
#     4   9  19  37  62  94 128 160 196 242 290 338
#     4   9  20  39  62  89 124 162 200 241 287 344
#     4  10  23  42  61  83 121 163 199 245 298 352
#     4  11  24  40  62  88 112 148 195 243 304 372
#     4  11  23  40  60  90 115 149 189 254 310 364
#     4  11  23  42  62  84 115 155 200 247 304 367
#     4  11  24  42  60  84 118 153 195 250 302 355
#
# _framework density 19.713902999999998
#
# number of rings (size 3 to 8) (size 9 to 14) (size 15 to 20)
#    0.000    1.714    2.857    1.714    0.000    7.714 
#    0.000    7.143    0.000    0.000    0.000    0.000 
#    0.000    0.000    0.000    0.000    0.000    0.000 
#
# Total GULP energy -347129.294937 kJ/mol
# GULP energy per Si atom -12397.474819 kJ/mol
# Density = 1.966903 g / cm^3
# Si number density = 19.713903 Si / 1000 Ang^3
#
#
#
# Elastic Constant Matrix: (Units=GPa)
#
#
# Indices 1 2 3 4 5 6 
#
# 1 125.0733 58.5466 29.6613 0.0000 1.2015 0.0000
# 2 58.5466 129.8571 51.9643 0.0000 6.8006 0.0000
# 3 29.6613 51.9643 100.5295 0.0000 7.2512 0.0000
# 4 0.0000 0.0000 0.0000 28.3000 0.0000 -6.2848
# 5 1.2015 6.8006 7.2512 0.0000 18.9027 0.0000
# 6 0.0000 0.0000 0.0000 -6.2848 0.0000 27.3817
#
#
#
# Elastic Compliance Matrix: (Units=1/GPa)
#
#
# Indices 1 2 3 4 5 6 
#
# 1 0.010212 -0.004322 -0.000869 0.000000 0.001239 0.000000
# 2 -0.004322 0.011586 -0.004559 0.000000 -0.002145 0.000000
# 3 -0.000869 -0.004559 0.012792 0.000000 -0.003212 0.000000
# 4 0.000000 0.000000 0.000000 0.037234 0.000000 0.008546
# 5 0.001239 -0.002145 -0.003212 0.000000 0.054827 0.000000
# 6 0.000000 0.000000 0.000000 0.008546 0.000000 0.038482
#
#
# Mechanical properties :
#
#
# Convention : Reuss Voigt Hill
#
# Bulk Modulus (GPa) = 66.26223 70.64492 68.45358
# Shear Modulus (GPa) = 26.36265 29.26939 27.81602
#
# Velocity S-wave (km/s) = 3.66083 3.85737 3.76038
# Velocity P-wave (km/s) = 7.18010 7.46672 7.32481
#
# Compressibility (1/GPa) = 0.01509155
#
# Stress axis : x y z
#
# Youngs Moduli (GPa) = 97.92104 86.31251 78.17466
#
# Poissons Ratio (x) = 0.37300 0.06791
# Poissons Ratio (y) = 0.42317 0.35640
# Poissons Ratio (z) = 0.08506 0.39350
#
# Static dielectric constant tensor:
#      x y z
#    x 3.737050 0.000000 -0.012060 
#    y 0.000000 3.460340 0.000000 
#    z -0.012060 0.000000 3.427790 
# 
# 
# High freq. dielectric constant tensor:
#      x y z
#    x 1.780580 0.000000 -0.000270 
#    y 0.000000 1.766260 0.000000 
#    z -0.000270 0.000000 1.755410 
# 
# From -- ./inp_files/338527.got.cif
#   From: 2010.06.25/outbox.cif.g09.slc.cpg/sg12_170_cif.got.tgz:338527.got - 2010.06.28 00:19:55.
