data_PCOD8112654
_publ_section_title
;
Structure prediction by ZEFSAII (Michael W. Deem and Ramdas Pophale) SiO2 
 PCOD8112654
Probable space group: C 2/M
;
_chemical_formula_sum "Si O2"
_cell_formula_units_Z 56
_cell_length_a 11.961244
_cell_length_b 32.265667
_cell_length_c 8.818668
_cell_angle_alpha 90.000000
_cell_angle_beta 52.513619
_cell_angle_gamma 90.000000
_cell_volume 2700.634655
_symmetry_space_group_name_H-M "C 2/M"
_symmetry_group_IT_number 12
_symmetry_cell_setting 'monoclinic'
loop_
_space_group_symop_operation_xyz
x,y,z
-x,y,-z
-x,-y,-z
x,-y,z
1/2+x,1/2+y,z
1/2-x,1/2+y,-z
1/2-x,1/2-y,-z
1/2+x,1/2-y,z
loop_
_atom_site_type_symbol
_atom_site_label
_atom_site_fract_x
_atom_site_fract_y
_atom_site_fract_z
Si Si1 0.625282 0.109648 0.005136
Si Si2 0.715545 0.548163 0.926278
Si Si3 0.767460 0.245313 0.222885
Si Si4 0.350261 0.615923 0.569705
Si Si5 0.243283 0.196321 0.483753
Si Si6 0.905225 0.047605 0.294508
Si Si7 0.931617 0.296893 0.849521
O O1 0.764160 0.112495 0.792778
O O2 0.500000 0.093366 0.000000
O O3 0.658122 0.076712 0.112267
O O4 0.590364 0.154625 0.099951
O O5 0.755640 0.500000 0.917569
O O6 0.695046 0.558065 0.765389
O O7 0.567538 0.558649 0.128515
O O8 0.826309 0.213382 0.303577
O O9 0.678185 0.280517 0.388707
O O10 0.669787 0.217334 0.200090
O O11 0.892824 0.268571 0.028057
O O12 0.500000 0.632588 0.500000
O O13 0.282805 0.647646 0.504686
O O14 0.354411 0.571968 0.483629
O O15 0.408857 0.208688 0.336219
O O16 0.890203 0.000000 0.349781
#
# Coordination Sequence:
#
# PCOD8112654 Si02
#       7
#     8   8   8   8   8   8   8
#     4  12  23  42  64  93 135 174 205 261 327 384
#     4   9  20  41  67  95 128 169 214 262 318 382
#     4  10  23  40  65  87 118 171 215 254 315 388
#     4  12  24  40  63  98 130 165 215 266 311 382
#     4  11  23  43  62  92 127 165 212 267 319 377
#     4   9  20  41  67  94 129 168 214 266 316 375
#     4  11  22  44  62  90 127 170 210 262 323 377
#
# _framework density 20.735868
#
# number of rings (size 3 to 8) (size 9 to 14) (size 15 to 20)
#    0.000    1.429    4.286    1.714    2.000    3.429 
#    2.571    0.714    0.000    1.714    0.000    0.000 
#    0.000    0.000    0.000    0.000    0.000    0.000 
#
# Total GULP energy -347025.039469 kJ/mol
# GULP energy per Si atom -12393.751410 kJ/mol
# Density = 2.068867 g / cm^3
# Si number density = 20.735868 Si / 1000 Ang^3
#
#
#
# Elastic Constant Matrix: (Units=GPa)
#
#
# Indices 1 2 3 4 5 6 
#
# 1 112.9624 48.1341 20.1169 0.0000 4.8415 0.0000
# 2 48.1341 106.0097 27.2384 0.0000 9.8589 0.0000
# 3 20.1169 27.2384 62.4993 0.0000 6.7826 0.0000
# 4 0.0000 0.0000 0.0000 35.8363 0.0000 8.9540
# 5 4.8415 9.8589 6.7826 0.0000 29.4693 0.0000
# 6 0.0000 0.0000 0.0000 8.9540 0.0000 21.4846
#
#
#
# Elastic Compliance Matrix: (Units=1/GPa)
#
#
# Indices 1 2 3 4 5 6 
#
# 1 0.011108 -0.004652 -0.001558 0.000000 0.000090 0.000000
# 2 -0.004652 0.012761 -0.003778 0.000000 -0.002635 0.000000
# 3 -0.001558 -0.003778 0.018444 0.000000 -0.002725 0.000000
# 4 0.000000 0.000000 0.000000 0.031148 0.000000 -0.012981
# 5 0.000090 -0.002635 -0.002725 0.000000 0.035428 0.000000
# 6 0.000000 0.000000 0.000000 -0.012981 0.000000 0.051955
#
#
# Mechanical properties :
#
#
# Convention : Reuss Voigt Hill
#
# Bulk Modulus (GPa) = 44.76770 52.49447 48.63109
# Shear Modulus (GPa) = 26.55813 29.75683 28.15748
#
# Velocity S-wave (km/s) = 3.58268 3.79230 3.68898
# Velocity P-wave (km/s) = 6.22499 6.67429 6.45355
#
# Compressibility (1/GPa) = 0.02233753
#
# Stress axis : x y z
#
# Youngs Moduli (GPa) = 90.02308 78.36280 54.21821
#
# Poissons Ratio (x) = 0.36453 0.08446
# Poissons Ratio (y) = 0.41877 0.20485
# Poissons Ratio (z) = 0.14024 0.29607
#
# Static dielectric constant tensor:
#      x y z
#    x 3.813130 0.000000 0.110460 
#    y 0.000000 3.900640 0.000000 
#    z 0.110460 0.000000 3.627660 
# 
# 
# High freq. dielectric constant tensor:
#      x y z
#    x 1.812430 0.000000 0.015710 
#    y 0.000000 1.815040 0.000000 
#    z 0.015710 0.000000 1.806420 
# 
# From -- ./inp_files/54584.got.cif
#   From: 2010.06.25/outbox.cif.g09.slc.cpg/sg12_28_cif.got.tgz:54584.got - 2010.06.28 00:19:55.
