data_PCOD8112458
_publ_section_title
;
Structure prediction by ZEFSAII (Michael W. Deem and Ramdas Pophale) SiO2 
 PCOD8112458
Probable space group: C 2/M
;
_chemical_formula_sum "Si O2"
_cell_formula_units_Z 40
_cell_length_a 9.108484
_cell_length_b 17.074320
_cell_length_c 11.167069
_cell_angle_alpha 90.000000
_cell_angle_beta 79.133225
_cell_angle_gamma 90.000000
_cell_volume 1705.573207
_symmetry_space_group_name_H-M "C 2/M"
_symmetry_group_IT_number 12
_symmetry_cell_setting 'monoclinic'
loop_
_space_group_symop_operation_xyz
x,y,z
-x,y,-z
-x,-y,-z
x,-y,z
1/2+x,1/2+y,z
1/2-x,1/2+y,-z
1/2-x,1/2-y,-z
1/2+x,1/2-y,z
loop_
_atom_site_type_symbol
_atom_site_label
_atom_site_fract_x
_atom_site_fract_y
_atom_site_fract_z
Si Si1 0.289229 0.357567 0.707202
Si Si2 0.828084 0.590019 0.514810
Si Si3 0.900340 0.088978 0.241219
Si Si4 0.737806 0.209043 0.131619
Si Si5 0.001489 0.583833 0.859448
O O1 0.256734 0.356913 0.570446
O O2 0.453329 0.390409 0.706199
O O3 0.267929 0.270871 0.761263
O O4 0.171135 0.413851 0.789753
O O5 0.821871 0.500000 0.472599
O O6 0.745002 0.600228 0.653275
O O7 0.000000 0.617838 0.500000
O O8 0.877838 0.149402 0.132860
O O9 0.912083 0.000000 0.191290
O O10 0.587931 0.158813 0.171424
O O11 0.750000 0.250000 0.000000
O O12 0.932930 0.500000 0.824768
O O13 0.000000 0.585322 0.000000
#
# Coordination Sequence:
#
# PCOD8112458 Si02
#       5
#     8   8   8   8   8
#     4  12  24  42  73 105 141 177 225 293 353 402
#     4  10  22  44  73 104 138 180 231 286 346 420
#     4  11  25  45  72 104 139 180 231 288 346 409
#     4  12  26  47  67  98 144 187 230 285 343 412
#     4  11  23  43  69  97 133 186 236 274 334 414
#
# _framework density 23.452527
#
# number of rings (size 3 to 8) (size 9 to 14) (size 15 to 20)
#    0.000    0.800    2.000    5.400    0.000    4.000 
#    0.000    3.000    0.000    0.000    0.000    0.000 
#    0.000    0.000    0.000    0.000    0.000    0.000 
#
# Total GULP energy -247996.937800 kJ/mol
# GULP energy per Si atom -12399.846890 kJ/mol
# Density = 2.339915 g / cm^3
# Si number density = 23.452527 Si / 1000 Ang^3
#
#
#
# Elastic Constant Matrix: (Units=GPa)
#
#
# Indices 1 2 3 4 5 6 
#
# 1 144.8351 43.2721 30.6107 0.0000 18.4256 0.0000
# 2 43.2721 168.3535 48.3606 0.0000 31.5084 0.0000
# 3 30.6107 48.3606 86.4359 0.0000 17.6966 0.0000
# 4 0.0000 0.0000 0.0000 36.1036 0.0000 10.2201
# 5 18.4256 31.5084 17.6966 0.0000 35.7292 0.0000
# 6 0.0000 0.0000 0.0000 10.2201 0.0000 40.2293
#
#
#
# Elastic Compliance Matrix: (Units=1/GPa)
#
#
# Indices 1 2 3 4 5 6 
#
# 1 0.007884 -0.001117 -0.001710 0.000000 -0.002234 0.000000
# 2 -0.001117 0.008048 -0.003085 0.000000 -0.004993 0.000000
# 3 -0.001710 -0.003085 0.014649 0.000000 -0.003653 0.000000
# 4 0.000000 0.000000 0.000000 0.029844 0.000000 -0.007582
# 5 -0.002234 -0.004993 -0.003653 0.000000 0.035353 0.000000
# 6 0.000000 0.000000 0.000000 -0.007582 0.000000 0.026784
#
#
# Mechanical properties :
#
#
# Convention : Reuss Voigt Hill
#
# Bulk Modulus (GPa) = 53.31387 71.56793 62.44090
# Shear Modulus (GPa) = 35.55281 40.90450 38.22866
#
# Velocity S-wave (km/s) = 3.89774 4.18082 4.04176
# Velocity P-wave (km/s) = 6.56038 7.34085 6.96156
#
# Compressibility (1/GPa) = 0.01875684
#
# Stress axis : x y z
#
# Youngs Moduli (GPa) = 126.84448 124.26060 68.26591
#
# Poissons Ratio (x) = 0.13883 0.11670
# Poissons Ratio (y) = 0.14171 0.21058
# Poissons Ratio (z) = 0.21685 0.38331
#
# Static dielectric constant tensor:
#      x y z
#    x 4.262700 0.000000 0.175070 
#    y 0.000000 4.729660 0.000000 
#    z 0.175070 0.000000 3.978590 
# 
# 
# High freq. dielectric constant tensor:
#      x y z
#    x 1.937200 0.000000 0.007200 
#    y 0.000000 1.940880 0.000000 
#    z 0.007200 0.000000 1.923230 
# 
# From -- ./inp_files/118924.got.cif
#   From: 2010.06.25/outbox.cif.g09.slc.cpg/sg12_60_cif.got.tgz:118924.got - 2010.06.28 00:19:55.
