data_PCOD8112681
_publ_section_title
;
Structure prediction by ZEFSAII (Michael W. Deem and Ramdas Pophale) SiO2 
 PCOD8112681
Probable space group: C 2/M
;
_chemical_formula_sum "Si O2"
_cell_formula_units_Z 56
_cell_length_a 10.357490
_cell_length_b 14.654627
_cell_length_c 26.346899
_cell_angle_alpha 90.000000
_cell_angle_beta 137.741897
_cell_angle_gamma 90.000000
_cell_volume 2689.259255
_symmetry_space_group_name_H-M "C 2/M"
_symmetry_group_IT_number 12
_symmetry_cell_setting 'monoclinic'
loop_
_space_group_symop_operation_xyz
x,y,z
-x,y,-z
-x,-y,-z
x,-y,z
1/2+x,1/2+y,z
1/2-x,1/2+y,-z
1/2-x,1/2-y,-z
1/2+x,1/2-y,z
loop_
_atom_site_type_symbol
_atom_site_label
_atom_site_fract_x
_atom_site_fract_y
_atom_site_fract_z
Si Si1 0.437021 0.238924 0.215996
Si Si2 0.099148 0.395049 0.959695
Si Si3 0.799349 0.892966 0.114430
Si Si4 0.052947 0.604681 0.596720
Si Si5 0.356341 0.266956 0.309476
Si Si6 0.299857 0.393987 0.916807
Si Si7 0.194267 0.104831 0.425907
O O1 0.457972 0.330082 0.186864
O O2 0.381402 0.268874 0.256264
O O3 0.649627 0.197159 0.269952
O O4 0.270900 0.167349 0.150479
O O5 0.078846 0.500000 0.968084
O O6 0.139891 0.377800 0.913161
O O7 0.893217 0.354917 0.913784
O O8 0.274486 0.363450 0.047823
O O9 0.848174 0.000000 0.136711
O O10 0.081818 0.500000 0.621042
O O11 0.096598 0.664893 0.658522
O O12 0.200236 0.632813 0.595363
O O13 0.836154 0.621172 0.514481
O O14 0.505662 0.335486 0.379117
O O15 0.315067 0.500000 0.904169
O O16 0.500000 0.361691 0.000000
O O17 0.130809 0.000000 0.404830
#
# Coordination Sequence:
#
# PCOD8112681 Si02
#       7
#     8   8   8   8   8   8   8
#     4  12  27  37  59  89 124 169 203 246 327 381
#     4   8  16  35  60  79 100 138 199 265 311 348
#     4   9  19  36  58  85 109 144 201 259 307 368
#     4   9  19  40  70  98 126 167 215 250 295 366
#     4  12  24  42  58  98 136 164 201 256 318 372
#     4  10  23  41  57  77 111 159 209 262 317 371
#     4   9  19  40  71  97 123 170 215 250 295 366
#
# _framework density 20.823578000000001
#
# number of rings (size 3 to 8) (size 9 to 14) (size 15 to 20)
#    0.000    2.143    1.429    3.000    4.000    2.857 
#    0.000    0.000    0.000    1.714    0.000    0.000 
#    0.000    0.000    0.000    0.000    0.000    0.000 
#
# Total GULP energy -347078.915739 kJ/mol
# GULP energy per Si atom -12395.675562 kJ/mol
# Density = 2.077618 g / cm^3
# Si number density = 20.823578 Si / 1000 Ang^3
#
#
#
# Elastic Constant Matrix: (Units=GPa)
#
#
# Indices 1 2 3 4 5 6 
#
# 1 38.0990 -0.2490 7.4141 0.0000 10.0535 0.0000
# 2 -0.2490 77.8383 38.4891 0.0000 8.4990 0.0000
# 3 7.4141 38.4891 75.3056 0.0000 8.6599 0.0000
# 4 0.0000 0.0000 0.0000 32.8887 0.0000 -4.0269
# 5 10.0535 8.4990 8.6599 0.0000 36.7664 0.0000
# 6 0.0000 0.0000 0.0000 -4.0269 0.0000 22.3308
#
#
#
# Elastic Compliance Matrix: (Units=1/GPa)
#
#
# Indices 1 2 3 4 5 6 
#
# 1 0.028940 0.002551 -0.003264 0.000000 -0.007734 0.000000
# 2 0.002551 0.017555 -0.008918 0.000000 -0.002655 0.000000
# 3 -0.003264 -0.008918 0.018315 0.000000 -0.001360 0.000000
# 4 0.000000 0.000000 0.000000 0.031092 0.000000 0.005607
# 5 -0.007734 -0.002655 -0.001360 0.000000 0.030248 0.000000
# 6 0.000000 0.000000 0.000000 0.005607 0.000000 0.045792
#
#
# Mechanical properties :
#
#
# Convention : Reuss Voigt Hill
#
# Bulk Modulus (GPa) = 21.95480 31.39462 26.67471
# Shear Modulus (GPa) = 24.22630 28.10308 26.16469
#
# Velocity S-wave (km/s) = 3.41458 3.67765 3.54855
# Velocity P-wave (km/s) = 5.10998 5.75697 5.44310
#
# Compressibility (1/GPa) = 0.04554812
#
# Stress axis : x y z
#
# Youngs Moduli (GPa) = 34.55418 56.96359 54.59970
#
# Poissons Ratio (x) = -0.14530 0.17819
# Poissons Ratio (y) = -0.08814 0.48694
# Poissons Ratio (z) = 0.11277 0.50802
#
# Static dielectric constant tensor:
#      x y z
#    x 3.666070 0.000000 0.073790 
#    y 0.000000 3.634630 0.000000 
#    z 0.073790 0.000000 3.782690 
# 
# 
# High freq. dielectric constant tensor:
#      x y z
#    x 1.802080 0.000000 0.005300 
#    y 0.000000 1.809850 0.000000 
#    z 0.005300 0.000000 1.816030 
# 
# From -- ./inp_files/358235.got.cif
#   From: 2010.06.25/outbox.cif.g09.slc.cpg/sg12_180_cif.got.tgz:358235.got - 2010.06.28 00:19:55.
