data_PCOD8112268
_publ_section_title
;
Structure prediction by ZEFSAII (Michael W. Deem and Ramdas Pophale) SiO2 
 PCOD8112268
Probable space group: C 2/M
;
_chemical_formula_sum "Si O2"
_cell_formula_units_Z 48
_cell_length_a 29.875961
_cell_length_b 16.553778
_cell_length_c 9.349516
_cell_angle_alpha 90.000000
_cell_angle_beta 152.036067
_cell_angle_gamma 90.000000
_cell_volume 2168.217678
_symmetry_space_group_name_H-M "C 2/M"
_symmetry_group_IT_number 12
_symmetry_cell_setting 'monoclinic'
loop_
_space_group_symop_operation_xyz
x,y,z
-x,y,-z
-x,-y,-z
x,-y,z
1/2+x,1/2+y,z
1/2-x,1/2+y,-z
1/2-x,1/2-y,-z
1/2+x,1/2-y,z
loop_
_atom_site_type_symbol
_atom_site_label
_atom_site_fract_x
_atom_site_fract_y
_atom_site_fract_z
Si Si1 0.254475 0.663397 0.583173
Si Si2 0.222345 0.592885 0.200158
Si Si3 0.562835 0.140377 0.561372
Si Si4 0.924935 0.088262 0.664298
Si Si5 0.899679 0.592775 0.651362
Si Si6 0.028352 0.813222 0.730214
O O1 0.250000 0.750000 0.500000
O O2 0.214823 0.601934 0.350716
O O3 0.185652 0.649087 0.526877
O O4 0.364893 0.655043 0.938438
O O5 0.198903 0.500000 0.093820
O O6 0.328378 0.619378 0.461129
O O7 0.159501 0.654906 0.926549
O O8 0.500000 0.087332 0.500000
O O9 0.591874 0.097636 0.496615
O O10 0.494453 0.217464 0.336456
O O11 0.954658 0.154367 0.636114
O O12 0.912583 0.000000 0.556701
O O13 0.000000 0.081618 0.000000
O O14 0.878178 0.500000 0.631551
O O15 0.000000 0.622354 0.000000
O O16 0.000000 0.852470 0.500000
#
# Coordination Sequence:
#
# PCOD8112268 Si02
#       6
#     8   8   8   8   8   8
#     4  12  25  43  69 102 139 184 233 287 354 418
#     4  11  24  44  72 101 136 184 236 289 345 414
#     4  11  25  46  69 102 138 181 237 289 355 413
#     4  10  22  42  67  99 135 183 233 278 343 420
#     4  11  25  44  70 103 141 185 237 294 350 416
#     4  11  25  43  65  99 141 185 224 285 352 418
#
# _framework density 22.137999000000001
#
# number of rings (size 3 to 8) (size 9 to 14) (size 15 to 20)
#    0.000    1.000    1.667    5.000    4.667    5.000 
#    0.000    0.000    0.000    0.000    0.000    0.000 
#    0.000    0.000    0.000    0.000    0.000    0.000 
#
# Total GULP energy -297336.784457 kJ/mol
# GULP energy per Si atom -12389.032686 kJ/mol
# Density = 2.208761 g / cm^3
# Si number density = 22.137999 Si / 1000 Ang^3
#
#
#
# Elastic Constant Matrix: (Units=GPa)
#
#
# Indices 1 2 3 4 5 6 
#
# 1 170.8794 37.2851 46.0769 0.0000 1.7312 0.0000
# 2 37.2851 62.2515 15.3690 0.0000 2.5109 0.0000
# 3 46.0769 15.3690 137.8880 0.0000 -2.4265 0.0000
# 4 0.0000 0.0000 0.0000 30.6082 0.0000 1.1871
# 5 1.7312 2.5109 -2.4265 0.0000 41.8539 0.0000
# 6 0.0000 0.0000 0.0000 1.1871 0.0000 58.9384
#
#
#
# Elastic Compliance Matrix: (Units=1/GPa)
#
#
# Indices 1 2 3 4 5 6 
#
# 1 0.007226 -0.003829 -0.001991 0.000000 -0.000185 0.000000
# 2 -0.003829 0.018598 -0.000811 0.000000 -0.001004 0.000000
# 3 -0.001991 -0.000811 0.008019 0.000000 0.000596 0.000000
# 4 0.000000 0.000000 0.000000 0.032697 0.000000 -0.000659
# 5 -0.000185 -0.001004 0.000596 0.000000 0.023995 0.000000
# 6 0.000000 0.000000 0.000000 -0.000659 0.000000 0.016980
#
#
# Mechanical properties :
#
#
# Convention : Reuss Voigt Hill
#
# Bulk Modulus (GPa) = 48.59059 63.16455 55.87757
# Shear Modulus (GPa) = 39.17339 44.43262 41.80301
#
# Velocity S-wave (km/s) = 4.21112 4.48490 4.35016
# Velocity P-wave (km/s) = 6.75583 7.44401 7.10825
#
# Compressibility (1/GPa) = 0.02058012
#
# Stress axis : x y z
#
# Youngs Moduli (GPa) = 138.38191 53.76905 124.71098
#
# Poissons Ratio (x) = 0.20589 0.24833
# Poissons Ratio (y) = 0.52988 0.10115
# Poissons Ratio (z) = 0.27555 0.04361
#
# Static dielectric constant tensor:
#      x y z
#    x 4.221660 0.000000 -0.078680 
#    y 0.000000 3.932370 0.000000 
#    z -0.078680 0.000000 4.448480 
# 
# 
# High freq. dielectric constant tensor:
#      x y z
#    x 1.888410 0.000000 0.003330 
#    y 0.000000 1.852400 0.000000 
#    z 0.003330 0.000000 1.886110 
# 
# From -- ./inp_files/77685.got.cif
#   From: 2010.06.25/outbox.cif.g09.slc.cpg/sg12_39_cif.got.tgz:77685.got - 2010.06.28 00:19:55.
