data_PCOD8112344
_publ_section_title
;
Structure prediction by ZEFSAII (Michael W. Deem and Ramdas Pophale) SiO2 
 PCOD8112344
Probable space group: C 2/M
;
_chemical_formula_sum "Si O2"
_cell_formula_units_Z 56
_cell_length_a 24.979864
_cell_length_b 8.817146
_cell_length_c 14.436496
_cell_angle_alpha 90.000000
_cell_angle_beta 59.753078
_cell_angle_gamma 90.000000
_cell_volume 2746.784274
_symmetry_space_group_name_H-M "C 2/M"
_symmetry_group_IT_number 12
_symmetry_cell_setting 'monoclinic'
loop_
_space_group_symop_operation_xyz
x,y,z
-x,y,-z
-x,-y,-z
x,-y,z
1/2+x,1/2+y,z
1/2-x,1/2+y,-z
1/2-x,1/2-y,-z
1/2+x,1/2-y,z
loop_
_atom_site_type_symbol
_atom_site_label
_atom_site_fract_x
_atom_site_fract_y
_atom_site_fract_z
Si Si1 0.595144 0.820303 0.790680
Si Si2 0.730756 0.828827 0.923545
Si Si3 0.484513 0.678658 0.785043
Si Si4 0.893060 0.178768 0.028783
Si Si5 0.672744 0.328919 0.318484
Si Si6 0.269177 0.820735 0.387442
Si Si7 0.049052 0.676363 0.378784
O O1 0.548156 0.763831 0.753031
O O2 0.576150 0.749224 0.906124
O O3 0.663289 0.762464 0.702392
O O4 0.592321 0.000000 0.801531
O O5 0.676272 0.740011 0.920134
O O6 0.792009 0.828342 0.809090
O O7 0.708065 0.000000 0.962169
O O8 0.750000 0.750000 0.000000
O O9 0.496245 0.500000 0.777162
O O10 0.462437 0.725569 0.702697
O O11 0.432472 0.727301 0.904711
O O12 0.891347 0.000000 0.041938
O O13 0.649812 0.500000 0.360852
O O14 0.718714 0.267047 0.357004
O O15 0.615620 0.214971 0.363382
O O16 0.250000 0.750000 0.500000
O O17 0.270374 0.000000 0.395026
O O18 0.045579 0.500000 0.355632
O O19 0.000000 0.720345 0.500000
#
# Coordination Sequence:
#
# PCOD8112344 Si02
#       7
#     8   8   8   8   8   8   8
#     4  11  23  42  66  95 130 167 207 258 314 372
#     4  11  22  38  61  91 127 164 206 256 309 369
#     4  11  25  43  64  93 128 168 212 259 309 372
#     4  11  23  40  62  93 129 165 210 257 308 373
#     4  10  22  43  65  90 126 164 205 254 310 372
#     4  10  23  42  64  94 127 163 207 256 311 371
#     4  11  26  45  65  93 125 162 211 264 313 370
#
# _framework density 20.387477000000001
#
# number of rings (size 3 to 8) (size 9 to 14) (size 15 to 20)
#    0.000    1.286    1.429    3.429    2.000   11.429 
#    0.000    0.000    0.000    0.000    0.000    0.000 
#    0.000    0.000    0.000    0.000    0.000    0.000 
#
# Total GULP energy -347377.331913 kJ/mol
# GULP energy per Si atom -12406.333283 kJ/mol
# Density = 2.034107 g / cm^3
# Si number density = 20.387477 Si / 1000 Ang^3
#
#
#
# Elastic Constant Matrix: (Units=GPa)
#
#
# Indices 1 2 3 4 5 6 
#
# 1 117.0082 36.1743 42.3362 0.0000 -9.2206 0.0000
# 2 36.1743 73.7406 47.9108 0.0000 -3.7748 0.0000
# 3 42.3362 47.9108 120.8947 0.0000 1.0238 0.0000
# 4 0.0000 0.0000 0.0000 34.7772 0.0000 3.0419
# 5 -9.2206 -3.7748 1.0238 0.0000 31.3522 0.0000
# 6 0.0000 0.0000 0.0000 3.0419 0.0000 41.7057
#
#
#
# Elastic Compliance Matrix: (Units=1/GPa)
#
#
# Indices 1 2 3 4 5 6 
#
# 1 0.010730 -0.003587 -0.002360 0.000000 0.002801 0.000000
# 2 -0.003587 0.019651 -0.006544 0.000000 0.001525 0.000000
# 3 -0.002360 -0.006544 0.011707 0.000000 -0.001864 0.000000
# 4 0.000000 0.000000 0.000000 0.028939 0.000000 -0.002111
# 5 0.002801 0.001525 -0.001864 0.000000 0.032964 0.000000
# 6 0.000000 0.000000 0.000000 -0.002111 0.000000 0.024131
#
#
# Mechanical properties :
#
#
# Convention : Reuss Voigt Hill
#
# Bulk Modulus (GPa) = 58.46016 62.72068 60.59042
# Shear Modulus (GPa) = 31.48480 33.91517 32.69998
#
# Velocity S-wave (km/s) = 3.93405 4.08306 4.00925
# Velocity P-wave (km/s) = 7.02655 7.28421 7.15654
#
# Compressibility (1/GPa) = 0.01710567
#
# Stress axis : x y z
#
# Youngs Moduli (GPa) = 93.19748 50.88835 85.41671
#
# Poissons Ratio (x) = 0.18255 0.20155
# Poissons Ratio (y) = 0.33432 0.55900
# Poissons Ratio (z) = 0.21991 0.33303
#
# Static dielectric constant tensor:
#      x y z
#    x 3.787280 0.000000 -0.019070 
#    y 0.000000 3.697690 0.000000 
#    z -0.019070 0.000000 3.713470 
# 
# 
# High freq. dielectric constant tensor:
#      x y z
#    x 1.811350 0.000000 0.002670 
#    y 0.000000 1.800680 0.000000 
#    z 0.002670 0.000000 1.804270 
# 
# From -- ./inp_files/238245.got.cif
#   From: 2010.06.25/outbox.cif.g09.slc.cpg/sg12_120_cif.got.tgz:238245.got - 2010.06.28 00:19:55.
