data_PCOD8112355
_publ_section_title
;
Structure prediction by ZEFSAII (Michael W. Deem and Ramdas Pophale) SiO2 
 PCOD8112355
Probable space group: C 2/M
;
_chemical_formula_sum "Si O2"
_cell_formula_units_Z 40
_cell_length_a 9.421397
_cell_length_b 14.490226
_cell_length_c 30.610636
_cell_angle_alpha 90.000000
_cell_angle_beta 151.830186
_cell_angle_gamma 90.000000
_cell_volume 1972.805617
_symmetry_space_group_name_H-M "C 2/M"
_symmetry_group_IT_number 12
_symmetry_cell_setting 'monoclinic'
loop_
_space_group_symop_operation_xyz
x,y,z
-x,y,-z
-x,-y,-z
x,-y,z
1/2+x,1/2+y,z
1/2-x,1/2+y,-z
1/2-x,1/2-y,-z
1/2+x,1/2-y,z
loop_
_atom_site_type_symbol
_atom_site_label
_atom_site_fract_x
_atom_site_fract_y
_atom_site_fract_z
Si Si1 0.158313 0.600848 0.584780
Si Si2 0.096747 0.607867 0.976251
Si Si3 0.204007 0.318636 0.446703
Si Si4 0.809944 0.217876 0.857359
Si Si5 0.801409 0.228244 0.266801
O O1 0.242536 0.500000 0.590473
O O2 0.466798 0.648015 0.682531
O O3 0.000000 0.654755 0.500000
O O4 0.933714 0.593137 0.565225
O O5 0.070155 0.500000 0.954413
O O6 0.888107 0.675118 0.890428
O O7 0.435062 0.644294 0.060769
O O8 0.000000 0.619482 0.000000
O O9 0.500000 0.345827 0.500000
O O10 0.250000 0.250000 0.500000
O O11 0.940347 0.288150 0.343113
O O12 0.515214 0.185955 0.803672
O O13 0.749531 0.209071 0.789482
#
# Coordination Sequence:
#
# PCOD8112355 Si02
#       5
#     8   8   8   8   8
#     4  11  24  40  59  90 129 164 207 264 315 358
#     4  10  22  43  66  90 126 164 200 254 321 383
#     4  12  20  38  65  88 119 172 210 245 304 375
#     4  11  23  39  65  97 121 161 208 260 310 378
#     4  12  21  38  63  92 122 160 209 253 303 367
#
# _framework density 20.275690999999998
#
# number of rings (size 3 to 8) (size 9 to 14) (size 15 to 20)
#    0.000    0.800    8.000    0.000    0.000    2.000 
#    0.000    2.000    0.000    0.000    0.000    0.000 
#    0.000    0.000    0.000    0.000    0.000    0.000 
#
# Total GULP energy -247886.434159 kJ/mol
# GULP energy per Si atom -12394.321708 kJ/mol
# Density = 2.022954 g / cm^3
# Si number density = 20.275691 Si / 1000 Ang^3
#
#
#
# Elastic Constant Matrix: (Units=GPa)
#
#
# Indices 1 2 3 4 5 6 
#
# 1 144.6552 19.1790 42.8846 -0.0002 23.3049 -0.0001
# 2 19.1790 79.1986 24.0772 0.0004 0.4216 0.0000
# 3 42.8846 24.0772 101.8841 0.0005 11.2371 0.0000
# 4 -0.0002 0.0004 0.0005 13.5664 0.0001 -1.2196
# 5 23.3049 0.4216 11.2371 0.0001 53.6436 -0.0001
# 6 -0.0001 0.0000 0.0000 -1.2196 -0.0001 19.5786
#
#
#
# Elastic Compliance Matrix: (Units=1/GPa)
#
#
# Indices 1 2 3 4 5 6 
#
# 1 0.008424 -0.001129 -0.002945 0.000000 -0.003034 0.000000
# 2 -0.001129 0.013773 -0.002889 0.000000 0.000987 0.000000
# 3 -0.002945 -0.002889 0.011868 0.000000 -0.001184 0.000000
# 4 0.000000 0.000000 0.000000 0.074127 0.000000 0.004618
# 5 -0.003034 0.000987 -0.001184 0.000000 0.020200 0.000000
# 6 0.000000 0.000000 0.000000 0.004618 0.000000 0.051364
#
#
# Mechanical properties :
#
#
# Convention : Reuss Voigt Hill
#
# Bulk Modulus (GPa) = 49.64965 55.33549 52.49257
# Shear Modulus (GPa) = 24.95096 33.33084 29.14090
#
# Velocity S-wave (km/s) = 3.51178 4.05888 3.79520
# Velocity P-wave (km/s) = 6.40186 7.02259 6.71940
#
# Compressibility (1/GPa) = 0.02014113
#
# Stress axis : x y z
#
# Youngs Moduli (GPa) = 118.70238 72.60729 84.26226
#
# Poissons Ratio (x) = 0.08196 0.24812
# Poissons Ratio (y) = 0.13399 0.24340
# Poissons Ratio (z) = 0.34953 0.20973
#
# Static dielectric constant tensor:
#      x y z
#    x 4.049170 0.000000 0.014630 
#    y 0.000000 3.496710 0.000000 
#    z 0.014630 0.000000 3.812950 
# 
# 
# High freq. dielectric constant tensor:
#      x y z
#    x 1.811940 0.000000 0.002450 
#    y 0.000000 1.761460 0.000000 
#    z 0.002450 0.000000 1.802420 
# 
# From -- ./inp_files/194445.got.cif
#   From: 2010.06.25/outbox.cif.g09.slc.cpg/sg12_98_cif.got.tgz:194445.got - 2010.06.28 00:19:55.
