data_PCOD8112534
_publ_section_title
;
Structure prediction by ZEFSAII (Michael W. Deem and Ramdas Pophale) SiO2 
 PCOD8112534
Probable space group: C 2/M
;
_chemical_formula_sum "Si O2"
_cell_formula_units_Z 40
_cell_length_a 15.539576
_cell_length_b 11.862671
_cell_length_c 14.324307
_cell_angle_alpha 90.000000
_cell_angle_beta 42.926462
_cell_angle_gamma 90.000000
_cell_volume 1798.374286
_symmetry_space_group_name_H-M "C 2/M"
_symmetry_group_IT_number 12
_symmetry_cell_setting 'monoclinic'
loop_
_space_group_symop_operation_xyz
x,y,z
-x,y,-z
-x,-y,-z
x,-y,z
1/2+x,1/2+y,z
1/2-x,1/2+y,-z
1/2-x,1/2-y,-z
1/2+x,1/2-y,z
loop_
_atom_site_type_symbol
_atom_site_label
_atom_site_fract_x
_atom_site_fract_y
_atom_site_fract_z
Si Si1 0.058479 0.716484 0.213284
Si Si2 0.564350 0.000000 0.094012
Si Si3 0.216113 0.759989 0.258355
Si Si4 0.601190 0.373226 0.778646
Si Si5 0.305389 0.000000 0.208655
Si Si6 0.372801 0.126750 0.510515
O O1 0.105816 0.609662 0.117802
O O2 0.177883 0.755299 0.180337
O O3 0.019241 0.816789 0.174883
O O4 0.938130 0.688794 0.372936
O O5 0.412896 0.000000 0.202371
O O6 0.633605 0.000000 0.941266
O O7 0.353836 0.700248 0.165865
O O8 0.219977 0.889316 0.289667
O O9 0.109627 0.692958 0.403840
O O10 0.564229 0.500000 0.839068
O O11 0.721038 0.375818 0.612055
O O12 0.426897 0.000000 0.477601
#
# Coordination Sequence:
#
# PCOD8112534 Si02
#       6
#     8   4   8   8   4   8
#     4  12  21  37  65  95 118 163 206 243 313 364
#     4  11  24  40  73  81 115 173 207 257 290 363
#     4  10  23  38  62  87 127 158 198 260 294 364
#     4   9  21  37  56  91 129 160 190 246 311 358
#     4  11  24  48  57  89 125 157 217 254 301 349
#     4   9  19  37  61  92 126 156 199 250 300 370
#
# _framework density 22.242311999999998
#
# number of rings (size 3 to 8) (size 9 to 14) (size 15 to 20)
#    1.200    0.600    3.000    1.200    4.200    1.600 
#    1.800    1.000    0.000    1.200    0.000    0.000 
#    0.000    0.000    0.000    0.000    0.000    0.000 
#
# Total GULP energy -247912.014870 kJ/mol
# GULP energy per Si atom -12395.600743 kJ/mol
# Density = 2.219169 g / cm^3
# Si number density = 22.242312 Si / 1000 Ang^3
#
#
#
# Elastic Constant Matrix: (Units=GPa)
#
#
# Indices 1 2 3 4 5 6 
#
# 1 149.5114 75.6111 6.6933 0.0000 10.0378 0.0000
# 2 75.6111 185.5986 -3.8953 0.0000 2.9417 0.0000
# 3 6.6933 -3.8953 14.8883 0.0000 4.1744 0.0000
# 4 0.0000 0.0000 0.0000 14.5054 0.0000 10.9394
# 5 10.0378 2.9417 4.1744 0.0000 15.6212 0.0000
# 6 0.0000 0.0000 0.0000 10.9394 0.0000 32.5168
#
#
#
# Elastic Compliance Matrix: (Units=1/GPa)
#
#
# Indices 1 2 3 4 5 6 
#
# 1 0.008996 -0.003682 -0.003871 0.000000 -0.004053 0.000000
# 2 -0.003682 0.006958 0.003437 0.000000 0.000137 0.000000
# 3 -0.003871 0.003437 0.074903 0.000000 -0.018176 0.000000
# 4 0.000000 0.000000 0.000000 0.092377 0.000000 -0.031078
# 5 -0.004053 0.000137 -0.018176 0.000000 0.071451 0.000000
# 6 0.000000 0.000000 0.000000 -0.031078 0.000000 0.041209
#
#
# Mechanical properties :
#
#
# Convention : Reuss Voigt Hill
#
# Bulk Modulus (GPa) = 12.10293 56.31294 34.20794
# Shear Modulus (GPa) = 15.07538 30.63462 22.85500
#
# Velocity S-wave (km/s) = 2.60624 3.71524 3.20901
# Velocity P-wave (km/s) = 3.80918 6.61641 5.39846
#
# Compressibility (1/GPa) = 0.08262461
#
# Stress axis : x y z
#
# Youngs Moduli (GPa) = 111.16261 143.72192 13.35067
#
# Poissons Ratio (x) = 0.52916 0.05168
# Poissons Ratio (y) = 0.40928 -0.04589
# Poissons Ratio (z) = 0.43034 -0.49401
#
# Static dielectric constant tensor:
#      x y z
#    x 3.886540 0.000000 0.084560 
#    y 0.000000 4.021290 0.000000 
#    z 0.084560 0.000000 3.423380 
# 
# 
# High freq. dielectric constant tensor:
#      x y z
#    x 1.874370 0.000000 0.002500 
#    y 0.000000 1.884440 0.000000 
#    z 0.002500 0.000000 1.840060 
# 
# From -- ./inp_files/212394.got.cif
#   From: 2010.06.25/outbox.cif.g09.slc.cpg/sg12_107_cif.got.tgz:212394.got - 2010.06.28 00:19:55.
