data_PCOD8112692
_publ_section_title
;
Structure prediction by ZEFSAII (Michael W. Deem and Ramdas Pophale) SiO2 
 PCOD8112692
Probable space group: C 2/M
;
_chemical_formula_sum "Si O2"
_cell_formula_units_Z 40
_cell_length_a 8.939134
_cell_length_b 23.454523
_cell_length_c 8.455276
_cell_angle_alpha 90.000000
_cell_angle_beta 92.394329
_cell_angle_gamma 90.000000
_cell_volume 1771.211908
_symmetry_space_group_name_H-M "C 2/M"
_symmetry_group_IT_number 12
_symmetry_cell_setting 'monoclinic'
loop_
_space_group_symop_operation_xyz
x,y,z
-x,y,-z
-x,-y,-z
x,-y,z
1/2+x,1/2+y,z
1/2-x,1/2+y,-z
1/2-x,1/2-y,-z
1/2+x,1/2-y,z
loop_
_atom_site_type_symbol
_atom_site_label
_atom_site_fract_x
_atom_site_fract_y
_atom_site_fract_z
Si Si1 0.709592 0.319007 0.676909
Si Si2 0.319150 0.563606 0.816793
Si Si3 0.510464 0.758520 0.185611
Si Si4 0.333941 0.434950 0.178009
Si Si5 0.642426 0.152076 0.614984
O O1 0.542515 0.299152 0.722744
O O2 0.743932 0.385647 0.721211
O O3 0.736877 0.314410 0.489669
O O4 0.819397 0.274872 0.770424
O O5 0.259037 0.500000 0.802063
O O6 0.491221 0.566936 0.773680
O O7 0.216357 0.596628 0.690243
O O8 0.301815 0.583844 0.996708
O O9 0.402695 0.809090 0.239068
O O10 0.500000 0.746993 0.000000
O O11 0.274818 0.500000 0.209593
O O12 0.500000 0.136335 0.500000
#
# Coordination Sequence:
#
# PCOD8112692 Si02
#       5
#     8   8   8   8   8
#     4  11  24  40  63  95 130 167 207 266 317 378
#     4   9  19  38  65  93 125 166 212 263 311 372
#     4  11  24  41  63  92 125 172 217 259 313 377
#     4   9  20  39  65  95 123 161 215 265 313 367
#     4  10  23  41  59  91 136 167 206 257 319 383
#
# _framework density 22.583407000000001
#
# number of rings (size 3 to 8) (size 9 to 14) (size 15 to 20)
#    0.000    2.000    0.000    3.600    5.600    2.000 
#    0.000    5.000    0.000   10.800    0.000    0.000 
#    0.000    0.000    0.000    0.000    0.000    0.000 
#
# Total GULP energy -247901.560945 kJ/mol
# GULP energy per Si atom -12395.078047 kJ/mol
# Density = 2.253201 g / cm^3
# Si number density = 22.583407 Si / 1000 Ang^3
#
#
#
# Elastic Constant Matrix: (Units=GPa)
#
#
# Indices 1 2 3 4 5 6 
#
# 1 59.3140 46.7942 42.4223 0.0000 -7.6827 0.0000
# 2 46.7942 89.1977 26.2141 0.0000 17.8326 0.0000
# 3 42.4223 26.2141 73.5519 0.0000 1.2488 0.0000
# 4 0.0000 0.0000 0.0000 25.5945 0.0000 4.8707
# 5 -7.6827 17.8326 1.2488 0.0000 29.9691 0.0000
# 6 0.0000 0.0000 0.0000 4.8707 0.0000 34.8969
#
#
#
# Elastic Compliance Matrix: (Units=1/GPa)
#
#
# Indices 1 2 3 4 5 6 
#
# 1 0.074991 -0.039295 -0.029992 0.000000 0.043855 0.000000
# 2 -0.039295 0.034925 0.010748 0.000000 -0.031303 0.000000
# 3 -0.029992 0.010748 0.027322 0.000000 -0.015222 0.000000
# 4 0.000000 0.000000 0.000000 0.040137 0.000000 -0.005602
# 5 0.043855 -0.031303 -0.015222 0.000000 0.063870 0.000000
# 6 0.000000 0.000000 0.000000 -0.005602 0.000000 0.029438
#
#
# Mechanical properties :
#
#
# Convention : Reuss Voigt Hill
#
# Bulk Modulus (GPa) = 49.60216 50.32497 49.96356
# Shear Modulus (GPa) = 12.67488 25.20096 18.93792
#
# Velocity S-wave (km/s) = 2.37164 3.34414 2.89896
# Velocity P-wave (km/s) = 5.43242 6.10274 5.77731
#
# Compressibility (1/GPa) = 0.02016041
#
# Stress axis : x y z
#
# Youngs Moduli (GPa) = 13.33493 28.63294 36.60026
#
# Poissons Ratio (x) = 1.12512 1.09772
# Poissons Ratio (y) = 0.52399 -0.39338
# Poissons Ratio (z) = 0.39994 -0.30774
#
# Static dielectric constant tensor:
#      x y z
#    x 3.981330 0.000000 -0.136440 
#    y 0.000000 4.153560 0.000000 
#    z -0.136440 0.000000 3.980070 
# 
# 
# High freq. dielectric constant tensor:
#      x y z
#    x 1.878120 0.000000 -0.003860 
#    y 0.000000 1.896410 0.000000 
#    z -0.003860 0.000000 1.890480 
# 
# From -- ./inp_files/39418.got.cif
#   From: 2010.06.25/outbox.cif.g09.slc.cpg/sg12_20_cif.got.tgz:39418.got - 2010.06.28 00:19:55.
