data_PCOD8112797
_publ_section_title
;
Structure prediction by ZEFSAII (Michael W. Deem and Ramdas Pophale) SiO2 
 PCOD8112797
Probable space group: C 2/M
;
_chemical_formula_sum "Si O2"
_cell_formula_units_Z 56
_cell_length_a 17.725170
_cell_length_b 8.503536
_cell_length_c 28.550814
_cell_angle_alpha 90.000000
_cell_angle_beta 38.908915
_cell_angle_gamma 90.000000
_cell_volume 2702.877025
_symmetry_space_group_name_H-M "C 2/M"
_symmetry_group_IT_number 12
_symmetry_cell_setting 'monoclinic'
loop_
_space_group_symop_operation_xyz
x,y,z
-x,y,-z
-x,-y,-z
x,-y,z
1/2+x,1/2+y,z
1/2-x,1/2+y,-z
1/2-x,1/2-y,-z
1/2+x,1/2-y,z
loop_
_atom_site_type_symbol
_atom_site_label
_atom_site_fract_x
_atom_site_fract_y
_atom_site_fract_z
Si Si1 0.750718 0.317840 0.138411
Si Si2 0.895891 0.180377 0.151133
Si Si3 0.543952 0.182665 0.428384
Si Si4 0.619638 0.684004 0.572869
Si Si5 0.299129 0.180715 0.290544
Si Si6 0.170227 0.184464 0.997147
Si Si7 0.972422 0.184490 0.282700
O O1 0.774051 0.500000 0.138823
O O2 0.822839 0.209224 0.139201
O O3 0.795999 0.281042 0.064945
O O4 0.611487 0.275332 0.210071
O O5 0.845852 0.291758 0.215726
O O6 0.880721 0.000000 0.174115
O O7 0.033569 0.221451 0.075658
O O8 0.500000 0.244610 0.500000
O O9 0.473835 0.274412 0.422225
O O10 0.685202 0.210619 0.355979
O O11 0.514348 0.000000 0.436873
O O12 0.631177 0.500000 0.570340
O O13 0.750000 0.750000 0.500000
O O14 0.571199 0.747996 0.645835
O O15 0.403743 0.220357 0.276143
O O16 0.260611 0.000000 0.314276
O O17 0.193050 0.000000 0.978189
O O18 0.250000 0.250000 0.000000
O O19 0.947100 0.000000 0.288372
#
# Coordination Sequence:
#
# PCOD8112797 Si02
#       7
#     8   8   8   8   8   8   8
#     4  11  23  40  64  92 122 159 204 253 305 362
#     4  11  24  42  63  88 123 163 202 248 303 363
#     4  11  24  42  64  90 123 163 204 249 304 363
#     4  11  23  40  63  91 124 161 205 254 303 361
#     4  12  25  40  63  93 122 157 203 252 302 359
#     4  11  24  41  62  90 123 161 204 252 307 364
#     4  10  23  42  61  86 122 160 198 245 302 361
#
# _framework density 20.718664
#
# number of rings (size 3 to 8) (size 9 to 14) (size 15 to 20)
#    0.000    1.000    0.000    6.429    0.000   15.429 
#    0.000    0.000    0.000    0.000    0.000    0.000 
#    0.000    0.000    0.000    0.000    0.000    0.000 
#
# Total GULP energy -347429.695400 kJ/mol
# GULP energy per Si atom -12408.203407 kJ/mol
# Density = 2.067151 g / cm^3
# Si number density = 20.718664 Si / 1000 Ang^3
#
#
#
# Elastic Constant Matrix: (Units=GPa)
#
#
# Indices 1 2 3 4 5 6 
#
# 1 135.8444 18.9229 51.8348 -0.0004 3.7528 -0.0029
# 2 18.9229 42.9454 26.9322 -0.0006 -5.6164 -0.0022
# 3 51.8348 26.9322 134.8868 -0.0001 0.8977 -0.0003
# 4 -0.0004 -0.0006 -0.0001 32.4158 0.0002 2.2882
# 5 3.7528 -5.6164 0.8977 0.0002 44.0302 -0.0002
# 6 -0.0029 -0.0022 -0.0003 2.2882 -0.0002 33.1396
#
#
#
# Elastic Compliance Matrix: (Units=1/GPa)
#
#
# Indices 1 2 3 4 5 6 
#
# 1 0.008814 -0.002161 -0.002949 0.000000 -0.000967 0.000001
# 2 -0.002161 0.027700 -0.004726 0.000000 0.003814 0.000002
# 3 -0.002949 -0.004726 0.009494 0.000000 -0.000545 0.000000
# 4 0.000000 0.000000 0.000000 0.031000 0.000000 -0.002140
# 5 -0.000967 0.003814 -0.000545 0.000000 0.023292 0.000000
# 6 0.000001 0.000002 0.000000 -0.002140 0.000000 0.030323
#
#
# Mechanical properties :
#
#
# Convention : Reuss Voigt Hill
#
# Bulk Modulus (GPa) = 37.96960 56.56182 47.26571
# Shear Modulus (GPa) = 31.43185 36.31623 33.87404
#
# Velocity S-wave (km/s) = 3.89920 4.19122 4.04784
# Velocity P-wave (km/s) = 6.21592 7.12608 6.68650
#
# Compressibility (1/GPa) = 0.02633686
#
# Stress axis : x y z
#
# Youngs Moduli (GPa) = 113.44979 36.10126 105.32705
#
# Poissons Ratio (x) = 0.07800 0.31065
# Poissons Ratio (y) = 0.24513 0.49775
# Poissons Ratio (z) = 0.33461 0.17061
#
# Static dielectric constant tensor:
#      x y z
#    x 3.771760 -0.000170 -0.018820 
#    y -0.000170 3.983180 -0.000050 
#    z -0.018820 -0.000050 3.975350 
# 
# 
# High freq. dielectric constant tensor:
#      x y z
#    x 1.828770 0.000000 0.000640 
#    y 0.000000 1.815840 0.000000 
#    z 0.000640 0.000000 1.830260 
# 
# From -- ./inp_files/362904.got.cif
#   From: 2010.06.25/outbox.cif.g09.slc.cpg/sg12_182_cif.got.tgz:362904.got - 2010.06.28 00:19:55.
