data_PCOD8112680
_publ_section_title
;
Structure prediction by ZEFSAII (Michael W. Deem and Ramdas Pophale) SiO2 
 PCOD8112680
Probable space group: C 2/M
;
_chemical_formula_sum "Si O2"
_cell_formula_units_Z 64
_cell_length_a 10.057245
_cell_length_b 30.093769
_cell_length_c 15.038508
_cell_angle_alpha 90.000000
_cell_angle_beta 132.386386
_cell_angle_gamma 90.000000
_cell_volume 3361.853660
_symmetry_space_group_name_H-M "C 2/M"
_symmetry_group_IT_number 12
_symmetry_cell_setting 'monoclinic'
loop_
_space_group_symop_operation_xyz
x,y,z
-x,y,-z
-x,-y,-z
x,-y,z
1/2+x,1/2+y,z
1/2-x,1/2+y,-z
1/2-x,1/2-y,-z
1/2+x,1/2-y,z
loop_
_atom_site_type_symbol
_atom_site_label
_atom_site_fract_x
_atom_site_fract_y
_atom_site_fract_z
Si Si1 0.889854 0.551147 0.315693
Si Si2 0.458234 0.256349 0.081173
Si Si3 0.277427 0.120537 0.130240
Si Si4 0.988816 0.148306 0.858300
Si Si5 0.372696 0.829243 0.760608
Si Si6 0.983675 0.130620 0.326290
Si Si7 0.772662 0.051900 0.568501
Si Si8 0.664779 0.708378 0.510698
O O1 0.865618 0.500000 0.286141
O O2 0.825825 0.572612 0.193391
O O3 0.769628 0.564196 0.347536
O O4 0.097539 0.562459 0.430061
O O5 0.488534 0.299790 0.154126
O O6 0.585113 0.214890 0.162888
O O7 0.500000 0.270531 0.000000
O O8 0.250000 0.250000 0.000000
O O9 0.449785 0.142103 0.163477
O O10 0.208710 0.146779 0.186518
O O11 0.127147 0.122318 0.985698
O O12 0.007910 0.123633 0.774636
O O13 0.220729 0.860776 0.735239
O O14 0.319599 0.814304 0.638423
O O15 0.068362 0.083813 0.399082
O O16 0.101917 0.172402 0.410677
O O17 0.828503 0.000000 0.584716
O O18 0.500000 0.723512 0.500000
O O19 0.750000 0.750000 0.500000
#
# Coordination Sequence:
#
# PCOD8112680 Si02
#       8
#     8   8   8   8   8   8   8   8
#     4   9  18  36  63  90 117 148 195 255 306 354
#     4  12  21  37  55  81 113 156 206 246 285 337
#     4  11  21  38  55  86 117 147 200 247 291 354
#     4  11  22  37  58  86 116 152 209 250 290 352
#     4  11  24  37  59  82 121 158 194 242 300 355
#     4  11  22  39  60  87 123 160 195 244 309 363
#     4   9  18  36  63  93 117 150 201 249 302 368
#     4  10  23  41  56  84 119 155 199 245 294 359
#
# _framework density 19.037116000000001
#
# number of rings (size 3 to 8) (size 9 to 14) (size 15 to 20)
#    0.000    1.500    3.750    3.000    0.000    4.000 
#    2.250    2.500    0.000    4.875    0.000    1.750 
#    0.000    0.000    0.000    0.000    0.000    0.000 
#
# Total GULP energy -396547.733692 kJ/mol
# GULP energy per Si atom -12392.116678 kJ/mol
# Density = 1.899379 g / cm^3
# Si number density = 19.037116 Si / 1000 Ang^3
#
#
#
# Elastic Constant Matrix: (Units=GPa)
#
#
# Indices 1 2 3 4 5 6 
#
# 1 85.3278 46.0152 43.7033 0.0000 10.1611 0.0000
# 2 46.0152 107.8155 46.1249 0.0000 9.5158 0.0000
# 3 43.7033 46.1249 74.4850 0.0000 -0.2554 0.0000
# 4 0.0000 0.0000 0.0000 37.1691 0.0000 3.0410
# 5 10.1611 9.5158 -0.2554 0.0000 31.3862 0.0000
# 6 0.0000 0.0000 0.0000 3.0410 0.0000 34.3580
#
#
#
# Elastic Compliance Matrix: (Units=1/GPa)
#
#
# Indices 1 2 3 4 5 6 
#
# 1 0.018855 -0.003899 -0.008665 0.000000 -0.004992 0.000000
# 2 -0.003899 0.013918 -0.006341 0.000000 -0.003009 0.000000
# 3 -0.008665 -0.006341 0.022453 0.000000 0.004911 0.000000
# 4 0.000000 0.000000 0.000000 0.027100 0.000000 -0.002399
# 5 -0.004992 -0.003009 0.004911 0.000000 0.034430 0.000000
# 6 0.000000 0.000000 0.000000 -0.002399 0.000000 0.029318
#
#
# Mechanical properties :
#
#
# Convention : Reuss Voigt Hill
#
# Bulk Modulus (GPa) = 57.42314 59.92388 58.67351
# Shear Modulus (GPa) = 26.35877 29.36832 27.86355
#
# Velocity S-wave (km/s) = 3.72506 3.93197 3.82991
# Velocity P-wave (km/s) = 6.98074 7.22216 7.10247
#
# Compressibility (1/GPa) = 0.01741458
#
# Stress axis : x y z
#
# Youngs Moduli (GPa) = 53.03570 71.85126 44.53684
#
# Poissons Ratio (x) = 0.28018 0.38593
# Poissons Ratio (y) = 0.20681 0.28240
# Poissons Ratio (z) = 0.45958 0.45560
#
# Static dielectric constant tensor:
#      x y z
#    x 3.458520 0.000000 0.092990 
#    y 0.000000 3.717160 0.000000 
#    z 0.092990 0.000000 3.669100 
# 
# 
# High freq. dielectric constant tensor:
#      x y z
#    x 1.737470 0.000000 0.003890 
#    y 0.000000 1.734650 0.000000 
#    z 0.003890 0.000000 1.743830 
# 
# From -- ./inp_files/201336.got.cif
#   From: 2010.06.25/outbox.cif.g09.slc.cpg/sg12_101_cif.got.tgz:201336.got - 2010.06.28 00:19:55.
