data_PCOD8112414
_publ_section_title
;
Structure prediction by ZEFSAII (Michael W. Deem and Ramdas Pophale) SiO2 
 PCOD8112414
Probable space group: C 2/M
;
_chemical_formula_sum "Si O2"
_cell_formula_units_Z 64
_cell_length_a 9.131105
_cell_length_b 15.127823
_cell_length_c 31.669781
_cell_angle_alpha 90.000000
_cell_angle_beta 135.707109
_cell_angle_gamma 90.000000
_cell_volume 3054.944622
_symmetry_space_group_name_H-M "C 2/M"
_symmetry_group_IT_number 12
_symmetry_cell_setting 'monoclinic'
loop_
_space_group_symop_operation_xyz
x,y,z
-x,y,-z
-x,-y,-z
x,-y,z
1/2+x,1/2+y,z
1/2-x,1/2+y,-z
1/2-x,1/2-y,-z
1/2+x,1/2-y,z
loop_
_atom_site_type_symbol
_atom_site_label
_atom_site_fract_x
_atom_site_fract_y
_atom_site_fract_z
Si Si1 0.494749 0.339683 0.630526
Si Si2 0.455187 0.247981 0.092518
Si Si3 0.164033 0.895852 0.995939
Si Si4 0.753177 0.597480 0.264825
Si Si5 0.576304 0.902329 0.260865
Si Si6 0.675605 0.902205 0.500778
Si Si7 0.361318 0.837729 0.372250
Si Si8 0.915805 0.243840 0.177649
O O1 0.674650 0.410356 0.677908
O O2 0.383537 0.357796 0.562569
O O3 0.626033 0.250434 0.652741
O O4 0.327470 0.336110 0.633519
O O5 0.430781 0.341911 0.063234
O O6 0.695994 0.234608 0.156560
O O7 0.338988 0.256199 0.113228
O O8 0.371685 0.160655 0.050947
O O9 0.215127 0.000000 0.995471
O O10 0.000000 0.893067 0.000000
O O11 0.680487 0.500000 0.235814
O O12 0.820584 0.589449 0.328037
O O13 0.557524 0.661230 0.218738
O O14 0.950056 0.628175 0.276762
O O15 0.531418 0.834930 0.213671
O O16 0.504259 0.000000 0.231428
O O17 0.500000 0.906851 0.500000
O O18 0.585088 0.850901 0.441622
O O19 0.735716 0.000000 0.498093
#
# Coordination Sequence:
#
# PCOD8112414 Si02
#       8
#     8   8   8   8   8   8   8   8
#     4  11  22  38  62  88 121 164 214 265 327 394
#     4  11  24  42  69 100 133 171 214 261 307 368
#     4  10  22  43  71 102 135 172 210 255 312 370
#     4  11  25  43  63  92 129 169 215 273 329 380
#     4  11  25  43  64  92 127 171 218 270 327 384
#     4   9  19  36  57  85 118 156 208 269 326 390
#     4  11  22  38  62  88 122 164 212 265 331 391
#     4  12  24  43  65  94 133 173 217 260 314 372
#
# _framework density 20.949642999999998
#
# number of rings (size 3 to 8) (size 9 to 14) (size 15 to 20)
#    0.000    1.250    3.750    1.875    1.750    3.500 
#    0.000    2.500    0.000    4.500    0.000    0.000 
#    0.000    0.000    0.000    0.000    0.000    0.000 
#
# Total GULP energy -396694.044380 kJ/mol
# GULP energy per Si atom -12396.688887 kJ/mol
# Density = 2.090196 g / cm^3
# Si number density = 20.949643 Si / 1000 Ang^3
#
#
#
# Elastic Constant Matrix: (Units=GPa)
#
#
# Indices 1 2 3 4 5 6 
#
# 1 60.9986 31.5859 32.9402 0.0000 0.5209 0.0000
# 2 31.5859 138.3180 46.2128 0.0000 0.3912 0.0000
# 3 32.9402 46.2128 113.6577 0.0000 1.3932 0.0000
# 4 0.0000 0.0000 0.0000 18.0235 0.0000 -1.6699
# 5 0.5209 0.3912 1.3932 0.0000 41.5713 0.0000
# 6 0.0000 0.0000 0.0000 -1.6699 0.0000 26.5802
#
#
#
# Elastic Compliance Matrix: (Units=1/GPa)
#
#
# Indices 1 2 3 4 5 6 
#
# 1 0.020541 -0.003127 -0.004681 0.000000 -0.000071 0.000000
# 2 -0.003127 0.008842 -0.002690 0.000000 0.000046 0.000000
# 3 -0.004681 -0.002690 0.011252 0.000000 -0.000293 0.000000
# 4 0.000000 0.000000 0.000000 0.055808 0.000000 0.003506
# 5 -0.000071 0.000046 -0.000293 0.000000 0.024065 0.000000
# 6 0.000000 0.000000 0.000000 0.003506 0.000000 0.037842
#
#
# Mechanical properties :
#
#
# Convention : Reuss Voigt Hill
#
# Bulk Modulus (GPa) = 50.91384 59.38359 55.14872
# Shear Modulus (GPa) = 26.89723 30.71738 28.80731
#
# Velocity S-wave (km/s) = 3.58704 3.83332 3.71222
# Velocity P-wave (km/s) = 6.44295 6.92819 6.68997
#
# Compressibility (1/GPa) = 0.01964103
#
# Stress axis : x y z
#
# Youngs Moduli (GPa) = 48.68244 113.09435 88.87130
#
# Poissons Ratio (x) = 0.35359 0.41602
# Poissons Ratio (y) = 0.15221 0.23903
# Poissons Ratio (z) = 0.22789 0.30418
#
# Static dielectric constant tensor:
#      x y z
#    x 3.652820 0.000000 -0.030390 
#    y 0.000000 3.839930 0.000000 
#    z -0.030390 0.000000 3.825460 
# 
# 
# High freq. dielectric constant tensor:
#      x y z
#    x 1.812450 0.000000 0.000810 
#    y 0.000000 1.825320 0.000000 
#    z 0.000810 0.000000 1.825980 
# 
# From -- ./inp_files/372621.got.cif
#   From: 2010.06.25/outbox.cif.g09.slc.cpg/sg12_187_cif.got.tgz:372621.got - 2010.06.28 00:19:55.
