data_PCOD8112446
_publ_section_title
;
Structure prediction by ZEFSAII (Michael W. Deem and Ramdas Pophale) SiO2 
 PCOD8112446
Probable space group: C 2/M
;
_chemical_formula_sum "Si O2"
_cell_formula_units_Z 36
_cell_length_a 12.206488
_cell_length_b 20.954439
_cell_length_c 6.379776
_cell_angle_alpha 90.000000
_cell_angle_beta 92.022230
_cell_angle_gamma 90.000000
_cell_volume 1630.803517
_symmetry_space_group_name_H-M "C 2/M"
_symmetry_group_IT_number 12
_symmetry_cell_setting 'monoclinic'
loop_
_space_group_symop_operation_xyz
x,y,z
-x,y,-z
-x,-y,-z
x,-y,z
1/2+x,1/2+y,z
1/2-x,1/2+y,-z
1/2-x,1/2-y,-z
1/2+x,1/2-y,z
loop_
_atom_site_type_symbol
_atom_site_label
_atom_site_fract_x
_atom_site_fract_y
_atom_site_fract_z
Si Si1 0.604114 0.073860 0.139655
Si Si2 0.672727 0.261596 0.792892
Si Si3 0.692124 0.149676 0.501662
Si Si4 0.195574 0.926698 0.156159
Si Si5 0.000000 0.840109 0.000000
O O1 0.600831 0.116617 0.349316
O O2 0.591873 0.000000 0.200956
O O3 0.500000 0.096464 0.000000
O O4 0.716573 0.086290 0.021561
O O5 0.642926 0.194257 0.681648
O O6 0.728597 0.308389 0.633663
O O7 0.750000 0.250000 0.000000
O O8 0.557021 0.293253 0.838889
O O9 0.756520 0.091308 0.614369
O O10 0.089119 0.883825 0.117858
O O11 0.159463 0.000000 0.157655
#
# Coordination Sequence:
#
# PCOD8112446 Si02
#       5
#     8   8   8   8   4
#     4  10  22  44  70 101 143 185 237 300 353 417
#     4  11  24  47  67  96 144 188 233 289 344 419
#     4  11  22  46  68 102 136 187 243 283 349 431
#     4  11  24  45  72 105 144 182 232 297 360 422
#     4  12  23  48  70 102 147 182 226 292 364 422
#
# _framework density 22.075008
#
# number of rings (size 3 to 8) (size 9 to 14) (size 15 to 20)
#    0.000    1.111    4.444    1.000    0.000    1.778 
#   12.000    4.444    0.000    0.000    0.000    0.000 
#    0.000    0.000    0.000    0.000    0.000    0.000 
#
# Total GULP energy -223227.873014 kJ/mol
# GULP energy per Si atom -12401.548501 kJ/mol
# Density = 2.202476 g / cm^3
# Si number density = 22.075008 Si / 1000 Ang^3
#
#
#
# Elastic Constant Matrix: (Units=GPa)
#
#
# Indices 1 2 3 4 5 6 
#
# 1 120.6615 73.0366 54.6917 0.0000 16.2137 0.0000
# 2 73.0366 137.8579 89.0595 0.0000 7.2752 0.0000
# 3 54.6917 89.0595 150.6483 0.0000 23.5094 0.0000
# 4 0.0000 0.0000 0.0000 49.6659 0.0000 7.0659
# 5 16.2137 7.2752 23.5094 0.0000 35.7906 0.0000
# 6 0.0000 0.0000 0.0000 7.0659 0.0000 38.5913
#
#
#
# Elastic Compliance Matrix: (Units=1/GPa)
#
#
# Indices 1 2 3 4 5 6 
#
# 1 0.012880 -0.006496 -0.000146 0.000000 -0.004418 0.000000
# 2 -0.006496 0.015204 -0.007361 0.000000 0.004688 0.000000
# 3 -0.000146 -0.007361 0.012032 0.000000 -0.006341 0.000000
# 4 0.000000 0.000000 0.000000 0.020673 0.000000 -0.003785
# 5 -0.004418 0.004688 -0.006341 0.000000 0.033154 0.000000
# 6 0.000000 0.000000 0.000000 -0.003785 0.000000 0.026606
#
#
# Mechanical properties :
#
#
# Convention : Reuss Voigt Hill
#
# Bulk Modulus (GPa) = 82.58356 93.63817 88.11086
# Shear Modulus (GPa) = 32.76733 37.63488 35.20111
#
# Velocity S-wave (km/s) = 3.85692 4.13348 3.99759
# Velocity P-wave (km/s) = 7.57140 8.08029 7.82998
#
# Compressibility (1/GPa) = 0.01210895
#
# Stress axis : x y z
#
# Youngs Moduli (GPa) = 77.64203 65.77430 83.10995
#
# Poissons Ratio (x) = 0.42727 0.01214
# Poissons Ratio (y) = 0.50437 0.61178
# Poissons Ratio (z) = 0.01134 0.48417
#
# Static dielectric constant tensor:
#      x y z
#    x 3.955160 0.000000 -0.043190 
#    y 0.000000 4.356660 0.000000 
#    z -0.043190 0.000000 4.185250 
# 
# 
# High freq. dielectric constant tensor:
#      x y z
#    x 1.855720 0.000000 0.002320 
#    y 0.000000 1.894250 0.000000 
#    z 0.002320 0.000000 1.876740 
# 
# From -- ./inp_files/7063.got.cif
#   From: 2010.06.25/outbox.cif.g09.slc.cpg/sg12_4_cif.got.tgz:7063.got - 2010.06.28 00:19:55.
