data_PCOD8112938
_publ_section_title
;
Structure prediction by ZEFSAII (Michael W. Deem and Ramdas Pophale) SiO2 
 PCOD8112938
Probable space group: C 2/M
;
_chemical_formula_sum "Si O2"
_cell_formula_units_Z 32
_cell_length_a 11.155395
_cell_length_b 18.153551
_cell_length_c 13.927330
_cell_angle_alpha 90.000000
_cell_angle_beta 147.958899
_cell_angle_gamma 90.000000
_cell_volume 1496.312442
_symmetry_space_group_name_H-M "C 2/M"
_symmetry_group_IT_number 12
_symmetry_cell_setting 'monoclinic'
loop_
_space_group_symop_operation_xyz
x,y,z
-x,y,-z
-x,-y,-z
x,-y,z
1/2+x,1/2+y,z
1/2-x,1/2+y,-z
1/2-x,1/2-y,-z
1/2+x,1/2-y,z
loop_
_atom_site_type_symbol
_atom_site_label
_atom_site_fract_x
_atom_site_fract_y
_atom_site_fract_z
Si Si1 0.339768 0.878659 0.147167
Si Si2 0.329959 0.000000 0.298078
Si Si3 0.000000 0.766421 0.000000
Si Si4 0.385110 0.500000 0.116768
Si Si5 0.738791 0.847431 0.294689
Si Si6 0.338143 0.500000 0.299042
O O1 0.584221 0.845054 0.285669
O O2 0.367778 0.926789 0.261939
O O3 0.261079 0.927229 0.002893
O O4 0.156738 0.814931 0.037375
O O5 0.500000 0.000000 0.500000
O O6 0.080682 0.000000 0.170805
O O7 0.830753 0.718336 0.821822
O O8 0.467138 0.500000 0.283354
O O9 0.693462 0.925349 0.209304
O O10 0.000000 0.836864 0.500000
O O11 0.500000 0.500000 0.500000
#
# Coordination Sequence:
#
# PCOD8112938 Si02
#       6
#     8   4   4   4   8   4
#     4  11  23  46  68  99 141 175 231 278 336 414
#     4  11  24  39  72 109 130 181 229 283 342 397
#     4  12  24  46  66 102 138 186 226 276 344 406
#     4  11  21  43  74  97 133 183 220 283 348 393
#     4  11  26  43  68  99 135 181 227 283 341 404
#     4  10  23  42  67  99 132 165 227 283 335 400
#
# _framework density 21.385907
#
# number of rings (size 3 to 8) (size 9 to 14) (size 15 to 20)
#    0.000    1.000    2.500    4.500    7.000    3.500 
#    0.000    0.000    0.000    0.000    0.000    0.000 
#    0.000    0.000    0.000    0.000    0.000    0.000 
#
# Total GULP energy -198398.378246 kJ/mol
# GULP energy per Si atom -12399.898640 kJ/mol
# Density = 2.133723 g / cm^3
# Si number density = 21.385907 Si / 1000 Ang^3
#
#
#
# Elastic Constant Matrix: (Units=GPa)
#
#
# Indices 1 2 3 4 5 6 
#
# 1 153.5859 45.3341 62.6213 -0.0005 8.8676 0.0003
# 2 45.3341 145.3519 56.0758 -0.0001 0.7903 -0.0002
# 3 62.6213 56.0758 127.1673 -0.0013 1.6429 0.0013
# 4 -0.0005 -0.0001 -0.0013 26.7431 -0.0008 13.9941
# 5 8.8676 0.7903 1.6429 -0.0008 53.1340 0.0006
# 6 0.0003 -0.0002 0.0013 13.9941 0.0006 51.0035
#
#
#
# Elastic Compliance Matrix: (Units=1/GPa)
#
#
# Indices 1 2 3 4 5 6 
#
# 1 0.008409 -0.001235 -0.003580 0.000000 -0.001274 0.000000
# 2 -0.001235 0.008471 -0.003130 0.000000 0.000177 0.000000
# 3 -0.003580 -0.003130 0.011003 0.000001 0.000304 0.000000
# 4 0.000000 0.000000 0.000001 0.043662 0.000001 -0.011980
# 5 -0.001274 0.000177 0.000304 0.000001 0.019021 0.000000
# 6 0.000000 0.000000 0.000000 -0.011980 0.000000 0.022893
#
#
# Mechanical properties :
#
#
# Convention : Reuss Voigt Hill
#
# Bulk Modulus (GPa) = 83.37389 83.79638 83.58513
# Shear Modulus (GPa) = 37.49662 43.64771 40.57217
#
# Velocity S-wave (km/s) = 4.19182 4.52260 4.36035
# Velocity P-wave (km/s) = 7.90561 8.15720 8.03239
#
# Compressibility (1/GPa) = 0.01199416
#
# Stress axis : x y z
#
# Youngs Moduli (GPa) = 118.92608 118.04353 90.88663
#
# Poissons Ratio (x) = 0.14573 0.32536
# Poissons Ratio (y) = 0.14682 0.28447
# Poissons Ratio (z) = 0.42573 0.36947
#
# Static dielectric constant tensor:
#      x y z
#    x 4.198600 0.000000 0.358030 
#    y 0.000000 4.246460 0.000000 
#    z 0.358030 0.000000 3.925960 
# 
# 
# High freq. dielectric constant tensor:
#      x y z
#    x 1.855660 0.000000 0.008450 
#    y 0.000000 1.845620 0.000000 
#    z 0.008450 0.000000 1.831240 
# 
# From -- ./inp_files/205894.got.cif
#   From: 2010.06.25/outbox.cif.g09.slc.cpg/sg12_103_cif.got.tgz:205894.got - 2010.06.28 00:19:55.
