data_PCOD8112596
_publ_section_title
;
Structure prediction by ZEFSAII (Michael W. Deem and Ramdas Pophale) SiO2 
 PCOD8112596
Probable space group: C 2/M
;
_chemical_formula_sum "Si O2"
_cell_formula_units_Z 52
_cell_length_a 20.299461
_cell_length_b 17.586598
_cell_length_c 15.055187
_cell_angle_alpha 90.000000
_cell_angle_beta 29.770285
_cell_angle_gamma 90.000000
_cell_volume 2668.656098
_symmetry_space_group_name_H-M "C 2/M"
_symmetry_group_IT_number 12
_symmetry_cell_setting 'monoclinic'
loop_
_space_group_symop_operation_xyz
x,y,z
-x,y,-z
-x,-y,-z
x,-y,z
1/2+x,1/2+y,z
1/2-x,1/2+y,-z
1/2-x,1/2-y,-z
1/2+x,1/2-y,z
loop_
_atom_site_type_symbol
_atom_site_label
_atom_site_fract_x
_atom_site_fract_y
_atom_site_fract_z
Si Si1 0.072652 0.331609 0.003374
Si Si2 0.302343 0.584880 0.650212
Si Si3 0.766321 0.725951 0.879030
Si Si4 0.856564 0.089312 0.055529
Si Si5 0.840320 0.413206 0.364131
Si Si6 0.500000 0.298806 0.500000
Si Si7 0.652965 0.410692 0.732335
O O1 0.171072 0.400290 0.862380
O O2 0.152154 0.263430 0.953589
O O3 0.000000 0.300384 0.000000
O O4 0.969100 0.362827 0.196121
O O5 0.354038 0.500000 0.612225
O O6 0.266237 0.591395 0.589649
O O7 0.413759 0.647167 0.537990
O O8 0.738428 0.635535 0.901295
O O9 0.910295 0.747310 0.670514
O O10 0.750000 0.750000 0.000000
O O11 0.809282 0.108464 0.210922
O O12 0.841670 0.000000 0.050792
O O13 0.008385 0.118869 0.871097
O O14 0.885896 0.500000 0.326214
O O15 0.768447 0.377231 0.534597
O O16 0.645194 0.500000 0.728109
#
# Coordination Sequence:
#
# PCOD8112596 Si02
#       7
#     8   8   8   8   8   4   8
#     4   9  19  35  54  82 116 150 186 231 293 339
#     4   9  17  32  55  80 113 156 193 231 278 336
#     4  11  25  41  58  81 118 152 189 236 290 348
#     4   9  19  38  59  80 110 146 188 237 287 337
#     4   9  16  29  55  88 115 141 187 239 278 333
#     4  10  23  40  51  76 116 154 194 238 285 344
#     4   8  16  31  57  89 110 135 183 239 287 330
#
# _framework density 19.485462999999999
#
# number of rings (size 3 to 8) (size 9 to 14) (size 15 to 20)
#    0.000    2.769    0.000    1.615    4.308    3.077 
#    0.000    5.000    0.000    0.000    0.000    0.000 
#    0.000    0.000    0.000    0.000    0.000    0.000 
#
# Total GULP energy -322319.490525 kJ/mol
# GULP energy per Si atom -12396.903482 kJ/mol
# Density = 1.944111 g / cm^3
# Si number density = 19.485463 Si / 1000 Ang^3
#
#
#
# Elastic Constant Matrix: (Units=GPa)
#
#
# Indices 1 2 3 4 5 6 
#
# 1 73.8518 41.0785 49.7399 0.0002 2.8324 -0.0001
# 2 41.0785 78.0409 39.6176 0.0001 -0.6486 -0.0001
# 3 49.7399 39.6176 155.3406 0.0002 15.0495 -0.0002
# 4 0.0002 0.0001 0.0002 23.2380 -0.0003 -3.8444
# 5 2.8324 -0.6486 15.0495 -0.0003 29.5830 0.0002
# 6 -0.0001 -0.0001 -0.0002 -3.8444 0.0002 31.3385
#
#
#
# Elastic Compliance Matrix: (Units=1/GPa)
#
#
# Indices 1 2 3 4 5 6 
#
# 1 0.021712 -0.009068 -0.004648 0.000000 0.000087 0.000000
# 2 -0.009068 0.018664 -0.002083 0.000000 0.002337 0.000000
# 3 -0.004648 -0.002083 0.008855 0.000000 -0.004105 0.000000
# 4 0.000000 0.000000 0.000000 0.043924 0.000000 0.005388
# 5 0.000087 0.002337 -0.004105 0.000000 0.035935 0.000000
# 6 0.000000 0.000000 0.000000 0.005388 0.000000 0.032571
#
#
# Mechanical properties :
#
#
# Convention : Reuss Voigt Hill
#
# Bulk Modulus (GPa) = 56.71317 63.12283 59.91800
# Shear Modulus (GPa) = 25.10867 28.61837 26.86352
#
# Velocity S-wave (km/s) = 3.59358 3.83652 3.71704
# Velocity P-wave (km/s) = 6.81080 7.21737 7.01703
#
# Compressibility (1/GPa) = 0.01763259
#
# Stress axis : x y z
#
# Youngs Moduli (GPa) = 46.05832 53.57976 112.93644
#
# Poissons Ratio (x) = 0.48587 0.52490
# Poissons Ratio (y) = 0.41767 0.23521
# Poissons Ratio (z) = 0.21407 0.11159
#
# Static dielectric constant tensor:
#      x y z
#    x 3.434320 0.000000 0.217370 
#    y 0.000000 3.408560 0.000000 
#    z 0.217370 0.000000 4.076700 
# 
# 
# High freq. dielectric constant tensor:
#      x y z
#    x 1.739480 0.000000 0.005040 
#    y 0.000000 1.749080 0.000000 
#    z 0.005040 0.000000 1.766460 
# 
# From -- ./inp_files/234427.got.cif
#   From: 2010.06.25/outbox.cif.g09.slc.cpg/sg12_118_cif.got.tgz:234427.got - 2010.06.28 00:19:55.
