data_PCOD8112461
_publ_section_title
;
Structure prediction by ZEFSAII (Michael W. Deem and Ramdas Pophale) SiO2 
 PCOD8112461
Probable space group: C 2/M
;
_chemical_formula_sum "Si O2"
_cell_formula_units_Z 64
_cell_length_a 9.518627
_cell_length_b 27.699962
_cell_length_c 17.594529
_cell_angle_alpha 90.000000
_cell_angle_beta 140.559576
_cell_angle_gamma 90.000000
_cell_volume 2947.089084
_symmetry_space_group_name_H-M "C 2/M"
_symmetry_group_IT_number 12
_symmetry_cell_setting 'monoclinic'
loop_
_space_group_symop_operation_xyz
x,y,z
-x,y,-z
-x,-y,-z
x,-y,z
1/2+x,1/2+y,z
1/2-x,1/2+y,-z
1/2-x,1/2-y,-z
1/2+x,1/2-y,z
loop_
_atom_site_type_symbol
_atom_site_label
_atom_site_fract_x
_atom_site_fract_y
_atom_site_fract_z
Si Si1 0.842837 0.055440 0.506055
Si Si2 0.850176 0.556739 0.253806
Si Si3 0.744472 0.226901 0.912432
Si Si4 0.375777 0.717838 0.802482
Si Si5 0.516714 0.271968 0.418474
Si Si6 0.625627 0.116906 0.883528
Si Si7 0.120815 0.872547 0.712135
Si Si8 0.964860 0.113424 0.152081
O O1 0.591882 0.072122 0.385176
O O2 0.000000 0.063892 0.500000
O O3 0.938365 0.088280 0.612488
O O4 0.848893 0.000000 0.535315
O O5 0.841598 0.500000 0.237155
O O6 0.800386 0.582211 0.153271
O O7 0.655832 0.572398 0.231020
O O8 0.517289 0.254695 0.795808
O O9 0.913695 0.236188 0.909543
O O10 0.701953 0.170576 0.897380
O O11 0.750000 0.250000 0.000000
O O12 0.417026 0.661659 0.827718
O O13 0.129951 0.727506 0.673006
O O14 0.500000 0.284374 0.500000
O O15 0.750000 0.250000 0.500000
O O16 0.457566 0.320003 0.347107
O O17 0.362078 0.114201 0.781817
O O18 0.756298 0.098640 0.012646
O O19 0.136064 0.875693 0.808539
#
# Coordination Sequence:
#
# PCOD8112461 Si02
#       8
#     8   8   8   8   8   8   8   8
#     4  10  22  44  75 104 130 172 233 294 356 424
#     4  11  25  48  78 104 136 185 241 301 362 428
#     4  12  23  41  65  97 133 182 232 282 333 405
#     4  12  25  42  64  96 137 182 234 283 344 410
#     4  12  27  45  66  98 139 189 244 293 351 421
#     4  12  24  46  69 104 143 186 240 286 348 434
#     4  12  26  44  72 102 143 187 230 300 357 422
#     4  12  27  44  65 106 145 183 231 288 356 424
#
# _framework density 21.716343999999999
#
# number of rings (size 3 to 8) (size 9 to 14) (size 15 to 20)
#    0.000    0.375    5.000    3.750    1.750    2.000 
#    0.000    1.250    0.000    2.250    0.000    0.000 
#    0.000    0.000    0.000    0.000    0.000    0.000 
#
# Total GULP energy -396631.182718 kJ/mol
# GULP energy per Si atom -12394.724460 kJ/mol
# Density = 2.166692 g / cm^3
# Si number density = 21.716344 Si / 1000 Ang^3
#
#
#
# Elastic Constant Matrix: (Units=GPa)
#
#
# Indices 1 2 3 4 5 6 
#
# 1 114.3506 27.0176 21.1243 0.0000 4.2600 0.0000
# 2 27.0176 86.9251 46.0587 0.0000 6.9486 0.0000
# 3 21.1243 46.0587 101.3077 -0.0001 1.6939 -0.0004
# 4 0.0000 0.0000 -0.0001 37.6075 0.0000 1.3676
# 5 4.2600 6.9486 1.6939 0.0000 38.2645 -0.0001
# 6 0.0000 0.0000 -0.0004 1.3676 -0.0001 29.3506
#
#
#
# Elastic Compliance Matrix: (Units=1/GPa)
#
#
# Indices 1 2 3 4 5 6 
#
# 1 0.009505 -0.002454 -0.000856 0.000000 -0.000575 0.000000
# 2 -0.002454 0.016022 -0.006733 0.000000 -0.002338 0.000000
# 3 -0.000856 -0.006733 0.013098 0.000000 0.000738 0.000000
# 4 0.000000 0.000000 0.000000 0.026636 0.000000 -0.001241
# 5 -0.000575 -0.002338 0.000738 0.000000 0.026590 0.000000
# 6 0.000000 0.000000 0.000000 -0.001241 0.000000 0.034129
#
#
# Mechanical properties :
#
#
# Convention : Reuss Voigt Hill
#
# Bulk Modulus (GPa) = 53.94771 54.55384 54.25077
# Shear Modulus (GPa) = 32.84170 34.93670 33.88920
#
# Velocity S-wave (km/s) = 3.89305 4.01530 3.95465
# Velocity P-wave (km/s) = 6.71593 6.83173 6.77408
#
# Compressibility (1/GPa) = 0.01853647
#
# Stress axis : x y z
#
# Youngs Moduli (GPa) = 105.21270 62.41547 76.34558
#
# Poissons Ratio (x) = 0.15320 0.06538
# Poissons Ratio (y) = 0.25824 0.51405
# Poissons Ratio (z) = 0.09010 0.42026
#
# Static dielectric constant tensor:
#      x y z
#    x 4.012320 0.000000 0.131290 
#    y 0.000000 3.848950 0.000000 
#    z 0.131290 0.000000 4.350580 
# 
# 
# High freq. dielectric constant tensor:
#      x y z
#    x 1.871580 0.000000 0.009950 
#    y 0.000000 1.842230 0.000000 
#    z 0.009950 0.000000 1.879180 
# 
# From -- ./inp_files/260384.got.cif
#   From: 2010.06.25/outbox.cif.g09.slc.cpg/sg12_131_cif.got.tgz:260384.got - 2010.06.28 00:19:55.
