data_PCOD8112158
_publ_section_title
;
Structure prediction by ZEFSAII (Michael W. Deem and Ramdas Pophale) SiO2 
 PCOD8112158
Probable space group: C 2/M
;
_chemical_formula_sum "Si O2"
_cell_formula_units_Z 48
_cell_length_a 15.774313
_cell_length_b 9.005802
_cell_length_c 28.564070
_cell_angle_alpha 90.000000
_cell_angle_beta 35.399738
_cell_angle_gamma 90.000000
_cell_volume 2350.604461
_symmetry_space_group_name_H-M "C 2/M"
_symmetry_group_IT_number 12
_symmetry_cell_setting 'monoclinic'
loop_
_space_group_symop_operation_xyz
x,y,z
-x,y,-z
-x,-y,-z
x,-y,z
1/2+x,1/2+y,z
1/2-x,1/2+y,-z
1/2-x,1/2-y,-z
1/2+x,1/2-y,z
loop_
_atom_site_type_symbol
_atom_site_label
_atom_site_fract_x
_atom_site_fract_y
_atom_site_fract_z
Si Si1 0.651700 0.328794 0.006426
Si Si2 0.378917 0.324787 0.413790
Si Si3 0.182110 0.169893 0.322997
Si Si4 0.849301 0.670429 0.155780
Si Si5 0.841587 0.672076 0.830200
Si Si6 0.368697 0.675325 0.310330
O O1 0.639280 0.500000 0.025676
O O2 0.722599 0.306419 0.924078
O O3 0.750000 0.250000 0.000000
O O4 0.491649 0.260742 0.077584
O O5 0.363739 0.500000 0.424479
O O6 0.250000 0.250000 0.500000
O O7 0.532470 0.271340 0.366875
O O8 0.365446 0.275119 0.365881
O O9 0.314847 0.183175 0.226194
O O10 0.221307 0.269781 0.350534
O O11 0.163583 0.000000 0.347698
O O12 0.870683 0.500000 0.131211
O O13 0.710822 0.738057 0.191417
O O14 0.863187 0.500000 0.808023
O O15 0.995870 0.742599 0.776101
O O16 0.385391 0.500000 0.297022
#
# Coordination Sequence:
#
# PCOD8112158 Si02
#       6
#     8   8   8   8   8   8
#     4  11  24  39  55  84 122 161 209 261 309 365
#     4  10  23  44  66  92 128 162 201 254 310 371
#     4  10  22  42  64  91 128 165 204 254 310 369
#     4  11  22  39  62  87 121 163 208 258 310 364
#     4  11  23  39  60  87 122 163 208 256 309 367
#     4  11  23  41  65  95 127 162 209 259 305 367
#
# _framework density 20.420279000000001
#
# number of rings (size 3 to 8) (size 9 to 14) (size 15 to 20)
#    0.000    1.333    1.667    3.500    0.000   12.667 
#    0.000    3.333    0.000    0.000    0.000    0.000 
#    0.000    0.000    0.000    0.000    0.000    0.000 
#
# Total GULP energy -297718.348743 kJ/mol
# GULP energy per Si atom -12404.931198 kJ/mol
# Density = 2.037380 g / cm^3
# Si number density = 20.420279 Si / 1000 Ang^3
#
#
#
# Elastic Constant Matrix: (Units=GPa)
#
#
# Indices 1 2 3 4 5 6 
#
# 1 150.7462 60.8107 44.0057 0.0001 -1.8709 0.0018
# 2 60.8107 110.4934 53.9218 0.0000 2.3979 0.0015
# 3 44.0057 53.9218 103.8648 0.0001 -11.3514 0.0002
# 4 0.0001 0.0000 0.0001 36.0933 -0.0001 -3.5972
# 5 -1.8709 2.3979 -11.3514 -0.0001 20.4096 0.0001
# 6 0.0018 0.0015 0.0002 -3.5972 0.0001 42.3330
#
#
#
# Elastic Compliance Matrix: (Units=1/GPa)
#
#
# Indices 1 2 3 4 5 6 
#
# 1 0.008727 -0.004058 -0.001545 0.000000 0.000417 0.000000
# 2 -0.004058 0.014559 -0.006459 0.000000 -0.005675 0.000000
# 3 -0.001545 -0.006459 0.014590 0.000000 0.008732 0.000000
# 4 0.000000 0.000000 0.000000 0.027943 0.000000 0.002374
# 5 0.000417 -0.005675 0.008732 0.000000 0.054558 0.000000
# 6 0.000000 0.000000 0.000000 0.002374 0.000000 0.023824
#
#
# Mechanical properties :
#
#
# Convention : Reuss Voigt Hill
#
# Bulk Modulus (GPa) = 72.71987 75.84231 74.28109
# Shear Modulus (GPa) = 28.91687 33.52490 31.22088
#
# Velocity S-wave (km/s) = 3.76717 4.05624 3.91438
# Velocity P-wave (km/s) = 7.38993 7.69147 7.54221
#
# Compressibility (1/GPa) = 0.01375140
#
# Stress axis : x y z
#
# Youngs Moduli (GPa) = 114.58889 68.68619 68.53888
#
# Poissons Ratio (x) = 0.27872 0.10590
# Poissons Ratio (y) = 0.46499 0.44271
# Poissons Ratio (z) = 0.17706 0.44367
#
# Static dielectric constant tensor:
#      x y z
#    x 3.835210 0.000000 0.057550 
#    y 0.000000 3.708160 0.000000 
#    z 0.057550 0.000000 3.900700 
# 
# 
# High freq. dielectric constant tensor:
#      x y z
#    x 1.812100 0.000000 -0.004080 
#    y 0.000000 1.803160 0.000000 
#    z -0.004080 0.000000 1.794680 
# 
# From -- ./inp_files/360209.got.cif
#   From: 2010.06.25/outbox.cif.g09.slc.cpg/sg12_181_cif.got.tgz:360209.got - 2010.06.28 00:19:55.
