data_PCOD8112238
_publ_section_title
;
Structure prediction by ZEFSAII (Michael W. Deem and Ramdas Pophale) SiO2 
 PCOD8112238
Probable space group: C 2/M
;
_chemical_formula_sum "Si O2"
_cell_formula_units_Z 56
_cell_length_a 10.892068
_cell_length_b 14.831591
_cell_length_c 16.348161
_cell_angle_alpha 90.000000
_cell_angle_beta 86.289389
_cell_angle_gamma 90.000000
_cell_volume 2635.454981
_symmetry_space_group_name_H-M "C 2/M"
_symmetry_group_IT_number 12
_symmetry_cell_setting 'monoclinic'
loop_
_space_group_symop_operation_xyz
x,y,z
-x,y,-z
-x,-y,-z
x,-y,z
1/2+x,1/2+y,z
1/2-x,1/2+y,-z
1/2-x,1/2-y,-z
1/2+x,1/2-y,z
loop_
_atom_site_type_symbol
_atom_site_label
_atom_site_fract_x
_atom_site_fract_y
_atom_site_fract_z
Si Si1 0.356771 0.896601 0.286219
Si Si2 0.119905 0.249633 0.051560
Si Si3 0.202249 0.223315 0.413919
Si Si4 0.864204 0.102116 0.816232
Si Si5 0.730955 0.900329 0.336705
Si Si6 0.011046 0.896887 0.353617
Si Si7 0.897123 0.600727 0.813761
O O1 0.309887 0.827412 0.357819
O O2 0.276422 0.887839 0.206984
O O3 0.493755 0.870072 0.252935
O O4 0.350110 0.000000 0.319799
O O5 0.109718 0.159810 0.104986
O O6 0.117966 0.337068 0.108134
O O7 0.250000 0.250000 0.000000
O O8 0.000000 0.253284 0.000000
O O9 0.250000 0.250000 0.500000
O O10 0.154789 0.317188 0.376168
O O11 0.081448 0.159697 0.420875
O O12 0.948136 0.137203 0.737777
O O13 0.897408 0.000000 0.838559
O O14 0.725637 0.895238 0.237727
O O15 0.866501 0.885365 0.366800
O O16 0.681838 0.000000 0.366322
O O17 0.053272 0.000000 0.362982
O O18 0.920438 0.500000 0.846359
#
# Coordination Sequence:
#
# PCOD8112238 Si02
#       7
#     8   8   8   8   8   8   8
#     4   9  19  39  67  93 118 165 224 265 309 379
#     4  12  27  40  59  96 134 164 201 263 335 398
#     4  11  23  36  61  95 132 164 203 258 327 382
#     4   9  19  38  64  87 116 160 208 254 303 375
#     4  10  23  40  62  91 122 163 216 263 307 368
#     4   9  20  41  66  90 117 164 218 259 305 371
#     4  10  22  42  67  88 119 167 216 265 314 377
#
# _framework density 21.248704
#
# number of rings (size 3 to 8) (size 9 to 14) (size 15 to 20)
#    0.000    2.000    0.000    3.857    6.000    2.857 
#    0.000    1.429    0.000    2.571    0.000    0.000 
#    0.000    0.000    0.000    0.000    0.000    0.000 
#
# Total GULP energy -347061.401841 kJ/mol
# GULP energy per Si atom -12395.050066 kJ/mol
# Density = 2.120034 g / cm^3
# Si number density = 21.248704 Si / 1000 Ang^3
#
#
#
# Elastic Constant Matrix: (Units=GPa)
#
#
# Indices 1 2 3 4 5 6 
#
# 1 85.0554 33.5945 31.8329 0.0000 13.5992 0.0000
# 2 33.5945 140.2814 68.4906 0.0000 8.4260 0.0000
# 3 31.8329 68.4906 104.2986 0.0000 21.7333 0.0000
# 4 0.0000 0.0000 0.0000 25.4085 0.0000 11.9934
# 5 13.5992 8.4260 21.7333 0.0000 30.8911 0.0000
# 6 0.0000 0.0000 0.0000 11.9934 0.0000 26.0053
#
#
#
# Elastic Compliance Matrix: (Units=1/GPa)
#
#
# Indices 1 2 3 4 5 6 
#
# 1 0.014017 -0.002122 -0.002014 0.000000 -0.004174 0.000000
# 2 -0.002122 0.010959 -0.007172 0.000000 0.002991 0.000000
# 3 -0.002014 -0.007172 0.016780 0.000000 -0.008962 0.000000
# 4 0.000000 0.000000 0.000000 0.050309 0.000000 -0.023202
# 5 -0.004174 0.002991 -0.008962 0.000000 0.039699 0.000000
# 6 0.000000 0.000000 0.000000 -0.023202 0.000000 0.049154
#
#
# Mechanical properties :
#
#
# Convention : Reuss Voigt Hill
#
# Bulk Modulus (GPa) = 52.25240 66.38571 59.31905
# Shear Modulus (GPa) = 23.81933 29.50881 26.66407
#
# Velocity S-wave (km/s) = 3.35173 3.73062 3.54624
# Velocity P-wave (km/s) = 6.29469 7.06164 6.68916
#
# Compressibility (1/GPa) = 0.01913788
#
# Stress axis : x y z
#
# Youngs Moduli (GPa) = 71.34342 91.25180 59.59565
#
# Poissons Ratio (x) = 0.19368 0.12005
# Poissons Ratio (y) = 0.15142 0.42741
# Poissons Ratio (z) = 0.14371 0.65444
#
# Static dielectric constant tensor:
#      x y z
#    x 3.983650 0.000000 0.126090 
#    y 0.000000 4.188860 0.000000 
#    z 0.126090 0.000000 3.581120 
# 
# 
# High freq. dielectric constant tensor:
#      x y z
#    x 1.833100 0.000000 0.016500 
#    y 0.000000 1.855140 0.000000 
#    z 0.016500 0.000000 1.808580 
# 
# From -- ./inp_files/205036.got.cif
#   From: 2010.06.25/outbox.cif.g09.slc.cpg/sg12_103_cif.got.tgz:205036.got - 2010.06.28 00:19:55.
