data_PCOD8112169
_publ_section_title
;
Structure prediction by ZEFSAII (Michael W. Deem and Ramdas Pophale) SiO2 
 PCOD8112169
Probable space group: C 2/M
;
_chemical_formula_sum "Si O2"
_cell_formula_units_Z 60
_cell_length_a 16.464436
_cell_length_b 24.569776
_cell_length_c 11.231240
_cell_angle_alpha 90.000000
_cell_angle_beta 45.689890
_cell_angle_gamma 90.000000
_cell_volume 3251.079393
_symmetry_space_group_name_H-M "C 2/M"
_symmetry_group_IT_number 12
_symmetry_cell_setting 'monoclinic'
loop_
_space_group_symop_operation_xyz
x,y,z
-x,y,-z
-x,-y,-z
x,-y,z
1/2+x,1/2+y,z
1/2-x,1/2+y,-z
1/2-x,1/2-y,-z
1/2+x,1/2-y,z
loop_
_atom_site_type_symbol
_atom_site_label
_atom_site_fract_x
_atom_site_fract_y
_atom_site_fract_z
Si Si1 0.825478 0.363680 0.433814
Si Si2 0.000000 0.265244 0.000000
Si Si3 0.421553 0.677987 0.754279
Si Si4 0.747740 0.146144 0.116747
Si Si5 0.056696 0.300597 0.178403
Si Si6 0.871599 0.436415 0.596078
Si Si7 0.217659 0.218087 0.703463
Si Si8 0.167104 0.170086 0.413808
O O1 0.851885 0.419441 0.477725
O O2 0.728070 0.331718 0.603758
O O3 0.767410 0.370890 0.361867
O O4 0.932644 0.324064 0.329304
O O5 0.083607 0.230343 0.831858
O O6 0.924220 0.299350 0.984530
O O7 0.422606 0.742524 0.780009
O O8 0.548013 0.656504 0.600048
O O9 0.344771 0.665997 0.716079
O O10 0.365691 0.643716 0.921005
O O11 0.645716 0.154963 0.129998
O O12 0.719849 0.092292 0.222621
O O13 0.750450 0.199274 0.196644
O O14 0.850728 0.500000 0.629680
O O15 0.000000 0.419836 0.500000
O O16 0.295125 0.269019 0.588053
#
# Coordination Sequence:
#
# PCOD8112169 Si02
#       8
#     8   4   8   8   8   8   8   8
#     4  11  22  34  55  80 112 150 193 234 283 331
#     4  12  22  28  46  78 124 154 192 220 266 328
#     4  11  22  34  52  77 124 161 196 217 268 345
#     4  11  22  35  54  81 111 154 192 235 277 331
#     4  12  20  32  48  80 117 159 187 227 269 343
#     4  10  22  42  65  85 107 141 191 248 299 335
#     4  11  20  31  47  75 113 157 190 224 268 329
#     4  11  21  34  50  78 117 160 188 223 271 347
#
# _framework density 18.455409
#
# number of rings (size 3 to 8) (size 9 to 14) (size 15 to 20)
#    0.000    0.933    6.667    2.400    0.000    0.000 
#    0.000    0.000    0.000    2.400    0.000    4.667 
#    0.000    0.000    0.000    0.000    0.000    0.000 
#
# Total GULP energy -371781.524426 kJ/mol
# GULP energy per Si atom -12392.717481 kJ/mol
# Density = 1.841340 g / cm^3
# Si number density = 18.455409 Si / 1000 Ang^3
#
#
#
# Elastic Constant Matrix: (Units=GPa)
#
#
# Indices 1 2 3 4 5 6 
#
# 1 111.3623 28.5775 19.2325 0.0000 5.8867 0.0000
# 2 28.5775 62.3165 29.1068 0.0000 -0.5787 0.0000
# 3 19.2325 29.1068 91.6755 0.0000 -5.7256 0.0000
# 4 0.0000 0.0000 0.0000 16.0682 0.0000 1.0756
# 5 5.8867 -0.5787 -5.7256 0.0000 29.3919 0.0000
# 6 0.0000 0.0000 0.0000 1.0756 0.0000 16.4338
#
#
#
# Elastic Compliance Matrix: (Units=1/GPa)
#
#
# Indices 1 2 3 4 5 6 
#
# 1 0.010381 -0.004340 -0.000946 0.000000 -0.002349 0.000000
# 2 -0.004340 0.020675 -0.005643 0.000000 0.000177 0.000000
# 3 -0.000946 -0.005643 0.013062 0.000000 0.002623 0.000000
# 4 0.000000 0.000000 0.000000 0.062509 0.000000 -0.004091
# 5 -0.002349 0.000177 0.002623 0.000000 0.035008 0.000000
# 6 0.000000 0.000000 0.000000 -0.004091 0.000000 0.061118
#
#
# Mechanical properties :
#
#
# Convention : Reuss Voigt Hill
#
# Bulk Modulus (GPa) = 44.92579 46.57645 45.75112
# Shear Modulus (GPa) = 21.54885 24.94127 23.24506
#
# Velocity S-wave (km/s) = 3.42075 3.68017 3.55283
# Velocity P-wave (km/s) = 6.32438 6.58410 6.45554
#
# Compressibility (1/GPa) = 0.02225893
#
# Stress axis : x y z
#
# Youngs Moduli (GPa) = 96.32844 48.36819 76.55839
#
# Poissons Ratio (x) = 0.20994 0.07246
# Poissons Ratio (y) = 0.41810 0.43199
# Poissons Ratio (z) = 0.09117 0.27292
#
# Static dielectric constant tensor:
#      x y z
#    x 3.904460 0.000000 0.120930 
#    y 0.000000 2.822250 0.000000 
#    z 0.120930 0.000000 3.603240 
# 
# 
# High freq. dielectric constant tensor:
#      x y z
#    x 1.742180 0.000000 0.002050 
#    y 0.000000 1.637780 0.000000 
#    z 0.002050 0.000000 1.727470 
# 
# From -- ./inp_files/149300.got.cif
#   From: 2010.06.25/outbox.cif.g09.slc.cpg/sg12_75_cif.got.tgz:149300.got - 2010.06.28 00:19:55.
