data_PCOD8112101
_publ_section_title
;
Structure prediction by ZEFSAII (Michael W. Deem and Ramdas Pophale) SiO2 
 PCOD8112101
Probable space group: C 2/M
;
_chemical_formula_sum "Si O2"
_cell_formula_units_Z 48
_cell_length_a 14.336392
_cell_length_b 11.180866
_cell_length_c 14.815350
_cell_angle_alpha 90.000000
_cell_angle_beta 110.110829
_cell_angle_gamma 90.000000
_cell_volume 2230.007694
_symmetry_space_group_name_H-M "C 2/M"
_symmetry_group_IT_number 12
_symmetry_cell_setting 'monoclinic'
loop_
_space_group_symop_operation_xyz
x,y,z
-x,y,-z
-x,-y,-z
x,-y,z
1/2+x,1/2+y,z
1/2-x,1/2+y,-z
1/2-x,1/2-y,-z
1/2+x,1/2-y,z
loop_
_atom_site_type_symbol
_atom_site_label
_atom_site_fract_x
_atom_site_fract_y
_atom_site_fract_z
Si Si1 0.874637 0.313079 0.127110
Si Si2 0.596150 0.859471 0.212922
Si Si3 0.305400 0.714001 0.609490
Si Si4 0.713082 0.129496 0.082524
Si Si5 0.490612 0.632870 0.391061
Si Si6 0.360104 0.869315 0.314992
O O1 0.818032 0.188303 0.094112
O O2 0.827464 0.378090 0.199180
O O3 0.991312 0.290766 0.181219
O O4 0.855896 0.385677 0.028946
O O5 0.659477 0.831868 0.324035
O O6 0.653480 0.807488 0.144474
O O7 0.573808 0.000000 0.200293
O O8 0.250000 0.750000 0.500000
O O9 0.401042 0.635133 0.617849
O O10 0.232852 0.638157 0.649120
O O11 0.740904 0.000000 0.129084
O O12 0.500000 0.644560 0.500000
O O13 0.444473 0.500000 0.351858
O O14 0.426742 0.748890 0.341277
O O15 0.412330 0.000000 0.354312
#
# Coordination Sequence:
#
# PCOD8112101 Si02
#       6
#     8   8   8   8   8   8
#     4  11  22  40  68  99 134 167 220 274 330 394
#     4  11  23  41  67  96 131 176 225 271 326 398
#     4  12  25  44  64  99 132 177 224 278 331 393
#     4  10  22  41  68  97 131 174 219 270 330 399
#     4  11  25  46  68  93 129 177 225 275 334 396
#     4  12  25  43  67  99 133 173 221 276 336 392
#
# _framework density 21.52459
#
# number of rings (size 3 to 8) (size 9 to 14) (size 15 to 20)
#    0.000    0.833    5.000    2.500    0.000    4.333 
#    0.000    0.000    0.000    2.000    0.000    0.000 
#    0.000    0.000    0.000    0.000    0.000    0.000 
#
# Total GULP energy -297344.683803 kJ/mol
# GULP energy per Si atom -12389.361825 kJ/mol
# Density = 2.147560 g / cm^3
# Si number density = 21.524590 Si / 1000 Ang^3
#
#
#
# Elastic Constant Matrix: (Units=GPa)
#
#
# Indices 1 2 3 4 5 6 
#
# 1 128.6497 51.5186 55.0829 0.0000 -11.4926 0.0000
# 2 51.5186 131.4067 40.4494 0.0000 7.5619 0.0000
# 3 55.0829 40.4494 151.6284 0.0000 -11.9462 0.0000
# 4 0.0000 0.0000 0.0000 -6.0014 0.0000 11.0591
# 5 -11.4926 7.5619 -11.9462 0.0000 41.6900 0.0000
# 6 0.0000 0.0000 0.0000 11.0591 0.0000 16.0110
#
#
#
# Elastic Compliance Matrix: (Units=1/GPa)
#
#
# Indices 1 2 3 4 5 6 
#
# 1 0.010564 -0.003472 -0.002693 0.000000 0.002770 0.000000
# 2 -0.003472 0.009632 -0.001556 0.000000 -0.003150 0.000000
# 3 -0.002693 -0.001556 0.008136 0.000000 0.001871 0.000000
# 4 0.000000 0.000000 0.000000 -0.073313 0.000000 0.050639
# 5 0.002770 -0.003150 0.001871 0.000000 0.025858 0.000000
# 6 0.000000 0.000000 0.000000 0.050639 0.000000 0.027480
#
#
# Mechanical properties :
#
#
# Convention : Reuss Voigt Hill
#
# Bulk Modulus (GPa) = 77.58789 78.42072 78.00431
# Shear Modulus (GPa) = 177.96560 27.98218 102.97389
#
# Velocity S-wave (km/s) = 9.10273 3.60948 6.92416
# Velocity P-wave (km/s) = 12.10801 7.34052 10.01217
#
# Compressibility (1/GPa) = 0.01288861
#
# Stress axis : x y z
#
# Youngs Moduli (GPa) = 94.66071 103.82585 122.91044
#
# Poissons Ratio (x) = 0.36049 0.33102
# Poissons Ratio (y) = 0.32867 0.19128
# Poissons Ratio (z) = 0.25494 0.16158
#
# Static dielectric constant tensor:
#      x y z
#    x 3.996320 0.000000 -0.347250 
#    y 0.000000 3.955640 0.000000 
#    z -0.347250 0.000000 4.181720 
# 
# 
# High freq. dielectric constant tensor:
#      x y z
#    x 1.848930 0.000000 -0.024590 
#    y 0.000000 1.837420 0.000000 
#    z -0.024590 0.000000 1.854780 
# 
# From -- ./inp_files/212913.got.cif
#   From: 2010.06.25/outbox.cif.g09.slc.cpg/sg12_107_cif.got.tgz:212913.got - 2010.06.28 00:19:55.
