data_PCOD8112742
_publ_section_title
;
Structure prediction by ZEFSAII (Michael W. Deem and Ramdas Pophale) SiO2 
 PCOD8112742
Probable space group: C 2/M
;
_chemical_formula_sum "Si O2"
_cell_formula_units_Z 52
_cell_length_a 15.717277
_cell_length_b 13.593832
_cell_length_c 19.162659
_cell_angle_alpha 90.000000
_cell_angle_beta 37.101278
_cell_angle_gamma 90.000000
_cell_volume 2469.760663
_symmetry_space_group_name_H-M "C 2/M"
_symmetry_group_IT_number 12
_symmetry_cell_setting 'monoclinic'
loop_
_space_group_symop_operation_xyz
x,y,z
-x,y,-z
-x,-y,-z
x,-y,z
1/2+x,1/2+y,z
1/2-x,1/2+y,-z
1/2-x,1/2-y,-z
1/2+x,1/2-y,z
loop_
_atom_site_type_symbol
_atom_site_label
_atom_site_fract_x
_atom_site_fract_y
_atom_site_fract_z
Si Si1 0.000000 0.259647 0.500000
Si Si2 0.198823 0.884435 0.035816
Si Si3 0.635749 0.386590 0.231723
Si Si4 0.491181 0.116458 0.787866
Si Si5 0.587225 0.224991 0.591877
Si Si6 0.562629 0.387275 0.882503
Si Si7 0.218854 0.700749 0.742720
O O1 0.947976 0.318069 0.463455
O O2 0.866133 0.192271 0.605522
O O3 0.337364 0.838528 0.908160
O O4 0.210927 0.000000 0.018868
O O5 0.192530 0.851955 0.119866
O O6 0.056863 0.848999 0.091795
O O7 0.591023 0.500000 0.260622
O O8 0.496641 0.326750 0.343899
O O9 0.766282 0.367081 0.198584
O O10 0.531854 0.144784 0.682726
O O11 0.597678 0.160721 0.773622
O O12 0.494019 0.000000 0.792213
O O13 0.750000 0.250000 0.500000
O O14 0.611480 0.500000 0.836187
O O15 0.693831 0.314221 0.783580
O O16 0.500000 0.377132 0.000000
#
# Coordination Sequence:
#
# PCOD8112742 Si02
#       7
#     4   8   8   8   8   8   8
#     4  10  24  44  60  94 130 162 226 282 302 394
#     4   9  21  40  62  94 128 162 213 263 321 401
#     4  10  23  42  65  96 132 170 213 270 332 392
#     4  11  24  42  67  97 132 169 216 275 335 396
#     4  11  23  43  64  93 129 172 229 273 324 394
#     4  10  23  41  63  93 128 171 219 265 324 395
#     4  11  23  41  66  94 130 173 219 267 329 388
#
# _framework density 21.054672
#
# number of rings (size 3 to 8) (size 9 to 14) (size 15 to 20)
#    0.000    1.692    1.538    1.385    6.462    1.846 
#    0.000    5.769    0.000    0.000    0.000    0.000 
#    0.000    0.000    0.000    0.000    0.000    0.000 
#
# Total GULP energy -322304.126411 kJ/mol
# GULP energy per Si atom -12396.312554 kJ/mol
# Density = 2.100675 g / cm^3
# Si number density = 21.054672 Si / 1000 Ang^3
#
#
#
# Elastic Constant Matrix: (Units=GPa)
#
#
# Indices 1 2 3 4 5 6 
#
# 1 125.1356 24.4152 37.8905 -0.0004 17.2180 0.0001
# 2 24.4152 91.0875 33.6439 -0.0003 1.5597 0.0001
# 3 37.8905 33.6439 112.0800 -0.0009 -0.1478 0.0004
# 4 -0.0004 -0.0003 -0.0009 26.5065 0.0004 4.6810
# 5 17.2180 1.5597 -0.1478 0.0004 36.5036 -0.0001
# 6 0.0001 0.0001 0.0004 4.6810 -0.0001 29.5987
#
#
#
# Elastic Compliance Matrix: (Units=1/GPa)
#
#
# Indices 1 2 3 4 5 6 
#
# 1 0.009776 -0.001484 -0.002865 0.000000 -0.004559 0.000000
# 2 -0.001484 0.012583 -0.003275 0.000000 0.000149 0.000000
# 3 -0.002865 -0.003275 0.010876 0.000000 0.001536 0.000000
# 4 0.000000 0.000000 0.000000 0.038810 0.000000 -0.006138
# 5 -0.004559 0.000149 0.001536 0.000000 0.029545 0.000000
# 6 0.000000 0.000000 0.000000 -0.006138 0.000000 0.034756
#
#
# Mechanical properties :
#
#
# Convention : Reuss Voigt Hill
#
# Bulk Modulus (GPa) = 55.59912 57.80026 56.69969
# Shear Modulus (GPa) = 31.72759 34.01202 32.86981
#
# Velocity S-wave (km/s) = 3.88611 4.02358 3.95544
# Velocity P-wave (km/s) = 6.82643 7.00697 6.91729
#
# Compressibility (1/GPa) = 0.01798590
#
# Stress axis : x y z
#
# Youngs Moduli (GPa) = 102.29309 79.46953 91.94434
#
# Poissons Ratio (x) = 0.11792 0.26346
# Poissons Ratio (y) = 0.15179 0.30116
# Poissons Ratio (z) = 0.29312 0.26030
#
# Static dielectric constant tensor:
#      x y z
#    x 4.321560 0.000000 0.141940 
#    y 0.000000 3.643900 0.000000 
#    z 0.141940 0.000000 3.963360 
# 
# 
# High freq. dielectric constant tensor:
#      x y z
#    x 1.848330 0.000000 0.006620 
#    y 0.000000 1.811120 0.000000 
#    z 0.006620 0.000000 1.829720 
# 
# From -- ./inp_files/270584.got.cif
#   From: 2010.06.25/outbox.cif.g09.slc.cpg/sg12_136_cif.got.tgz:270584.got - 2010.06.28 00:19:55.
