data_PCOD8112712
_publ_section_title
;
Structure prediction by ZEFSAII (Michael W. Deem and Ramdas Pophale) SiO2 
 PCOD8112712
Probable space group: C 2/M
;
_chemical_formula_sum "Si O2"
_cell_formula_units_Z 56
_cell_length_a 8.799883
_cell_length_b 32.472518
_cell_length_c 19.928269
_cell_angle_alpha 90.000000
_cell_angle_beta 150.035044
_cell_angle_gamma 90.000000
_cell_volume 2844.277969
_symmetry_space_group_name_H-M "C 2/M"
_symmetry_group_IT_number 12
_symmetry_cell_setting 'monoclinic'
loop_
_space_group_symop_operation_xyz
x,y,z
-x,y,-z
-x,-y,-z
x,-y,z
1/2+x,1/2+y,z
1/2-x,1/2+y,-z
1/2-x,1/2-y,-z
1/2+x,1/2-y,z
loop_
_atom_site_type_symbol
_atom_site_label
_atom_site_fract_x
_atom_site_fract_y
_atom_site_fract_z
Si Si1 0.868821 0.665506 0.523541
Si Si2 0.332576 0.000000 0.596486
Si Si3 0.546449 0.500000 0.095477
Si Si4 0.713650 0.198006 0.258133
Si Si5 0.055614 0.575011 0.598645
Si Si6 0.846505 0.715944 0.249215
Si Si7 0.671006 0.575540 0.905701
Si Si8 0.352849 0.654370 0.012548
O O1 0.509250 0.671052 0.385193
O O2 0.000000 0.673415 0.500000
O O3 0.935894 0.619637 0.575478
O O4 0.016724 0.697850 0.630447
O O5 0.365524 0.040964 0.565271
O O6 0.000000 0.000000 0.500000
O O7 0.592380 0.000000 0.752608
O O8 0.380725 0.540047 0.060377
O O9 0.500000 0.500000 0.000000
O O10 0.781521 0.236302 0.236030
O O11 0.584174 0.212780 0.279664
O O12 0.490309 0.168043 0.132306
O O13 0.416302 0.571917 0.750447
O O14 0.000000 0.566862 0.500000
O O15 0.535159 0.693620 0.110023
O O16 0.642761 0.619427 0.930162
O O17 0.000000 0.569643 0.000000
O O18 0.500000 0.637456 0.000000
#
# Coordination Sequence:
#
# PCOD8112712 Si02
#       8
#     8   4   4   8   8   8   8   8
#     4  11  23  40  61  89 123 160 207 252 309 362
#     4  10  23  42  66  96 126 168 205 248 300 360
#     4  10  23  44  64  96 134 164 205 252 300 364
#     4  11  24  38  64  87 119 165 202 256 312 366
#     4  10  23  42  63  92 128 159 204 256 301 362
#     4  11  22  42  60  89 122 157 207 257 308 369
#     4  11  23  40  67  94 125 162 206 254 306 363
#     4  10  23  41  61  89 124 159 204 253 312 367
#
# _framework density 19.688652999999999
#
# number of rings (size 3 to 8) (size 9 to 14) (size 15 to 20)
#    0.000    1.429    1.429    3.000    4.000    3.429 
#    2.571    0.000    0.000    0.000    0.000    0.000 
#    0.000    0.000    0.000    0.000    0.000    0.000 
#
# Total GULP energy -347362.139475 kJ/mol
# GULP energy per Si atom -12405.790696 kJ/mol
# Density = 1.964384 g / cm^3
# Si number density = 19.688653 Si / 1000 Ang^3
#
#
#
# Elastic Constant Matrix: (Units=GPa)
#
#
# Indices 1 2 3 4 5 6 
#
# 1 106.1982 47.9317 68.6724 -0.0002 9.3120 0.0001
# 2 47.9317 91.9943 34.1692 -0.0004 5.7522 0.0004
# 3 68.6724 34.1692 129.5570 -0.0015 7.7218 0.0015
# 4 -0.0002 -0.0004 -0.0015 11.8684 -0.0004 -3.4870
# 5 9.3120 5.7522 7.7218 -0.0004 38.6227 0.0003
# 6 0.0001 0.0004 0.0015 -3.4870 0.0003 23.3978
#
#
#
# Elastic Compliance Matrix: (Units=1/GPa)
#
#
# Indices 1 2 3 4 5 6 
#
# 1 0.017040 -0.006045 -0.007334 -0.000001 -0.001742 0.000000
# 2 -0.006045 0.014248 -0.000520 0.000000 -0.000561 0.000000
# 3 -0.007334 -0.000520 0.011773 0.000001 -0.000508 -0.000001
# 4 -0.000001 0.000000 0.000001 0.088115 0.000001 0.013132
# 5 -0.001742 -0.000561 -0.000508 0.000001 0.026497 0.000000
# 6 0.000000 0.000000 -0.000001 0.013132 0.000000 0.044696
#
#
# Mechanical properties :
#
#
# Convention : Reuss Voigt Hill
#
# Bulk Modulus (GPa) = 65.51784 69.92179 67.71982
# Shear Modulus (GPa) = 21.25342 26.57619 23.91481
#
# Velocity S-wave (km/s) = 3.28910 3.67798 3.48896
# Velocity P-wave (km/s) = 6.91183 7.32308 7.12043
#
# Compressibility (1/GPa) = 0.01526302
#
# Stress axis : x y z
#
# Youngs Moduli (GPa) = 58.68506 70.18392 84.93674
#
# Poissons Ratio (x) = 0.42429 0.62292
# Poissons Ratio (y) = 0.35478 0.04417
# Poissons Ratio (z) = 0.43040 0.03650
#
# Static dielectric constant tensor:
#      x y z
#    x 3.352910 0.000000 -0.032120 
#    y 0.000000 3.714400 0.000000 
#    z -0.032120 0.000000 3.767510 
# 
# 
# High freq. dielectric constant tensor:
#      x y z
#    x 1.768780 0.000000 -0.003800 
#    y 0.000000 1.779650 0.000000 
#    z -0.003800 0.000000 1.785130 
# 
# From -- ./inp_files/303083.got.cif
#   From: 2010.06.25/outbox.cif.g09.slc.cpg/sg12_152_cif.got.tgz:303083.got - 2010.06.28 00:19:55.
