data_PCOD8112954
_publ_section_title
;
Structure prediction by ZEFSAII (Michael W. Deem and Ramdas Pophale) SiO2 
 PCOD8112954
Probable space group: C 2/M
;
_chemical_formula_sum "Si O2"
_cell_formula_units_Z 48
_cell_length_a 14.240078
_cell_length_b 26.328194
_cell_length_c 11.851206
_cell_angle_alpha 90.000000
_cell_angle_beta 152.066676
_cell_angle_gamma 90.000000
_cell_volume 2081.389835
_symmetry_space_group_name_H-M "C 2/M"
_symmetry_group_IT_number 12
_symmetry_cell_setting 'monoclinic'
loop_
_space_group_symop_operation_xyz
x,y,z
-x,y,-z
-x,-y,-z
x,-y,z
1/2+x,1/2+y,z
1/2-x,1/2+y,-z
1/2-x,1/2-y,-z
1/2+x,1/2-y,z
loop_
_atom_site_type_symbol
_atom_site_label
_atom_site_fract_x
_atom_site_fract_y
_atom_site_fract_z
Si Si1 0.709654 0.942758 0.024741
Si Si2 0.924442 0.778345 0.753130
Si Si3 0.887950 0.557350 0.490739
Si Si4 0.906196 0.891284 0.667946
Si Si5 0.228767 0.125019 0.708062
Si Si6 0.261969 0.738800 0.238060
O O1 0.525183 0.941710 0.745422
O O2 0.756396 0.000000 0.115233
O O3 0.652735 0.909508 0.075414
O O4 0.896794 0.922912 0.151043
O O5 0.750000 0.750000 0.500000
O O6 0.967959 0.832623 0.744758
O O7 0.829656 0.781328 0.776856
O O8 0.145846 0.750323 0.995553
O O9 0.821661 0.500000 0.389690
O O10 0.691256 0.589124 0.318266
O O11 0.000000 0.581417 0.500000
O O12 0.750634 0.896044 0.397568
O O13 0.306124 0.182597 0.796622
O O14 0.000000 0.122511 0.500000
O O15 0.500000 0.744868 0.500000
#
# Coordination Sequence:
#
# PCOD8112954 Si02
#       6
#     8   8   8   8   8   8
#     4  10  23  42  68  99 129 165 218 275 330 407
#     4  11  24  39  61  97 129 173 228 269 320 401
#     4  10  24  43  64  93 129 171 222 271 329 396
#     4  11  23  41  67  94 132 174 211 276 339 384
#     4   9  20  40  65  97 127 172 213 264 342 399
#     4  10  23  43  64  90 135 180 224 275 333 389
#
# _framework density 23.061513000000001
#
# number of rings (size 3 to 8) (size 9 to 14) (size 15 to 20)
#    0.000    1.833    1.667    0.500    2.333   10.333 
#    0.000    4.167    0.000    0.000    0.000    0.000 
#    0.000    0.000    0.000    0.000    0.000    0.000 
#
# Total GULP energy -297341.380596 kJ/mol
# GULP energy per Si atom -12389.224192 kJ/mol
# Density = 2.300902 g / cm^3
# Si number density = 23.061513 Si / 1000 Ang^3
#
#
#
# Elastic Constant Matrix: (Units=GPa)
#
#
# Indices 1 2 3 4 5 6 
#
# 1 89.1976 13.7197 -3.4114 0.0000 -9.0168 -0.0001
# 2 13.7197 85.3891 20.2383 -0.0001 -6.7494 -0.0002
# 3 -3.4114 20.2383 121.8461 0.0001 8.8800 0.0003
# 4 0.0000 -0.0001 0.0001 27.3466 0.0001 -18.2248
# 5 -9.0168 -6.7494 8.8800 0.0001 30.2675 0.0003
# 6 -0.0001 -0.0002 0.0003 -18.2248 0.0003 -5.4014
#
#
#
# Elastic Compliance Matrix: (Units=1/GPa)
#
#
# Indices 1 2 3 4 5 6 
#
# 1 0.011800 -0.001754 0.000403 0.000000 0.003006 0.000000
# 2 -0.001754 0.012801 -0.002396 0.000000 0.003035 0.000000
# 3 0.000403 -0.002396 0.008836 0.000000 -0.003007 0.000000
# 4 0.000000 0.000000 0.000000 0.011256 0.000000 -0.037980
# 5 0.003006 0.003035 -0.003007 0.000000 0.035493 0.000001
# 6 0.000000 0.000000 0.000000 -0.037980 0.000001 -0.056990
#
#
# Mechanical properties :
#
#
# Convention : Reuss Voigt Hill
#
# Bulk Modulus (GPa) = 38.54888 39.72512 39.13700
# Shear Modulus (GPa) = 127.10222 28.16830 77.63526
#
# Velocity S-wave (km/s) = 7.43196 3.49871 5.80840
# Velocity P-wave (km/s) = 9.50775 5.79520 7.87343
#
# Compressibility (1/GPa) = 0.02594109
#
# Stress axis : x y z
#
# Youngs Moduli (GPa) = 84.74514 78.12022 113.17965
#
# Poissons Ratio (x) = 0.13700 -0.04557
# Poissons Ratio (y) = 0.14862 0.27123
# Poissons Ratio (z) = -0.03412 0.18721
#
# Static dielectric constant tensor:
#      x y z
#    x 4.342860 0.000000 -0.433430 
#    y 0.000000 4.297250 0.000000 
#    z -0.433430 0.000000 4.836720 
# 
# 
# High freq. dielectric constant tensor:
#      x y z
#    x 1.912080 0.000000 -0.001730 
#    y 0.000000 1.898010 0.000000 
#    z -0.001730 0.000000 1.927380 
# 
# From -- ./inp_files/149829.got.cif
#   From: 2010.06.25/outbox.cif.g09.slc.cpg/sg12_75_cif.got.tgz:149829.got - 2010.06.28 00:19:55.
