data_PCOD8112077
_publ_section_title
;
Structure prediction by ZEFSAII (Michael W. Deem and Ramdas Pophale) SiO2 
 PCOD8112077
Probable space group: C 2/M
;
_chemical_formula_sum "Si O2"
_cell_formula_units_Z 64
_cell_length_a 30.477839
_cell_length_b 8.571248
_cell_length_c 11.176602
_cell_angle_alpha 90.000000
_cell_angle_beta 93.052694
_cell_angle_gamma 90.000000
_cell_volume 2915.555462
_symmetry_space_group_name_H-M "C 2/M"
_symmetry_group_IT_number 12
_symmetry_cell_setting 'monoclinic'
loop_
_space_group_symop_operation_xyz
x,y,z
-x,y,-z
-x,-y,-z
x,-y,z
1/2+x,1/2+y,z
1/2-x,1/2+y,-z
1/2-x,1/2-y,-z
1/2+x,1/2-y,z
loop_
_atom_site_type_symbol
_atom_site_label
_atom_site_fract_x
_atom_site_fract_y
_atom_site_fract_z
Si Si1 0.047762 0.327408 0.516400
Si Si2 0.856007 0.178915 0.875689
Si Si3 0.894311 0.324114 0.106040
Si Si4 0.866325 0.680345 0.356615
Si Si5 0.985013 0.822141 0.132764
Si Si6 0.763245 0.318980 0.871887
Si Si7 0.931680 0.673047 0.746027
Si Si8 0.724619 0.683489 0.612224
O O1 0.037736 0.500000 0.569083
O O2 0.085535 0.245802 0.602934
O O3 0.072187 0.342323 0.394881
O O4 0.000000 0.239128 0.500000
O O5 0.814586 0.291347 0.860282
O O6 0.890297 0.225156 0.779286
O O7 0.841509 0.000000 0.857985
O O8 0.879587 0.199172 0.006314
O O9 0.892132 0.500000 0.054404
O O10 0.861503 0.307026 0.212958
O O11 0.943738 0.287302 0.153256
O O12 0.864367 0.500000 0.398637
O O13 0.826607 0.773868 0.411703
O O14 0.023674 0.763461 0.221974
O O15 0.973404 0.000000 0.162650
O O16 0.000000 0.803588 0.000000
O O17 0.752319 0.500000 0.879268
O O18 0.740311 0.251080 0.746241
O O19 0.750000 0.250000 0.000000
O O20 0.931271 0.500000 0.806028
O O21 0.731617 0.500000 0.610617
O O22 0.750000 0.750000 0.500000
#
# Coordination Sequence:
#
# PCOD8112077 Si02
#       8
#     8   8   8   8   8   8   8   8
#     4   9  19  38  63  92 125 163 208 259 314 373
#     4  12  25  40  61  92 130 166 205 260 325 386
#     4  11  22  38  64  94 125 167 217 263 317 385
#     4  10  22  41  67  97 129 166 213 267 321 383
#     4  11  22  36  55  84 124 168 209 260 322 379
#     4  11  25  46  71  99 131 170 220 273 333 399
#     4  11  22  37  61  89 121 162 213 262 314 384
#     4  11  26  46  70 100 135 176 223 275 335 401
#
# _framework density 21.951218999999998
#
# number of rings (size 3 to 8) (size 9 to 14) (size 15 to 20)
#    0.000    1.250    1.250    4.500    1.750    7.500 
#    0.000    0.625    0.000    2.625    0.000    0.000 
#    0.000    0.000    0.000    0.000    0.000    0.000 
#
# Total GULP energy -396678.371483 kJ/mol
# GULP energy per Si atom -12396.199109 kJ/mol
# Density = 2.190126 g / cm^3
# Si number density = 21.951219 Si / 1000 Ang^3
#
#
#
# Elastic Constant Matrix: (Units=GPa)
#
#
# Indices 1 2 3 4 5 6 
#
# 1 136.9302 10.6697 39.7387 0.0000 -3.4810 0.0000
# 2 10.6697 69.9319 27.8898 0.0000 -10.8628 0.0000
# 3 39.7387 27.8898 116.1313 0.0000 -5.4747 0.0000
# 4 0.0000 0.0000 0.0000 19.2818 0.0000 -2.3223
# 5 -3.4810 -10.8628 -5.4747 0.0000 19.6007 0.0000
# 6 0.0000 0.0000 0.0000 -2.3223 0.0000 35.9674
#
#
#
# Elastic Compliance Matrix: (Units=1/GPa)
#
#
# Indices 1 2 3 4 5 6 
#
# 1 0.008117 -0.000046 -0.002736 0.000000 0.000652 0.000000
# 2 -0.000046 0.017088 -0.003691 0.000000 0.008431 0.000000
# 3 -0.002736 -0.003691 0.010452 0.000000 0.000388 0.000000
# 4 0.000000 0.000000 0.000000 0.052269 0.000000 0.003375
# 5 0.000652 0.008431 0.000388 0.000000 0.055916 0.000000
# 6 0.000000 0.000000 0.000000 0.003375 0.000000 0.028021
#
#
# Mechanical properties :
#
#
# Convention : Reuss Voigt Hill
#
# Bulk Modulus (GPa) = 44.02956 53.28776 48.65866
# Shear Modulus (GPa) = 25.99052 31.28300 28.63676
#
# Velocity S-wave (km/s) = 3.44468 3.77916 3.61579
# Velocity P-wave (km/s) = 5.99354 6.58567 6.29657
#
# Compressibility (1/GPa) = 0.02271202
#
# Stress axis : x y z
#
# Youngs Moduli (GPa) = 123.19667 58.51993 95.67817
#
# Poissons Ratio (x) = 0.00270 0.26175
# Poissons Ratio (y) = 0.00568 0.35311
# Poissons Ratio (z) = 0.33704 0.21597
#
# Static dielectric constant tensor:
#      x y z
#    x 4.042820 0.000000 -0.078240 
#    y 0.000000 3.847840 0.000000 
#    z -0.078240 0.000000 3.955870 
# 
# 
# High freq. dielectric constant tensor:
#      x y z
#    x 1.873640 0.000000 -0.003590 
#    y 0.000000 1.843680 0.000000 
#    z -0.003590 0.000000 1.872300 
# 
# From -- ./inp_files/187557.got.cif
#   From: 2010.06.25/outbox.cif.g09.slc.cpg/sg12_94_cif.got.tgz:187557.got - 2010.06.28 00:19:55.
