data_PCOD8112677
_publ_section_title
;
Structure prediction by ZEFSAII (Michael W. Deem and Ramdas Pophale) SiO2 
 PCOD8112677
Probable space group: C 2/M
;
_chemical_formula_sum "Si O2"
_cell_formula_units_Z 56
_cell_length_a 18.951851
_cell_length_b 9.000130
_cell_length_c 19.532246
_cell_angle_alpha 90.000000
_cell_angle_beta 65.485050
_cell_angle_gamma 90.000000
_cell_volume 3031.264612
_symmetry_space_group_name_H-M "C 2/M"
_symmetry_group_IT_number 12
_symmetry_cell_setting 'monoclinic'
loop_
_space_group_symop_operation_xyz
x,y,z
-x,y,-z
-x,-y,-z
x,-y,z
1/2+x,1/2+y,z
1/2-x,1/2+y,-z
1/2-x,1/2-y,-z
1/2+x,1/2-y,z
loop_
_atom_site_type_symbol
_atom_site_label
_atom_site_fract_x
_atom_site_fract_y
_atom_site_fract_z
Si Si1 0.924976 0.676124 0.074400
Si Si2 0.791109 0.338280 0.683207
Si Si3 0.347013 0.159434 0.812499
Si Si4 0.547601 0.178050 0.416132
Si Si5 0.228524 0.671423 0.939598
Si Si6 0.119934 0.177395 0.766828
Si Si7 0.486445 0.828259 0.294772
O O1 0.923546 0.500000 0.087237
O O2 0.851083 0.732502 0.060676
O O3 0.922548 0.753377 0.149672
O O4 0.000000 0.724246 0.000000
O O5 0.773926 0.500000 0.657046
O O6 0.828837 0.360513 0.741272
O O7 0.862787 0.259098 0.613476
O O8 0.707994 0.256154 0.723110
O O9 0.299204 0.297214 0.860306
O O10 0.438085 0.190826 0.783708
O O11 0.326935 0.000000 0.857165
O O12 0.500000 0.239639 0.500000
O O13 0.503616 0.230763 0.364749
O O14 0.552553 0.000000 0.413747
O O15 0.220238 0.500000 0.957497
O O16 0.250000 0.750000 0.000000
O O17 0.078262 0.225173 0.713686
O O18 0.120234 0.000000 0.775728
O O19 0.459109 0.000000 0.307039
#
# Coordination Sequence:
#
# PCOD8112677 Si02
#       7
#     8   8   8   8   8   8   8
#     4  10  23  41  56  73 102 141 180 219 267 314
#     4   8  15  29  50  75 101 133 171 212 257 301
#     4   9  17  34  54  70  96 135 175 215 258 305
#     4   8  14  29  55  82 105 136 180 219 251 302
#     4  11  23  36  53  76 102 132 171 219 266 312
#     4  11  21  34  54  78 108 141 175 219 266 317
#     4   9  19  33  53  79 107 138 175 218 261 308
#
# _framework density 18.474136999999999
#
# number of rings (size 3 to 8) (size 9 to 14) (size 15 to 20)
#    0.000    2.571    1.429    2.571    2.000    1.429 
#    0.000    0.714    0.000    0.429    0.000    0.000 
#    0.000    0.000    0.000    0.000    0.000    0.000 
#
# Total GULP energy -346896.167348 kJ/mol
# GULP energy per Si atom -12389.148834 kJ/mol
# Density = 1.843209 g / cm^3
# Si number density = 18.474137 Si / 1000 Ang^3
#
#
#
# Elastic Constant Matrix: (Units=GPa)
#
#
# Indices 1 2 3 4 5 6 
#
# 1 111.0931 25.1814 54.8498 0.0000 -7.6853 0.0000
# 2 25.1814 32.6949 24.5474 0.0000 0.0206 -0.0001
# 3 54.8498 24.5474 123.1310 0.0000 -15.9799 0.0000
# 4 0.0000 0.0000 0.0000 16.0950 0.0000 4.2175
# 5 -7.6853 0.0206 -15.9799 0.0000 28.5025 0.0000
# 6 0.0000 -0.0001 0.0000 4.2175 0.0000 22.4422
#
#
#
# Elastic Compliance Matrix: (Units=1/GPa)
#
#
# Indices 1 2 3 4 5 6 
#
# 1 0.012631 -0.006596 -0.004172 0.000000 0.001071 0.000000
# 2 -0.006596 0.039925 -0.005668 0.000000 -0.004985 0.000000
# 3 -0.004172 -0.005668 0.011825 0.000000 0.005509 0.000000
# 4 0.000000 0.000000 0.000000 0.065349 0.000000 -0.012281
# 5 0.001071 -0.004985 0.005509 0.000000 0.038466 0.000000
# 6 0.000000 0.000000 0.000000 -0.012281 0.000000 0.046867
#
#
# Mechanical properties :
#
#
# Convention : Reuss Voigt Hill
#
# Bulk Modulus (GPa) = 31.73867 52.89734 42.31800
# Shear Modulus (GPa) = 19.34703 24.23065 21.78884
#
# Velocity S-wave (km/s) = 3.23963 3.62553 3.43800
# Velocity P-wave (km/s) = 5.58668 6.79862 6.22223
#
# Compressibility (1/GPa) = 0.03150731
#
# Stress axis : x y z
#
# Youngs Moduli (GPa) = 79.17179 25.04702 84.56663
#
# Poissons Ratio (x) = 0.16521 0.35285
# Poissons Ratio (y) = 0.52223 0.47933
# Poissons Ratio (z) = 0.33034 0.14197
#
# Static dielectric constant tensor:
#      x y z
#    x 3.487260 0.000000 -0.078170 
#    y 0.000000 3.013080 0.000000 
#    z -0.078170 0.000000 3.182130 
# 
# 
# High freq. dielectric constant tensor:
#      x y z
#    x 1.724410 0.000000 -0.011340 
#    y 0.000000 1.679780 0.000000 
#    z -0.011340 0.000000 1.708920 
# 
# From -- ./inp_files/319032.got.cif
#   From: 2010.06.25/outbox.cif.g09.slc.cpg/sg12_160_cif.got.tgz:319032.got - 2010.06.28 00:19:55.
