data_PCOD8112688
_publ_section_title
;
Structure prediction by ZEFSAII (Michael W. Deem and Ramdas Pophale) SiO2 
 PCOD8112688
Probable space group: C 2/M
;
_chemical_formula_sum "Si O2"
_cell_formula_units_Z 56
_cell_length_a 29.966649
_cell_length_b 8.701929
_cell_length_c 11.936850
_cell_angle_alpha 90.000000
_cell_angle_beta 118.706371
_cell_angle_gamma 90.000000
_cell_volume 2730.165530
_symmetry_space_group_name_H-M "C 2/M"
_symmetry_group_IT_number 12
_symmetry_cell_setting 'monoclinic'
loop_
_space_group_symop_operation_xyz
x,y,z
-x,y,-z
-x,-y,-z
x,-y,z
1/2+x,1/2+y,z
1/2-x,1/2+y,-z
1/2-x,1/2-y,-z
1/2+x,1/2-y,z
loop_
_atom_site_type_symbol
_atom_site_label
_atom_site_fract_x
_atom_site_fract_y
_atom_site_fract_z
Si Si1 0.902996 0.181834 0.126478
Si Si2 0.693533 0.181217 0.417544
Si Si3 0.352241 0.820179 0.267773
Si Si4 0.650332 0.824680 0.132728
Si Si5 0.112537 0.177433 0.479959
Si Si6 0.498660 0.319940 0.624324
Si Si7 0.246794 0.823831 0.876553
O O1 0.859835 0.265212 0.148990
O O2 0.956980 0.243193 0.240195
O O3 0.897613 0.000000 0.128569
O O4 0.894333 0.231855 0.986151
O O5 0.750000 0.250000 0.500000
O O6 0.664105 0.244367 0.271455
O O7 0.655472 0.220539 0.472515
O O8 0.701176 0.000000 0.417041
O O9 0.390009 0.723821 0.392177
O O10 0.295674 0.774271 0.240812
O O11 0.361769 0.000000 0.291096
O O12 0.701126 0.807775 0.124030
O O13 0.632045 0.000000 0.121163
O O14 0.054407 0.212658 0.373046
O O15 0.127065 0.000000 0.480909
O O16 0.500000 0.245490 0.500000
O O17 0.506593 0.500000 0.618636
O O18 0.229260 0.000000 0.864529
O O19 0.250000 0.750000 0.000000
#
# Coordination Sequence:
#
# PCOD8112688 Si02
#       7
#     8   8   8   8   8   8   8
#     4  11  21  36  61  89 119 158 203 252 308 368
#     4  11  24  44  67  92 124 163 210 255 306 368
#     4  12  23  35  54  86 125 160 200 248 306 373
#     4  10  23  41  59  83 122 162 198 250 309 367
#     4  11  22  40  65  90 121 160 208 261 312 363
#     4   9  18  36  61  91 124 160 203 255 313 373
#     4  11  21  34  54  83 117 154 197 244 302 367
#
# _framework density 20.511576000000002
#
# number of rings (size 3 to 8) (size 9 to 14) (size 15 to 20)
#    0.000    1.286    2.857    3.857    0.000    2.857 
#    0.000    4.286    0.000    4.286    0.000    0.000 
#    0.000    0.000    0.000    0.000    0.000    0.000 
#
# Total GULP energy -347066.570891 kJ/mol
# GULP energy per Si atom -12395.234675 kJ/mol
# Density = 2.046489 g / cm^3
# Si number density = 20.511576 Si / 1000 Ang^3
#
#
#
# Elastic Constant Matrix: (Units=GPa)
#
#
# Indices 1 2 3 4 5 6 
#
# 1 71.5260 29.7592 38.0382 0.0000 11.7105 0.0000
# 2 29.7592 60.4397 30.7762 0.0000 9.7913 0.0000
# 3 38.0382 30.7762 141.7927 0.0000 15.9347 0.0000
# 4 0.0000 0.0000 0.0000 33.6132 0.0000 -0.8851
# 5 11.7105 9.7913 15.9347 0.0000 33.5071 0.0000
# 6 0.0000 0.0000 0.0000 -0.8851 0.0000 21.0576
#
#
#
# Elastic Compliance Matrix: (Units=1/GPa)
#
#
# Indices 1 2 3 4 5 6 
#
# 1 0.019251 -0.007341 -0.003229 0.000000 -0.003048 0.000000
# 2 -0.007341 0.021849 -0.002476 0.000000 -0.002641 0.000000
# 3 -0.003229 -0.002476 0.008714 0.000000 -0.002292 0.000000
# 4 0.000000 0.000000 0.000000 0.029783 0.000000 0.001252
# 5 -0.003048 -0.002641 -0.002292 0.000000 0.032771 0.000000
# 6 0.000000 0.000000 0.000000 0.001252 0.000000 0.047542
#
#
# Mechanical properties :
#
#
# Convention : Reuss Voigt Hill
#
# Bulk Modulus (GPa) = 42.15485 52.32285 47.23885
# Shear Modulus (GPa) = 25.78533 29.31456 27.54994
#
# Velocity S-wave (km/s) = 3.54942 3.78454 3.66887
# Velocity P-wave (km/s) = 6.11508 6.68291 6.40529
#
# Compressibility (1/GPa) = 0.02372206
#
# Stress axis : x y z
#
# Youngs Moduli (GPa) = 51.94465 45.76915 114.76215
#
# Poissons Ratio (x) = 0.33600 0.37052
# Poissons Ratio (y) = 0.38134 0.28416
# Poissons Ratio (z) = 0.16771 0.11333
#
# Static dielectric constant tensor:
#      x y z
#    x 5.495380 0.000000 0.210600 
#    y 0.000000 3.508870 0.000000 
#    z 0.210600 0.000000 4.160890 
# 
# 
# High freq. dielectric constant tensor:
#      x y z
#    x 1.787450 0.000000 0.016700 
#    y 0.000000 1.789130 0.000000 
#    z 0.016700 0.000000 1.813690 
# 
# From -- ./inp_files/187687.got.cif
#   From: 2010.06.25/outbox.cif.g09.slc.cpg/sg12_94_cif.got.tgz:187687.got - 2010.06.28 00:19:55.
