data_PCOD8112855
_publ_section_title
;
Structure prediction by ZEFSAII (Michael W. Deem and Ramdas Pophale) SiO2 
 PCOD8112855
Probable space group: C 2/M
;
_chemical_formula_sum "Si O2"
_cell_formula_units_Z 64
_cell_length_a 30.162245
_cell_length_b 18.200276
_cell_length_c 9.644307
_cell_angle_alpha 90.000000
_cell_angle_beta 37.493159
_cell_angle_gamma 90.000000
_cell_volume 3222.494657
_symmetry_space_group_name_H-M "C 2/M"
_symmetry_group_IT_number 12
_symmetry_cell_setting 'monoclinic'
loop_
_space_group_symop_operation_xyz
x,y,z
-x,y,-z
-x,-y,-z
x,-y,z
1/2+x,1/2+y,z
1/2-x,1/2+y,-z
1/2-x,1/2-y,-z
1/2+x,1/2-y,z
loop_
_atom_site_type_symbol
_atom_site_label
_atom_site_fract_x
_atom_site_fract_y
_atom_site_fract_z
Si Si1 0.321364 0.085719 0.792831
Si Si2 0.159917 0.914068 0.088755
Si Si3 0.418856 0.810982 0.366007
Si Si4 0.650144 0.584014 0.593024
Si Si5 0.403844 0.656866 0.006118
Si Si6 0.571027 0.350175 0.545453
Si Si7 0.411561 0.182374 0.065938
Si Si8 0.688620 0.913026 0.867685
O O1 0.377167 0.129551 0.560023
O O2 0.339617 0.000000 0.731602
O O3 0.239847 0.102601 0.946367
O O4 0.330124 0.112595 0.929629
O O5 0.101323 0.865608 0.317497
O O6 0.140931 0.000000 0.144515
O O7 0.154415 0.885526 0.944608
O O8 0.406266 0.730678 0.460576
O O9 0.388829 0.812470 0.283483
O O10 0.503098 0.832834 0.159822
O O11 0.652347 0.500000 0.635792
O O12 0.605247 0.630988 0.814226
O O13 0.607782 0.589477 0.553328
O O14 0.731562 0.615936 0.373135
O O15 0.389547 0.743814 0.038855
O O16 0.484945 0.638169 0.755679
O O17 0.369855 0.116099 0.096311
O O18 0.687639 0.000000 0.863966
#
# Coordination Sequence:
#
# PCOD8112855 Si02
#       8
#     8   8   8   8   8   8   8   8
#     4  10  23  43  64  89 122 159 200 248 302 362
#     4  11  24  41  60  90 127 161 204 252 296 351
#     4  10  23  42  65  91 121 158 199 247 305 362
#     4  11  22  39  62  89 122 161 203 247 297 355
#     4  11  24  39  60  92 124 160 204 249 296 354
#     4  11  22  41  62  87 125 162 202 248 297 355
#     4  10  23  43  63  91 125 154 197 254 302 358
#     4  10  23  42  64  91 122 157 199 249 303 360
#
# _framework density 19.860391
#
# number of rings (size 3 to 8) (size 9 to 14) (size 15 to 20)
#    0.000    1.500    2.500    1.500    3.500    6.500 
#    0.000    2.500    0.000    0.000    0.000    0.000 
#    0.000    0.000    0.000    0.000    0.000    0.000 
#
# Total GULP energy -396971.444773 kJ/mol
# GULP energy per Si atom -12405.357649 kJ/mol
# Density = 1.981519 g / cm^3
# Si number density = 19.860391 Si / 1000 Ang^3
#
#
#
# Elastic Constant Matrix: (Units=GPa)
#
#
# Indices 1 2 3 4 5 6 
#
# 1 97.1749 32.5632 7.8606 0.0000 10.2841 0.0000
# 2 32.5632 59.3194 45.5845 0.0000 -1.5149 0.0000
# 3 7.8606 45.5845 81.1575 0.0000 8.9181 0.0000
# 4 0.0000 0.0000 0.0000 23.4546 0.0000 -3.6003
# 5 10.2841 -1.5149 8.9181 0.0000 18.3618 0.0000
# 6 0.0000 0.0000 0.0000 -3.6003 0.0000 34.4090
#
#
#
# Elastic Compliance Matrix: (Units=1/GPa)
#
#
# Indices 1 2 3 4 5 6 
#
# 1 0.016891 -0.017117 0.009690 0.000000 -0.015579 0.000000
# 2 -0.017117 0.049328 -0.029102 0.000000 0.027791 0.000000
# 3 0.009690 -0.029102 0.030202 0.000000 -0.022497 0.000000
# 4 0.000000 0.000000 0.000000 0.043331 0.000000 0.004534
# 5 -0.015579 0.027791 -0.022497 0.000000 0.076406 0.000000
# 6 0.000000 0.000000 0.000000 0.004534 0.000000 0.029537
#
#
# Mechanical properties :
#
#
# Convention : Reuss Voigt Hill
#
# Bulk Modulus (GPa) = 42.80375 45.51871 44.16123
# Shear Modulus (GPa) = 15.31206 25.35466 20.33336
#
# Velocity S-wave (km/s) = 2.77967 3.57689 3.20318
# Velocity P-wave (km/s) = 5.64812 6.32677 5.99705
#
# Compressibility (1/GPa) = 0.02336244
#
# Stress axis : x y z
#
# Youngs Moduli (GPa) = 59.20173 20.27256 33.11092
#
# Poissons Ratio (x) = 0.34700 -0.32084
# Poissons Ratio (y) = 1.01334 0.96361
# Poissons Ratio (z) = -0.57366 0.58998
#
# Static dielectric constant tensor:
#      x y z
#    x 3.576690 0.000000 0.060380 
#    y 0.000000 3.475230 0.000000 
#    z 0.060380 0.000000 3.648040 
# 
# 
# High freq. dielectric constant tensor:
#      x y z
#    x 1.781260 0.000000 0.006500 
#    y 0.000000 1.773170 0.000000 
#    z 0.006500 0.000000 1.781790 
# 
# From -- ./inp_files/112849.got.cif
#   From: 2010.06.25/outbox.cif.g09.slc.cpg/sg12_57_cif.got.tgz:112849.got - 2010.06.28 00:19:55.
