data_PCOD8112110
_publ_section_title
;
Structure prediction by ZEFSAII (Michael W. Deem and Ramdas Pophale) SiO2 
 PCOD8112110
Probable space group: C 2/M
;
_chemical_formula_sum "Si O2"
_cell_formula_units_Z 48
_cell_length_a 18.234939
_cell_length_b 13.612888
_cell_length_c 8.461216
_cell_angle_alpha 90.000000
_cell_angle_beta 96.805064
_cell_angle_gamma 90.000000
_cell_volume 2085.532453
_symmetry_space_group_name_H-M "C 2/M"
_symmetry_group_IT_number 12
_symmetry_cell_setting 'monoclinic'
loop_
_space_group_symop_operation_xyz
x,y,z
-x,y,-z
-x,-y,-z
x,-y,z
1/2+x,1/2+y,z
1/2-x,1/2+y,-z
1/2-x,1/2-y,-z
1/2+x,1/2-y,z
loop_
_atom_site_type_symbol
_atom_site_label
_atom_site_fract_x
_atom_site_fract_y
_atom_site_fract_z
Si Si1 0.703672 0.232858 0.140915
Si Si2 0.621054 0.389299 0.322335
Si Si3 0.569870 0.115665 0.115540
Si Si4 0.150990 0.208730 0.653901
Si Si5 0.966278 0.887747 0.157319
Si Si6 0.583309 0.890221 0.472062
O O1 0.658704 0.326410 0.192841
O O2 0.647488 0.148793 0.062530
O O3 0.761756 0.199969 0.289490
O O4 0.750000 0.250000 0.000000
O O5 0.646219 0.500000 0.293095
O O6 0.642097 0.363301 0.505381
O O7 0.532477 0.379761 0.298945
O O8 0.578060 0.158205 0.296231
O O9 0.561147 0.000000 0.119808
O O10 0.500000 0.159436 0.000000
O O11 0.102057 0.176669 0.793790
O O12 0.129826 0.320422 0.599865
O O13 0.938671 0.000000 0.128146
O O14 0.000000 0.847710 0.000000
O O15 0.500000 0.900156 0.500000
O O16 0.619434 0.000000 0.482139
#
# Coordination Sequence:
#
# PCOD8112110 Si02
#       6
#     8   8   8   8   8   8
#     4  12  28  44  65 101 141 181 225 280 351 410
#     4  11  24  44  68  98 135 181 231 277 334 406
#     4  10  24  47  73  98 131 179 235 285 335 404
#     4  12  24  43  67 104 138 178 222 286 350 409
#     4  10  22  42  70 100 133 177 226 275 331 403
#     4  10  22  41  69 103 134 176 232 287 339 400
#
# _framework density 23.015705000000001
#
# number of rings (size 3 to 8) (size 9 to 14) (size 15 to 20)
#    0.000    1.167    1.667    3.500    2.333    4.667 
#    0.000    0.000    0.000    0.500    0.000    0.000 
#    0.000    0.000    0.000    0.000    0.000    0.000 
#
# Total GULP energy -297531.422396 kJ/mol
# GULP energy per Si atom -12397.142600 kJ/mol
# Density = 2.296332 g / cm^3
# Si number density = 23.015705 Si / 1000 Ang^3
#
#
#
# Elastic Constant Matrix: (Units=GPa)
#
#
# Indices 1 2 3 4 5 6 
#
# 1 129.0372 39.3943 35.2925 0.0000 18.2292 0.0000
# 2 39.3943 84.1842 29.2767 0.0000 5.3510 0.0000
# 3 35.2925 29.2767 94.0506 0.0000 0.5537 0.0000
# 4 0.0000 0.0000 0.0000 36.4795 0.0000 -1.2533
# 5 18.2292 5.3510 0.5537 0.0000 53.8519 0.0000
# 6 0.0000 0.0000 0.0000 -1.2533 0.0000 24.1773
#
#
#
# Elastic Compliance Matrix: (Units=1/GPa)
#
#
# Indices 1 2 3 4 5 6 
#
# 1 0.009978 -0.003569 -0.002616 0.000000 -0.002996 0.000000
# 2 -0.003569 0.014686 -0.003231 0.000000 -0.000218 0.000000
# 3 -0.002616 -0.003231 0.012614 0.000000 0.001077 0.000000
# 4 0.000000 0.000000 0.000000 0.027462 0.000000 0.001424
# 5 -0.002996 -0.000218 0.001077 0.000000 0.019594 0.000000
# 6 0.000000 0.000000 0.000000 0.001424 0.000000 0.041435
#
#
# Mechanical properties :
#
#
# Convention : Reuss Voigt Hill
#
# Bulk Modulus (GPa) = 54.21138 57.24432 55.72785
# Shear Modulus (GPa) = 33.16769 36.45563 34.81166
#
# Velocity S-wave (km/s) = 3.80029 3.98420 3.89333
# Velocity P-wave (km/s) = 6.54687 6.78903 6.66905
#
# Compressibility (1/GPa) = 0.01844631
#
# Stress axis : x y z
#
# Youngs Moduli (GPa) = 100.22060 68.08999 79.28001
#
# Poissons Ratio (x) = 0.24303 0.20736
# Poissons Ratio (y) = 0.35771 0.25616
# Poissons Ratio (z) = 0.26213 0.22000
#
# Static dielectric constant tensor:
#      x y z
#    x 4.256790 0.000000 0.267210 
#    y 0.000000 4.323140 0.000000 
#    z 0.267210 0.000000 4.384050 
# 
# 
# High freq. dielectric constant tensor:
#      x y z
#    x 1.909010 0.000000 0.003730 
#    y 0.000000 1.914320 0.000000 
#    z 0.003730 0.000000 1.919630 
# 
# From -- ./inp_files/73598.got.cif
#   From: 2010.06.25/outbox.cif.g09.slc.cpg/sg12_37_cif.got.tgz:73598.got - 2010.06.28 00:19:55.
