data_PCOD8112143
_publ_section_title
;
Structure prediction by ZEFSAII (Michael W. Deem and Ramdas Pophale) SiO2 
 PCOD8112143
Probable space group: C 2/M
;
_chemical_formula_sum "Si O2"
_cell_formula_units_Z 40
_cell_length_a 29.551597
_cell_length_b 14.611446
_cell_length_c 4.900280
_cell_angle_alpha 90.000000
_cell_angle_beta 120.790184
_cell_angle_gamma 90.000000
_cell_volume 1817.658460
_symmetry_space_group_name_H-M "C 2/M"
_symmetry_group_IT_number 12
_symmetry_cell_setting 'monoclinic'
loop_
_space_group_symop_operation_xyz
x,y,z
-x,y,-z
-x,-y,-z
x,-y,z
1/2+x,1/2+y,z
1/2-x,1/2+y,-z
1/2-x,1/2-y,-z
1/2+x,1/2-y,z
loop_
_atom_site_type_symbol
_atom_site_label
_atom_site_fract_x
_atom_site_fract_y
_atom_site_fract_z
Si Si1 0.659028 0.895883 0.136957
Si Si2 0.723083 0.843079 0.818779
Si Si3 0.131477 0.000000 0.332723
Si Si4 0.299347 0.500000 0.961837
Si Si5 0.441182 0.330104 0.857156
Si Si6 0.941062 0.292150 0.352804
O O1 0.678806 0.829356 0.444825
O O2 0.657157 0.000000 0.239685
O O3 0.698202 0.890965 0.003501
O O4 0.600817 0.868904 0.857775
O O5 0.750000 0.750000 0.000000
O O6 0.765813 0.908552 0.806536
O O7 0.099154 0.089008 0.318264
O O8 0.184128 0.000000 0.672263
O O9 0.149255 0.000000 0.072881
O O10 0.430640 0.243277 0.627006
O O11 0.500000 0.368915 0.000000
O O12 0.434350 0.296946 0.144636
O O13 0.000000 0.333750 0.500000
#
# Coordination Sequence:
#
# PCOD8112143 Si02
#       6
#     8   8   4   4   8   8
#     4  12  24  46  70  94 132 170 215 271 331 389
#     4  12  27  46  68  94 133 178 218 271 329 383
#     4  12  25  38  68  94 134 174 217 266 320 381
#     4  12  26  44  63 102 133 162 228 278 312 389
#     4  10  22  42  63  95 135 172 214 263 322 389
#     4  10  23  41  67  98 129 166 218 269 323 392
#
# _framework density 22.006333999999999
#
# number of rings (size 3 to 8) (size 9 to 14) (size 15 to 20)
#    0.000    0.800    2.000    4.500    8.400    0.400 
#    0.000    4.000    0.000    6.000    0.000    0.000 
#    0.000    0.000    0.000    0.000    0.000    0.000 
#
# Total GULP energy -248087.761995 kJ/mol
# GULP energy per Si atom -12404.388100 kJ/mol
# Density = 2.195625 g / cm^3
# Si number density = 22.006334 Si / 1000 Ang^3
#
#
#
# Elastic Constant Matrix: (Units=GPa)
#
#
# Indices 1 2 3 4 5 6 
#
# 1 97.5241 45.1333 34.9142 0.0000 6.1241 0.0000
# 2 45.1333 103.6317 42.2203 0.0000 22.6993 0.0000
# 3 34.9142 42.2203 138.5570 0.0000 11.0340 0.0000
# 4 0.0000 0.0000 0.0000 23.9336 0.0000 -1.8348
# 5 6.1241 22.6993 11.0340 0.0000 40.3677 0.0000
# 6 0.0000 0.0000 0.0000 -1.8348 0.0000 15.6698
#
#
#
# Elastic Compliance Matrix: (Units=1/GPa)
#
#
# Indices 1 2 3 4 5 6 
#
# 1 0.013304 -0.005377 -0.001834 0.000000 0.001507 0.000000
# 2 -0.005377 0.014474 -0.002527 0.000000 -0.006632 0.000000
# 3 -0.001834 -0.002527 0.008499 0.000000 -0.000624 0.000000
# 4 0.000000 0.000000 0.000000 0.042161 0.000000 0.004937
# 5 0.001507 -0.006632 -0.000624 0.000000 0.028444 0.000000
# 6 0.000000 0.000000 0.000000 0.004937 0.000000 0.064395
#
#
# Mechanical properties :
#
#
# Convention : Reuss Voigt Hill
#
# Bulk Modulus (GPa) = 59.52184 64.91650 62.21917
# Shear Modulus (GPa) = 25.46430 30.49055 27.97743
#
# Velocity S-wave (km/s) = 3.40536 3.72632 3.56945
# Velocity P-wave (km/s) = 6.52444 6.93375 6.73221
#
# Compressibility (1/GPa) = 0.01680056
#
# Stress axis : x y z
#
# Youngs Moduli (GPa) = 75.16362 69.09096 117.65884
#
# Poissons Ratio (x) = 0.37151 0.21578
# Poissons Ratio (y) = 0.40416 0.29735
# Poissons Ratio (z) = 0.13785 0.17461
#
# Static dielectric constant tensor:
#      x y z
#    x 4.021460 0.000000 0.075790 
#    y 0.000000 3.592700 0.000000 
#    z 0.075790 0.000000 4.179050 
# 
# 
# High freq. dielectric constant tensor:
#      x y z
#    x 1.875600 0.000000 -0.000440 
#    y 0.000000 1.844280 0.000000 
#    z -0.000440 0.000000 1.887780 
# 
# From -- ./inp_files/31137.got.cif
#   From: 2010.06.25/outbox.cif.g09.slc.cpg/sg12_16_cif.got.tgz:31137.got - 2010.06.28 00:19:55.
