data_PCOD8112195
_publ_section_title
;
Structure prediction by ZEFSAII (Michael W. Deem and Ramdas Pophale) SiO2 
 PCOD8112195
Probable space group: C 2/M
;
_chemical_formula_sum "Si O2"
_cell_formula_units_Z 44
_cell_length_a 20.203347
_cell_length_b 11.814680
_cell_length_c 8.917386
_cell_angle_alpha 90.000000
_cell_angle_beta 95.295614
_cell_angle_gamma 90.000000
_cell_volume 2119.459952
_symmetry_space_group_name_H-M "C 2/M"
_symmetry_group_IT_number 12
_symmetry_cell_setting 'monoclinic'
loop_
_space_group_symop_operation_xyz
x,y,z
-x,y,-z
-x,-y,-z
x,-y,z
1/2+x,1/2+y,z
1/2-x,1/2+y,-z
1/2-x,1/2-y,-z
1/2+x,1/2-y,z
loop_
_atom_site_type_symbol
_atom_site_label
_atom_site_fract_x
_atom_site_fract_y
_atom_site_fract_z
Si Si1 0.320302 0.270215 0.590502
Si Si2 0.560696 0.866860 0.909407
Si Si3 0.043133 0.000000 0.687440
Si Si4 0.892344 0.000000 0.656553
Si Si5 0.179735 0.762253 0.062416
Si Si6 0.432531 0.256211 0.401867
Si Si7 0.611919 0.500000 0.008218
O O1 0.250000 0.250000 0.500000
O O2 0.345677 0.398041 0.599971
O O3 0.315497 0.231938 0.760834
O O4 0.373828 0.205560 0.495446
O O5 0.558322 0.811814 0.747358
O O6 0.555405 0.000000 0.889947
O O7 0.500000 0.820586 0.000000
O O8 0.630450 0.834219 0.995692
O O9 0.081317 0.110939 0.634899
O O10 0.967071 0.000000 0.603798
O O11 0.053547 0.000000 0.871290
O O12 0.918430 0.000000 0.832800
O O13 0.156419 0.887028 0.008971
O O14 0.250000 0.750000 0.000000
O O15 0.500000 0.236977 0.500000
#
# Coordination Sequence:
#
# PCOD8112195 Si02
#       7
#     8   8   4   4   8   8   4
#     4  11  24  43  63 100 136 176 213 270 342 397
#     4  11  26  46  68  94 131 181 229 273 324 401
#     4  12  21  38  73 108 136 164 213 287 348 394
#     4  10  22  42  66 105 137 166 219 274 339 402
#     4  11  24  46  69  97 135 177 228 276 329 406
#     4  12  23  41  69 101 137 167 217 278 341 398
#     4  10  23  37  72 106 130 173 221 281 344 391
#
# _framework density 20.760005
#
# number of rings (size 3 to 8) (size 9 to 14) (size 15 to 20)
#    0.000    0.909    3.636    3.273    3.818    0.364 
#    6.545    0.000    0.000    0.000    0.000    0.000 
#    0.000    0.000    0.000    0.000    0.000    0.000 
#
# Total GULP energy -272633.746194 kJ/mol
# GULP energy per Si atom -12392.443009 kJ/mol
# Density = 2.071275 g / cm^3
# Si number density = 20.760005 Si / 1000 Ang^3
#
#
#
# Elastic Constant Matrix: (Units=GPa)
#
#
# Indices 1 2 3 4 5 6 
#
# 1 174.1104 39.0618 89.9177 0.0000 -10.5167 0.0000
# 2 39.0618 73.7743 49.3233 0.0000 -3.8731 0.0000
# 3 89.9177 49.3233 189.4793 0.0000 -4.1177 0.0000
# 4 0.0000 0.0000 0.0000 25.2552 0.0000 -2.2474
# 5 -10.5167 -3.8731 -4.1177 0.0000 52.9720 0.0000
# 6 0.0000 0.0000 0.0000 -2.2474 0.0000 9.5423
#
#
#
# Elastic Compliance Matrix: (Units=1/GPa)
#
#
# Indices 1 2 3 4 5 6 
#
# 1 0.007921 -0.001981 -0.003218 0.000000 0.001178 0.000000
# 2 -0.001981 0.016946 -0.003459 0.000000 0.000577 0.000000
# 3 -0.003218 -0.003459 0.007698 0.000000 -0.000293 0.000000
# 4 0.000000 0.000000 0.000000 0.040443 0.000000 0.009525
# 5 0.001178 0.000577 -0.000293 0.000000 0.019131 0.000000
# 6 0.000000 0.000000 0.000000 0.009525 0.000000 0.107039
#
#
# Mechanical properties :
#
#
# Convention : Reuss Voigt Hill
#
# Bulk Modulus (GPa) = 65.56840 88.21886 76.89363
# Shear Modulus (GPa) = 22.56549 34.82467 28.69508
#
# Velocity S-wave (km/s) = 3.30050 4.10016 3.72187
# Velocity P-wave (km/s) = 6.79536 8.06238 7.45583
#
# Compressibility (1/GPa) = 0.01525125
#
# Stress axis : x y z
#
# Youngs Moduli (GPa) = 126.25167 59.00969 129.89562
#
# Poissons Ratio (x) = 0.11689 0.41795
# Poissons Ratio (y) = 0.25008 0.44928
# Poissons Ratio (z) = 0.40622 0.20410
#
# Static dielectric constant tensor:
#      x y z
#    x 3.780740 0.000000 -0.174900 
#    y 0.000000 3.739310 0.000000 
#    z -0.174900 0.000000 4.129850 
# 
# 
# High freq. dielectric constant tensor:
#      x y z
#    x 1.817940 0.000000 -0.008340 
#    y 0.000000 1.796600 0.000000 
#    z -0.008340 0.000000 1.850870 
# 
# From -- ./inp_files/84193.got.cif
#   From: 2010.06.25/outbox.cif.g09.slc.cpg/sg12_43_cif.got.tgz:84193.got - 2010.06.28 00:19:55.
