data_PCOD8112028
_publ_section_title
;
Structure prediction by ZEFSAII (Michael W. Deem and Ramdas Pophale) SiO2 
 PCOD8112028
Probable space group: C 2/M
;
_chemical_formula_sum "Si O2"
_cell_formula_units_Z 44
_cell_length_a 10.670533
_cell_length_b 30.020290
_cell_length_c 7.456886
_cell_angle_alpha 90.000000
_cell_angle_beta 115.024381
_cell_angle_gamma 90.000000
_cell_volume 2164.452144
_symmetry_space_group_name_H-M "C 2/M"
_symmetry_group_IT_number 12
_symmetry_cell_setting 'monoclinic'
loop_
_space_group_symop_operation_xyz
x,y,z
-x,y,-z
-x,-y,-z
x,-y,z
1/2+x,1/2+y,z
1/2-x,1/2+y,-z
1/2-x,1/2-y,-z
1/2+x,1/2-y,z
loop_
_atom_site_type_symbol
_atom_site_label
_atom_site_fract_x
_atom_site_fract_y
_atom_site_fract_z
Si Si1 0.843348 0.947432 0.926056
Si Si2 0.765672 0.393152 0.457061
Si Si3 0.588591 0.772413 0.232942
Si Si4 0.841404 0.448462 0.849264
Si Si5 0.500000 0.173683 0.500000
Si Si6 0.637058 0.689854 0.481562
O O1 0.761076 0.930645 0.704711
O O2 0.841054 0.000000 0.916570
O O3 0.765083 0.931937 0.060224
O O4 0.000000 0.929276 0.000000
O O5 0.821149 0.417803 0.665426
O O6 0.868504 0.357753 0.432078
O O7 0.632767 0.362408 0.423148
O O8 0.488397 0.794092 0.321387
O O9 0.639180 0.722255 0.309504
O O10 0.729297 0.801850 0.308848
O O11 0.500000 0.772927 0.000000
O O12 0.810750 0.500000 0.783220
O O13 0.000000 0.442212 0.000000
O O14 0.500000 0.702454 0.500000
#
# Coordination Sequence:
#
# PCOD8112028 Si02
#       6
#     8   8   8   8   4   8
#     4  10  23  41  60  89 128 166 206 247 304 378
#     4  11  23  38  64  91 125 162 196 264 310 355
#     4  10  22  44  66  83 121 171 201 258 324 365
#     4  10  22  41  66  94 123 162 211 254 305 374
#     4  10  22  42  61  94 124 150 213 256 304 382
#     4  10  23  41  59  94 124 151 219 260 297 388
#
# _framework density 20.328468999999998
#
# number of rings (size 3 to 8) (size 9 to 14) (size 15 to 20)
#    0.000    1.818    0.909    1.636    2.545    7.273 
#    0.000    6.364    0.000    0.000    0.000    0.000 
#    0.000    0.000    0.000    0.000    0.000    0.000 
#
# Total GULP energy -272693.908461 kJ/mol
# GULP energy per Si atom -12395.177657 kJ/mol
# Density = 2.028220 g / cm^3
# Si number density = 20.328469 Si / 1000 Ang^3
#
#
#
# Elastic Constant Matrix: (Units=GPa)
#
#
# Indices 1 2 3 4 5 6 
#
# 1 112.3819 35.4748 51.2482 0.0000 -7.0197 0.0000
# 2 35.4748 59.6779 49.7756 0.0000 -1.9438 0.0000
# 3 51.2482 49.7756 142.6702 0.0000 10.9848 0.0000
# 4 0.0000 0.0000 0.0000 -20.9318 0.0000 39.2795
# 5 -7.0197 -1.9438 10.9848 0.0000 21.4566 0.0000
# 6 0.0000 0.0000 0.0000 39.2795 0.0000 -24.1631
#
#
#
# Elastic Compliance Matrix: (Units=1/GPa)
#
#
# Indices 1 2 3 4 5 6 
#
# 1 0.012054 -0.004302 -0.003230 0.000000 0.005208 0.000000
# 2 -0.004302 0.026109 -0.007951 0.000000 0.005028 0.000000
# 3 -0.003230 -0.007951 0.011535 0.000000 -0.007682 0.000000
# 4 0.000000 0.000000 0.000000 0.023299 0.000000 0.037874
# 5 0.005208 0.005028 -0.007682 0.000000 0.052698 0.000000
# 6 0.000000 0.000000 0.000000 0.037874 0.000000 0.020183
#
#
# Mechanical properties :
#
#
# Convention : Reuss Voigt Hill
#
# Bulk Modulus (GPa) = 53.38274 65.30302 59.34288
# Shear Modulus (GPa) = 27.30914 7.15444 17.23179
#
# Velocity S-wave (km/s) = 3.66921 1.87805 2.91463
# Velocity P-wave (km/s) = 6.65341 6.07424 6.37041
#
# Compressibility (1/GPa) = 0.01873265
#
# Stress axis : x y z
#
# Youngs Moduli (GPa) = 82.95681 38.30045 86.69255
#
# Poissons Ratio (x) = 0.16476 0.28003
# Poissons Ratio (y) = 0.35686 0.68930
# Poissons Ratio (z) = 0.26797 0.30453
#
# Static dielectric constant tensor:
#      x y z
#    x 4.315980 0.000000 -0.356620 
#    y 0.000000 3.833010 0.000000 
#    z -0.356620 0.000000 3.565650 
# 
# 
# High freq. dielectric constant tensor:
#      x y z
#    x 1.804760 0.000000 -0.007840 
#    y 0.000000 1.807600 0.000000 
#    z -0.007840 0.000000 1.777730 
# 
# From -- ./inp_files/8463.got.cif
#   From: 2010.06.25/outbox.cif.g09.slc.cpg/sg12_5_cif.got.tgz:8463.got - 2010.06.28 00:19:55.
