data_PCOD8112774
_publ_section_title
;
Structure prediction by ZEFSAII (Michael W. Deem and Ramdas Pophale) SiO2 
 PCOD8112774
Probable space group: C 2/M
;
_chemical_formula_sum "Si O2"
_cell_formula_units_Z 48
_cell_length_a 14.950090
_cell_length_b 16.411061
_cell_length_c 19.418915
_cell_angle_alpha 90.000000
_cell_angle_beta 151.745412
_cell_angle_gamma 90.000000
_cell_volume 2255.405806
_symmetry_space_group_name_H-M "C 2/M"
_symmetry_group_IT_number 12
_symmetry_cell_setting 'monoclinic'
loop_
_space_group_symop_operation_xyz
x,y,z
-x,y,-z
-x,-y,-z
x,-y,z
1/2+x,1/2+y,z
1/2-x,1/2+y,-z
1/2-x,1/2-y,-z
1/2+x,1/2-y,z
loop_
_atom_site_type_symbol
_atom_site_label
_atom_site_fract_x
_atom_site_fract_y
_atom_site_fract_z
Si Si1 0.181176 0.214590 0.025646
Si Si2 0.000000 0.340866 0.000000
Si Si3 0.418967 0.903886 0.280162
Si Si4 0.218136 0.153388 0.280030
Si Si5 0.187924 0.908014 0.407462
Si Si6 0.000000 0.793060 0.500000
Si Si7 0.380834 0.593909 0.300160
O O1 0.328063 0.151278 0.158764
O O2 0.250000 0.250000 0.000000
O O3 0.140857 0.289461 0.048361
O O4 0.988675 0.166377 0.888573
O O5 0.847127 0.394228 0.854187
O O6 0.330238 0.891201 0.295616
O O7 0.631853 0.867708 0.431679
O O8 0.401837 0.000000 0.249128
O O9 0.200206 0.096957 0.334008
O O10 0.312783 0.237599 0.369570
O O11 0.982502 0.880041 0.296739
O O12 0.216235 0.000000 0.447787
O O13 0.004896 0.851098 0.568935
O O14 0.416377 0.500000 0.342840
#
# Coordination Sequence:
#
# PCOD8112774 Si02
#       7
#     8   4   8   8   8   4   8
#     4  12  26  43  65 101 136 180 229 278 335 407
#     4  12  23  48  65  96 130 174 226 278 343 396
#     4  11  23  43  69  99 140 180 222 280 342 403
#     4  12  22  41  67  97 135 178 220 278 344 403
#     4  10  23  41  66 102 134 172 225 278 337 402
#     4  12  23  40  65  94 128 176 220 270 335 396
#     4  11  25  44  67  94 130 176 227 281 336 401
#
# _framework density 21.282201000000001
#
# number of rings (size 3 to 8) (size 9 to 14) (size 15 to 20)
#    0.000    0.667    5.000    2.000    2.333    4.000 
#    0.000    1.667    0.000    0.000    0.000    0.000 
#    0.000    0.000    0.000    0.000    0.000    0.000 
#
# Total GULP energy -297430.858476 kJ/mol
# GULP energy per Si atom -12392.952437 kJ/mol
# Density = 2.123376 g / cm^3
# Si number density = 21.282201 Si / 1000 Ang^3
#
#
#
# Elastic Constant Matrix: (Units=GPa)
#
#
# Indices 1 2 3 4 5 6 
#
# 1 83.0425 30.9945 5.8319 -0.0415 -8.1024 0.0101
# 2 30.9945 81.1975 26.6021 -0.0552 -4.5813 -0.0016
# 3 5.8319 26.6021 110.2398 -0.1519 4.1436 -0.0168
# 4 -0.0415 -0.0552 -0.1519 31.4954 -0.0279 -10.0510
# 5 -8.1024 -4.5813 4.1436 -0.0279 38.1486 -0.0007
# 6 0.0101 -0.0016 -0.0168 -10.0510 -0.0007 17.9666
#
#
#
# Elastic Compliance Matrix: (Units=1/GPa)
#
#
# Indices 1 2 3 4 5 6 
#
# 1 0.014279 -0.005476 0.000479 0.000013 0.002323 0.000000
# 2 -0.005476 0.015621 -0.003521 0.000006 0.001095 0.000004
# 3 0.000479 -0.003521 0.009948 0.000054 -0.001402 0.000039
# 4 0.000013 0.000006 0.000054 0.038651 0.000026 0.021623
# 5 0.002323 0.001095 -0.001402 0.000026 0.026990 0.000013
# 6 0.000000 0.000004 0.000039 0.021623 0.000013 0.067755
#
#
# Mechanical properties :
#
#
# Convention : Reuss Voigt Hill
#
# Bulk Modulus (GPa) = 43.83752 44.59298 44.21525
# Shear Modulus (GPa) = 25.26695 31.59220 28.42958
#
# Velocity S-wave (km/s) = 3.44936 3.85703 3.65888
# Velocity P-wave (km/s) = 6.04211 6.39016 6.21857
#
# Compressibility (1/GPa) = 0.02281151
#
# Stress axis : x y z
#
# Youngs Moduli (GPa) = 70.03268 64.01448 100.52021
#
# Poissons Ratio (x) = 0.35057 -0.04813
# Poissons Ratio (y) = 0.38352 0.35394
# Poissons Ratio (z) = -0.03353 0.22540
#
# Static dielectric constant tensor:
#      x y z
#    x 4.019620 0.000150 0.037930 
#    y 0.000150 3.759430 -0.000070 
#    z 0.037930 -0.000070 4.143840 
# 
# 
# High freq. dielectric constant tensor:
#      x y z
#    x 1.833930 0.000000 0.007340 
#    y 0.000000 1.834770 0.000000 
#    z 0.007340 0.000000 1.851990 
# 
# From -- ./inp_files/271821.got.cif
#   From: 2010.06.25/outbox.cif.g09.slc.cpg/sg12_136_cif.got.tgz:271821.got - 2010.06.28 00:19:55.
