data_PCOD8112440
_publ_section_title
;
Structure prediction by ZEFSAII (Michael W. Deem and Ramdas Pophale) SiO2 
 PCOD8112440
Probable space group: C 2/M
;
_chemical_formula_sum "Si O2"
_cell_formula_units_Z 48
_cell_length_a 10.929576
_cell_length_b 24.502518
_cell_length_c 8.710393
_cell_angle_alpha 90.000000
_cell_angle_beta 100.011988
_cell_angle_gamma 90.000000
_cell_volume 2297.138646
_symmetry_space_group_name_H-M "C 2/M"
_symmetry_group_IT_number 12
_symmetry_cell_setting 'monoclinic'
loop_
_space_group_symop_operation_xyz
x,y,z
-x,y,-z
-x,-y,-z
x,-y,z
1/2+x,1/2+y,z
1/2-x,1/2+y,-z
1/2-x,1/2-y,-z
1/2+x,1/2-y,z
loop_
_atom_site_type_symbol
_atom_site_label
_atom_site_fract_x
_atom_site_fract_y
_atom_site_fract_z
Si Si1 0.549479 0.000000 0.287471
Si Si2 0.500000 0.909405 0.500000
Si Si3 0.249593 0.389053 0.637986
Si Si4 0.738498 0.000000 0.808262
Si Si5 0.616458 0.602037 0.631624
Si Si6 0.206713 0.000000 0.835142
Si Si7 0.339220 0.714411 0.822555
Si Si8 0.388789 0.712621 0.184062
O O1 0.576240 0.052563 0.398474
O O2 0.409144 0.000000 0.193847
O O3 0.646293 0.000000 0.169351
O O4 0.601902 0.874470 0.616276
O O5 0.280609 0.447060 0.722076
O O6 0.271298 0.389630 0.460740
O O7 0.329652 0.343414 0.737609
O O8 0.809269 0.000000 0.985442
O O9 0.500000 0.587527 0.500000
O O10 0.640048 0.553280 0.754558
O O11 0.596169 0.656621 0.723422
O O12 0.472169 0.740438 0.795110
O O13 0.217815 0.750998 0.755107
O O14 0.340237 0.701337 0.002694
#
# Coordination Sequence:
#
# PCOD8112440 Si02
#       8
#     4   4   8   4   8   4   8   8
#     4   9  17  35  57  83 123 165 199 251 302 362
#     4   9  18  34  58  88 122 158 202 251 310 364
#     4  11  21  40  63  91 127 165 206 258 317 372
#     4  10  23  38  62  93 128 167 211 257 310 381
#     4  12  24  41  61  93 126 166 206 258 311 377
#     4  12  22  39  62  92 128 169 211 254 314 381
#     4  10  22  44  69  90 126 166 212 262 321 378
#     4  10  23  44  66  94 125 166 211 266 317 381
#
# _framework density 20.895558999999999
#
# number of rings (size 3 to 8) (size 9 to 14) (size 15 to 20)
#    0.000    1.500    3.333    2.500    0.000    2.000 
#    1.500    0.833    0.000    0.000    0.000    0.000 
#    0.000    0.000    0.000    0.000    0.000    0.000 
#
# Total GULP energy -297446.860581 kJ/mol
# GULP energy per Si atom -12393.619191 kJ/mol
# Density = 2.084800 g / cm^3
# Si number density = 20.895559 Si / 1000 Ang^3
#
#
#
# Elastic Constant Matrix: (Units=GPa)
#
#
# Indices 1 2 3 4 5 6 
#
# 1 122.1840 48.0820 30.3371 0.0000 9.0876 0.0000
# 2 48.0820 87.5055 35.0721 0.0000 4.7499 0.0000
# 3 30.3371 35.0721 84.5208 0.0000 1.9873 0.0000
# 4 0.0000 0.0000 0.0000 20.2339 0.0000 -1.0389
# 5 9.0876 4.7499 1.9873 0.0000 32.2675 0.0000
# 6 0.0000 0.0000 0.0000 -1.0389 0.0000 62.1519
#
#
#
# Elastic Compliance Matrix: (Units=1/GPa)
#
#
# Indices 1 2 3 4 5 6 
#
# 1 0.010785 -0.005130 -0.001691 0.000000 -0.002178 0.000000
# 2 -0.005130 0.016238 -0.004882 0.000000 -0.000645 0.000000
# 3 -0.001691 -0.004882 0.014457 0.000000 0.000305 0.000000
# 4 0.000000 0.000000 0.000000 0.049464 0.000000 0.000827
# 5 -0.002178 -0.000645 0.000305 0.000000 0.031681 0.000000
# 6 0.000000 0.000000 0.000000 0.000827 0.000000 0.016103
#
#
# Mechanical properties :
#
#
# Convention : Reuss Voigt Hill
#
# Bulk Modulus (GPa) = 55.32635 57.91028 56.61831
# Shear Modulus (GPa) = 29.73377 34.97862 32.35620
#
# Velocity S-wave (km/s) = 3.77632 4.09586 3.93933
# Velocity P-wave (km/s) = 6.74901 7.08113 6.91707
#
# Compressibility (1/GPa) = 0.01807457
#
# Stress axis : x y z
#
# Youngs Moduli (GPa) = 92.72081 61.58310 69.17125
#
# Poissons Ratio (x) = 0.31593 0.11698
# Poissons Ratio (y) = 0.47566 0.33766
# Poissons Ratio (z) = 0.15680 0.30062
#
# Static dielectric constant tensor:
#      x y z
#    x 4.099500 0.000000 0.039830 
#    y 0.000000 3.523130 0.000000 
#    z 0.039830 0.000000 3.796680 
# 
# 
# High freq. dielectric constant tensor:
#      x y z
#    x 1.837410 0.000000 0.008440 
#    y 0.000000 1.794890 0.000000 
#    z 0.008440 0.000000 1.819400 
# 
# From -- ./inp_files/51534.got.cif
#   From: 2010.06.25/outbox.cif.g09.slc.cpg/sg12_26_cif.got.tgz:51534.got - 2010.06.28 00:19:55.
