data_PCOD8112044
_publ_section_title
;
Structure prediction by ZEFSAII (Michael W. Deem and Ramdas Pophale) SiO2 
 PCOD8112044
Probable space group: C 2/M
;
_chemical_formula_sum "Si O2"
_cell_formula_units_Z 48
_cell_length_a 11.442768
_cell_length_b 27.666771
_cell_length_c 14.319551
_cell_angle_alpha 90.000000
_cell_angle_beta 150.091117
_cell_angle_gamma 90.000000
_cell_volume 2260.427192
_symmetry_space_group_name_H-M "C 2/M"
_symmetry_group_IT_number 12
_symmetry_cell_setting 'monoclinic'
loop_
_space_group_symop_operation_xyz
x,y,z
-x,y,-z
-x,-y,-z
x,-y,z
1/2+x,1/2+y,z
1/2-x,1/2+y,-z
1/2-x,1/2-y,-z
1/2+x,1/2-y,z
loop_
_atom_site_type_symbol
_atom_site_label
_atom_site_fract_x
_atom_site_fract_y
_atom_site_fract_z
Si Si1 0.034582 0.210256 0.132989
Si Si2 0.034109 0.056234 0.727290
Si Si3 0.150403 0.056144 0.016949
Si Si4 0.500000 0.107085 0.000000
Si Si5 0.000000 0.655160 0.500000
Si Si6 0.457943 0.817746 0.133640
Si Si7 0.091512 0.386408 0.370975
O O1 0.271396 0.188334 0.336930
O O2 0.055729 0.267177 0.165424
O O3 0.000000 0.199505 0.000000
O O4 0.820724 0.186145 0.041161
O O5 0.279027 0.071812 0.852647
O O6 0.839793 0.087208 0.538661
O O7 0.991853 0.000000 0.677473
O O8 0.018180 0.066199 0.827793
O O9 0.400375 0.081793 0.184120
O O10 0.199410 0.000000 0.066607
O O11 0.000000 0.076939 0.000000
O O12 0.484916 0.141131 0.900453
O O13 0.988674 0.619518 0.578932
O O14 0.596590 0.833793 0.323851
#
# Coordination Sequence:
#
# PCOD8112044 Si02
#       7
#     8   8   8   4   4   8   8
#     4  11  24  48  67 100 136 174 221 283 339 383
#     4  11  25  44  67  98 137 176 222 278 333 392
#     4  10  22  41  66  96 133 173 216 275 335 387
#     4  12  23  46  68  98 128 184 228 272 323 404
#     4  12  26  38  73 100 136 174 221 280 336 404
#     4  11  25  44  72  96 137 178 221 278 331 395
#     4  12  24  41  67 103 128 175 223 272 329 403
#
# _framework density 21.234923999999999
#
# number of rings (size 3 to 8) (size 9 to 14) (size 15 to 20)
#    0.000    0.833    4.167    2.750    2.333    2.667 
#    0.000    4.167    0.000    0.000    0.000    0.000 
#    0.000    0.000    0.000    0.000    0.000    0.000 
#
# Total GULP energy -297717.485622 kJ/mol
# GULP energy per Si atom -12404.895234 kJ/mol
# Density = 2.118659 g / cm^3
# Si number density = 21.234924 Si / 1000 Ang^3
#
#
#
# Elastic Constant Matrix: (Units=GPa)
#
#
# Indices 1 2 3 4 5 6 
#
# 1 74.4096 20.8081 13.0146 0.0004 3.8244 0.0002
# 2 20.8081 79.3827 46.1909 0.0003 5.8444 0.0001
# 3 13.0146 46.1909 112.3996 0.0009 13.2399 0.0004
# 4 0.0004 0.0003 0.0009 35.0135 0.0003 -4.4373
# 5 3.8244 5.8444 13.2399 0.0003 36.8080 0.0001
# 6 0.0002 0.0001 0.0004 -4.4373 0.0001 39.9624
#
#
#
# Elastic Compliance Matrix: (Units=1/GPa)
#
#
# Indices 1 2 3 4 5 6 
#
# 1 0.014533 -0.003714 -0.000050 0.000000 -0.000902 0.000000
# 2 -0.003714 0.017506 -0.006769 0.000000 0.000041 0.000000
# 3 -0.000050 -0.006769 0.012069 0.000000 -0.003261 0.000000
# 4 0.000000 0.000000 0.000000 0.028968 0.000000 0.003217
# 5 -0.000902 0.000041 -0.003261 0.000000 0.028428 0.000000
# 6 0.000000 0.000000 0.000000 0.003217 0.000000 0.025381
#
#
# Mechanical properties :
#
#
# Convention : Reuss Voigt Hill
#
# Bulk Modulus (GPa) = 43.39993 47.35769 45.37881
# Shear Modulus (GPa) = 32.12716 34.76866 33.44791
#
# Velocity S-wave (km/s) = 3.89387 4.05079 3.97310
# Velocity P-wave (km/s) = 6.37955 6.65047 6.51642
#
# Compressibility (1/GPa) = 0.02304151
#
# Stress axis : x y z
#
# Youngs Moduli (GPa) = 68.80986 57.12188 82.85980
#
# Poissons Ratio (x) = 0.21213 0.00417
# Poissons Ratio (y) = 0.25554 0.56089
# Poissons Ratio (z) = 0.00346 0.38667
#
# Static dielectric constant tensor:
#      x y z
#    x 4.059650 0.000000 -0.081360 
#    y 0.000000 3.958860 0.000000 
#    z -0.081360 0.000000 3.830640 
# 
# 
# High freq. dielectric constant tensor:
#      x y z
#    x 1.842160 0.000000 -0.003400 
#    y 0.000000 1.846760 0.000000 
#    z -0.003400 0.000000 1.830280 
# 
# From -- ./inp_files/209495.got.cif
#   From: 2010.06.25/outbox.cif.g09.slc.cpg/sg12_105_cif.got.tgz:209495.got - 2010.06.28 00:19:55.
