data_PCOD8112399
_publ_section_title
;
Structure prediction by ZEFSAII (Michael W. Deem and Ramdas Pophale) SiO2 
 PCOD8112399
Probable space group: C 2/M
;
_chemical_formula_sum "Si O2"
_cell_formula_units_Z 48
_cell_length_a 10.095386
_cell_length_b 14.141556
_cell_length_c 31.675923
_cell_angle_alpha 90.000000
_cell_angle_beta 145.878800
_cell_angle_gamma 90.000000
_cell_volume 2536.704941
_symmetry_space_group_name_H-M "C 2/M"
_symmetry_group_IT_number 12
_symmetry_cell_setting 'monoclinic'
loop_
_space_group_symop_operation_xyz
x,y,z
-x,y,-z
-x,-y,-z
x,-y,z
1/2+x,1/2+y,z
1/2-x,1/2+y,-z
1/2-x,1/2-y,-z
1/2+x,1/2-y,z
loop_
_atom_site_type_symbol
_atom_site_label
_atom_site_fract_x
_atom_site_fract_y
_atom_site_fract_z
Si Si1 0.696646 0.611465 0.149449
Si Si2 0.935120 0.740506 0.377294
Si Si3 0.827232 0.390388 0.493629
Si Si4 0.181811 0.109945 0.011105
Si Si5 0.563068 0.110750 0.172126
Si Si6 0.579571 0.765842 0.722892
O O1 0.683814 0.500000 0.154038
O O2 0.753049 0.660855 0.208423
O O3 0.900226 0.635235 0.169318
O O4 0.439627 0.650121 0.063936
O O5 0.053224 0.654752 0.433747
O O6 0.085378 0.836768 0.419373
O O7 0.683014 0.767364 0.329143
O O8 0.917192 0.703804 0.324893
O O9 0.770460 0.500000 0.487636
O O10 0.000000 0.377538 0.500000
O O11 0.435978 0.147674 0.094848
O O12 0.212964 0.000000 0.012066
O O13 0.000000 0.130133 0.000000
O O14 0.813876 0.161192 0.243175
O O15 0.614888 0.000000 0.183522
#
# Coordination Sequence:
#
# PCOD8112399 Si02
#       6
#     8   8   8   8   8   8
#     4   9  18  33  54  80 113 154 195 237 284 326
#     4  11  24  40  59  91 120 141 181 236 275 331
#     4  10  22  43  69  87 108 150 188 219 274 342
#     4   7  12  27  50  76 106 145 200 245 266 315
#     4   9  18  33  55  80 110 156 201 232 275 334
#     4  12  22  36  57  87 123 149 179 233 287 333
#
# _framework density 18.922183
#
# number of rings (size 3 to 8) (size 9 to 14) (size 15 to 20)
#    0.000    2.333    3.333    2.000    0.000    3.333 
#    0.000    0.833    0.000    0.000    0.000    3.500 
#    0.000    0.000    0.000    0.000    0.000    0.000 
#
# Total GULP energy -297399.719210 kJ/mol
# GULP energy per Si atom -12391.654967 kJ/mol
# Density = 1.887912 g / cm^3
# Si number density = 18.922183 Si / 1000 Ang^3
#
#
#
# Elastic Constant Matrix: (Units=GPa)
#
#
# Indices 1 2 3 4 5 6 
#
# 1 92.7577 34.1104 62.8063 0.0000 -20.7390 0.0000
# 2 34.1104 88.3072 51.0106 0.0000 -13.6499 0.0000
# 3 62.8063 51.0106 147.1630 0.0002 -31.6754 0.0001
# 4 0.0000 0.0000 0.0002 25.5516 0.0000 -0.9759
# 5 -20.7390 -13.6499 -31.6754 0.0000 38.6003 0.0000
# 6 0.0000 0.0000 0.0001 -0.9759 0.0000 12.0160
#
#
#
# Elastic Compliance Matrix: (Units=1/GPa)
#
#
# Indices 1 2 3 4 5 6 
#
# 1 0.016037 -0.002673 -0.005182 0.000000 0.003419 0.000000
# 2 -0.002673 0.014650 -0.003803 0.000000 0.000624 0.000000
# 3 -0.005182 -0.003803 0.011460 0.000000 0.005276 0.000000
# 4 0.000000 0.000000 0.000000 0.039258 0.000000 0.003189
# 5 0.003419 0.000624 0.005276 0.000000 0.032293 0.000000
# 6 0.000000 0.000000 0.000000 0.003189 0.000000 0.083482
#
#
# Mechanical properties :
#
#
# Convention : Reuss Voigt Hill
#
# Bulk Modulus (GPa) = 53.10245 69.34251 61.22248
# Shear Modulus (GPa) = 22.04857 27.25361 24.65109
#
# Velocity S-wave (km/s) = 3.41724 3.79925 3.61329
# Velocity P-wave (km/s) = 6.61019 7.48140 7.05925
#
# Compressibility (1/GPa) = 0.01883152
#
# Stress axis : x y z
#
# Youngs Moduli (GPa) = 62.35716 68.26056 87.25662
#
# Poissons Ratio (x) = 0.18244 0.45215
# Poissons Ratio (y) = 0.16667 0.33184
# Poissons Ratio (z) = 0.32313 0.25960
#
# Static dielectric constant tensor:
#      x y z
#    x 3.166930 0.000000 -0.091380 
#    y 0.000000 3.253810 0.000000 
#    z -0.091380 0.000000 3.913770 
# 
# 
# High freq. dielectric constant tensor:
#      x y z
#    x 1.707460 0.000000 -0.009270 
#    y 0.000000 1.720780 0.000000 
#    z -0.009270 0.000000 1.764550 
# 
# From -- ./inp_files/262496.got.cif
#   From: 2010.06.25/outbox.cif.g09.slc.cpg/sg12_132_cif.got.tgz:262496.got - 2010.06.28 00:19:55.
