data_PCOD8112339
_publ_section_title
;
Structure prediction by ZEFSAII (Michael W. Deem and Ramdas Pophale) SiO2 
 PCOD8112339
Probable space group: C 2/M
;
_chemical_formula_sum "Si O2"
_cell_formula_units_Z 40
_cell_length_a 9.489991
_cell_length_b 22.499773
_cell_length_c 9.417915
_cell_angle_alpha 90.000000
_cell_angle_beta 79.088905
_cell_angle_gamma 90.000000
_cell_volume 1974.584521
_symmetry_space_group_name_H-M "C 2/M"
_symmetry_group_IT_number 12
_symmetry_cell_setting 'monoclinic'
loop_
_space_group_symop_operation_xyz
x,y,z
-x,y,-z
-x,-y,-z
x,-y,z
1/2+x,1/2+y,z
1/2-x,1/2+y,-z
1/2-x,1/2-y,-z
1/2+x,1/2-y,z
loop_
_atom_site_type_symbol
_atom_site_label
_atom_site_fract_x
_atom_site_fract_y
_atom_site_fract_z
Si Si1 0.403830 0.124710 0.658190
Si Si2 0.188348 0.123966 0.096010
Si Si3 0.618915 0.661504 0.795750
Si Si4 0.840895 0.500000 0.101514
Si Si5 0.510709 0.000000 0.329321
Si Si6 0.071903 0.295130 0.836115
O O1 0.500000 0.126253 0.500000
O O2 0.235916 0.137551 0.659556
O O3 0.406923 0.059803 0.731817
O O4 0.459055 0.173549 0.756116
O O5 0.249537 0.057419 0.074271
O O6 0.286692 0.164654 0.177854
O O7 0.029300 0.125330 0.195325
O O8 0.182265 0.152242 0.941298
O O9 0.604230 0.731010 0.764748
O O10 0.860787 0.500000 0.269763
O O11 0.000000 0.500000 0.000000
O O12 0.500000 0.000000 0.500000
O O13 0.000000 0.284697 0.000000
#
# Coordination Sequence:
#
# PCOD8112339 Si02
#       6
#     8   8   8   4   4   8
#     4  11  24  41  65  90 122 166 211 254 310 371
#     4  11  22  36  62  96 123 156 207 262 307 360
#     4  11  23  38  60  95 128 162 199 259 318 359
#     4  12  22  38  65  99 120 156 211 265 305 370
#     4  10  22  43  65  83 119 166 210 244 300 374
#     4  12  20  40  67  90 124 168 210 247 306 382
#
# _framework density 20.257425999999999
#
# number of rings (size 3 to 8) (size 9 to 14) (size 15 to 20)
#    0.000    0.800    6.000    3.600    0.000    3.200 
#    0.000    1.000    0.000    2.400    0.000    0.000 
#    0.000    0.000    0.000    0.000    0.000    0.000 
#
# Total GULP energy -247953.028141 kJ/mol
# GULP energy per Si atom -12397.651407 kJ/mol
# Density = 2.021132 g / cm^3
# Si number density = 20.257426 Si / 1000 Ang^3
#
#
#
# Elastic Constant Matrix: (Units=GPa)
#
#
# Indices 1 2 3 4 5 6 
#
# 1 141.5043 60.9069 26.8361 0.0000 -34.8825 0.0000
# 2 60.9069 181.1614 11.7732 0.0000 -15.2322 0.0000
# 3 26.8361 11.7732 45.8132 0.0000 -18.5823 0.0000
# 4 0.0000 0.0000 0.0000 13.9125 0.0000 15.8968
# 5 -34.8825 -15.2322 -18.5823 0.0000 40.3914 0.0000
# 6 0.0000 0.0000 0.0000 15.8968 0.0000 61.4818
#
#
#
# Elastic Compliance Matrix: (Units=1/GPa)
#
#
# Indices 1 2 3 4 5 6 
#
# 1 0.010422 -0.002765 -0.002664 0.000000 0.006732 0.000000
# 2 -0.002765 0.006454 -0.000025 0.000000 0.000035 0.000000
# 3 -0.002664 -0.000025 0.027610 0.000000 0.010392 0.000000
# 4 0.000000 0.000000 0.000000 0.102018 0.000000 -0.026378
# 5 0.006732 0.000035 0.010392 0.000000 0.035366 0.000000
# 6 0.000000 0.000000 0.000000 -0.026378 0.000000 0.023085
#
#
# Mechanical properties :
#
#
# Convention : Reuss Voigt Hill
#
# Bulk Modulus (GPa) = 29.78068 63.05681 46.41874
# Shear Modulus (GPa) = 22.02125 41.08799 31.55462
#
# Velocity S-wave (km/s) = 3.30065 4.50854 3.95103
# Velocity P-wave (km/s) = 5.40914 7.63531 6.61652
#
# Compressibility (1/GPa) = 0.03357882
#
# Stress axis : x y z
#
# Youngs Moduli (GPa) = 95.95451 154.94355 36.21928
#
# Poissons Ratio (x) = 0.42836 0.09647
# Poissons Ratio (y) = 0.26528 0.00091
# Poissons Ratio (z) = 0.25558 0.00387
#
# Static dielectric constant tensor:
#      x y z
#    x 3.890860 0.000000 -0.340820 
#    y 0.000000 4.207480 0.000000 
#    z -0.340820 0.000000 2.710080 
# 
# 
# High freq. dielectric constant tensor:
#      x y z
#    x 1.798390 0.000000 -0.003500 
#    y 0.000000 1.811960 0.000000 
#    z -0.003500 0.000000 1.760670 
# 
# From -- ./inp_files/120182.got.cif
#   From: 2010.06.25/outbox.cif.g09.slc.cpg/sg12_61_cif.got.tgz:120182.got - 2010.06.28 00:19:55.
