data_PCOD8112159
_publ_section_title
;
Structure prediction by ZEFSAII (Michael W. Deem and Ramdas Pophale) SiO2 
 PCOD8112159
Probable space group: C 2/M
;
_chemical_formula_sum "Si O2"
_cell_formula_units_Z 32
_cell_length_a 9.694600
_cell_length_b 9.909596
_cell_length_c 23.975864
_cell_angle_alpha 90.000000
_cell_angle_beta 45.440628
_cell_angle_gamma 90.000000
_cell_volume 1641.192261
_symmetry_space_group_name_H-M "C 2/M"
_symmetry_group_IT_number 12
_symmetry_cell_setting 'monoclinic'
loop_
_space_group_symop_operation_xyz
x,y,z
-x,y,-z
-x,-y,-z
x,-y,z
1/2+x,1/2+y,z
1/2-x,1/2+y,-z
1/2-x,1/2-y,-z
1/2+x,1/2-y,z
loop_
_atom_site_type_symbol
_atom_site_label
_atom_site_fract_x
_atom_site_fract_y
_atom_site_fract_z
Si Si1 0.458204 0.839015 0.221672
Si Si2 0.018471 0.000000 0.587293
Si Si3 0.716946 0.346894 0.958219
Si Si4 0.325174 0.000000 0.402996
Si Si5 0.957386 0.758772 0.684158
O O1 0.643697 0.805166 0.131847
O O2 0.270890 0.782653 0.243266
O O3 0.462785 0.748332 0.275855
O O4 0.446868 0.000000 0.237770
O O5 0.190414 0.000000 0.494885
O O6 0.810192 0.000000 0.614549
O O7 0.045532 0.125726 0.620469
O O8 0.760056 0.500000 0.965011
O O9 0.500000 0.329309 0.000000
O O10 0.750000 0.250000 0.000000
O O11 0.473555 0.123103 0.365246
#
# Coordination Sequence:
#
# PCOD8112159 Si02
#       5
#     8   4   8   4   8
#     4  11  23  41  64  90 131 162 199 259 309 360
#     4  11  24  43  63  91 127 162 200 266 307 361
#     4  10  22  42  64  92 124 163 207 250 306 366
#     4  11  24  43  65  89 127 163 204 255 315 361
#     4  12  20  44  62  92 123 165 205 250 312 362
#
# _framework density 19.49802
#
# number of rings (size 3 to 8) (size 9 to 14) (size 15 to 20)
#    0.000    1.000    5.000    2.250    0.000    1.500 
#    4.500    1.250    0.000    0.000    0.000    0.000 
#    0.000    0.000    0.000    0.000    0.000    0.000 
#
# Total GULP energy -198331.493333 kJ/mol
# GULP energy per Si atom -12395.718333 kJ/mol
# Density = 1.945364 g / cm^3
# Si number density = 19.498020 Si / 1000 Ang^3
#
#
#
# Elastic Constant Matrix: (Units=GPa)
#
#
# Indices 1 2 3 4 5 6 
#
# 1 58.2890 42.1633 20.9666 0.0000 13.4424 0.0000
# 2 42.1633 129.4688 51.8243 0.0000 16.3673 0.0000
# 3 20.9666 51.8243 138.3137 0.0001 3.6308 -0.0001
# 4 0.0000 0.0000 0.0001 43.5452 0.0000 7.5184
# 5 13.4424 16.3673 3.6308 0.0000 37.2756 0.0000
# 6 0.0000 0.0000 -0.0001 7.5184 0.0000 40.4011
#
#
#
# Elastic Compliance Matrix: (Units=1/GPa)
#
#
# Indices 1 2 3 4 5 6 
#
# 1 0.023532 -0.006586 -0.000955 0.000000 -0.005501 0.000000
# 2 -0.006586 0.011459 -0.003234 0.000000 -0.002342 0.000000
# 3 -0.000955 -0.003234 0.008562 0.000000 0.000930 0.000000
# 4 0.000000 0.000000 0.000000 0.023727 0.000000 -0.004415
# 5 -0.005501 -0.002342 0.000930 0.000000 0.029749 0.000000
# 6 0.000000 0.000000 0.000000 -0.004415 0.000000 0.025573
#
#
# Mechanical properties :
#
#
# Convention : Reuss Voigt Hill
#
# Bulk Modulus (GPa) = 45.44692 61.77553 53.61123
# Shear Modulus (GPa) = 33.00641 38.31889 35.66265
#
# Velocity S-wave (km/s) = 4.11884 4.43795 4.28137
# Velocity P-wave (km/s) = 6.78077 7.61658 7.21079
#
# Compressibility (1/GPa) = 0.02200369
#
# Stress axis : x y z
#
# Youngs Moduli (GPa) = 42.49552 87.26737 116.79568
#
# Poissons Ratio (x) = 0.57471 0.11156
# Poissons Ratio (y) = 0.27986 0.37769
# Poissons Ratio (z) = 0.04059 0.28220
#
# Static dielectric constant tensor:
#      x y z
#    x 3.445180 0.000000 -0.031020 
#    y 0.000000 3.582000 0.000000 
#    z -0.031020 0.000000 3.832370 
# 
# 
# High freq. dielectric constant tensor:
#      x y z
#    x 1.751440 0.000000 -0.001340 
#    y 0.000000 1.760130 0.000000 
#    z -0.001340 0.000000 1.789590 
# 
# From -- ./inp_files/254318.got.cif
#   From: 2010.06.25/outbox.cif.g09.slc.cpg/sg12_128_cif.got.tgz:254318.got - 2010.06.28 00:19:55.
