data_PCOD8112142
_publ_section_title
;
Structure prediction by ZEFSAII (Michael W. Deem and Ramdas Pophale) SiO2 
 PCOD8112142
Probable space group: C 2/M
;
_chemical_formula_sum "Si O2"
_cell_formula_units_Z 40
_cell_length_a 8.688414
_cell_length_b 15.784293
_cell_length_c 25.453967
_cell_angle_alpha 90.000000
_cell_angle_beta 30.519771
_cell_angle_gamma 90.000000
_cell_volume 1772.736987
_symmetry_space_group_name_H-M "C 2/M"
_symmetry_group_IT_number 12
_symmetry_cell_setting 'monoclinic'
loop_
_space_group_symop_operation_xyz
x,y,z
-x,y,-z
-x,-y,-z
x,-y,z
1/2+x,1/2+y,z
1/2-x,1/2+y,-z
1/2-x,1/2-y,-z
1/2+x,1/2-y,z
loop_
_atom_site_type_symbol
_atom_site_label
_atom_site_fract_x
_atom_site_fract_y
_atom_site_fract_z
Si Si1 0.719372 0.409261 0.692550
Si Si2 0.844207 0.840790 0.887592
Si Si3 0.075933 0.905620 0.329869
Si Si4 0.346937 0.770460 0.395933
Si Si5 0.125131 0.688839 0.201951
O O1 0.891071 0.500000 0.638384
O O2 0.509818 0.413690 0.806008
O O3 0.483474 0.399986 0.714493
O O4 0.967847 0.334785 0.621082
O O5 0.884257 0.755416 0.842220
O O6 0.023550 0.833468 0.890306
O O7 0.500000 0.864790 0.000000
O O8 0.431098 0.892187 0.239227
O O9 0.887695 0.824866 0.408654
O O10 0.978351 0.000000 0.379706
O O11 0.476614 0.774042 0.298827
O O12 0.000000 0.798059 0.500000
#
# Coordination Sequence:
#
# PCOD8112142 Si02
#       5
#     8   8   8   8   8
#     4  10  22  42  63  91 131 167 206 260 311 368
#     4  11  21  38  67  94 123 164 209 255 318 372
#     4  11  22  40  64  90 127 167 208 256 309 365
#     4  11  23  42  67  93 125 171 209 255 314 373
#     4  11  21  40  62  94 128 162 207 262 308 368
#
# _framework density 22.563977999999999
#
# number of rings (size 3 to 8) (size 9 to 14) (size 15 to 20)
#    0.000    1.200    6.000    0.600    0.000    7.600 
#    0.000    2.000    0.000    3.000    0.000    0.000 
#    0.000    0.000    0.000    0.000    0.000    0.000 
#
# Total GULP energy -247772.651927 kJ/mol
# GULP energy per Si atom -12388.632596 kJ/mol
# Density = 2.251262 g / cm^3
# Si number density = 22.563978 Si / 1000 Ang^3
#
#
#
# Elastic Constant Matrix: (Units=GPa)
#
#
# Indices 1 2 3 4 5 6 
#
# 1 143.1419 50.5842 36.4826 0.0445 -44.7944 -0.0418
# 2 50.5842 165.9579 19.8623 -0.1824 -20.4228 0.0303
# 3 36.4826 19.8623 99.3826 -0.0359 -39.1306 0.0009
# 4 0.0445 -0.1824 -0.0359 5.6240 -0.0351 -5.5125
# 5 -44.7944 -20.4228 -39.1306 -0.0351 41.0359 0.0238
# 6 -0.0418 0.0303 0.0009 -5.5125 0.0238 30.0016
#
#
#
# Elastic Compliance Matrix: (Units=1/GPa)
#
#
# Indices 1 2 3 4 5 6 
#
# 1 0.011304 -0.002056 0.001148 -0.000078 0.012410 -0.000006
# 2 -0.002056 0.006793 -0.000249 0.000281 0.000900 0.000041
# 3 0.001148 -0.000249 0.016228 0.000218 0.016604 0.000028
# 4 -0.000078 0.000281 0.000218 0.216884 0.000425 0.039850
# 5 0.012410 0.000900 0.016604 0.000425 0.054197 0.000051
# 6 -0.000006 0.000041 0.000028 0.039850 0.000051 0.040654
#
#
# Mechanical properties :
#
#
# Convention : Reuss Voigt Hill
#
# Bulk Modulus (GPa) = 31.23842 69.14895 50.19369
# Shear Modulus (GPa) = 13.92592 35.43585 24.68089
#
# Velocity S-wave (km/s) = 2.48700 3.96720 3.31088
# Velocity P-wave (km/s) = 4.70333 7.19008 6.07530
#
# Compressibility (1/GPa) = 0.03201186
#
# Stress axis : x y z
#
# Youngs Moduli (GPa) = 88.46723 147.21065 61.62130
#
# Poissons Ratio (x) = 0.30261 -0.07072
# Poissons Ratio (y) = 0.18185 0.01531
# Poissons Ratio (z) = -0.10153 0.03659
#
# Static dielectric constant tensor:
#      x y z
#    x 4.470860 0.000040 -0.271910 
#    y 0.000040 4.348380 -0.000060 
#    z -0.271910 -0.000060 3.944130 
# 
# 
# High freq. dielectric constant tensor:
#      x y z
#    x 1.913330 0.000000 -0.019120 
#    y 0.000000 1.886990 0.000000 
#    z -0.019120 0.000000 1.851910 
# 
# From -- ./inp_files/194450.got.cif
#   From: 2010.06.25/outbox.cif.g09.slc.cpg/sg12_98_cif.got.tgz:194450.got - 2010.06.28 00:19:55.
