data_PCOD8112102
_publ_section_title
;
Structure prediction by ZEFSAII (Michael W. Deem and Ramdas Pophale) SiO2 
 PCOD8112102
Probable space group: C 2/M
;
_chemical_formula_sum "Si O2"
_cell_formula_units_Z 32
_cell_length_a 7.688699
_cell_length_b 30.298599
_cell_length_c 5.836010
_cell_angle_alpha 90.000000
_cell_angle_beta 79.501609
_cell_angle_gamma 90.000000
_cell_volume 1336.779623
_symmetry_space_group_name_H-M "C 2/M"
_symmetry_group_IT_number 12
_symmetry_cell_setting 'monoclinic'
loop_
_space_group_symop_operation_xyz
x,y,z
-x,y,-z
-x,-y,-z
x,-y,z
1/2+x,1/2+y,z
1/2-x,1/2+y,-z
1/2-x,1/2-y,-z
1/2+x,1/2-y,z
loop_
_atom_site_type_symbol
_atom_site_label
_atom_site_fract_x
_atom_site_fract_y
_atom_site_fract_z
Si Si1 0.705988 0.787194 0.328005
Si Si2 0.000000 0.250291 0.000000
Si Si3 0.187005 0.119809 0.567874
Si Si4 0.329621 0.048941 0.195400
Si Si5 0.000000 0.072185 0.000000
O O1 0.750000 0.750000 0.500000
O O2 0.701835 0.835315 0.440600
O O3 0.841121 0.783739 0.082212
O O4 0.521952 0.778686 0.233357
O O5 0.308548 0.084954 0.400896
O O6 0.000000 0.131097 0.500000
O O7 0.140962 0.101295 0.827107
O O8 0.367495 0.000000 0.288938
O O9 0.500000 0.062693 0.000000
O O10 0.136828 0.043976 0.119098
#
# Coordination Sequence:
#
# PCOD8112102 Si02
#       5
#     8   4   8   8   4
#     4  11  22  43  64  96 133 179 223 280 338 404
#     4  10  23  38  66  95 130 180 228 271 339 408
#     4  10  22  41  68  97 135 178 228 282 344 415
#     4  10  23  44  69 100 135 178 229 285 351 418
#     4  10  22  42  66  99 134 180 220 287 342 418
#
# _framework density 23.938127000000001
#
# number of rings (size 3 to 8) (size 9 to 14) (size 15 to 20)
#    0.000    1.750    0.000    3.375    0.000   12.500 
#   13.500    2.500    0.000    0.000    0.000    0.000 
#    0.000    0.000    0.000    0.000    0.000    0.000 
#
# Total GULP energy -198213.435933 kJ/mol
# GULP energy per Si atom -12388.339746 kJ/mol
# Density = 2.388364 g / cm^3
# Si number density = 23.938127 Si / 1000 Ang^3
#
#
#
# Elastic Constant Matrix: (Units=GPa)
#
#
# Indices 1 2 3 4 5 6 
#
# 1 110.9134 49.0432 36.0540 0.0000 -21.6274 0.0000
# 2 49.0432 195.4550 87.0028 0.0000 -17.8038 0.0000
# 3 36.0540 87.0028 121.9673 0.0000 -4.8104 0.0000
# 4 0.0000 0.0000 0.0000 24.4099 0.0000 2.7936
# 5 -21.6274 -17.8038 -4.8104 0.0000 56.6980 0.0000
# 6 0.0000 0.0000 0.0000 2.7936 0.0000 19.4938
#
#
#
# Elastic Compliance Matrix: (Units=1/GPa)
#
#
# Indices 1 2 3 4 5 6 
#
# 1 0.011052 -0.001549 -0.002022 0.000000 0.003558 0.000000
# 2 -0.001549 0.007925 -0.005138 0.000000 0.001462 0.000000
# 3 -0.002022 -0.005138 0.012409 0.000000 -0.001332 0.000000
# 4 0.000000 0.000000 0.000000 0.041650 0.000000 -0.005969
# 5 0.003558 0.001462 -0.001332 0.000000 0.019340 0.000000
# 6 0.000000 0.000000 0.000000 -0.005969 0.000000 0.052154
#
#
# Mechanical properties :
#
#
# Convention : Reuss Voigt Hill
#
# Bulk Modulus (GPa) = 71.58683 85.83732 78.71207
# Shear Modulus (GPa) = 30.01148 37.20272 33.60710
#
# Velocity S-wave (km/s) = 3.54462 3.94651 3.75095
# Velocity P-wave (km/s) = 6.83537 7.53010 7.19113
#
# Compressibility (1/GPa) = 0.01396905
#
# Stress axis : x y z
#
# Youngs Moduli (GPa) = 90.48179 126.18294 80.58831
#
# Poissons Ratio (x) = 0.19548 0.16292
# Poissons Ratio (y) = 0.14017 0.41403
# Poissons Ratio (z) = 0.18292 0.64827
#
# Static dielectric constant tensor:
#      x y z
#    x 4.955500 0.000000 -0.083580 
#    y 0.000000 4.014840 0.000000 
#    z -0.083580 0.000000 4.427450 
# 
# 
# High freq. dielectric constant tensor:
#      x y z
#    x 1.971250 0.000000 -0.016260 
#    y 0.000000 1.934220 0.000000 
#    z -0.016260 0.000000 1.954240 
# 
# From -- ./inp_files/3560.got.cif
#   From: 2010.06.25/outbox.cif.g09.slc.cpg/sg12_2_cif.got.tgz:3560.got - 2010.06.28 00:19:55.
