data_PCOD8112686
_publ_section_title
;
Structure prediction by ZEFSAII (Michael W. Deem and Ramdas Pophale) SiO2 
 PCOD8112686
Probable space group: C 2/M
;
_chemical_formula_sum "Si O2"
_cell_formula_units_Z 64
_cell_length_a 14.526618
_cell_length_b 9.016397
_cell_length_c 25.775105
_cell_angle_alpha 90.000000
_cell_angle_beta 92.010711
_cell_angle_gamma 90.000000
_cell_volume 3373.886755
_symmetry_space_group_name_H-M "C 2/M"
_symmetry_group_IT_number 12
_symmetry_cell_setting 'monoclinic'
loop_
_space_group_symop_operation_xyz
x,y,z
-x,y,-z
-x,-y,-z
x,-y,z
1/2+x,1/2+y,z
1/2-x,1/2+y,-z
1/2-x,1/2-y,-z
1/2+x,1/2-y,z
loop_
_atom_site_type_symbol
_atom_site_label
_atom_site_fract_x
_atom_site_fract_y
_atom_site_fract_z
Si Si1 0.348344 0.824421 0.505932
Si Si2 0.891905 0.674504 0.863418
Si Si3 0.910373 0.826381 0.135992
Si Si4 0.754088 0.329250 0.327161
Si Si5 0.610299 0.669083 0.593602
Si Si6 0.409185 0.665522 0.606503
Si Si7 0.263939 0.326519 0.218717
Si Si8 0.746371 0.324771 0.944661
O O1 0.250000 0.750000 0.500000
O O2 0.408942 0.753066 0.461101
O O3 0.389442 0.787888 0.562730
O O4 0.343626 0.000000 0.498345
O O5 0.906699 0.500000 0.864439
O O6 0.829655 0.720634 0.812788
O O7 0.836250 0.725268 0.913703
O O8 0.991430 0.747961 0.862883
O O9 0.854068 0.785748 0.186853
O O10 0.847691 0.775224 0.086058
O O11 0.928951 0.000000 0.133550
O O12 0.783128 0.500000 0.325528
O O13 0.811975 0.250162 0.372641
O O14 0.647963 0.306175 0.341964
O O15 0.771558 0.261009 0.271846
O O16 0.641539 0.500000 0.583382
O O17 0.516031 0.674622 0.624525
O O18 0.385922 0.500000 0.584203
O O19 0.262106 0.500000 0.230857
O O20 0.746937 0.500000 0.951265
O O21 0.750000 0.250000 0.000000
#
# Coordination Sequence:
#
# PCOD8112686 Si02
#       8
#     8   8   8   8   8   8   8   8
#     4  12  23  37  60  86 113 147 185 226 274 330
#     4   9  19  36  57  81 110 146 188 233 277 327
#     4   9  19  36  57  80 109 147 188 230 278 332
#     4  11  23  39  59  84 113 144 183 232 276 330
#     4  11  23  40  61  84 113 150 183 223 280 334
#     4  10  23  41  59  82 114 147 181 224 277 332
#     4   9  20  39  58  77 108 146 182 227 281 334
#     4   9  19  35  53  79 116 153 188 228 278 328
#
# _framework density 18.96922
#
# number of rings (size 3 to 8) (size 9 to 14) (size 15 to 20)
#    0.000    2.000    1.250    3.750    0.000    6.500 
#    0.000    8.750    0.000    0.000    0.000    0.000 
#    0.000    0.000    0.000    0.000    0.000    0.000 
#
# Total GULP energy -396762.500464 kJ/mol
# GULP energy per Si atom -12398.828139 kJ/mol
# Density = 1.892605 g / cm^3
# Si number density = 18.969220 Si / 1000 Ang^3
#
#
#
# Elastic Constant Matrix: (Units=GPa)
#
#
# Indices 1 2 3 4 5 6 
#
# 1 115.0031 33.5701 27.6501 0.0000 -13.9760 0.0000
# 2 33.5701 85.6571 45.9535 0.0000 -7.8732 0.0000
# 3 27.6501 45.9535 103.2389 0.0000 -10.7661 0.0000
# 4 0.0000 0.0000 0.0000 36.5646 0.0000 0.3089
# 5 -13.9760 -7.8732 -10.7661 0.0000 18.9929 0.0000
# 6 0.0000 0.0000 0.0000 0.3089 0.0000 32.4158
#
#
#
# Elastic Compliance Matrix: (Units=1/GPa)
#
#
# Indices 1 2 3 4 5 6 
#
# 1 0.010535 -0.003152 -0.000793 0.000000 0.005996 0.000000
# 2 -0.003152 0.016406 -0.006367 0.000000 0.000872 0.000000
# 3 -0.000793 -0.006367 0.013176 0.000000 0.004245 0.000000
# 4 0.000000 0.000000 0.000000 0.027351 0.000000 -0.000261
# 5 0.005996 0.000872 0.004245 0.000000 0.059831 0.000000
# 6 0.000000 0.000000 0.000000 -0.000261 0.000000 0.030852
#
#
# Mechanical properties :
#
#
# Convention : Reuss Voigt Hill
#
# Bulk Modulus (GPa) = 51.30548 57.58293 54.44421
# Shear Modulus (GPa) = 26.98719 30.70970 28.84845
#
# Velocity S-wave (km/s) = 3.77594 4.02795 3.90398
# Velocity P-wave (km/s) = 6.79085 7.21487 7.00607
#
# Compressibility (1/GPa) = 0.01949109
#
# Stress axis : x y z
#
# Youngs Moduli (GPa) = 94.92248 60.95341 75.89733
#
# Poissons Ratio (x) = 0.19213 0.06020
# Poissons Ratio (y) = 0.29921 0.48327
# Poissons Ratio (z) = 0.07529 0.38812
#
# Static dielectric constant tensor:
#      x y z
#    x 3.690730 0.000000 -0.167930 
#    y 0.000000 3.459960 0.000000 
#    z -0.167930 0.000000 3.598510 
# 
# 
# High freq. dielectric constant tensor:
#      x y z
#    x 1.747930 0.000000 -0.008390 
#    y 0.000000 1.737820 0.000000 
#    z -0.008390 0.000000 1.730740 
# 
# From -- ./inp_files/338924.got.cif
#   From: 2010.06.25/outbox.cif.g09.slc.cpg/sg12_170_cif.got.tgz:338924.got - 2010.06.28 00:19:55.
