data_PCOD8112866
_publ_section_title
;
Structure prediction by ZEFSAII (Michael W. Deem and Ramdas Pophale) SiO2 
 PCOD8112866
Probable space group: C 2/M
;
_chemical_formula_sum "Si O2"
_cell_formula_units_Z 56
_cell_length_a 24.908862
_cell_length_b 8.898872
_cell_length_c 14.437648
_cell_angle_alpha 90.000000
_cell_angle_beta 58.845464
_cell_angle_gamma 90.000000
_cell_volume 2738.702845
_symmetry_space_group_name_H-M "C 2/M"
_symmetry_group_IT_number 12
_symmetry_cell_setting 'monoclinic'
loop_
_space_group_symop_operation_xyz
x,y,z
-x,y,-z
-x,-y,-z
x,-y,z
1/2+x,1/2+y,z
1/2-x,1/2+y,-z
1/2-x,1/2-y,-z
1/2+x,1/2-y,z
loop_
_atom_site_type_symbol
_atom_site_label
_atom_site_fract_x
_atom_site_fract_y
_atom_site_fract_z
Si Si1 0.109736 0.328035 0.275441
Si Si2 0.323485 0.823011 0.187778
Si Si3 0.500540 0.324916 0.283852
Si Si4 0.773980 0.176223 0.570625
Si Si5 0.250910 0.175864 0.900084
Si Si6 0.902260 0.673713 0.502763
Si Si7 0.952048 0.174513 0.123379
O O1 0.100218 0.500000 0.252412
O O2 0.183170 0.285761 0.208382
O O3 0.082844 0.302135 0.402443
O O4 0.072887 0.220787 0.236651
O O5 0.270731 0.770418 0.306936
O O6 0.306981 0.743625 0.105943
O O7 0.390227 0.772573 0.166864
O O8 0.323977 0.000000 0.171871
O O9 0.490328 0.500000 0.314136
O O10 0.461053 0.224617 0.389976
O O11 0.483070 0.285988 0.194095
O O12 0.750000 0.250000 0.500000
O O13 0.844351 0.224910 0.525875
O O14 0.771840 0.000000 0.559295
O O15 0.239765 0.000000 0.920004
O O16 0.250000 0.250000 0.000000
O O17 0.886915 0.500000 0.495783
O O18 0.933725 0.000000 0.133475
O O19 0.000000 0.219885 0.000000
#
# Coordination Sequence:
#
# PCOD8112866 Si02
#       7
#     8   8   8   8   8   8   8
#     4  10  23  42  64  92 127 168 208 254 315 377
#     4  11  24  42  65  96 127 163 209 262 316 373
#     4  11  24  40  63  94 127 166 212 264 317 371
#     4  11  23  38  61  92 128 166 209 258 314 376
#     4  11  24  43  67  96 129 168 211 260 316 375
#     4  11  22  40  63  90 126 167 210 254 314 380
#     4  10  24  45  65  89 123 167 212 258 315 375
#
# _framework density 20.447635999999999
#
# number of rings (size 3 to 8) (size 9 to 14) (size 15 to 20)
#    0.000    1.286    1.429    3.429    2.000    9.429 
#    0.000    0.000    0.000    0.000    0.000    0.000 
#    0.000    0.000    0.000    0.000    0.000    0.000 
#
# Total GULP energy -347379.415895 kJ/mol
# GULP energy per Si atom -12406.407711 kJ/mol
# Density = 2.040110 g / cm^3
# Si number density = 20.447636 Si / 1000 Ang^3
#
#
#
# Elastic Constant Matrix: (Units=GPa)
#
#
# Indices 1 2 3 4 5 6 
#
# 1 119.9948 40.0321 26.5569 0.0000 16.0841 0.0000
# 2 40.0321 66.8109 41.0081 0.0000 12.4353 -0.0002
# 3 26.5569 41.0081 80.7534 0.0000 17.1055 0.0000
# 4 0.0000 0.0000 0.0000 32.2213 0.0000 0.7644
# 5 16.0841 12.4353 17.1055 0.0000 35.1387 0.0000
# 6 0.0000 -0.0002 0.0000 0.7644 0.0000 44.0766
#
#
#
# Elastic Compliance Matrix: (Units=1/GPa)
#
#
# Indices 1 2 3 4 5 6 
#
# 1 0.010669 -0.005927 0.000102 0.000000 -0.002835 0.000000
# 2 -0.005927 0.025252 -0.010654 0.000000 -0.001037 0.000000
# 3 0.000102 -0.010654 0.018923 0.000000 -0.005488 0.000000
# 4 0.000000 0.000000 0.000000 0.031048 0.000000 -0.000538
# 5 -0.002835 -0.001037 -0.005488 0.000000 0.032795 0.000000
# 6 0.000000 0.000000 0.000000 -0.000538 0.000000 0.022697
#
#
# Mechanical properties :
#
#
# Convention : Reuss Voigt Hill
#
# Bulk Modulus (GPa) = 45.69602 53.63927 49.66764
# Shear Modulus (GPa) = 27.52738 32.95145 30.23942
#
# Velocity S-wave (km/s) = 3.67309 4.01871 3.84978
# Velocity P-wave (km/s) = 6.35493 6.91540 6.64108
#
# Compressibility (1/GPa) = 0.02188374
#
# Stress axis : x y z
#
# Youngs Moduli (GPa) = 93.73273 39.60114 52.84638
#
# Poissons Ratio (x) = 0.23473 -0.00540
# Poissons Ratio (y) = 0.55559 0.56305
# Poissons Ratio (z) = -0.00957 0.42193
#
# Static dielectric constant tensor:
#      x y z
#    x 3.768540 0.000000 0.069540 
#    y 0.000000 3.845680 0.000000 
#    z 0.069540 0.000000 3.871130 
# 
# 
# High freq. dielectric constant tensor:
#      x y z
#    x 1.813090 0.000000 0.003500 
#    y 0.000000 1.804980 0.000000 
#    z 0.003500 0.000000 1.805710 
# 
# From -- ./inp_files/238358.got.cif
#   From: 2010.06.25/outbox.cif.g09.slc.cpg/sg12_120_cif.got.tgz:238358.got - 2010.06.28 00:19:55.
