data_PCOD8112347
_publ_section_title
;
Structure prediction by ZEFSAII (Michael W. Deem and Ramdas Pophale) SiO2 
 PCOD8112347
Probable space group: C 2/M
;
_chemical_formula_sum "Si O2"
_cell_formula_units_Z 36
_cell_length_a 8.264723
_cell_length_b 18.252355
_cell_length_c 11.837486
_cell_angle_alpha 90.000000
_cell_angle_beta 71.527193
_cell_angle_gamma 90.000000
_cell_volume 1693.683216
_symmetry_space_group_name_H-M "C 2/M"
_symmetry_group_IT_number 12
_symmetry_cell_setting 'monoclinic'
loop_
_space_group_symop_operation_xyz
x,y,z
-x,y,-z
-x,-y,-z
x,-y,z
1/2+x,1/2+y,z
1/2-x,1/2+y,-z
1/2-x,1/2-y,-z
1/2+x,1/2-y,z
loop_
_atom_site_type_symbol
_atom_site_label
_atom_site_fract_x
_atom_site_fract_y
_atom_site_fract_z
Si Si1 0.182781 0.000000 0.402796
Si Si2 0.351254 0.620332 0.123470
Si Si3 0.460160 0.500000 0.805075
Si Si4 0.321035 0.212163 0.662463
Si Si5 0.166565 0.500000 0.042361
Si Si6 0.799793 0.657040 0.427569
O O1 0.161337 0.000000 0.274502
O O2 0.291133 0.929656 0.413367
O O3 0.000000 0.000000 0.500000
O O4 0.424117 0.572145 0.211105
O O5 0.284519 0.694007 0.199793
O O6 0.186280 0.575562 0.109722
O O7 0.500000 0.640884 0.000000
O O8 0.343158 0.500000 0.939276
O O9 0.318228 0.299897 0.638026
O O10 0.239722 0.174439 0.568500
O O11 0.510506 0.184175 0.638108
O O12 0.000000 0.500000 0.000000
#
# Coordination Sequence:
#
# PCOD8112347 Si02
#       6
#     4   8   4   8   4   8
#     4  12  25  37  65 102 123 164 220 265 310 388
#     4   9  19  38  62  92 125 175 211 263 318 378
#     4   9  20  34  59  88 130 163 209 256 323 370
#     4  10  22  43  65  91 133 169 211 261 329 380
#     4   9  19  34  59  90 128 166 211 266 323 364
#     4  10  25  40  66  94 131 171 208 264 325 379
#
# _framework density 21.255451000000001
#
# number of rings (size 3 to 8) (size 9 to 14) (size 15 to 20)
#    0.000    2.222    0.000    2.667   12.444    3.556 
#    0.000    1.111    0.000    0.000    0.000    0.000 
#    0.000    0.000    0.000    0.000    0.000    0.000 
#
# Total GULP energy -223048.466729 kJ/mol
# GULP energy per Si atom -12391.581485 kJ/mol
# Density = 2.120707 g / cm^3
# Si number density = 21.255451 Si / 1000 Ang^3
#
#
#
# Elastic Constant Matrix: (Units=GPa)
#
#
# Indices 1 2 3 4 5 6 
#
# 1 102.7634 46.0787 20.8534 0.0000 2.1125 0.0000
# 2 46.0787 143.8507 38.1446 0.0000 -0.6720 0.0000
# 3 20.8534 38.1446 97.1898 0.0000 -9.2088 0.0000
# 4 0.0000 0.0000 0.0000 33.1131 0.0000 -0.3917
# 5 2.1125 -0.6720 -9.2088 0.0000 32.2929 0.0000
# 6 0.0000 0.0000 0.0000 -0.3917 0.0000 22.3188
#
#
#
# Elastic Compliance Matrix: (Units=1/GPa)
#
#
# Indices 1 2 3 4 5 6 
#
# 1 0.011519 -0.003360 -0.001265 0.000000 -0.001184 0.000000
# 2 -0.003360 0.008756 -0.002752 0.000000 -0.000383 0.000000
# 3 -0.001265 -0.002752 0.011966 0.000000 0.003438 0.000000
# 4 0.000000 0.000000 0.000000 0.030206 0.000000 0.000530
# 5 -0.001184 -0.000383 0.003438 0.000000 0.032016 0.000000
# 6 0.000000 0.000000 0.000000 0.000530 0.000000 0.044815
#
#
# Mechanical properties :
#
#
# Convention : Reuss Voigt Hill
#
# Bulk Modulus (GPa) = 57.18371 61.55080 59.36725
# Shear Modulus (GPa) = 31.27739 33.46012 32.36875
#
# Velocity S-wave (km/s) = 3.84017 3.97191 3.90660
# Velocity P-wave (km/s) = 6.82818 7.07498 6.95267
#
# Compressibility (1/GPa) = 0.01748750
#
# Stress axis : x y z
#
# Youngs Moduli (GPa) = 86.81567 114.21049 83.56778
#
# Poissons Ratio (x) = 0.38372 0.10572
# Poissons Ratio (y) = 0.29168 0.22996
# Poissons Ratio (z) = 0.10983 0.31428
#
# Static dielectric constant tensor:
#      x y z
#    x 3.530110 0.000000 -0.052690 
#    y 0.000000 3.843240 0.000000 
#    z -0.052690 0.000000 3.675290 
# 
# 
# High freq. dielectric constant tensor:
#      x y z
#    x 1.830940 0.000000 0.001450 
#    y 0.000000 1.821900 0.000000 
#    z 0.001450 0.000000 1.830400 
# 
# From -- ./inp_files/118557.got.cif
#   From: 2010.06.25/outbox.cif.g09.slc.cpg/sg12_60_cif.got.tgz:118557.got - 2010.06.28 00:19:55.
