data_PCOD8112801
_publ_section_title
;
Structure prediction by ZEFSAII (Michael W. Deem and Ramdas Pophale) SiO2 
 PCOD8112801
Probable space group: C 2/M
;
_chemical_formula_sum "Si O2"
_cell_formula_units_Z 48
_cell_length_a 20.508596
_cell_length_b 8.599490
_cell_length_c 14.693844
_cell_angle_alpha 90.000000
_cell_angle_beta 71.682659
_cell_angle_gamma 90.000000
_cell_volume 2460.149162
_symmetry_space_group_name_H-M "C 2/M"
_symmetry_group_IT_number 12
_symmetry_cell_setting 'monoclinic'
loop_
_space_group_symop_operation_xyz
x,y,z
-x,y,-z
-x,-y,-z
x,-y,z
1/2+x,1/2+y,z
1/2-x,1/2+y,-z
1/2-x,1/2-y,-z
1/2+x,1/2-y,z
loop_
_atom_site_type_symbol
_atom_site_label
_atom_site_fract_x
_atom_site_fract_y
_atom_site_fract_z
Si Si1 0.808508 0.683221 0.537286
Si Si2 0.287493 0.318807 0.070859
Si Si3 0.942378 0.179544 0.953570
Si Si4 0.458441 0.183954 0.432869
Si Si5 0.697738 0.318224 0.261594
Si Si6 0.937048 0.318893 0.763782
O O1 0.806942 0.500000 0.530157
O O2 0.750000 0.750000 0.500000
O O3 0.881199 0.751013 0.468969
O O4 0.797354 0.728429 0.646249
O O5 0.269289 0.500000 0.085079
O O6 0.262117 0.232646 0.172323
O O7 0.250000 0.250000 0.000000
O O8 0.368451 0.288660 0.029808
O O9 0.953662 0.286168 0.860919
O O10 0.950180 0.000000 0.921389
O O11 0.000000 0.229561 0.000000
O O12 0.500000 0.254967 0.500000
O O13 0.496442 0.232953 0.323439
O O14 0.455142 0.000000 0.444636
O O15 0.701789 0.500000 0.279171
O O16 0.628153 0.279993 0.238647
O O17 0.920360 0.500000 0.755769
#
# Coordination Sequence:
#
# PCOD8112801 Si02
#       6
#     8   8   8   8   8   8
#     4  11  23  42  64  90 127 162 202 252 308 365
#     4  11  22  38  63  92 123 161 204 251 303 363
#     4  10  23  42  61  87 125 161 196 248 308 362
#     4   9  18  36  62  90 119 157 199 247 300 361
#     4  12  24  39  61  91 124 161 207 253 303 362
#     4  11  21  37  64  92 118 156 205 252 304 362
#
# _framework density 19.511012000000001
#
# number of rings (size 3 to 8) (size 9 to 14) (size 15 to 20)
#    0.000    1.333    3.333    3.000    0.000    2.333 
#    0.000    7.500    0.000    0.000    0.000    0.000 
#    0.000    0.000    0.000    0.000    0.000    0.000 
#
# Total GULP energy -297704.842117 kJ/mol
# GULP energy per Si atom -12404.368422 kJ/mol
# Density = 1.946660 g / cm^3
# Si number density = 19.511012 Si / 1000 Ang^3
#
#
#
# Elastic Constant Matrix: (Units=GPa)
#
#
# Indices 1 2 3 4 5 6 
#
# 1 155.8990 29.2055 63.6779 0.0000 -2.6048 0.0000
# 2 29.2055 58.6211 20.5180 0.0000 -6.1745 0.0000
# 3 63.6779 20.5180 133.7612 0.0000 -12.2410 0.0000
# 4 0.0000 0.0000 0.0000 32.5825 0.0000 5.5402
# 5 -2.6048 -6.1745 -12.2410 0.0000 34.9154 0.0000
# 6 0.0000 0.0000 0.0000 5.5402 0.0000 26.8992
#
#
#
# Elastic Compliance Matrix: (Units=1/GPa)
#
#
# Indices 1 2 3 4 5 6 
#
# 1 0.008467 -0.003059 -0.003671 0.000000 -0.001196 0.000000
# 2 -0.003059 0.019311 -0.001254 0.000000 0.002747 0.000000
# 3 -0.003671 -0.001254 0.009681 0.000000 0.002898 0.000000
# 4 0.000000 0.000000 0.000000 0.031805 0.000000 -0.006551
# 5 -0.001196 0.002747 0.002898 0.000000 0.030053 0.000000
# 6 0.000000 0.000000 0.000000 -0.006551 0.000000 0.038525
#
#
# Mechanical properties :
#
#
# Convention : Reuss Voigt Hill
#
# Bulk Modulus (GPa) = 46.53318 63.89822 55.21570
# Shear Modulus (GPa) = 31.06054 34.53808 32.79931
#
# Velocity S-wave (km/s) = 3.99425 4.21192 4.10453
# Velocity P-wave (km/s) = 6.72113 7.51496 7.12910
#
# Compressibility (1/GPa) = 0.02149004
#
# Stress axis : x y z
#
# Youngs Moduli (GPa) = 118.10571 51.78310 103.29252
#
# Poissons Ratio (x) = 0.15843 0.37918
# Poissons Ratio (y) = 0.36134 0.12956
# Poissons Ratio (z) = 0.43356 0.06495
#
# Static dielectric constant tensor:
#      x y z
#    x 3.744990 0.000000 -0.229270 
#    y 0.000000 3.492180 0.000000 
#    z -0.229270 0.000000 3.547770 
# 
# 
# High freq. dielectric constant tensor:
#      x y z
#    x 1.762930 0.000000 -0.008980 
#    y 0.000000 1.752600 0.000000 
#    z -0.008980 0.000000 1.774200 
# 
# From -- ./inp_files/229821.got.cif
#   From: 2010.06.25/outbox.cif.g09.slc.cpg/sg12_115_cif.got.tgz:229821.got - 2010.06.28 00:19:55.
