data_PCOD8112673
_publ_section_title
;
Structure prediction by ZEFSAII (Michael W. Deem and Ramdas Pophale) SiO2 
 PCOD8112673
Probable space group: C 2/M
;
_chemical_formula_sum "Si O2"
_cell_formula_units_Z 40
_cell_length_a 8.371683
_cell_length_b 29.780575
_cell_length_c 11.578695
_cell_angle_alpha 90.000000
_cell_angle_beta 37.110419
_cell_angle_gamma 90.000000
_cell_volume 1741.714452
_symmetry_space_group_name_H-M "C 2/M"
_symmetry_group_IT_number 12
_symmetry_cell_setting 'monoclinic'
loop_
_space_group_symop_operation_xyz
x,y,z
-x,y,-z
-x,-y,-z
x,-y,z
1/2+x,1/2+y,z
1/2-x,1/2+y,-z
1/2-x,1/2-y,-z
1/2+x,1/2-y,z
loop_
_atom_site_type_symbol
_atom_site_label
_atom_site_fract_x
_atom_site_fract_y
_atom_site_fract_z
Si Si1 0.262602 0.704225 0.923219
Si Si2 0.635950 0.336995 0.543630
Si Si3 0.829751 0.634475 0.836993
Si Si4 0.807467 0.910517 0.309421
Si Si5 0.154170 0.549716 0.028720
O O1 0.511801 0.703890 0.690408
O O2 0.250000 0.750000 0.000000
O O3 0.315308 0.663585 0.981382
O O4 0.000000 0.695813 0.000000
O O5 0.500000 0.341126 0.500000
O O6 0.598342 0.383401 0.633322
O O7 0.947705 0.331574 0.341880
O O8 0.651274 0.620239 0.829886
O O9 0.943164 0.588074 0.826284
O O10 0.500000 0.926882 0.500000
O O11 0.024532 0.949811 0.173466
O O12 0.084007 0.500000 0.117432
O O13 0.000000 0.558838 0.000000
#
# Coordination Sequence:
#
# PCOD8112673 Si02
#       5
#     8   8   8   8   8
#     4  12  27  44  70 103 139 190 235 296 355 431
#     4  11  22  43  68  97 137 184 233 284 355 424
#     4  11  23  44  70  98 140 184 235 295 358 419
#     4  10  23  40  70 104 138 192 237 301 354 427
#     4  11  23  41  70 104 144 192 241 294 359 432
#
# _framework density 22.965876999999999
#
# number of rings (size 3 to 8) (size 9 to 14) (size 15 to 20)
#    0.000    1.000    4.000    2.400    2.800    2.800 
#    0.000    3.000    0.000   10.800    0.000    0.000 
#    0.000    0.000    0.000    0.000    0.000    0.000 
#
# Total GULP energy -247825.331193 kJ/mol
# GULP energy per Si atom -12391.266560 kJ/mol
# Density = 2.291361 g / cm^3
# Si number density = 22.965877 Si / 1000 Ang^3
#
#
#
# Elastic Constant Matrix: (Units=GPa)
#
#
# Indices 1 2 3 4 5 6 
#
# 1 132.9313 58.5158 51.1444 0.0000 9.1962 0.0000
# 2 58.5158 109.1558 44.0280 0.0000 9.0596 0.0000
# 3 51.1444 44.0280 142.8872 0.0000 2.5371 0.0000
# 4 0.0000 0.0000 0.0000 -22.6155 0.0000 -42.2603
# 5 9.1962 9.0596 2.5371 0.0000 43.9753 0.0000
# 6 0.0000 0.0000 0.0000 -42.2603 0.0000 -17.6581
#
#
#
# Elastic Compliance Matrix: (Units=1/GPa)
#
#
# Indices 1 2 3 4 5 6 
#
# 1 0.010525 -0.004611 -0.002327 0.000000 -0.001117 0.000000
# 2 -0.004611 0.012655 -0.002222 0.000000 -0.001515 0.000000
# 3 -0.002327 -0.002222 0.008508 0.000000 0.000453 0.000000
# 4 0.000000 0.000000 0.000000 0.012735 0.000000 -0.030478
# 5 -0.001117 -0.001515 0.000453 0.000000 0.023259 0.000000
# 6 0.000000 0.000000 0.000000 -0.030478 0.000000 0.016310
#
#
# Mechanical properties :
#
#
# Convention : Reuss Voigt Hill
#
# Bulk Modulus (GPa) = 74.80275 76.92784 75.86529
# Shear Modulus (GPa) = 46.83054 16.15940 31.49497
#
# Velocity S-wave (km/s) = 4.52058 2.65547 3.70723
# Velocity P-wave (km/s) = 7.73883 6.55525 7.17150
#
# Compressibility (1/GPa) = 0.01336849
#
# Stress axis : x y z
#
# Youngs Moduli (GPa) = 95.01353 79.01991 117.53735
#
# Poissons Ratio (x) = 0.36436 0.27346
# Poissons Ratio (y) = 0.43811 0.26118
# Poissons Ratio (z) = 0.22106 0.17559
#
# Static dielectric constant tensor:
#      x y z
#    x 13.823640 0.000000 -5.625660 
#    y 0.000000 3.773660 0.000000 
#    z -5.625660 0.000000 8.179130 
# 
# 
# High freq. dielectric constant tensor:
#      x y z
#    x 1.930120 0.000000 0.003900 
#    y 0.000000 1.873730 0.000000 
#    z 0.003900 0.000000 1.924650 
# 
# From -- ./inp_files/125019.got.cif
#   From: 2010.06.25/outbox.cif.g09.slc.cpg/sg12_63_cif.got.tgz:125019.got - 2010.06.28 00:19:55.
