data_PCOD8112219
_publ_section_title
;
Structure prediction by ZEFSAII (Michael W. Deem and Ramdas Pophale) SiO2 
 PCOD8112219
Probable space group: C 2/M
;
_chemical_formula_sum "Si O2"
_cell_formula_units_Z 64
_cell_length_a 18.509636
_cell_length_b 13.988677
_cell_length_c 19.185400
_cell_angle_alpha 90.000000
_cell_angle_beta 143.800566
_cell_angle_gamma 90.000000
_cell_volume 2933.844741
_symmetry_space_group_name_H-M "C 2/M"
_symmetry_group_IT_number 12
_symmetry_cell_setting 'monoclinic'
loop_
_space_group_symop_operation_xyz
x,y,z
-x,y,-z
-x,-y,-z
x,-y,z
1/2+x,1/2+y,z
1/2-x,1/2+y,-z
1/2-x,1/2-y,-z
1/2+x,1/2-y,z
loop_
_atom_site_type_symbol
_atom_site_label
_atom_site_fract_x
_atom_site_fract_y
_atom_site_fract_z
Si Si1 0.696115 0.646340 0.453725
Si Si2 0.677604 0.392585 0.279163
Si Si3 0.263774 0.896711 0.647266
Si Si4 0.717689 0.780456 0.050663
Si Si5 0.871352 0.751918 0.383695
Si Si6 0.509516 0.112724 0.086661
Si Si7 0.421262 0.385268 0.291181
Si Si8 0.431766 0.608280 0.019658
O O1 0.750000 0.750000 0.500000
O O2 0.712902 0.609432 0.388306
O O3 0.781684 0.591223 0.577482
O O4 0.556378 0.634890 0.368651
O O5 0.695802 0.500000 0.265138
O O6 0.765523 0.327766 0.299003
O O7 0.535003 0.363773 0.157992
O O8 0.151421 0.823849 0.568972
O O9 0.374002 0.850034 0.778279
O O10 0.233143 0.000000 0.655604
O O11 0.830474 0.843771 0.163335
O O12 0.750000 0.750000 0.000000
O O13 0.605279 0.852851 0.959517
O O14 0.680296 0.684010 0.064497
O O15 0.879386 0.822369 0.324511
O O16 0.000000 0.699747 0.500000
O O17 0.512856 0.000000 0.087043
O O18 0.500000 0.154034 0.000000
O O19 0.402933 0.500000 0.289756
O O20 0.381900 0.500000 0.992831
O O21 0.500000 0.616549 0.000000
#
# Coordination Sequence:
#
# PCOD8112219 Si02
#       8
#     8   8   8   8   8   8   8   8
#     4  12  24  43  67  94 136 174 230 274 327 398
#     4  11  23  42  69  96 130 179 231 281 338 404
#     4  11  22  38  66  94 129 174 222 274 326 393
#     4  12  25  39  65  96 137 171 210 266 334 399
#     4  12  23  40  63  98 135 170 220 282 334 399
#     4  10  22  42  66  94 128 171 221 270 323 390
#     4  12  26  44  69 100 138 177 219 274 342 405
#     4  10  22  43  69  94 123 170 230 279 322 394
#
# _framework density 21.814378000000001
#
# number of rings (size 3 to 8) (size 9 to 14) (size 15 to 20)
#    0.000    0.750    2.500    5.250    1.750    3.750 
#    0.000    0.000    0.000    0.000    0.000    0.000 
#    0.000    0.000    0.000    0.000    0.000    0.000 
#
# Total GULP energy -396423.173947 kJ/mol
# GULP energy per Si atom -12388.224186 kJ/mol
# Density = 2.176473 g / cm^3
# Si number density = 21.814378 Si / 1000 Ang^3
#
#
#
# Elastic Constant Matrix: (Units=GPa)
#
#
# Indices 1 2 3 4 5 6 
#
# 1 100.2344 36.3170 50.6208 0.0000 -6.7905 0.0000
# 2 36.3170 109.8603 32.5092 0.0000 16.7922 0.0000
# 3 50.6208 32.5092 109.8889 0.0000 1.6180 0.0000
# 4 0.0000 0.0000 0.0000 29.9256 0.0000 -7.5580
# 5 -6.7905 16.7922 1.6180 0.0000 29.6099 0.0000
# 6 0.0000 0.0000 0.0000 -7.5580 0.0000 13.1295
#
#
#
# Elastic Compliance Matrix: (Units=1/GPa)
#
#
# Indices 1 2 3 4 5 6 
#
# 1 0.014734 -0.004117 -0.005658 0.000000 0.006023 0.000000
# 2 -0.004117 0.012110 -0.001572 0.000000 -0.007726 0.000000
# 3 -0.005658 -0.001572 0.012187 0.000000 -0.001072 0.000000
# 4 0.000000 0.000000 0.000000 0.039101 0.000000 0.022508
# 5 0.006023 -0.007726 -0.001072 0.000000 0.039594 0.000000
# 6 0.000000 0.000000 0.000000 0.022508 0.000000 0.089121
#
#
# Mechanical properties :
#
#
# Convention : Reuss Voigt Hill
#
# Bulk Modulus (GPa) = 61.21259 62.09751 61.65505
# Shear Modulus (GPa) = 21.27791 27.90211 24.59001
#
# Velocity S-wave (km/s) = 3.12654 3.58029 3.36108
# Velocity P-wave (km/s) = 6.41524 6.75421 6.58691
#
# Compressibility (1/GPa) = 0.01633651
#
# Stress axis : x y z
#
# Youngs Moduli (GPa) = 67.87196 82.57952 82.05246
#
# Poissons Ratio (x) = 0.33997 0.46424
# Poissons Ratio (y) = 0.27942 0.12901
# Poissons Ratio (z) = 0.38401 0.12983
#
# Static dielectric constant tensor:
#      x y z
#    x 3.943800 0.000000 -0.245590 
#    y 0.000000 4.219740 0.000000 
#    z -0.245590 0.000000 4.586590 
# 
# 
# High freq. dielectric constant tensor:
#      x y z
#    x 1.844820 0.000000 -0.011300 
#    y 0.000000 1.871830 0.000000 
#    z -0.011300 0.000000 1.869970 
# 
# From -- ./inp_files/278187.got.cif
#   From: 2010.06.25/outbox.cif.g09.slc.cpg/sg12_140_cif.got.tgz:278187.got - 2010.06.28 00:19:55.
