data_PCOD8112907
_publ_section_title
;
Structure prediction by ZEFSAII (Michael W. Deem and Ramdas Pophale) SiO2 
 PCOD8112907
Probable space group: C 2/M
;
_chemical_formula_sum "Si O2"
_cell_formula_units_Z 64
_cell_length_a 9.657952
_cell_length_b 23.062559
_cell_length_c 28.147587
_cell_angle_alpha 90.000000
_cell_angle_beta 151.206013
_cell_angle_gamma 90.000000
_cell_volume 3019.783633
_symmetry_space_group_name_H-M "C 2/M"
_symmetry_group_IT_number 12
_symmetry_cell_setting 'monoclinic'
loop_
_space_group_symop_operation_xyz
x,y,z
-x,y,-z
-x,-y,-z
x,-y,z
1/2+x,1/2+y,z
1/2-x,1/2+y,-z
1/2-x,1/2-y,-z
1/2+x,1/2-y,z
loop_
_atom_site_type_symbol
_atom_site_label
_atom_site_fract_x
_atom_site_fract_y
_atom_site_fract_z
Si Si1 0.166213 0.064270 0.277526
Si Si2 0.631912 0.835158 0.728534
Si Si3 0.691129 0.739200 0.427277
Si Si4 0.258054 0.862490 0.707275
Si Si5 0.297710 0.567896 0.606338
Si Si6 0.682583 0.864978 0.914622
Si Si7 0.515440 0.064260 0.057998
Si Si8 0.295169 0.265755 0.068272
O O1 0.312854 0.106748 0.284107
O O2 0.163449 0.093518 0.328889
O O3 0.841412 0.055111 0.167157
O O4 0.316539 0.000000 0.321373
O O5 0.426334 0.796187 0.634356
O O6 0.451619 0.853846 0.719910
O O7 0.930302 0.805680 0.836246
O O8 0.750000 0.750000 0.500000
O O9 0.436976 0.693706 0.340484
O O10 0.000000 0.719414 0.500000
O O11 0.450619 0.888607 0.808114
O O12 0.028100 0.914288 0.635344
O O13 0.296844 0.500000 0.610099
O O14 0.000000 0.594312 0.500000
O O15 0.620619 0.885710 0.949752
O O16 0.656477 0.796889 0.894177
O O17 0.000000 0.888610 0.000000
O O18 0.364896 0.000000 0.018341
O O19 0.500000 0.087915 0.000000
O O20 0.250000 0.250000 0.000000
O O21 0.000000 0.294073 0.000000
#
# Coordination Sequence:
#
# PCOD8112907 Si02
#       8
#     8   8   8   8   8   8   8   8
#     4  10  24  44  67  98 133 175 228 280 342 416
#     4  12  27  43  69 101 137 181 228 286 348 408
#     4  12  27  46  68  99 141 179 227 285 348 412
#     4  12  25  44  68 100 136 177 232 283 346 413
#     4  10  23  45  73 101 133 179 232 289 355 416
#     4  11  24  42  65  96 138 174 222 282 340 407
#     4  10  23  42  65  95 133 181 231 276 334 405
#     4  11  26  42  63  94 135 176 223 270 335 406
#
# _framework density 21.193570999999999
#
# number of rings (size 3 to 8) (size 9 to 14) (size 15 to 20)
#    0.000    1.000    3.750    1.875    8.750    0.750 
#    0.000    0.000    0.000    2.625    0.000    0.000 
#    0.000    0.000    0.000    0.000    0.000    0.000 
#
# Total GULP energy -396474.842469 kJ/mol
# GULP energy per Si atom -12389.838827 kJ/mol
# Density = 2.114533 g / cm^3
# Si number density = 21.193571 Si / 1000 Ang^3
#
#
#
# Elastic Constant Matrix: (Units=GPa)
#
#
# Indices 1 2 3 4 5 6 
#
# 1 177.6183 52.1902 79.3082 -0.0096 9.1645 -0.0056
# 2 52.1902 71.6273 38.0391 0.0050 8.7566 0.0017
# 3 79.3082 38.0391 136.6741 -0.0019 3.3656 0.0039
# 4 -0.0096 0.0050 -0.0019 28.2666 -0.0036 1.9133
# 5 9.1645 8.7566 3.3656 -0.0036 46.6219 -0.0011
# 6 -0.0056 0.0017 0.0039 1.9133 -0.0011 38.9602
#
#
#
# Elastic Compliance Matrix: (Units=1/GPa)
#
#
# Indices 1 2 3 4 5 6 
#
# 1 0.008584 -0.004155 -0.003809 0.000003 -0.000632 0.000002
# 2 -0.004155 0.018754 -0.002747 -0.000005 -0.002507 -0.000001
# 3 -0.003809 -0.002747 0.010279 0.000000 0.000523 -0.000001
# 4 0.000003 -0.000005 0.000000 0.035495 0.000003 -0.001743
# 5 -0.000632 -0.002507 0.000523 0.000003 0.022007 0.000000
# 6 0.000002 -0.000001 -0.000001 -0.001743 0.000000 0.025753
#
#
# Mechanical properties :
#
#
# Convention : Reuss Voigt Hill
#
# Bulk Modulus (GPa) = 61.74756 80.55498 71.15127
# Shear Modulus (GPa) = 33.85425 37.19523 35.52474
#
# Velocity S-wave (km/s) = 4.00106 4.19385 4.09859
# Velocity P-wave (km/s) = 7.10936 7.84492 7.48618
#
# Compressibility (1/GPa) = 0.01619497
#
# Stress axis : x y z
#
# Youngs Moduli (GPa) = 116.49123 53.32286 97.28725
#
# Poissons Ratio (x) = 0.22153 0.37061
# Poissons Ratio (y) = 0.48397 0.26725
# Poissons Ratio (z) = 0.44376 0.14648
#
# Static dielectric constant tensor:
#      x y z
#    x 4.065360 -0.000200 0.120020 
#    y -0.000200 4.046640 -0.000270 
#    z 0.120020 -0.000270 4.324250 
# 
# 
# High freq. dielectric constant tensor:
#      x y z
#    x 1.832660 0.000000 -0.006140 
#    y 0.000000 1.830170 0.000000 
#    z -0.006140 0.000000 1.847390 
# 
# From -- ./inp_files/373287.got.cif
#   From: 2010.06.25/outbox.cif.g09.slc.cpg/sg12_187_cif.got.tgz:373287.got - 2010.06.28 00:19:55.
