data_PCOD8112491
_publ_section_title
;
Structure prediction by ZEFSAII (Michael W. Deem and Ramdas Pophale) SiO2 
 PCOD8112491
Probable space group: C 2/M
;
_chemical_formula_sum "Si O2"
_cell_formula_units_Z 52
_cell_length_a 9.152480
_cell_length_b 26.192384
_cell_length_c 12.591721
_cell_angle_alpha 90.000000
_cell_angle_beta 122.684056
_cell_angle_gamma 90.000000
_cell_volume 2540.599203
_symmetry_space_group_name_H-M "C 2/M"
_symmetry_group_IT_number 12
_symmetry_cell_setting 'monoclinic'
loop_
_space_group_symop_operation_xyz
x,y,z
-x,y,-z
-x,-y,-z
x,-y,z
1/2+x,1/2+y,z
1/2-x,1/2+y,-z
1/2-x,1/2-y,-z
1/2+x,1/2-y,z
loop_
_atom_site_type_symbol
_atom_site_label
_atom_site_fract_x
_atom_site_fract_y
_atom_site_fract_z
Si Si1 0.890503 0.406410 0.556176
Si Si2 0.169439 0.558096 0.239935
Si Si3 0.487993 0.621530 0.615457
Si Si4 0.776071 0.809884 0.000897
Si Si5 0.000000 0.624437 0.000000
Si Si6 0.089876 0.689781 0.721456
Si Si7 0.927245 0.209209 0.746170
O O1 0.893253 0.441742 0.661754
O O2 0.696753 0.404446 0.433588
O O3 0.000000 0.428948 0.500000
O O4 0.960482 0.351085 0.620193
O O5 0.175133 0.500000 0.202593
O O6 0.360689 0.581472 0.298452
O O7 0.032657 0.589289 0.115638
O O8 0.500000 0.639271 0.500000
O O9 0.501719 0.673617 0.684052
O O10 0.666558 0.839648 0.047768
O O11 0.715781 0.832429 0.863696
O O12 0.750000 0.750000 0.000000
O O13 0.981356 0.813057 0.109918
O O14 0.219297 0.708581 0.678986
O O15 0.975644 0.733531 0.731405
#
# Coordination Sequence:
#
# PCOD8112491 Si02
#       7
#     8   8   8   8   4   8   8
#     4  11  23  42  62  93 129 169 215 264 318 382
#     4  11  25  45  70  96 123 164 218 275 332 379
#     4  10  23  39  62  88 125 165 212 258 317 377
#     4  10  23  34  62  92 130 166 210 249 317 378
#     4  12  21  42  70 100 132 162 205 276 318 380
#     4  11  24  37  61  93 132 170 219 256 317 385
#     4  11  23  38  60  91 131 175 209 259 317 388
#
# _framework density 20.467614000000001
#
# number of rings (size 3 to 8) (size 9 to 14) (size 15 to 20)
#    0.000    1.231    4.615    0.692   12.923    4.308 
#    0.000    0.000    0.000    0.000    0.000    4.308 
#    0.000    0.000    0.000    0.000    0.000    0.000 
#
# Total GULP energy -322225.994413 kJ/mol
# GULP energy per Si atom -12393.307477 kJ/mol
# Density = 2.042103 g / cm^3
# Si number density = 20.467614 Si / 1000 Ang^3
#
#
#
# Elastic Constant Matrix: (Units=GPa)
#
#
# Indices 1 2 3 4 5 6 
#
# 1 106.2691 24.2026 12.4768 0.0000 5.8837 0.0000
# 2 24.2026 81.2566 20.0680 0.0000 4.4443 0.0000
# 3 12.4768 20.0680 70.8570 0.0000 4.8046 0.0000
# 4 0.0000 0.0000 0.0000 14.7431 0.0000 -7.1524
# 5 5.8837 4.4443 4.8046 0.0000 31.2130 0.0000
# 6 0.0000 0.0000 0.0000 -7.1524 0.0000 13.2225
#
#
#
# Elastic Compliance Matrix: (Units=1/GPa)
#
#
# Indices 1 2 3 4 5 6 
#
# 1 0.010220 -0.002738 -0.000930 0.000000 -0.001393 0.000000
# 2 -0.002738 0.014020 -0.003424 0.000000 -0.000953 0.000000
# 3 -0.000930 -0.003424 0.015362 0.000000 -0.001702 0.000000
# 4 0.000000 0.000000 0.000000 0.091961 0.000000 0.049744
# 5 -0.001393 -0.000953 -0.001702 0.000000 0.032698 0.000000
# 6 0.000000 0.000000 0.000000 0.049744 0.000000 0.102537
#
#
# Mechanical properties :
#
#
# Convention : Reuss Voigt Hill
#
# Bulk Modulus (GPa) = 39.34185 41.31972 40.33078
# Shear Modulus (GPa) = 17.27391 25.27808 21.27600
#
# Velocity S-wave (km/s) = 2.90826 3.51811 3.22762
# Velocity P-wave (km/s) = 5.52635 6.06090 5.79978
#
# Compressibility (1/GPa) = 0.02541823
#
# Stress axis : x y z
#
# Youngs Moduli (GPa) = 97.84739 71.32649 65.09684
#
# Poissons Ratio (x) = 0.19531 0.06051
# Poissons Ratio (y) = 0.26793 0.22289
# Poissons Ratio (z) = 0.09095 0.24422
#
# Static dielectric constant tensor:
#      x y z
#    x 3.923270 0.000000 0.162980 
#    y 0.000000 3.347820 0.000000 
#    z 0.162980 0.000000 4.248020 
# 
# 
# High freq. dielectric constant tensor:
#      x y z
#    x 1.807990 0.000000 0.002470 
#    y 0.000000 1.767330 0.000000 
#    z 0.002470 0.000000 1.813590 
# 
# From -- ./inp_files/125399.got.cif
#   From: 2010.06.25/outbox.cif.g09.slc.cpg/sg12_63_cif.got.tgz:125399.got - 2010.06.28 00:19:55.
