data_PCOD8112750
_publ_section_title
;
Structure prediction by ZEFSAII (Michael W. Deem and Ramdas Pophale) SiO2 
 PCOD8112750
Probable space group: C 2/M
;
_chemical_formula_sum "Si O2"
_cell_formula_units_Z 48
_cell_length_a 32.777996
_cell_length_b 12.758989
_cell_length_c 11.960768
_cell_angle_alpha 90.000000
_cell_angle_beta 30.528763
_cell_angle_gamma 90.000000
_cell_volume 2540.952309
_symmetry_space_group_name_H-M "C 2/M"
_symmetry_group_IT_number 12
_symmetry_cell_setting 'monoclinic'
loop_
_space_group_symop_operation_xyz
x,y,z
-x,y,-z
-x,-y,-z
x,-y,z
1/2+x,1/2+y,z
1/2-x,1/2+y,-z
1/2-x,1/2-y,-z
1/2+x,1/2-y,z
loop_
_atom_site_type_symbol
_atom_site_label
_atom_site_fract_x
_atom_site_fract_y
_atom_site_fract_z
Si Si1 0.221434 0.879018 0.362417
Si Si2 0.471096 0.879605 0.441834
Si Si3 0.911926 0.882439 0.736788
Si Si4 0.171352 0.219722 0.250862
Si Si5 0.081124 0.880046 0.870638
Si Si6 0.384835 0.764770 0.999788
O O1 0.188706 0.814077 0.335275
O O2 0.156920 0.867444 0.611724
O O3 0.304730 0.831384 0.210190
O O4 0.235007 0.000000 0.296720
O O5 0.500000 0.863476 0.500000
O O6 0.390115 0.816491 0.607230
O O7 0.450983 0.000000 0.464356
O O8 0.541547 0.843574 0.192472
O O9 0.864410 0.879094 0.732228
O O10 0.000000 0.838873 0.500000
O O11 0.915008 0.000000 0.776535
O O12 0.870623 0.808774 0.925825
O O13 0.250000 0.250000 0.000000
O O14 0.094333 0.806832 0.944787
O O15 0.072192 0.000000 0.932779
O O16 0.000000 0.844291 0.000000
#
# Coordination Sequence:
#
# PCOD8112750 Si02
#       6
#     8   8   8   8   8   8
#     4  11  24  40  62  90 120 159 201 244 296 356
#     4  11  22  38  60  87 121 160 201 243 294 357
#     4  11  22  36  58  88 120 157 197 244 298 349
#     4  12  21  39  58  88 124 157 197 242 296 356
#     4  10  23  41  64  90 117 156 202 248 298 352
#     4  12  20  41  62  87 120 158 198 249 294 354
#
# _framework density 18.890554999999999
#
# number of rings (size 3 to 8) (size 9 to 14) (size 15 to 20)
#    0.000    0.833    5.000    3.000    0.000    2.667 
#    0.000    0.000    0.000   11.000    0.000    0.000 
#    0.000    0.000    0.000    0.000    0.000    0.000 
#
# Total GULP energy -297656.030108 kJ/mol
# GULP energy per Si atom -12402.334588 kJ/mol
# Density = 1.884756 g / cm^3
# Si number density = 18.890555 Si / 1000 Ang^3
#
#
#
# Elastic Constant Matrix: (Units=GPa)
#
#
# Indices 1 2 3 4 5 6 
#
# 1 112.1543 57.3710 43.0279 0.0000 -6.8183 0.0000
# 2 57.3710 127.1032 55.0900 0.0000 -3.8918 0.0000
# 3 43.0279 55.0900 128.9390 0.0000 -18.3733 0.0000
# 4 0.0000 0.0000 0.0000 21.9019 0.0000 -1.9273
# 5 -6.8183 -3.8918 -18.3733 0.0000 32.0747 0.0000
# 6 0.0000 0.0000 0.0000 -1.9273 0.0000 33.4378
#
#
#
# Elastic Compliance Matrix: (Units=1/GPa)
#
#
# Indices 1 2 3 4 5 6 
#
# 1 0.012054 -0.004572 -0.001942 0.000000 0.000896 0.000000
# 2 -0.004572 0.011440 -0.003596 0.000000 -0.001644 0.000000
# 3 -0.001942 -0.003596 0.010692 0.000000 0.005275 0.000000
# 4 0.000000 0.000000 0.000000 0.045891 0.000000 0.002645
# 5 0.000896 -0.001644 0.005275 0.000000 0.034190 0.000000
# 6 0.000000 0.000000 0.000000 0.002645 0.000000 0.030059
#
#
# Mechanical properties :
#
#
# Convention : Reuss Voigt Hill
#
# Bulk Modulus (GPa) = 71.60174 75.46382 73.53278
# Shear Modulus (GPa) = 29.55070 31.66338 30.60704
#
# Velocity S-wave (km/s) = 3.95943 4.09852 4.02957
# Velocity P-wave (km/s) = 7.67388 7.90138 7.78846
#
# Compressibility (1/GPa) = 0.01396614
#
# Stress axis : x y z
#
# Youngs Moduli (GPa) = 82.95723 87.41502 93.53004
#
# Poissons Ratio (x) = 0.39967 0.18160
# Poissons Ratio (y) = 0.37929 0.33635
# Poissons Ratio (z) = 0.16107 0.31436
#
# Static dielectric constant tensor:
#      x y z
#    x 3.264070 0.000000 -0.135720 
#    y 0.000000 3.294270 0.000000 
#    z -0.135720 0.000000 3.490780 
# 
# 
# High freq. dielectric constant tensor:
#      x y z
#    x 1.729400 0.000000 -0.007000 
#    y 0.000000 1.743290 0.000000 
#    z -0.007000 0.000000 1.748520 
# 
# From -- ./inp_files/189369.got.cif
#   From: 2010.06.25/outbox.cif.g09.slc.cpg/sg12_95_cif.got.tgz:189369.got - 2010.06.28 00:19:55.
