data_PCOD8112927
_publ_section_title
;
Structure prediction by ZEFSAII (Michael W. Deem and Ramdas Pophale) SiO2 
 PCOD8112927
Probable space group: C 2/M
;
_chemical_formula_sum "Si O2"
_cell_formula_units_Z 32
_cell_length_a 10.265199
_cell_length_b 14.924054
_cell_length_c 16.594351
_cell_angle_alpha 90.000000
_cell_angle_beta 33.883442
_cell_angle_gamma 90.000000
_cell_volume 1417.305244
_symmetry_space_group_name_H-M "C 2/M"
_symmetry_group_IT_number 12
_symmetry_cell_setting 'monoclinic'
loop_
_space_group_symop_operation_xyz
x,y,z
-x,y,-z
-x,-y,-z
x,-y,z
1/2+x,1/2+y,z
1/2-x,1/2+y,-z
1/2-x,1/2-y,-z
1/2+x,1/2-y,z
loop_
_atom_site_type_symbol
_atom_site_label
_atom_site_fract_x
_atom_site_fract_y
_atom_site_fract_z
Si Si1 0.500000 0.646198 0.500000
Si Si2 0.511281 0.500000 0.808399
Si Si3 0.485247 0.815198 0.781184
Si Si4 0.911219 0.500000 0.732968
Si Si5 0.809549 0.342399 0.041124
Si Si6 0.568844 0.500000 0.587943
O O1 0.454576 0.586360 0.603366
O O2 0.741603 0.702542 0.384544
O O3 0.741772 0.500000 0.743526
O O4 0.371102 0.411875 0.904175
O O5 0.538825 0.500000 0.698178
O O6 0.322769 0.732705 0.834914
O O7 0.385642 0.910426 0.800240
O O8 0.458027 0.803169 0.890930
O O9 0.159625 0.500000 0.565758
O O10 0.000000 0.391081 0.000000
#
# Coordination Sequence:
#
# PCOD8112927 Si02
#       6
#     4   4   8   4   8   4
#     4   9  18  42  70  91 126 176 210 257 324 379
#     4  12  24  41  65  96 129 174 209 268 320 378
#     4  10  23  42  66  97 127 168 216 262 316 385
#     4  10  23  42  67  94 131 175 207 260 326 381
#     4  11  25  41  64  95 131 163 217 271 313 378
#     4   9  19  39  65  97 130 163 219 263 308 382
#
# _framework density 22.578057999999999
#
# number of rings (size 3 to 8) (size 9 to 14) (size 15 to 20)
#    0.000    1.750    0.000    3.750    7.000    1.000 
#    4.500    3.750    0.000    0.000    0.000    0.000 
#    0.000    0.000    0.000    0.000    0.000    0.000 
#
# Total GULP energy -198251.501538 kJ/mol
# GULP energy per Si atom -12390.718846 kJ/mol
# Density = 2.252667 g / cm^3
# Si number density = 22.578058 Si / 1000 Ang^3
#
#
#
# Elastic Constant Matrix: (Units=GPa)
#
#
# Indices 1 2 3 4 5 6 
#
# 1 115.9268 14.5515 20.4011 -0.0101 -8.8996 0.0029
# 2 14.5515 98.3573 25.9823 -0.0058 -14.5455 0.0014
# 3 20.4011 25.9823 88.4813 -0.0178 6.6153 0.0000
# 4 -0.0101 -0.0058 -0.0178 28.2545 0.0049 4.5515
# 5 -8.8996 -14.5455 6.6153 0.0049 23.7537 -0.0003
# 6 0.0029 0.0014 0.0000 4.5515 -0.0003 21.8710
#
#
#
# Elastic Compliance Matrix: (Units=1/GPa)
#
#
# Indices 1 2 3 4 5 6 
#
# 1 0.009387 -0.000139 -0.002431 0.000001 0.004109 -0.000001
# 2 -0.000139 0.012654 -0.004350 -0.000002 0.008908 0.000000
# 3 -0.002431 -0.004350 0.013692 0.000008 -0.007387 -0.000001
# 4 0.000001 -0.000002 0.000008 0.036620 -0.000010 -0.007621
# 5 0.004109 0.008908 -0.007387 -0.000010 0.051150 0.000002
# 6 -0.000001 0.000000 -0.000001 -0.007621 0.000002 0.047309
#
#
# Mechanical properties :
#
#
# Convention : Reuss Voigt Hill
#
# Bulk Modulus (GPa) = 45.67522 47.18169 46.42846
# Shear Modulus (GPa) = 26.04865 30.89785 28.47325
#
# Velocity S-wave (km/s) = 3.40032 3.70332 3.55505
# Velocity P-wave (km/s) = 5.97412 6.26328 6.12041
#
# Compressibility (1/GPa) = 0.02189371
#
# Stress axis : x y z
#
# Youngs Moduli (GPa) = 106.53315 79.02669 73.03610
#
# Poissons Ratio (x) = 0.01099 0.17752
# Poissons Ratio (y) = 0.01481 0.31769
# Poissons Ratio (z) = 0.25894 0.34375
#
# Static dielectric constant tensor:
#      x y z
#    x 4.005400 -0.000010 -0.156330 
#    y -0.000010 4.044340 0.000020 
#    z -0.156330 0.000020 4.041130 
# 
# 
# High freq. dielectric constant tensor:
#      x y z
#    x 1.894810 0.000000 -0.008680 
#    y 0.000000 1.874240 0.000000 
#    z -0.008680 0.000000 1.896120 
# 
# From -- ./inp_files/263169.got.cif
#   From: 2010.06.25/outbox.cif.g09.slc.cpg/sg12_132_cif.got.tgz:263169.got - 2010.06.28 00:19:55.
