data_PCOD8112223
_publ_section_title
;
Structure prediction by ZEFSAII (Michael W. Deem and Ramdas Pophale) SiO2 
 PCOD8112223
Probable space group: C 2/M
;
_chemical_formula_sum "Si O2"
_cell_formula_units_Z 48
_cell_length_a 15.781631
_cell_length_b 8.636550
_cell_length_c 16.804516
_cell_angle_alpha 90.000000
_cell_angle_beta 90.804673
_cell_angle_gamma 90.000000
_cell_volume 2290.210247
_symmetry_space_group_name_H-M "C 2/M"
_symmetry_group_IT_number 12
_symmetry_cell_setting 'monoclinic'
loop_
_space_group_symop_operation_xyz
x,y,z
-x,y,-z
-x,-y,-z
x,-y,z
1/2+x,1/2+y,z
1/2-x,1/2+y,-z
1/2-x,1/2-y,-z
1/2+x,1/2-y,z
loop_
_atom_site_type_symbol
_atom_site_label
_atom_site_fract_x
_atom_site_fract_y
_atom_site_fract_z
Si Si1 0.753240 0.316623 0.912659
Si Si2 0.098608 0.177732 0.493177
Si Si3 0.168467 0.677443 0.338054
Si Si4 0.592970 0.681968 0.808618
Si Si5 0.919729 0.679101 0.822898
Si Si6 0.657749 0.179417 0.654763
O O1 0.752156 0.500000 0.915882
O O2 0.670574 0.257560 0.863770
O O3 0.839077 0.257740 0.871276
O O4 0.750000 0.250000 0.000000
O O5 0.131943 0.286212 0.423848
O O6 0.143970 0.222515 0.575086
O O7 0.000000 0.207651 0.500000
O O8 0.119788 0.000000 0.473027
O O9 0.199894 0.500000 0.335450
O O10 0.096721 0.705690 0.271043
O O11 0.246547 0.787815 0.316513
O O12 0.599109 0.500000 0.794703
O O13 0.503697 0.725893 0.848856
O O14 0.594772 0.766710 0.723395
O O15 0.935848 0.500000 0.842856
O O16 0.642319 0.000000 0.636619
#
# Coordination Sequence:
#
# PCOD8112223 Si02
#       6
#     8   8   8   8   8   8
#     4  10  23  44  67  94 130 167 206 257 317 377
#     4  11  24  40  58  86 123 163 212 263 313 370
#     4  11  22  40  63  87 124 166 210 262 315 370
#     4  11  23  42  66  95 130 167 210 262 317 373
#     4  10  22  42  66  94 129 169 211 258 315 377
#     4  12  24  39  62  90 122 165 214 259 314 374
#
# _framework density 20.958774999999999
#
# number of rings (size 3 to 8) (size 9 to 14) (size 15 to 20)
#    0.000    1.167    1.667    4.500    0.000    8.000 
#    0.000    3.333    0.000    0.000    0.000    0.000 
#    0.000    0.000    0.000    0.000    0.000    0.000 
#
# Total GULP energy -297739.353957 kJ/mol
# GULP energy per Si atom -12405.806415 kJ/mol
# Density = 2.091107 g / cm^3
# Si number density = 20.958775 Si / 1000 Ang^3
#
#
#
# Elastic Constant Matrix: (Units=GPa)
#
#
# Indices 1 2 3 4 5 6 
#
# 1 143.0396 37.9711 50.9676 0.0000 -7.9048 0.0000
# 2 37.9711 47.8087 16.2969 0.0000 -0.4725 0.0000
# 3 50.9676 16.2969 122.7114 0.0000 -8.1940 0.0000
# 4 0.0000 0.0000 0.0000 37.7435 0.0000 -3.8357
# 5 -7.9048 -0.4725 -8.1940 0.0000 22.4548 0.0000
# 6 0.0000 0.0000 0.0000 -3.8357 0.0000 37.1910
#
#
#
# Elastic Compliance Matrix: (Units=1/GPa)
#
#
# Indices 1 2 3 4 5 6 
#
# 1 0.010057 -0.006905 -0.003109 0.000000 0.002261 0.000000
# 2 -0.006905 0.026658 -0.000817 0.000000 -0.002168 0.000000
# 3 -0.003109 -0.000817 0.009711 0.000000 0.002432 0.000000
# 4 0.000000 0.000000 0.000000 0.026775 0.000000 0.002761
# 5 0.002261 -0.002168 0.002432 0.000000 0.046171 0.000000
# 6 0.000000 0.000000 0.000000 0.002761 0.000000 0.027173
#
#
# Mechanical properties :
#
#
# Convention : Reuss Voigt Hill
#
# Bulk Modulus (GPa) = 40.38179 58.22566 49.30372
# Shear Modulus (GPa) = 28.33442 33.36614 30.85028
#
# Velocity S-wave (km/s) = 3.68082 3.99430 3.84076
# Velocity P-wave (km/s) = 6.11340 7.00813 6.57600
#
# Compressibility (1/GPa) = 0.02476364
#
# Stress axis : x y z
#
# Youngs Moduli (GPa) = 99.43435 37.51188 102.97124
#
# Poissons Ratio (x) = 0.25903 0.32014
# Poissons Ratio (y) = 0.68663 0.08413
# Poissons Ratio (z) = 0.30915 0.03065
#
# Static dielectric constant tensor:
#      x y z
#    x 3.970850 0.000000 -0.007080 
#    y 0.000000 3.655530 0.000000 
#    z -0.007080 0.000000 3.611510 
# 
# 
# High freq. dielectric constant tensor:
#      x y z
#    x 1.835780 0.000000 -0.001990 
#    y 0.000000 1.816770 0.000000 
#    z -0.001990 0.000000 1.818470 
# 
# From -- ./inp_files/221536.got.cif
#   From: 2010.06.25/outbox.cif.g09.slc.cpg/sg12_111_cif.got.tgz:221536.got - 2010.06.28 00:19:55.
