data_PCOD8112496
_publ_section_title
;
Structure prediction by ZEFSAII (Michael W. Deem and Ramdas Pophale) SiO2 
 PCOD8112496
Probable space group: C 2/M
;
_chemical_formula_sum "Si O2"
_cell_formula_units_Z 40
_cell_length_a 8.526240
_cell_length_b 21.774562
_cell_length_c 14.933348
_cell_angle_alpha 90.000000
_cell_angle_beta 129.791660
_cell_angle_gamma 90.000000
_cell_volume 2130.288134
_symmetry_space_group_name_H-M "C 2/M"
_symmetry_group_IT_number 12
_symmetry_cell_setting 'monoclinic'
loop_
_space_group_symop_operation_xyz
x,y,z
-x,y,-z
-x,-y,-z
x,-y,z
1/2+x,1/2+y,z
1/2-x,1/2+y,-z
1/2-x,1/2-y,-z
1/2+x,1/2-y,z
loop_
_atom_site_type_symbol
_atom_site_label
_atom_site_fract_x
_atom_site_fract_y
_atom_site_fract_z
Si Si1 0.111757 0.430316 0.677135
Si Si2 0.685843 0.570102 0.438316
Si Si3 0.939809 0.186641 0.380675
Si Si4 0.528328 0.751783 0.236928
Si Si5 0.161945 0.832303 0.132183
O O1 0.113208 0.500000 0.711534
O O2 0.255301 0.423081 0.643508
O O3 0.197256 0.389173 0.788138
O O4 0.880688 0.410175 0.569390
O O5 0.620090 0.500000 0.435025
O O6 0.497312 0.614625 0.392778
O O7 0.697661 0.196006 0.279825
O O8 0.000000 0.212504 0.500000
O O9 0.056632 0.226688 0.348468
O O10 0.306042 0.780805 0.140658
O O11 0.546562 0.694841 0.176129
O O12 0.000000 0.855176 0.000000
#
# Coordination Sequence:
#
# PCOD8112496 Si02
#       5
#     8   8   8   8   8
#     4   9  18  34  56  82 107 138 180 221 268 319
#     4   9  18  34  56  80 111 142 171 218 273 325
#     4  11  20  34  54  81 113 144 173 216 272 326
#     4  10  23  36  51  81 113 142 179 221 265 320
#     4  11  21  38  58  78 106 145 186 224 262 310
#
# _framework density 18.776803000000001
#
# number of rings (size 3 to 8) (size 9 to 14) (size 15 to 20)
#    0.000    2.000    2.000    3.600    0.000    2.400 
#    0.000    1.000    0.000    0.000    0.000    2.800 
#    0.000    0.000    0.000    0.000    0.000    0.000 
#
# Total GULP energy -248011.719212 kJ/mol
# GULP energy per Si atom -12400.585961 kJ/mol
# Density = 1.873407 g / cm^3
# Si number density = 18.776803 Si / 1000 Ang^3
#
#
#
# Elastic Constant Matrix: (Units=GPa)
#
#
# Indices 1 2 3 4 5 6 
#
# 1 74.0610 32.5782 24.3161 0.0000 -3.6336 0.0000
# 2 32.5782 96.5427 45.6130 0.0000 3.7112 0.0000
# 3 24.3161 45.6130 98.6231 0.0000 -1.8243 0.0000
# 4 0.0000 0.0000 0.0000 25.7350 0.0000 5.8235
# 5 -3.6336 3.7112 -1.8243 0.0000 18.4615 0.0000
# 6 0.0000 0.0000 0.0000 5.8235 0.0000 25.0989
#
#
#
# Elastic Compliance Matrix: (Units=1/GPa)
#
#
# Indices 1 2 3 4 5 6 
#
# 1 0.016412 -0.004884 -0.001713 0.000000 0.004043 0.000000
# 2 -0.004884 0.014909 -0.005775 0.000000 -0.004529 0.000000
# 3 -0.001713 -0.005775 0.013272 0.000000 0.002135 0.000000
# 4 0.000000 0.000000 0.000000 0.041011 0.000000 -0.009515
# 5 0.004043 -0.004529 0.002135 0.000000 0.056084 0.000000
# 6 0.000000 0.000000 0.000000 -0.009515 0.000000 0.042050
#
#
# Mechanical properties :
#
#
# Convention : Reuss Voigt Hill
#
# Bulk Modulus (GPa) = 50.38013 52.69350 51.53681
# Shear Modulus (GPa) = 23.24530 24.97371 24.10950
#
# Velocity S-wave (km/s) = 3.52231 3.65091 3.58719
# Velocity P-wave (km/s) = 6.59026 6.77468 6.68310
#
# Compressibility (1/GPa) = 0.01984910
#
# Stress axis : x y z
#
# Youngs Moduli (GPa) = 60.93273 67.07444 75.34539
#
# Poissons Ratio (x) = 0.32761 0.12904
# Poissons Ratio (y) = 0.29761 0.43511
# Poissons Ratio (z) = 0.10435 0.38734
#
# Static dielectric constant tensor:
#      x y z
#    x 3.482200 0.000000 -0.069760 
#    y 0.000000 3.373420 0.000000 
#    z -0.069760 0.000000 3.189500 
# 
# 
# High freq. dielectric constant tensor:
#      x y z
#    x 1.733840 0.000000 -0.003630 
#    y 0.000000 1.725480 0.000000 
#    z -0.003630 0.000000 1.704970 
# 
# From -- ./inp_files/39233.got.cif
#   From: 2010.06.25/outbox.cif.g09.slc.cpg/sg12_20_cif.got.tgz:39233.got - 2010.06.28 00:19:55.
