data_PCOD8112003
_publ_section_title
;
Structure prediction by ZEFSAII (Michael W. Deem and Ramdas Pophale) SiO2 
 PCOD8112003
Probable space group: C 2/M
;
_chemical_formula_sum "Si O2"
_cell_formula_units_Z 64
_cell_length_a 9.379613
_cell_length_b 14.351795
_cell_length_c 23.662510
_cell_angle_alpha 90.000000
_cell_angle_beta 85.429076
_cell_angle_gamma 90.000000
_cell_volume 3175.180769
_symmetry_space_group_name_H-M "C 2/M"
_symmetry_group_IT_number 12
_symmetry_cell_setting 'monoclinic'
loop_
_space_group_symop_operation_xyz
x,y,z
-x,y,-z
-x,-y,-z
x,-y,z
1/2+x,1/2+y,z
1/2-x,1/2+y,-z
1/2-x,1/2-y,-z
1/2+x,1/2-y,z
loop_
_atom_site_type_symbol
_atom_site_label
_atom_site_fract_x
_atom_site_fract_y
_atom_site_fract_z
Si Si1 0.674282 0.152230 0.493706
Si Si2 0.818900 0.606782 0.869634
Si Si3 0.864161 0.105490 0.385386
Si Si4 0.817059 0.898279 0.599458
Si Si5 0.184442 0.267734 0.693137
Si Si6 0.921898 0.743514 0.773413
Si Si7 0.012860 0.891843 0.134601
Si Si8 0.883692 0.247302 0.956941
O O1 0.500000 0.154380 0.500000
O O2 0.750000 0.250000 0.500000
O O3 0.730355 0.113891 0.432239
O O4 0.741508 0.089695 0.541078
O O5 0.871216 0.500000 0.866962
O O6 0.864510 0.656797 0.810762
O O7 0.648889 0.613533 0.882257
O O8 0.895267 0.659372 0.918973
O O9 0.832167 0.163018 0.329629
O O10 0.016971 0.137827 0.408722
O O11 0.875500 0.000000 0.364510
O O12 0.716213 0.831310 0.638410
O O13 0.818178 0.000000 0.627866
O O14 0.302845 0.282591 0.736199
O O15 0.042026 0.299191 0.729277
O O16 0.974145 0.831995 0.808517
O O17 0.112232 0.844255 0.083509
O O18 0.059106 0.000000 0.142787
O O19 0.750000 0.250000 0.000000
O O20 0.000000 0.244939 0.000000
#
# Coordination Sequence:
#
# PCOD8112003 Si02
#       8
#     8   8   8   8   8   8   8   8
#     4  12  25  42  67  94 129 168 206 256 324 390
#     4  10  22  41  65  94 127 171 216 258 313 374
#     4  11  25  44  67  95 126 166 211 259 321 390
#     4  11  25  44  66  95 128 165 210 261 321 388
#     4  12  24  42  65  94 125 164 210 265 324 371
#     4  11  24  42  65  92 127 164 211 271 316 366
#     4  10  22  41  67  93 124 174 220 252 310 383
#     4  11  22  39  63  98 136 167 207 263 313 363
#
# _framework density 20.156331999999999
#
# number of rings (size 3 to 8) (size 9 to 14) (size 15 to 20)
#    0.000    1.000    5.000    1.500    1.750    5.000 
#    0.000    1.250    0.000    0.000    0.000    0.000 
#    0.000    0.000    0.000    0.000    0.000    0.000 
#
# Total GULP energy -396658.365899 kJ/mol
# GULP energy per Si atom -12395.573934 kJ/mol
# Density = 2.011046 g / cm^3
# Si number density = 20.156332 Si / 1000 Ang^3
#
#
#
# Elastic Constant Matrix: (Units=GPa)
#
#
# Indices 1 2 3 4 5 6 
#
# 1 104.1276 10.1974 19.3444 0.0000 -15.5292 0.0000
# 2 10.1974 126.0138 26.9337 0.0000 -12.5745 0.0000
# 3 19.3444 26.9337 92.1908 0.0000 -13.8516 0.0000
# 4 0.0000 0.0000 0.0000 9.3247 0.0000 4.9450
# 5 -15.5292 -12.5745 -13.8516 0.0000 48.3470 0.0000
# 6 0.0000 0.0000 0.0000 4.9450 0.0000 25.2263
#
#
#
# Elastic Compliance Matrix: (Units=1/GPa)
#
#
# Indices 1 2 3 4 5 6 
#
# 1 0.010354 -0.000197 -0.001696 0.000000 0.002789 0.000000
# 2 -0.000197 0.008582 -0.002236 0.000000 0.001528 0.000000
# 3 -0.001696 -0.002236 0.012213 0.000000 0.002373 0.000000
# 4 0.000000 0.000000 0.000000 0.119684 0.000000 -0.023461
# 5 0.002789 0.001528 0.002373 0.000000 0.022657 0.000000
# 6 0.000000 0.000000 0.000000 -0.023461 0.000000 0.044240
#
#
# Mechanical properties :
#
#
# Convention : Reuss Voigt Hill
#
# Bulk Modulus (GPa) = 43.68751 48.36481 46.02616
# Shear Modulus (GPa) = 21.40245 34.30339 27.85292
#
# Velocity S-wave (km/s) = 3.26210 4.12984 3.72135
# Velocity P-wave (km/s) = 5.99248 6.84016 6.43030
#
# Compressibility (1/GPa) = 0.02288984
#
# Stress axis : x y z
#
# Youngs Moduli (GPa) = 96.58248 116.52227 81.88158
#
# Poissons Ratio (x) = 0.02297 0.13887
# Poissons Ratio (y) = 0.01904 0.18311
# Poissons Ratio (z) = 0.16380 0.26058
#
# Static dielectric constant tensor:
#      x y z
#    x 3.746630 0.000000 0.040830 
#    y 0.000000 3.724520 0.000000 
#    z 0.040830 0.000000 4.013860 
# 
# 
# High freq. dielectric constant tensor:
#      x y z
#    x 1.794330 0.000000 -0.002820 
#    y 0.000000 1.787650 0.000000 
#    z -0.002820 0.000000 1.795000 
# 
# From -- ./inp_files/332942.got.cif
#   From: 2010.06.25/outbox.cif.g09.slc.cpg/sg12_167_cif.got.tgz:332942.got - 2010.06.28 00:19:55.
