data_PCOD8112598
_publ_section_title
;
Structure prediction by ZEFSAII (Michael W. Deem and Ramdas Pophale) SiO2 
 PCOD8112598
Probable space group: C 2/M
;
_chemical_formula_sum "Si O2"
_cell_formula_units_Z 60
_cell_length_a 23.549748
_cell_length_b 26.623443
_cell_length_c 14.103352
_cell_angle_alpha 90.000000
_cell_angle_beta 22.743143
_cell_angle_gamma 90.000000
_cell_volume 3418.498105
_symmetry_space_group_name_H-M "C 2/M"
_symmetry_group_IT_number 12
_symmetry_cell_setting 'monoclinic'
loop_
_space_group_symop_operation_xyz
x,y,z
-x,y,-z
-x,-y,-z
x,-y,z
1/2+x,1/2+y,z
1/2-x,1/2+y,-z
1/2-x,1/2-y,-z
1/2+x,1/2-y,z
loop_
_atom_site_type_symbol
_atom_site_label
_atom_site_fract_x
_atom_site_fract_y
_atom_site_fract_z
Si Si1 0.324736 0.688768 0.199372
Si Si2 0.807622 0.346364 0.051139
Si Si3 0.413507 0.057525 0.983720
Si Si4 0.500000 0.301252 0.500000
Si Si5 0.519930 0.202770 0.572697
Si Si6 0.149331 0.302648 0.810735
Si Si7 0.627211 0.650666 0.675307
Si Si8 0.218097 0.556606 0.609449
O O1 0.369576 0.743497 0.164368
O O2 0.300085 0.658124 0.333734
O O3 0.180812 0.687750 0.358282
O O4 0.456229 0.664897 0.935124
O O5 0.853217 0.404981 0.994433
O O6 0.638023 0.338928 0.283543
O O7 0.835801 0.317974 0.104507
O O8 0.901078 0.319174 0.826659
O O9 0.330510 0.069826 0.209132
O O10 0.383725 0.000000 0.997255
O O11 0.586120 0.065420 0.737933
O O12 0.504160 0.263885 0.586174
O O13 0.500000 0.177407 0.500000
O O14 0.288763 0.317396 0.533399
O O15 0.000000 0.327837 0.000000
O O16 0.644591 0.591705 0.626645
O O17 0.275002 0.500000 0.515669
#
# Coordination Sequence:
#
# PCOD8112598 Si02
#       8
#     8   8   8   4   8   8   8   8
#     4  11  23  35  51  77 119 152 185 225 270 337
#     4  12  22  37  61  82 111 148 192 233 287 327
#     4   9  18  34  58  87 112 142 184 231 281 337
#     4  10  24  38  55  82 111 150 194 238 268 326
#     4  10  23  40  55  75 112 154 198 229 266 329
#     4  12  21  32  52  81 113 150 177 224 277 340
#     4  11  22  34  52  86 120 147 180 225 287 332
#     4   9  17  34  57  84 117 147 181 224 276 340
#
# _framework density 17.551566999999999
#
# number of rings (size 3 to 8) (size 9 to 14) (size 15 to 20)
#    0.400    1.067    4.000    4.000    1.867    1.067 
#    0.000    1.667    0.000    1.200    0.000    0.000 
#    0.000    0.000    0.000    0.000    0.000    0.000 
#
# Total GULP energy -371895.700609 kJ/mol
# GULP energy per Si atom -12396.523354 kJ/mol
# Density = 1.751162 g / cm^3
# Si number density = 17.551567 Si / 1000 Ang^3
#
#
#
# Elastic Constant Matrix: (Units=GPa)
#
#
# Indices 1 2 3 4 5 6 
#
# 1 82.4427 16.5205 62.1692 -0.3078 -3.9281 0.0783
# 2 16.5205 99.8799 52.2142 -0.0019 2.8608 -0.0003
# 3 62.1692 52.2142 117.8021 -0.1737 -1.2797 0.0400
# 4 -0.3078 -0.0019 -0.1737-2163.6493 0.7094 558.8597
# 5 -3.9281 2.8608 -1.2797 0.7094 35.5646 -0.1810
# 6 0.0783 -0.0003 0.0400 558.8597 -0.1810 -123.0851
#
#
#
# Elastic Compliance Matrix: (Units=1/GPa)
#
#
# Indices 1 2 3 4 5 6 
#
# 1 0.020907 0.002934 -0.012316 -0.000002 0.001630 -0.000002
# 2 0.002934 0.013500 -0.007543 0.000000 -0.001033 -0.000001
# 3 -0.012316 -0.007543 0.018331 0.000001 -0.000094 0.000003
# 4 -0.000002 0.000000 0.000001 0.002675 0.000008 0.012146
# 5 0.001630 -0.001033 -0.000094 0.000008 0.028377 -0.000003
# 6 -0.000002 -0.000001 0.000003 0.012146 -0.000003 0.047024
#
#
# Mechanical properties :
#
#
# Convention : Reuss Voigt Hill
#
# Bulk Modulus (GPa) = 52.94756 62.43695 57.69225
# Shear Modulus (GPa) = 29.24650 -438.95259 -204.85304
#
# Velocity S-wave (km/s) = 4.08649 -15.83149 -10.81519
# Velocity P-wave (km/s) = 7.24556 17.27804 11.09127
#
# Compressibility (1/GPa) = 0.01888661
#
# Stress axis : x y z
#
# Youngs Moduli (GPa) = 47.83121 74.07605 54.55285
#
# Poissons Ratio (x) = -0.21732 0.67188
# Poissons Ratio (y) = -0.14032 0.41149
# Poissons Ratio (z) = 0.58909 0.55876
#
# Static dielectric constant tensor:
#      x y z
#    x -1.257560 -0.000230 -1.153520 
#    y -0.000230 3.333780 -0.000020 
#    z -1.153520 -0.000020 2.968040 
# 
# 
# High freq. dielectric constant tensor:
#      x y z
#    x 1.665670 0.000000 0.000400 
#    y 0.000000 1.671620 0.000000 
#    z 0.000400 0.000000 1.676940 
# 
# From -- ./inp_files/242334.got.cif
#   From: 2010.06.25/outbox.cif.g09.slc.cpg/sg12_122_cif.got.tgz:242334.got - 2010.06.28 00:19:55.
