data_PCOD8112861
_publ_section_title
;
Structure prediction by ZEFSAII (Michael W. Deem and Ramdas Pophale) SiO2 
 PCOD8112861
Probable space group: C 2/M
;
_chemical_formula_sum "Si O2"
_cell_formula_units_Z 48
_cell_length_a 18.928083
_cell_length_b 8.446582
_cell_length_c 16.086856
_cell_angle_alpha 90.000000
_cell_angle_beta 63.812308
_cell_angle_gamma 90.000000
_cell_volume 2307.927809
_symmetry_space_group_name_H-M "C 2/M"
_symmetry_group_IT_number 12
_symmetry_cell_setting 'monoclinic'
loop_
_space_group_symop_operation_xyz
x,y,z
-x,y,-z
-x,-y,-z
x,-y,z
1/2+x,1/2+y,z
1/2-x,1/2+y,-z
1/2-x,1/2-y,-z
1/2+x,1/2-y,z
loop_
_atom_site_type_symbol
_atom_site_label
_atom_site_fract_x
_atom_site_fract_y
_atom_site_fract_z
Si Si1 0.017409 0.684669 0.080971
Si Si2 0.174502 0.311688 0.088347
Si Si3 0.828587 0.321620 0.425918
Si Si4 0.204699 0.814527 0.253351
Si Si5 0.634092 0.317937 0.763022
Si Si6 0.413238 0.820549 0.551875
O O1 0.031912 0.500000 0.062457
O O2 0.096384 0.755020 0.082306
O O3 0.941165 0.713745 0.175816
O O4 0.000000 0.763416 0.000000
O O5 0.175904 0.500000 0.089817
O O6 0.171387 0.248438 0.183793
O O7 0.250000 0.250000 0.000000
O O8 0.816102 0.500000 0.397532
O O9 0.750000 0.250000 0.500000
O O10 0.856469 0.205175 0.339632
O O11 0.888922 0.320531 0.469231
O O12 0.288361 0.733957 0.227551
O O13 0.143311 0.780338 0.359330
O O14 0.218729 0.000000 0.239696
O O15 0.617392 0.500000 0.792097
O O16 0.500000 0.745361 0.500000
O O17 0.414758 0.000000 0.586489
#
# Coordination Sequence:
#
# PCOD8112861 Si02
#       6
#     8   8   8   8   8   8
#     4  10  23  44  69  97 128 165 209 260 318 381
#     4  11  24  43  69  98 133 169 209 259 317 381
#     4  11  22  39  64  93 128 169 213 263 317 377
#     4  12  25  42  65  93 129 171 218 266 319 380
#     4  12  25  41  65  95 130 169 215 268 320 378
#     4  10  23  42  64  91 126 169 216 265 319 377
#
# _framework density 20.797878000000001
#
# number of rings (size 3 to 8) (size 9 to 14) (size 15 to 20)
#    0.000    1.000    1.667    5.000    2.333    4.000 
#    0.000    0.000    0.000    0.000    0.000    0.000 
#    0.000    0.000    0.000    0.000    0.000    0.000 
#
# Total GULP energy -297642.046464 kJ/mol
# GULP energy per Si atom -12401.751936 kJ/mol
# Density = 2.075054 g / cm^3
# Si number density = 20.797878 Si / 1000 Ang^3
#
#
#
# Elastic Constant Matrix: (Units=GPa)
#
#
# Indices 1 2 3 4 5 6 
#
# 1 153.1607 15.1101 59.5279 0.0000 -3.8281 0.0002
# 2 15.1101 56.7371 3.4448 0.0000 12.4324 0.0008
# 3 59.5279 3.4448 106.3262 0.0000 4.7183 0.0000
# 4 0.0000 0.0000 0.0000 38.1425 0.0000 0.2281
# 5 -3.8281 12.4324 4.7183 0.0000 43.4533 0.0000
# 6 0.0002 0.0008 0.0000 0.2281 0.0000 25.3185
#
#
#
# Elastic Compliance Matrix: (Units=1/GPa)
#
#
# Indices 1 2 3 4 5 6 
#
# 1 0.008724 -0.002466 -0.004894 0.000000 0.002005 0.000000
# 2 -0.002466 0.019516 0.001011 0.000000 -0.005911 -0.000001
# 3 -0.004894 0.001011 0.012203 0.000000 -0.002045 0.000000
# 4 0.000000 0.000000 0.000000 0.026219 0.000000 -0.000236
# 5 0.002005 -0.005911 -0.002045 0.000000 0.025103 0.000000
# 6 0.000000 -0.000001 0.000000 -0.000236 0.000000 0.039499
#
#
# Mechanical properties :
#
#
# Convention : Reuss Voigt Hill
#
# Bulk Modulus (GPa) = 36.04243 52.48776 44.26510
# Shear Modulus (GPa) = 32.63500 37.25894 34.94697
#
# Velocity S-wave (km/s) = 3.96555 4.23718 4.10361
# Velocity P-wave (km/s) = 6.19152 7.01642 6.61683
#
# Compressibility (1/GPa) = 0.02774507
#
# Stress axis : x y z
#
# Youngs Moduli (GPa) = 114.62064 51.24106 81.94861
#
# Poissons Ratio (x) = 0.12635 0.40102
# Poissons Ratio (y) = 0.28263 -0.08281
# Poissons Ratio (z) = 0.56091 -0.05178
#
# Static dielectric constant tensor:
#      x y z
#    x 4.018700 0.000000 0.098650 
#    y 0.000000 3.775050 0.000000 
#    z 0.098650 0.000000 3.706590 
# 
# 
# High freq. dielectric constant tensor:
#      x y z
#    x 1.831930 0.000000 0.002580 
#    y 0.000000 1.811320 0.000000 
#    z 0.002580 0.000000 1.825230 
# 
# From -- ./inp_files/274113.got.cif
#   From: 2010.06.25/outbox.cif.g09.slc.cpg/sg12_138_cif.got.tgz:274113.got - 2010.06.28 00:19:55.
