data_PCOD8112395
_publ_section_title
;
Structure prediction by ZEFSAII (Michael W. Deem and Ramdas Pophale) SiO2 
 PCOD8112395
Probable space group: C 2/M
;
_chemical_formula_sum "Si O2"
_cell_formula_units_Z 48
_cell_length_a 26.612292
_cell_length_b 19.629357
_cell_length_c 8.010482
_cell_angle_alpha 90.000000
_cell_angle_beta 32.917084
_cell_angle_gamma 90.000000
_cell_volume 2273.978941
_symmetry_space_group_name_H-M "C 2/M"
_symmetry_group_IT_number 12
_symmetry_cell_setting 'monoclinic'
loop_
_space_group_symop_operation_xyz
x,y,z
-x,y,-z
-x,-y,-z
x,-y,z
1/2+x,1/2+y,z
1/2-x,1/2+y,-z
1/2-x,1/2-y,-z
1/2+x,1/2-y,z
loop_
_atom_site_type_symbol
_atom_site_label
_atom_site_fract_x
_atom_site_fract_y
_atom_site_fract_z
Si Si1 0.583070 0.814741 0.374257
Si Si2 0.562385 0.300150 0.680554
Si Si3 0.254784 0.200435 0.324461
Si Si4 0.467930 0.421971 0.775166
Si Si5 0.242557 0.923062 0.573188
Si Si6 0.591199 0.078440 0.639799
O O1 0.500000 0.846615 0.500000
O O2 0.546561 0.747418 0.566820
O O3 0.610633 0.873804 0.426833
O O4 0.661773 0.785408 0.033105
O O5 0.666218 0.295745 0.454415
O O6 0.528378 0.376555 0.732791
O O7 0.500000 0.269246 0.000000
O O8 0.250000 0.250000 0.500000
O O9 0.269518 0.123387 0.342867
O O10 0.500000 0.407944 0.500000
O O11 0.484539 0.500000 0.782488
O O12 0.359766 0.402389 0.080592
O O13 0.315927 0.911345 0.514295
O O14 0.245758 0.000000 0.498923
O O15 0.579953 0.000000 0.613066
O O16 0.500000 0.100379 0.000000
#
# Coordination Sequence:
#
# PCOD8112395 Si02
#       6
#     8   8   8   8   8   8
#     4  12  26  42  64  94 128 169 220 270 320 381
#     4  12  24  42  66  94 131 171 214 263 319 387
#     4  12  26  42  64  95 131 173 217 268 319 379
#     4  10  23  41  67  98 132 171 211 260 324 392
#     4  10  22  43  68  97 133 170 210 265 327 389
#     4  10  22  43  70  96 129 170 214 269 332 389
#
# _framework density 21.108374999999999
#
# number of rings (size 3 to 8) (size 9 to 14) (size 15 to 20)
#    0.000    1.000    1.667    4.500    4.667    2.000 
#    0.000    0.000    0.000    0.000    0.000    0.000 
#    0.000    0.000    0.000    0.000    0.000    0.000 
#
# Total GULP energy -297611.780417 kJ/mol
# GULP energy per Si atom -12400.490851 kJ/mol
# Density = 2.106033 g / cm^3
# Si number density = 21.108375 Si / 1000 Ang^3
#
#
#
# Elastic Constant Matrix: (Units=GPa)
#
#
# Indices 1 2 3 4 5 6 
#
# 1 84.9656 37.1623 44.8946 0.0000 -3.8589 0.0000
# 2 37.1623 95.2284 37.5709 0.0000 11.9900 0.0000
# 3 44.8946 37.5709 139.2409 0.0000 9.6542 0.0000
# 4 0.0000 0.0000 0.0000 29.3598 0.0000 1.7298
# 5 -3.8589 11.9900 9.6542 0.0000 47.3250 0.0000
# 6 0.0000 0.0000 0.0000 1.7298 0.0000 156.6473
#
#
#
# Elastic Compliance Matrix: (Units=1/GPa)
#
#
# Indices 1 2 3 4 5 6 
#
# 1 0.016383 -0.005208 -0.004119 0.000000 0.003496 0.000000
# 2 -0.005208 0.013675 -0.001766 0.000000 -0.003529 0.000000
# 3 -0.004119 -0.001766 0.009107 0.000000 -0.001746 0.000000
# 4 0.000000 0.000000 0.000000 0.034082 0.000000 -0.000376
# 5 0.003496 -0.003529 -0.001746 0.000000 0.022666 0.000000
# 6 0.000000 0.000000 0.000000 -0.000376 0.000000 0.006388
#
#
# Mechanical properties :
#
#
# Convention : Reuss Voigt Hill
#
# Bulk Modulus (GPa) = 58.89900 62.07673 60.48787
# Shear Modulus (GPa) = 38.41812 59.98690 49.20251
#
# Velocity S-wave (km/s) = 4.27082 5.33669 4.83323
# Velocity P-wave (km/s) = 7.23074 8.21255 7.73724
#
# Compressibility (1/GPa) = 0.01697822
#
# Stress axis : x y z
#
# Youngs Moduli (GPa) = 61.03978 73.12859 109.79969
#
# Poissons Ratio (x) = 0.38087 0.45229
# Poissons Ratio (y) = 0.31791 0.19389
# Poissons Ratio (z) = 0.25144 0.12913
#
# Static dielectric constant tensor:
#      x y z
#    x 3.989020 0.000000 -0.244710 
#    y 0.000000 3.998520 0.000000 
#    z -0.244710 0.000000 4.152450 
# 
# 
# High freq. dielectric constant tensor:
#      x y z
#    x 1.834110 0.000000 -0.006290 
#    y 0.000000 1.837650 0.000000 
#    z -0.006290 0.000000 1.838860 
# 
# From -- ./inp_files/106517.got.cif
#   From: 2010.06.25/outbox.cif.g09.slc.cpg/sg12_54_cif.got.tgz:106517.got - 2010.06.28 00:19:55.
