data_PCOD8112570
_publ_section_title
;
Structure prediction by ZEFSAII (Michael W. Deem and Ramdas Pophale) SiO2 
 PCOD8112570
Probable space group: C 2/M
;
_chemical_formula_sum "Si O2"
_cell_formula_units_Z 40
_cell_length_a 18.776988
_cell_length_b 7.612494
_cell_length_c 13.023895
_cell_angle_alpha 90.000000
_cell_angle_beta 100.321957
_cell_angle_gamma 90.000000
_cell_volume 1831.503934
_symmetry_space_group_name_H-M "C 2/M"
_symmetry_group_IT_number 12
_symmetry_cell_setting 'monoclinic'
loop_
_space_group_symop_operation_xyz
x,y,z
-x,y,-z
-x,-y,-z
x,-y,z
1/2+x,1/2+y,z
1/2-x,1/2+y,-z
1/2-x,1/2-y,-z
1/2+x,1/2-y,z
loop_
_atom_site_type_symbol
_atom_site_label
_atom_site_fract_x
_atom_site_fract_y
_atom_site_fract_z
Si Si1 0.580863 0.705019 0.518197
Si Si2 0.214863 0.195767 0.183669
Si Si3 0.541180 0.000000 0.851341
Si Si4 0.876564 0.797149 0.243353
Si Si5 0.610425 0.000000 0.091447
Si Si6 0.804897 0.304991 0.601293
O O1 0.500000 0.779027 0.500000
O O2 0.582114 0.500000 0.494251
O O3 0.622245 0.746582 0.635003
O O4 0.616688 0.801701 0.430842
O O5 0.296373 0.258589 0.180899
O O6 0.158473 0.325803 0.115853
O O7 0.200453 0.181273 0.301739
O O8 0.204180 0.000000 0.135066
O O9 0.564822 0.175768 0.797913
O O10 0.454005 0.000000 0.840773
O O11 0.578409 0.000000 0.970801
O O12 0.897988 0.000000 0.228939
O O13 0.786753 0.500000 0.637221
O O14 0.750000 0.250000 0.500000
#
# Coordination Sequence:
#
# PCOD8112570 Si02
#       6
#     8   8   4   8   4   8
#     4  10  23  39  59  95 137 180 223 265 325 402
#     4  12  24  44  71 102 138 184 232 282 340 411
#     4  11  28  50  74  99 139 172 224 303 362 403
#     4  11  23  44  71 103 141 179 230 284 341 411
#     4  11  28  52  71 104 133 173 235 291 354 427
#     4  12  23  37  61  95 138 177 224 272 320 394
#
# _framework density 21.839973000000001
#
# number of rings (size 3 to 8) (size 9 to 14) (size 15 to 20)
#    0.000    0.800    5.000    1.800    4.200    2.800 
#    0.000    2.000    0.000    0.000    0.000    0.000 
#    0.000    0.000    0.000    0.000    0.000    0.000 
#
# Total GULP energy -248076.494181 kJ/mol
# GULP energy per Si atom -12403.824709 kJ/mol
# Density = 2.179026 g / cm^3
# Si number density = 21.839973 Si / 1000 Ang^3
#
#
#
# Elastic Constant Matrix: (Units=GPa)
#
#
# Indices 1 2 3 4 5 6 
#
# 1 100.6276 32.5958 -12.4008 0.0000 3.4952 0.0000
# 2 32.5958 143.4835 17.0533 0.0000 0.4336 0.0000
# 3 -12.4008 17.0533 28.9565 0.0000 -0.5564 0.0000
# 4 0.0000 0.0000 0.0000 18.6840 0.0000 0.1046
# 5 3.4952 0.4336 -0.5564 0.0000 36.4457 0.0000
# 6 0.0000 0.0000 0.0000 0.1046 0.0000 28.1289
#
#
#
# Elastic Compliance Matrix: (Units=1/GPa)
#
#
# Indices 1 2 3 4 5 6 
#
# 1 0.012029 -0.003591 0.007247 0.000000 -0.001000 0.000000
# 2 -0.003591 0.008567 -0.006580 0.000000 0.000142 0.000000
# 3 0.007247 -0.006580 0.041514 0.000000 0.000017 0.000000
# 4 0.000000 0.000000 0.000000 0.053523 0.000000 -0.000199
# 5 -0.001000 0.000142 0.000017 0.000000 0.027533 0.000000
# 6 0.000000 0.000000 0.000000 -0.000199 0.000000 0.035551
#
#
# Mechanical properties :
#
#
# Convention : Reuss Voigt Hill
#
# Bulk Modulus (GPa) = 17.77445 38.61824 28.19634
# Shear Modulus (GPa) = 24.59199 32.37301 28.48250
#
# Velocity S-wave (km/s) = 3.35925 3.85422 3.61521
# Velocity P-wave (km/s) = 4.81687 6.12596 5.51043
#
# Compressibility (1/GPa) = 0.05626053
#
# Stress axis : x y z
#
# Youngs Moduli (GPa) = 83.13507 116.72894 24.08841
#
# Poissons Ratio (x) = 0.41916 -0.17457
# Poissons Ratio (y) = 0.29853 0.15851
# Poissons Ratio (z) = -0.60247 0.76812
#
# Static dielectric constant tensor:
#      x y z
#    x 4.188700 0.000000 0.031000 
#    y 0.000000 4.194080 0.000000 
#    z 0.031000 0.000000 3.546690 
# 
# 
# High freq. dielectric constant tensor:
#      x y z
#    x 1.869260 0.000000 -0.002370 
#    y 0.000000 1.866600 0.000000 
#    z -0.002370 0.000000 1.845310 
# 
# From -- ./inp_files/162667.got.cif
#   From: 2010.06.25/outbox.cif.g09.slc.cpg/sg12_82_cif.got.tgz:162667.got - 2010.06.28 00:19:55.
