data_PCOD8112244
_publ_section_title
;
Structure prediction by ZEFSAII (Michael W. Deem and Ramdas Pophale) SiO2 
 PCOD8112244
Probable space group: C 2/M
;
_chemical_formula_sum "Si O2"
_cell_formula_units_Z 48
_cell_length_a 28.282092
_cell_length_b 8.579778
_cell_length_c 15.778183
_cell_angle_alpha 90.000000
_cell_angle_beta 142.604887
_cell_angle_gamma 90.000000
_cell_volume 2325.164204
_symmetry_space_group_name_H-M "C 2/M"
_symmetry_group_IT_number 12
_symmetry_cell_setting 'monoclinic'
loop_
_space_group_symop_operation_xyz
x,y,z
-x,y,-z
-x,-y,-z
x,-y,z
1/2+x,1/2+y,z
1/2-x,1/2+y,-z
1/2-x,1/2-y,-z
1/2+x,1/2-y,z
loop_
_atom_site_type_symbol
_atom_site_label
_atom_site_fract_x
_atom_site_fract_y
_atom_site_fract_z
Si Si1 0.355323 0.680981 0.095449
Si Si2 0.812698 0.680295 0.207117
Si Si3 0.264486 0.678639 0.611704
Si Si4 0.509913 0.819305 0.256038
Si Si5 0.059186 0.821511 0.154631
Si Si6 0.639595 0.680905 0.552812
O O1 0.355164 0.500000 0.119977
O O2 0.357813 0.781546 0.184761
O O3 0.429917 0.722771 0.145463
O O4 0.278478 0.722616 0.932051
O O5 0.824226 0.500000 0.246637
O O6 0.850043 0.784158 0.333630
O O7 0.236085 0.500000 0.572109
O O8 0.250000 0.750000 0.500000
O O9 0.355253 0.692395 0.763425
O O10 0.218247 0.773222 0.616464
O O11 0.553953 0.780982 0.231575
O O12 0.565808 0.775721 0.413369
O O13 0.489542 0.000000 0.231394
O O14 0.039622 0.000000 0.150662
O O15 0.000000 0.756615 0.000000
O O16 0.622595 0.500000 0.514358
#
# Coordination Sequence:
#
# PCOD8112244 Si02
#       6
#     8   8   8   8   8   8
#     4  10  22  42  67  93 127 163 200 250 311 370
#     4  10  22  42  67  95 125 160 205 253 306 368
#     4  11  22  39  63  90 124 164 204 253 307 363
#     4  12  25  41  63  92 126 162 209 259 307 364
#     4  10  23  42  63  89 123 164 207 251 307 366
#     4  12  25  41  63  91 126 166 210 255 308 367
#
# _framework density 20.643702999999999
#
# number of rings (size 3 to 8) (size 9 to 14) (size 15 to 20)
#    0.000    1.167    1.667    4.500    2.333    3.667 
#    0.000    3.333    0.000    0.000    0.000    0.000 
#    0.000    0.000    0.000    0.000    0.000    0.000 
#
# Total GULP energy -297796.506797 kJ/mol
# GULP energy per Si atom -12408.187783 kJ/mol
# Density = 2.059672 g / cm^3
# Si number density = 20.643703 Si / 1000 Ang^3
#
#
#
# Elastic Constant Matrix: (Units=GPa)
#
#
# Indices 1 2 3 4 5 6 
#
# 1 52.0976 12.7295 8.6143 0.0000 6.2751 0.0000
# 2 12.7295 74.1228 26.2030 0.0000 -1.9980 0.0000
# 3 8.6143 26.2030 94.8566 0.0000 -4.7426 0.0000
# 4 0.0000 0.0000 0.0000 28.8598 0.0000 -0.8364
# 5 6.2751 -1.9980 -4.7426 0.0000 34.6412 0.0000
# 6 0.0000 0.0000 0.0000 -0.8364 0.0000 38.5311
#
#
#
# Elastic Compliance Matrix: (Units=1/GPa)
#
#
# Indices 1 2 3 4 5 6 
#
# 1 0.020676 -0.003242 -0.001187 0.000000 -0.004095 0.000000
# 2 -0.003242 0.015462 -0.003930 0.000000 0.000941 0.000000
# 3 -0.001187 -0.003930 0.011816 0.000000 0.001606 0.000000
# 4 0.000000 0.000000 0.000000 0.034672 0.000000 0.000753
# 5 -0.004095 0.000941 0.001606 0.000000 0.029883 0.000000
# 6 0.000000 0.000000 0.000000 0.000753 0.000000 0.025969
#
#
# Mechanical properties :
#
#
# Convention : Reuss Voigt Hill
#
# Bulk Modulus (GPa) = 32.01264 35.13008 33.57136
# Shear Modulus (GPa) = 30.19161 31.97509 31.08335
#
# Velocity S-wave (km/s) = 3.82843 3.93988 3.88455
# Velocity P-wave (km/s) = 5.92312 6.14420 6.03467
#
# Compressibility (1/GPa) = 0.03123766
#
# Stress axis : x y z
#
# Youngs Moduli (GPa) = 48.36458 64.67281 84.63171
#
# Poissons Ratio (x) = 0.20965 0.10046
# Poissons Ratio (y) = 0.15678 0.33259
# Poissons Ratio (z) = 0.05741 0.25416
#
# Static dielectric constant tensor:
#      x y z
#    x 3.660170 0.000000 0.175490 
#    y 0.000000 3.765330 0.000000 
#    z 0.175490 0.000000 3.769310 
# 
# 
# High freq. dielectric constant tensor:
#      x y z
#    x 1.806600 0.000000 0.005030 
#    y 0.000000 1.814620 0.000000 
#    z 0.005030 0.000000 1.814520 
# 
# From -- ./inp_files/244850.got.cif
#   From: 2010.06.25/outbox.cif.g09.slc.cpg/sg12_123_cif.got.tgz:244850.got - 2010.06.28 00:19:55.
