data_PCOD8112489
_publ_section_title
;
Structure prediction by ZEFSAII (Michael W. Deem and Ramdas Pophale) SiO2 
 PCOD8112489
Probable space group: C 2/M
;
_chemical_formula_sum "Si O2"
_cell_formula_units_Z 52
_cell_length_a 5.076381
_cell_length_b 29.014124
_cell_length_c 21.127568
_cell_angle_alpha 90.000000
_cell_angle_beta 112.583218
_cell_angle_gamma 90.000000
_cell_volume 2873.205649
_symmetry_space_group_name_H-M "C 2/M"
_symmetry_group_IT_number 12
_symmetry_cell_setting 'monoclinic'
loop_
_space_group_symop_operation_xyz
x,y,z
-x,y,-z
-x,-y,-z
x,-y,z
1/2+x,1/2+y,z
1/2-x,1/2+y,-z
1/2-x,1/2-y,-z
1/2+x,1/2-y,z
loop_
_atom_site_type_symbol
_atom_site_label
_atom_site_fract_x
_atom_site_fract_y
_atom_site_fract_z
Si Si1 0.519452 0.132505 0.871594
Si Si2 0.856364 0.720738 0.920881
Si Si3 0.500000 0.601730 0.000000
Si Si4 0.323526 0.448584 0.100930
Si Si5 0.335756 0.079102 0.224352
Si Si6 0.315593 0.554865 0.540325
Si Si7 0.473540 0.552981 0.304847
O O1 0.331041 0.177048 0.871362
O O2 0.805851 0.135587 0.940181
O O3 0.354393 0.085015 0.870434
O O4 0.598810 0.128841 0.803929
O O5 0.539294 0.739179 0.904049
O O6 0.000000 0.705026 0.000000
O O7 0.690991 0.569110 0.972750
O O8 0.195600 0.500000 0.092687
O O9 0.651485 0.449675 0.155775
O O10 0.632866 0.054406 0.267437
O O11 0.144115 0.084411 0.269888
O O12 0.500000 0.575384 0.500000
O O13 0.322351 0.500000 0.539925
O O14 0.440017 0.572324 0.618457
O O15 0.000000 0.574064 0.500000
O O16 0.572390 0.500000 0.304133
#
# Coordination Sequence:
#
# PCOD8112489 Si02
#       7
#     8   8   4   8   8   8   8
#     4  11  24  39  55  75 106 130 174 221 273 324
#     4  10  23  38  62  83  99 123 164 218 283 336
#     4  10  23  34  52  72 102 132 170 220 273 308
#     4  11  22  36  51  70 101 137 180 219 262 311
#     4  11  23  34  51  72 100 139 177 218 263 304
#     4   9  17  29  46  69  96 130 174 227 267 289
#     4  11  20  33  50  72 102 138 185 224 256 299
#
# _framework density 18.098253
#
# number of rings (size 3 to 8) (size 9 to 14) (size 15 to 20)
#    0.000    1.538    1.538    3.923    7.538    6.769 
#    0.000    0.000    0.000    0.000    0.000    0.000 
#    0.000    0.000    0.000    0.000    0.000   53.846 
#
# Total GULP energy -322345.012635 kJ/mol
# GULP energy per Si atom -12397.885101 kJ/mol
# Density = 1.805706 g / cm^3
# Si number density = 18.098253 Si / 1000 Ang^3
#
#
#
# Elastic Constant Matrix: (Units=GPa)
#
#
# Indices 1 2 3 4 5 6 
#
# 1 96.0267 6.8691 32.4451 0.0000 -13.8287 0.0000
# 2 6.8691 53.9282 9.2530 0.0000 -10.1497 0.0000
# 3 32.4451 9.2530 102.4556 0.0000 -16.1555 0.0000
# 4 0.0000 0.0000 0.0000 12.4604 0.0000 -7.8883
# 5 -13.8287 -10.1497 -16.1555 0.0000 34.9817 0.0000
# 6 0.0000 0.0000 0.0000 -7.8883 0.0000 19.5855
#
#
#
# Elastic Compliance Matrix: (Units=1/GPa)
#
#
# Indices 1 2 3 4 5 6 
#
# 1 0.011996 -0.000379 -0.003272 0.000000 0.003121 0.000000
# 2 -0.000379 0.019711 -0.000843 0.000000 0.005180 0.000000
# 3 -0.003272 -0.000843 0.011465 0.000000 0.003757 0.000000
# 4 0.000000 0.000000 0.000000 0.107720 0.000000 0.043385
# 5 0.003121 0.005180 0.003757 0.000000 0.033058 0.000000
# 6 0.000000 0.000000 0.000000 0.043385 0.000000 0.068532
#
#
# Mechanical properties :
#
#
# Convention : Reuss Voigt Hill
#
# Bulk Modulus (GPa) = 29.25492 38.83830 34.04661
# Shear Modulus (GPa) = 18.32398 26.99507 22.65953
#
# Velocity S-wave (km/s) = 3.18539 3.86629 3.54224
# Velocity P-wave (km/s) = 5.45239 6.43718 5.96514
#
# Compressibility (1/GPa) = 0.03418229
#
# Stress axis : x y z
#
# Youngs Moduli (GPa) = 83.36099 50.73304 87.22081
#
# Poissons Ratio (x) = 0.01923 0.28543
# Poissons Ratio (y) = 0.03160 0.07356
# Poissons Ratio (z) = 0.27280 0.04279
#
# Static dielectric constant tensor:
#      x y z
#    x 3.593040 0.000000 -0.104780 
#    y 0.000000 2.877030 0.000000 
#    z -0.104780 0.000000 3.420430 
# 
# 
# High freq. dielectric constant tensor:
#      x y z
#    x 1.728010 0.000000 -0.008620 
#    y 0.000000 1.637760 0.000000 
#    z -0.008620 0.000000 1.682320 
# 
# From -- ./inp_files/298230.got.cif
#   From: 2010.06.25/outbox.cif.g09.slc.cpg/sg12_150_cif.got.tgz:298230.got - 2010.06.28 00:19:55.
