data_PCOD8112804
_publ_section_title
;
Structure prediction by ZEFSAII (Michael W. Deem and Ramdas Pophale) SiO2 
 PCOD8112804
Probable space group: C 2/M
;
_chemical_formula_sum "Si O2"
_cell_formula_units_Z 40
_cell_length_a 25.637008
_cell_length_b 13.743825
_cell_length_c 14.506658
_cell_angle_alpha 90.000000
_cell_angle_beta 159.867980
_cell_angle_gamma 90.000000
_cell_volume 1759.274401
_symmetry_space_group_name_H-M "C 2/M"
_symmetry_group_IT_number 12
_symmetry_cell_setting 'monoclinic'
loop_
_space_group_symop_operation_xyz
x,y,z
-x,y,-z
-x,-y,-z
x,-y,z
1/2+x,1/2+y,z
1/2-x,1/2+y,-z
1/2-x,1/2-y,-z
1/2+x,1/2-y,z
loop_
_atom_site_type_symbol
_atom_site_label
_atom_site_fract_x
_atom_site_fract_y
_atom_site_fract_z
Si Si1 0.175771 0.113174 0.308039
Si Si2 0.187039 0.741584 0.616285
Si Si3 0.163720 0.610469 0.743914
Si Si4 0.535184 0.388101 0.663809
Si Si5 0.165677 0.607845 0.240875
O O1 0.298987 0.174453 0.452473
O O2 0.213907 0.132246 0.478456
O O3 0.198944 0.000000 0.321382
O O4 0.000000 0.144645 0.000000
O O5 0.231164 0.673240 0.773330
O O6 0.313327 0.824528 0.813265
O O7 0.034958 0.806024 0.383879
O O8 0.144323 0.500000 0.677021
O O9 0.000000 0.652880 0.500000
O O10 0.282255 0.618220 0.024265
O O11 0.500000 0.362175 0.500000
O O12 0.483272 0.500000 0.602004
O O13 0.188568 0.500000 0.242136
O O14 0.000000 0.627234 0.000000
#
# Coordination Sequence:
#
# PCOD8112804 Si02
#       5
#     8   8   8   8   8
#     4  10  23  42  63  92 133 176 215 262 317 379
#     4  12  23  36  68 100 124 165 220 265 316 375
#     4  10  24  46  68  94 131 170 214 269 327 391
#     4  10  24  46  68  94 131 171 213 267 331 392
#     4  10  23  42  61  90 134 175 212 259 318 381
#
# _framework density 22.736646
#
# number of rings (size 3 to 8) (size 9 to 14) (size 15 to 20)
#    0.000    1.600    0.000    3.000    5.600    3.200 
#    0.000    0.000    0.000    0.000    0.000    0.000 
#    0.000    0.000    0.000    0.000    0.000    0.000 
#
# Total GULP energy -247777.905193 kJ/mol
# GULP energy per Si atom -12388.895260 kJ/mol
# Density = 2.268490 g / cm^3
# Si number density = 22.736646 Si / 1000 Ang^3
#
#
#
# Elastic Constant Matrix: (Units=GPa)
#
#
# Indices 1 2 3 4 5 6 
#
# 1 113.3331 74.8675 39.1814 0.0000 14.3444 0.0000
# 2 74.8675 143.6279 33.6693 0.0000 2.4626 0.0000
# 3 39.1814 33.6693 126.7040 0.0000 19.5053 0.0000
# 4 0.0000 0.0000 0.0000 8.4124 0.0000 13.5072
# 5 14.3444 2.4626 19.5053 0.0000 37.4765 0.0000
# 6 0.0000 0.0000 0.0000 13.5072 0.0000 45.6500
#
#
#
# Elastic Compliance Matrix: (Units=1/GPa)
#
#
# Indices 1 2 3 4 5 6 
#
# 1 0.014775 -0.007154 -0.002032 0.000000 -0.004127 0.000000
# 2 -0.007154 0.010901 -0.001082 0.000000 0.002585 0.000000
# 3 -0.002032 -0.001082 0.009434 0.000000 -0.004061 0.000000
# 4 0.000000 0.000000 0.000000 0.226458 0.000000 -0.067006
# 5 -0.004127 0.002585 -0.004061 0.000000 0.030207 0.000000
# 6 0.000000 0.000000 0.000000 -0.067006 0.000000 0.041732
#
#
# Mechanical properties :
#
#
# Convention : Reuss Voigt Hill
#
# Bulk Modulus (GPa) = 68.62807 75.45575 72.04191
# Shear Modulus (GPa) = 13.93140 34.03757 23.98449
#
# Velocity S-wave (km/s) = 2.47802 3.87335 3.25142
# Velocity P-wave (km/s) = 6.19975 7.29813 6.77125
#
# Compressibility (1/GPa) = 0.01457130
#
# Stress axis : x y z
#
# Youngs Moduli (GPa) = 67.68364 91.73418 106.00322
#
# Poissons Ratio (x) = 0.65629 0.21544
# Poissons Ratio (y) = 0.48422 0.11474
# Poissons Ratio (z) = 0.13756 0.09930
#
# Static dielectric constant tensor:
#      x y z
#    x 3.696100 0.000000 0.267280 
#    y 0.000000 4.629280 0.000000 
#    z 0.267280 0.000000 3.799340 
# 
# 
# High freq. dielectric constant tensor:
#      x y z
#    x 1.882760 0.000000 0.008820 
#    y 0.000000 1.932910 0.000000 
#    z 0.008820 0.000000 1.879540 
# 
# From -- ./inp_files/246656.got.cif
#   From: 2010.06.25/outbox.cif.g09.slc.cpg/sg12_124_cif.got.tgz:246656.got - 2010.06.28 00:19:55.
