data_PCOD8112481
_publ_section_title
;
Structure prediction by ZEFSAII (Michael W. Deem and Ramdas Pophale) SiO2 
 PCOD8112481
Probable space group: C 2/M
;
_chemical_formula_sum "Si O2"
_cell_formula_units_Z 52
_cell_length_a 9.553451
_cell_length_b 27.693217
_cell_length_c 15.998164
_cell_angle_alpha 90.000000
_cell_angle_beta 32.654654
_cell_angle_gamma 90.000000
_cell_volume 2283.783694
_symmetry_space_group_name_H-M "C 2/M"
_symmetry_group_IT_number 12
_symmetry_cell_setting 'monoclinic'
loop_
_space_group_symop_operation_xyz
x,y,z
-x,y,-z
-x,-y,-z
x,-y,z
1/2+x,1/2+y,z
1/2-x,1/2+y,-z
1/2-x,1/2-y,-z
1/2+x,1/2-y,z
loop_
_atom_site_type_symbol
_atom_site_label
_atom_site_fract_x
_atom_site_fract_y
_atom_site_fract_z
Si Si1 0.476977 0.106787 0.381796
Si Si2 0.646132 0.197863 0.848473
Si Si3 0.396435 0.893315 0.230043
Si Si4 0.487401 0.278370 0.815539
Si Si5 0.506458 0.555021 0.319705
Si Si6 0.500000 0.187831 0.500000
Si Si7 0.067832 0.111264 0.123109
O O1 0.395173 0.115876 0.328483
O O2 0.395945 0.153047 0.478260
O O3 0.784330 0.094094 0.232461
O O4 0.297115 0.063168 0.505813
O O5 0.728944 0.155772 0.744857
O O6 0.442463 0.234760 0.905437
O O7 0.867979 0.229716 0.782500
O O8 0.500000 0.172197 0.000000
O O9 0.197394 0.935416 0.302855
O O10 0.691094 0.906696 0.054155
O O11 0.414860 0.330697 0.888959
O O12 0.792036 0.276402 0.644013
O O13 0.538573 0.500000 0.274585
O O14 0.603358 0.590571 0.197899
#
# Coordination Sequence:
#
# PCOD8112481 Si02
#       7
#     8   8   8   8   8   4   8
#     4  11  23  44  72 100 134 183 228 286 349 416
#     4  12  24  42  64 100 142 185 230 278 343 411
#     4  12  25  43  71 105 144 181 232 296 343 403
#     4  11  24  40  66  96 138 184 234 279 331 411
#     4  12  25  48  76 100 138 189 229 283 361 428
#     4  10  22  46  65  92 140 180 235 276 346 420
#     4  11  23  46  69 103 142 182 234 285 345 417
#
# _framework density 22.769233
#
# number of rings (size 3 to 8) (size 9 to 14) (size 15 to 20)
#    0.000    0.615    6.154    1.846    4.308    4.308 
#    2.769    0.000    0.000    2.769    0.000    0.000 
#    0.000    0.000    0.000    0.000    0.000    0.000 
#
# Total GULP energy -322246.202531 kJ/mol
# GULP energy per Si atom -12394.084713 kJ/mol
# Density = 2.271741 g / cm^3
# Si number density = 22.769233 Si / 1000 Ang^3
#
#
#
# Elastic Constant Matrix: (Units=GPa)
#
#
# Indices 1 2 3 4 5 6 
#
# 1 118.1285 36.8381 15.8714 0.0000 18.3539 0.0000
# 2 36.8381 91.3622 19.2486 0.0000 5.2887 0.0000
# 3 15.8714 19.2486 61.6686 -0.0001 3.8449 0.0000
# 4 0.0000 0.0000 -0.0001 41.4731 0.0001 5.5759
# 5 18.3539 5.2887 3.8449 0.0001 51.3318 0.0000
# 6 0.0000 0.0000 0.0000 5.5759 0.0000 28.3758
#
#
#
# Elastic Compliance Matrix: (Units=1/GPa)
#
#
# Indices 1 2 3 4 5 6 
#
# 1 0.010287 -0.003690 -0.001296 0.000000 -0.003201 0.000000
# 2 -0.003690 0.013084 -0.003147 0.000000 0.000207 0.000000
# 3 -0.001296 -0.003147 0.017565 0.000000 -0.000528 0.000000
# 4 0.000000 0.000000 0.000000 0.024766 0.000000 -0.004867
# 5 -0.003201 0.000207 -0.000528 0.000000 0.020644 0.000000
# 6 0.000000 0.000000 0.000000 -0.004867 0.000000 0.036198
#
#
# Mechanical properties :
#
#
# Convention : Reuss Voigt Hill
#
# Bulk Modulus (GPa) = 40.53550 46.11950 43.32750
# Shear Modulus (GPa) = 34.00573 37.51623 35.76098
#
# Velocity S-wave (km/s) = 3.86877 4.06356 3.96736
# Velocity P-wave (km/s) = 6.14800 6.50506 6.32905
#
# Compressibility (1/GPa) = 0.02466974
#
# Stress axis : x y z
#
# Youngs Moduli (GPa) = 97.20547 76.42786 56.93252
#
# Poissons Ratio (x) = 0.28199 0.07381
# Poissons Ratio (y) = 0.35865 0.17918
# Poissons Ratio (z) = 0.12602 0.24054
#
# Static dielectric constant tensor:
#      x y z
#    x 4.558790 0.000000 -0.380060 
#    y 0.000000 3.649330 0.000000 
#    z -0.380060 0.000000 4.365210 
# 
# 
# High freq. dielectric constant tensor:
#      x y z
#    x 1.919050 0.000000 -0.015500 
#    y 0.000000 1.861770 0.000000 
#    z -0.015500 0.000000 1.912120 
# 
# From -- ./inp_files/201184.got.cif
#   From: 2010.06.25/outbox.cif.g09.slc.cpg/sg12_101_cif.got.tgz:201184.got - 2010.06.28 00:19:55.
