data_PCOD8112800
_publ_section_title
;
Structure prediction by ZEFSAII (Michael W. Deem and Ramdas Pophale) SiO2 
 PCOD8112800
Probable space group: C 2/M
;
_chemical_formula_sum "Si O2"
_cell_formula_units_Z 56
_cell_length_a 9.508689
_cell_length_b 16.378912
_cell_length_c 18.205633
_cell_angle_alpha 90.000000
_cell_angle_beta 72.574972
_cell_angle_gamma 90.000000
_cell_volume 2705.264582
_symmetry_space_group_name_H-M "C 2/M"
_symmetry_group_IT_number 12
_symmetry_cell_setting 'monoclinic'
loop_
_space_group_symop_operation_xyz
x,y,z
-x,y,-z
-x,-y,-z
x,-y,z
1/2+x,1/2+y,z
1/2-x,1/2+y,-z
1/2-x,1/2-y,-z
1/2+x,1/2-y,z
loop_
_atom_site_type_symbol
_atom_site_label
_atom_site_fract_x
_atom_site_fract_y
_atom_site_fract_z
Si Si1 0.065154 0.322335 0.786617
Si Si2 0.053210 0.596609 0.339045
Si Si3 0.623045 0.814238 0.042212
Si Si4 0.619486 0.339544 0.694232
Si Si5 0.346281 0.593235 0.811873
Si Si6 0.622923 0.592711 0.032122
Si Si7 0.590052 0.242735 0.555638
O O1 0.128167 0.238734 0.744887
O O2 0.207182 0.365365 0.796816
O O3 0.987182 0.379145 0.737951
O O4 0.944914 0.300991 0.867153
O O5 0.021827 0.500000 0.356529
O O6 0.224491 0.614641 0.328907
O O7 0.953855 0.651362 0.409914
O O8 0.500000 0.818072 0.000000
O O9 0.750000 0.750000 0.000000
O O10 0.714088 0.899557 0.028812
O O11 0.491999 0.400745 0.739770
O O12 0.570259 0.309887 0.621736
O O13 0.301775 0.500000 0.829860
O O14 0.378423 0.633674 0.886632
O O15 0.574108 0.500000 0.047697
O O16 0.500000 0.637823 0.000000
O O17 0.500000 0.271419 0.500000
O O18 0.750000 0.250000 0.500000
#
# Coordination Sequence:
#
# PCOD8112800 Si02
#       7
#     8   8   8   8   8   8   8
#     4  11  24  41  65  92 131 173 219 272 328 390
#     4  11  25  43  68 102 134 171 216 267 321 388
#     4  12  25  40  63  92 124 168 229 283 327 383
#     4  11  24  43  69  95 130 172 216 256 321 393
#     4  11  23  42  64  92 128 170 218 271 322 383
#     4  10  23  42  61  86 125 171 217 273 338 388
#     4  11  23  46  72 100 132 172 210 260 319 388
#
# _framework density 20.700379000000002
#
# number of rings (size 3 to 8) (size 9 to 14) (size 15 to 20)
#    0.000    1.000    2.857    3.857    6.000    1.714 
#    0.000    0.000    0.000    2.143    0.000    0.000 
#    0.000    0.000    0.000    0.000    0.000    0.000 
#
# Total GULP energy -347079.353961 kJ/mol
# GULP energy per Si atom -12395.691213 kJ/mol
# Density = 2.065326 g / cm^3
# Si number density = 20.700379 Si / 1000 Ang^3
#
#
#
# Elastic Constant Matrix: (Units=GPa)
#
#
# Indices 1 2 3 4 5 6 
#
# 1 170.4178 41.6987 69.0714 0.0000 7.2895 0.0000
# 2 41.6987 73.5644 30.5972 0.0000 1.1472 0.0000
# 3 69.0714 30.5972 137.8803 0.0000 3.9041 0.0000
# 4 0.0000 0.0000 0.0000 14.1117 0.0000 -2.9662
# 5 7.2895 1.1472 3.9041 0.0000 51.2671 0.0000
# 6 0.0000 0.0000 0.0000 -2.9662 0.0000 30.2554
#
#
#
# Elastic Compliance Matrix: (Units=1/GPa)
#
#
# Indices 1 2 3 4 5 6 
#
# 1 0.008008 -0.003159 -0.003288 0.000000 -0.000818 0.000000
# 2 -0.003159 0.016222 -0.002024 0.000000 0.000240 0.000000
# 3 -0.003288 -0.002024 0.009354 0.000000 -0.000200 0.000000
# 4 0.000000 0.000000 0.000000 0.072354 0.000000 0.007093
# 5 -0.000818 0.000240 -0.000200 0.000000 0.019632 0.000000
# 6 0.000000 0.000000 0.000000 0.007093 0.000000 0.033747
#
#
# Mechanical properties :
#
#
# Convention : Reuss Voigt Hill
#
# Bulk Modulus (GPa) = 60.08421 73.84413 66.96417
# Shear Modulus (GPa) = 27.50149 35.15985 31.33067
#
# Velocity S-wave (km/s) = 3.64888 4.12577 3.89463
# Velocity P-wave (km/s) = 6.84406 7.64502 7.25560
#
# Compressibility (1/GPa) = 0.01664331
#
# Stress axis : x y z
#
# Youngs Moduli (GPa) = 124.86856 61.64297 106.90134
#
# Poissons Ratio (x) = 0.19475 0.35145
# Poissons Ratio (y) = 0.39450 0.21638
# Poissons Ratio (z) = 0.41052 0.12477
#
# Static dielectric constant tensor:
#      x y z
#    x 4.066030 0.000000 -0.024190 
#    y 0.000000 4.483610 0.000000 
#    z -0.024190 0.000000 4.321430 
# 
# 
# High freq. dielectric constant tensor:
#      x y z
#    x 1.831140 0.000000 0.005320 
#    y 0.000000 1.807530 0.000000 
#    z 0.005320 0.000000 1.818080 
# 
# From -- ./inp_files/256992.got.cif
#   From: 2010.06.25/outbox.cif.g09.slc.cpg/sg12_129_cif.got.tgz:256992.got - 2010.06.28 00:19:55.
