data_PCOD8112525
_publ_section_title
;
Structure prediction by ZEFSAII (Michael W. Deem and Ramdas Pophale) SiO2 
 PCOD8112525
Probable space group: C 2/M
;
_chemical_formula_sum "Si O2"
_cell_formula_units_Z 40
_cell_length_a 12.133415
_cell_length_b 25.889675
_cell_length_c 11.822428
_cell_angle_alpha 90.000000
_cell_angle_beta 149.021015
_cell_angle_gamma 90.000000
_cell_volume 1911.571072
_symmetry_space_group_name_H-M "C 2/M"
_symmetry_group_IT_number 12
_symmetry_cell_setting 'monoclinic'
loop_
_space_group_symop_operation_xyz
x,y,z
-x,y,-z
-x,-y,-z
x,-y,z
1/2+x,1/2+y,z
1/2-x,1/2+y,-z
1/2-x,1/2-y,-z
1/2+x,1/2-y,z
loop_
_atom_site_type_symbol
_atom_site_label
_atom_site_fract_x
_atom_site_fract_y
_atom_site_fract_z
Si Si1 0.219158 0.441885 0.625806
Si Si2 0.000000 0.861620 0.000000
Si Si3 0.908802 0.694818 0.293253
Si Si4 0.500000 0.860813 0.000000
Si Si5 0.418402 0.690532 0.303749
Si Si6 0.195169 0.379096 0.400150
O O1 0.304807 0.500000 0.720231
O O2 0.187988 0.432642 0.463802
O O3 0.000000 0.432946 0.500000
O O4 0.388024 0.399332 0.812263
O O5 0.163081 0.824400 0.077076
O O6 0.926917 0.752408 0.256329
O O7 0.000000 0.688920 0.500000
O O8 0.031456 0.659927 0.312811
O O9 0.327907 0.826644 0.915532
O O10 0.374312 0.892758 0.790912
O O11 0.500000 0.700106 0.500000
O O12 0.570727 0.647335 0.382299
#
# Coordination Sequence:
#
# PCOD8112525 Si02
#       6
#     8   4   8   4   8   8
#     4  11  24  43  65  93 122 154 199 260 317 362
#     4  12  20  38  62  97 124 155 195 249 320 370
#     4  11  21  36  59  92 126 161 199 247 308 364
#     4  10  23  38  57  85 118 169 205 241 296 344
#     4   9  21  37  57  85 126 165 205 243 294 363
#     4  11  21  40  59  86 123 165 203 252 294 358
#
# _framework density 20.925194999999999
#
# number of rings (size 3 to 8) (size 9 to 14) (size 15 to 20)
#    0.000    1.400    4.000    1.500    2.800    0.800 
#    0.000    0.500    0.000    5.400    0.000    0.000 
#    0.000    0.000    0.000    0.000    0.000    0.000 
#
# Total GULP energy -247880.355072 kJ/mol
# GULP energy per Si atom -12394.017754 kJ/mol
# Density = 2.087757 g / cm^3
# Si number density = 20.925195 Si / 1000 Ang^3
#
#
#
# Elastic Constant Matrix: (Units=GPa)
#
#
# Indices 1 2 3 4 5 6 
#
# 1 90.6312 29.6215 31.5530 0.0000 13.1788 0.0000
# 2 29.6215 85.3510 30.5086 0.0000 4.2947 0.0000
# 3 31.5530 30.5086 95.9890 -0.0001 10.4457 0.0001
# 4 0.0000 0.0000 -0.0001 40.4713 0.0000 -34.6560
# 5 13.1788 4.2947 10.4457 0.0000 51.1309 0.0000
# 6 0.0000 0.0000 0.0001 -34.6560 0.0000 48.1876
#
#
#
# Elastic Compliance Matrix: (Units=1/GPa)
#
#
# Indices 1 2 3 4 5 6 
#
# 1 0.013627 -0.003496 -0.003087 0.000000 -0.002588 0.000000
# 2 -0.003496 0.014118 -0.003382 0.000000 0.000406 0.000000
# 3 -0.003087 -0.003382 0.012672 0.000000 -0.001509 0.000000
# 4 0.000000 0.000000 0.000000 0.064320 0.000000 0.046259
# 5 -0.002588 0.000406 -0.001509 0.000000 0.020499 0.000000
# 6 0.000000 0.000000 0.000000 0.046259 0.000000 0.054021
#
#
# Mechanical properties :
#
#
# Convention : Reuss Voigt Hill
#
# Bulk Modulus (GPa) = 48.81048 50.59305 49.70177
# Shear Modulus (GPa) = 24.26994 39.97719 32.12357
#
# Velocity S-wave (km/s) = 3.40934 4.37565 3.92237
# Velocity P-wave (km/s) = 6.23498 7.05400 6.65710
#
# Compressibility (1/GPa) = 0.02048741
#
# Stress axis : x y z
#
# Youngs Moduli (GPa) = 73.38226 70.83097 78.91573
#
# Poissons Ratio (x) = 0.24761 0.24359
# Poissons Ratio (y) = 0.25653 0.26692
# Poissons Ratio (z) = 0.22651 0.23957
#
# Static dielectric constant tensor:
#      x y z
#    x 4.054210 0.000000 0.025590 
#    y 0.000000 3.733570 0.000000 
#    z 0.025590 0.000000 4.377590 
# 
# 
# High freq. dielectric constant tensor:
#      x y z
#    x 1.822770 0.000000 0.001380 
#    y 0.000000 1.791780 0.000000 
#    z 0.001380 0.000000 1.830580 
# 
# From -- ./inp_files/8147.got.cif
#   From: 2010.06.25/outbox.cif.g09.slc.cpg/sg12_5_cif.got.tgz:8147.got - 2010.06.28 00:19:55.
