data_PCOD8112685
_publ_section_title
;
Structure prediction by ZEFSAII (Michael W. Deem and Ramdas Pophale) SiO2 
 PCOD8112685
Probable space group: C 2/M
;
_chemical_formula_sum "Si O2"
_cell_formula_units_Z 56
_cell_length_a 19.425683
_cell_length_b 9.016977
_cell_length_c 27.216492
_cell_angle_alpha 90.000000
_cell_angle_beta 141.617570
_cell_angle_gamma 90.000000
_cell_volume 2960.031017
_symmetry_space_group_name_H-M "C 2/M"
_symmetry_group_IT_number 12
_symmetry_cell_setting 'monoclinic'
loop_
_space_group_symop_operation_xyz
x,y,z
-x,y,-z
-x,-y,-z
x,-y,z
1/2+x,1/2+y,z
1/2-x,1/2+y,-z
1/2-x,1/2-y,-z
1/2+x,1/2-y,z
loop_
_atom_site_type_symbol
_atom_site_label
_atom_site_fract_x
_atom_site_fract_y
_atom_site_fract_z
Si Si1 0.371704 0.327118 0.831967
Si Si2 0.747363 0.173145 0.859544
Si Si3 0.935042 0.666642 0.014466
Si Si4 0.323533 0.325845 0.695132
Si Si5 0.508084 0.175218 0.280640
Si Si6 0.866529 0.169828 0.563648
Si Si7 0.389698 0.330974 0.464539
O O1 0.396605 0.500000 0.850232
O O2 0.286573 0.275380 0.826994
O O3 0.490384 0.246364 0.902729
O O4 0.317728 0.286146 0.749512
O O5 0.620386 0.216448 0.796624
O O6 0.767846 0.000000 0.877250
O O7 0.817126 0.253532 0.941293
O O8 0.912591 0.500000 0.019532
O O9 0.000000 0.673554 0.000000
O O10 0.337820 0.500000 0.694219
O O11 0.427739 0.242147 0.729810
O O12 0.211504 0.273615 0.606563
O O13 0.548672 0.246415 0.353869
O O14 0.528680 0.000000 0.294511
O O15 0.750000 0.250000 0.500000
O O16 0.914884 0.178863 0.536192
O O17 0.852185 0.000000 0.573007
O O18 0.500000 0.272151 0.500000
O O19 0.361668 0.500000 0.433257
#
# Coordination Sequence:
#
# PCOD8112685 Si02
#       7
#     8   8   8   8   8   8   8
#     4   9  19  36  57  82 111 145 184 226 276 332
#     4   9  19  36  58  82 110 146 186 228 274 328
#     4   9  17  31  54  85 114 142 179 225 277 328
#     4  11  23  38  58  83 113 149 187 231 281 333
#     4  11  23  38  58  82 113 150 189 232 279 332
#     4  11  22  38  60  83 111 149 189 228 276 332
#     4  10  23  41  59  82 113 148 185 229 281 333
#
# _framework density 18.91872
#
# number of rings (size 3 to 8) (size 9 to 14) (size 15 to 20)
#    0.000    2.000    1.429    1.714    2.000    4.857 
#    0.000    0.714    0.000    0.000    0.000    0.000 
#    0.000    0.000    0.000    0.000    0.000    0.000 
#
# Total GULP energy -347276.732909 kJ/mol
# GULP energy per Si atom -12402.740461 kJ/mol
# Density = 1.887566 g / cm^3
# Si number density = 18.918720 Si / 1000 Ang^3
#
#
#
# Elastic Constant Matrix: (Units=GPa)
#
#
# Indices 1 2 3 4 5 6 
#
# 1 90.8170 33.5225 29.9101 0.0000 16.4389 0.0000
# 2 33.5225 86.0689 43.5116 -0.0001 13.5501 0.0002
# 3 29.9101 43.5116 83.7982 0.0000 18.2656 0.0000
# 4 0.0000 -0.0001 0.0000 29.8318 0.0000 -3.8616
# 5 16.4389 13.5501 18.2656 0.0000 32.1002 0.0000
# 6 0.0000 0.0002 0.0000 -3.8616 0.0000 21.3369
#
#
#
# Elastic Compliance Matrix: (Units=1/GPa)
#
#
# Indices 1 2 3 4 5 6 
#
# 1 0.013835 -0.003642 -0.002098 0.000000 -0.004354 0.000000
# 2 -0.003642 0.016860 -0.007203 0.000000 -0.001153 0.000000
# 3 -0.002098 -0.007203 0.017724 0.000000 -0.005970 0.000000
# 4 0.000000 0.000000 0.000000 0.034325 0.000000 0.006212
# 5 -0.004354 -0.001153 -0.005970 0.000000 0.037266 0.000000
# 6 0.000000 0.000000 0.000000 0.006212 0.000000 0.047991
#
#
# Mechanical properties :
#
#
# Convention : Reuss Voigt Hill
#
# Bulk Modulus (GPa) = 44.38137 52.73026 48.55582
# Shear Modulus (GPa) = 24.82638 26.90312 25.86475
#
# Velocity S-wave (km/s) = 3.62645 3.77508 3.70151
# Velocity P-wave (km/s) = 6.40662 6.85085 6.63245
#
# Compressibility (1/GPa) = 0.02253198
#
# Stress axis : x y z
#
# Youngs Moduli (GPa) = 72.28257 59.31088 56.42165
#
# Poissons Ratio (x) = 0.21604 0.11835
# Poissons Ratio (y) = 0.26329 0.40642
# Poissons Ratio (z) = 0.15162 0.42723
#
# Static dielectric constant tensor:
#      x y z
#    x 3.495400 0.000000 -0.049970 
#    y 0.000000 3.598140 0.000000 
#    z -0.049970 0.000000 3.224140 
# 
# 
# High freq. dielectric constant tensor:
#      x y z
#    x 1.724580 0.000000 0.000380 
#    y 0.000000 1.741970 0.000000 
#    z 0.000380 0.000000 1.739890 
# 
# From -- ./inp_files/363094.got.cif
#   From: 2010.06.25/outbox.cif.g09.slc.cpg/sg12_182_cif.got.tgz:363094.got - 2010.06.28 00:19:55.
