data_PCOD8112627
_publ_section_title
;
Structure prediction by ZEFSAII (Michael W. Deem and Ramdas Pophale) SiO2 
 PCOD8112627
Probable space group: C 2/M
;
_chemical_formula_sum "Si O2"
_cell_formula_units_Z 52
_cell_length_a 22.770843
_cell_length_b 24.778365
_cell_length_c 5.123669
_cell_angle_alpha 90.000000
_cell_angle_beta 55.167615
_cell_angle_gamma 90.000000
_cell_volume 2372.925961
_symmetry_space_group_name_H-M "C 2/M"
_symmetry_group_IT_number 12
_symmetry_cell_setting 'monoclinic'
loop_
_space_group_symop_operation_xyz
x,y,z
-x,y,-z
-x,-y,-z
x,-y,z
1/2+x,1/2+y,z
1/2-x,1/2+y,-z
1/2-x,1/2-y,-z
1/2+x,1/2-y,z
loop_
_atom_site_type_symbol
_atom_site_label
_atom_site_fract_x
_atom_site_fract_y
_atom_site_fract_z
Si Si1 0.668927 0.273013 0.722336
Si Si2 0.340863 0.341555 0.732163
Si Si3 0.147626 0.439976 0.625968
Si Si4 0.813633 0.380678 0.951486
Si Si5 0.000000 0.395133 0.000000
Si Si6 0.951452 0.061680 0.370934
Si Si7 0.932508 0.688498 0.789949
O O1 0.750000 0.250000 0.500000
O O2 0.636777 0.296471 0.534637
O O3 0.657914 0.317593 0.978835
O O4 0.614933 0.223885 0.898677
O O5 0.386784 0.396241 0.579864
O O6 0.260415 0.350563 0.846958
O O7 0.165925 0.500000 0.667511
O O8 0.192683 0.426413 0.252176
O O9 0.171672 0.401598 0.796588
O O10 0.064946 0.434230 0.754433
O O11 0.877486 0.338221 0.718297
O O12 0.025578 0.359557 0.174969
O O13 0.000000 0.064615 0.500000
O O14 0.921720 0.000000 0.409771
O O15 0.000000 0.078333 0.000000
O O16 0.000000 0.722547 0.500000
#
# Coordination Sequence:
#
# PCOD8112627 Si02
#       7
#     8   8   8   8   4   8   8
#     4  12  27  43  70  99 139 183 230 289 345 401
#     4  12  26  46  71 101 139 176 229 285 340 417
#     4  11  23  40  64  97 131 173 229 279 322 389
#     4  11  24  42  66  94 134 179 223 276 337 400
#     4  10  23  40  62  88 134 180 217 272 332 392
#     4  10  23  46  74 103 140 179 221 285 362 422
#     4  11  24  42  66  94 134 186 234 267 341 404
#
# _framework density 21.913872999999999
#
# number of rings (size 3 to 8) (size 9 to 14) (size 15 to 20)
#    0.000    0.923    3.077    3.000    4.308    3.077 
#    0.000    3.846    0.000    0.000    0.000    0.000 
#    0.000    0.000    0.000    0.000    0.000    0.000 
#
# Total GULP energy -322263.950360 kJ/mol
# GULP energy per Si atom -12394.767322 kJ/mol
# Density = 2.186400 g / cm^3
# Si number density = 21.913873 Si / 1000 Ang^3
#
#
#
# Elastic Constant Matrix: (Units=GPa)
#
#
# Indices 1 2 3 4 5 6 
#
# 1 78.9857 19.6353 34.1888 0.0000 -2.7473 0.0000
# 2 19.6353 90.9583 35.3650 0.0000 -10.9297 0.0000
# 3 34.1888 35.3650 113.3811 0.0000 -1.7611 0.0000
# 4 0.0000 0.0000 0.0000 42.0046 0.0000 -1.8275
# 5 -2.7473 -10.9297 -1.7611 0.0000 40.2787 0.0000
# 6 0.0000 0.0000 0.0000 -1.8275 0.0000 21.8931
#
#
#
# Elastic Compliance Matrix: (Units=1/GPa)
#
#
# Indices 1 2 3 4 5 6 
#
# 1 0.014784 -0.001608 -0.003950 0.000000 0.000399 0.000000
# 2 -0.001608 0.013120 -0.003556 0.000000 0.003295 0.000000
# 3 -0.003950 -0.003556 0.011109 0.000000 -0.000749 0.000000
# 4 0.000000 0.000000 0.000000 0.023894 0.000000 0.001995
# 5 0.000399 0.003295 -0.000749 0.000000 0.025716 0.000000
# 6 0.000000 0.000000 0.000000 0.001995 0.000000 0.045843
#
#
# Mechanical properties :
#
#
# Convention : Reuss Voigt Hill
#
# Bulk Modulus (GPa) = 48.11399 51.30035 49.70717
# Shear Modulus (GPa) = 31.32425 33.77768 32.55097
#
# Velocity S-wave (km/s) = 3.78488 3.93030 3.85828
# Velocity P-wave (km/s) = 6.41124 6.63756 6.52538
#
# Compressibility (1/GPa) = 0.02078397
#
# Stress axis : x y z
#
# Youngs Moduli (GPa) = 67.64105 76.22130 90.02025
#
# Poissons Ratio (x) = 0.12253 0.35561
# Poissons Ratio (y) = 0.10873 0.32014
# Poissons Ratio (z) = 0.26720 0.27107
#
# Static dielectric constant tensor:
#      x y z
#    x 3.953880 0.000000 -0.150790 
#    y 0.000000 3.981100 0.000000 
#    z -0.150790 0.000000 4.239680 
# 
# 
# High freq. dielectric constant tensor:
#      x y z
#    x 1.863440 0.000000 0.001140 
#    y 0.000000 1.859020 0.000000 
#    z 0.001140 0.000000 1.875450 
# 
# From -- ./inp_files/26171.got.cif
#   From: 2010.06.25/outbox.cif.g09.slc.cpg/sg12_14_cif.got.tgz:26171.got - 2010.06.28 00:19:55.
