data_PCOD8112703
_publ_section_title
;
Structure prediction by ZEFSAII (Michael W. Deem and Ramdas Pophale) SiO2 
 PCOD8112703
Probable space group: C 2/M
;
_chemical_formula_sum "Si O2"
_cell_formula_units_Z 36
_cell_length_a 11.998706
_cell_length_b 25.412781
_cell_length_c 8.663329
_cell_angle_alpha 90.000000
_cell_angle_beta 38.524280
_cell_angle_gamma 90.000000
_cell_volume 1645.327092
_symmetry_space_group_name_H-M "C 2/M"
_symmetry_group_IT_number 12
_symmetry_cell_setting 'monoclinic'
loop_
_space_group_symop_operation_xyz
x,y,z
-x,y,-z
-x,-y,-z
x,-y,z
1/2+x,1/2+y,z
1/2-x,1/2+y,-z
1/2-x,1/2-y,-z
1/2+x,1/2-y,z
loop_
_atom_site_type_symbol
_atom_site_label
_atom_site_fract_x
_atom_site_fract_y
_atom_site_fract_z
Si Si1 0.184481 0.730759 0.737183
Si Si2 0.380843 0.558983 0.400438
Si Si3 0.740444 0.059217 0.898116
Si Si4 0.910106 0.633574 0.323147
Si Si5 0.500000 0.789105 0.500000
O O1 0.250000 0.750000 0.500000
O O2 0.158429 0.667383 0.751712
O O3 0.331843 0.749469 0.701476
O O4 0.000000 0.756213 0.000000
O O5 0.371784 0.500000 0.340258
O O6 0.290781 0.559382 0.665326
O O7 0.587421 0.577621 0.186911
O O8 0.259794 0.599198 0.430148
O O9 0.687260 0.000000 0.004939
O O10 0.572714 0.095988 0.106156
O O11 0.980886 0.674235 0.372541
#
# Coordination Sequence:
#
# PCOD8112703 Si02
#       5
#     8   8   8   8   4
#     4  10  23  41  61  85 114 153 198 246 294 343
#     4   9  18  33  56  88 117 141 179 232 287 345
#     4   9  18  33  56  86 115 142 181 233 284 341
#     4  11  21  36  59  80 109 152 191 232 290 348
#     4  10  26  42  53  80 117 152 196 248 292 344
#
# _framework density 21.88015
#
# number of rings (size 3 to 8) (size 9 to 14) (size 15 to 20)
#    0.000    2.222    0.000    4.000    0.000   12.444 
#    0.000    2.222    0.000    2.667    0.000    0.000 
#    0.000    0.000    0.000    0.000    0.000    0.000 
#
# Total GULP energy -223009.716668 kJ/mol
# GULP energy per Si atom -12389.428704 kJ/mol
# Density = 2.183035 g / cm^3
# Si number density = 21.880150 Si / 1000 Ang^3
#
#
#
# Elastic Constant Matrix: (Units=GPa)
#
#
# Indices 1 2 3 4 5 6 
#
# 1 108.1410 77.6096 39.4601 0.0000 -43.7328 0.0000
# 2 77.6096 141.7663 54.6545 0.0000 -42.3807 0.0000
# 3 39.4601 54.6545 96.4521 0.0000 -36.6035 0.0000
# 4 0.0000 0.0000 0.0000 27.7106 0.0000 -19.3450
# 5 -43.7328 -42.3807 -36.6035 0.0000 43.7387 0.0000
# 6 0.0000 0.0000 0.0000 -19.3450 0.0000 46.2580
#
#
#
# Elastic Compliance Matrix: (Units=1/GPa)
#
#
# Indices 1 2 3 4 5 6 
#
# 1 0.019287 -0.006976 0.001195 0.000000 0.013525 0.000000
# 2 -0.006976 0.013038 -0.003497 0.000000 0.002731 0.000000
# 3 0.001195 -0.003497 0.016161 0.000000 0.011330 0.000000
# 4 0.000000 0.000000 0.000000 0.050967 0.000000 0.021314
# 5 0.013525 0.002731 0.011330 0.000000 0.048515 0.000000
# 6 0.000000 0.000000 0.000000 0.021314 0.000000 0.030531
#
#
# Mechanical properties :
#
#
# Convention : Reuss Voigt Hill
#
# Bulk Modulus (GPa) = 33.41268 76.64534 55.02901
# Shear Modulus (GPa) = 24.15085 35.18379 29.66732
#
# Velocity S-wave (km/s) = 3.32592 4.01437 3.68625
# Velocity P-wave (km/s) = 5.48206 7.52280 6.58200
#
# Compressibility (1/GPa) = 0.02992876
#
# Stress axis : x y z
#
# Youngs Moduli (GPa) = 51.84713 76.70081 61.87898
#
# Poissons Ratio (x) = 0.53508 -0.07395
# Poissons Ratio (y) = 0.36170 0.21641
# Poissons Ratio (z) = -0.06197 0.26825
#
# Static dielectric constant tensor:
#      x y z
#    x 4.402020 0.000000 -0.602560 
#    y 0.000000 4.932770 0.000000 
#    z -0.602560 0.000000 3.884810 
# 
# 
# High freq. dielectric constant tensor:
#      x y z
#    x 1.848090 0.000000 -0.037330 
#    y 0.000000 1.873380 0.000000 
#    z -0.037330 0.000000 1.843500 
# 
# From -- ./inp_files/52274.got.cif
#   From: 2010.06.25/outbox.cif.g09.slc.cpg/sg12_27_cif.got.tgz:52274.got - 2010.06.28 00:19:55.
