data_PCOD8112455
_publ_section_title
;
Structure prediction by ZEFSAII (Michael W. Deem and Ramdas Pophale) SiO2 
 PCOD8112455
Probable space group: C 2/M
;
_chemical_formula_sum "Si O2"
_cell_formula_units_Z 28
_cell_length_a 5.104798
_cell_length_b 16.602240
_cell_length_c 16.580941
_cell_angle_alpha 90.000000
_cell_angle_beta 117.984295
_cell_angle_gamma 90.000000
_cell_volume 1240.945261
_symmetry_space_group_name_H-M "C 2/M"
_symmetry_group_IT_number 12
_symmetry_cell_setting 'monoclinic'
loop_
_space_group_symop_operation_xyz
x,y,z
-x,y,-z
-x,-y,-z
x,-y,z
1/2+x,1/2+y,z
1/2-x,1/2+y,-z
1/2-x,1/2-y,-z
1/2+x,1/2-y,z
loop_
_atom_site_type_symbol
_atom_site_label
_atom_site_fract_x
_atom_site_fract_y
_atom_site_fract_z
Si Si1 0.095164 0.304032 0.239800
Si Si2 0.666196 0.906771 0.941065
Si Si3 0.500000 0.807051 0.500000
Si Si4 0.794875 0.408666 0.597125
O O1 0.811108 0.265681 0.241586
O O2 0.997268 0.357449 0.150919
O O3 0.261967 0.360724 0.328431
O O4 0.663728 0.000000 0.915135
O O5 0.500000 0.891375 0.000000
O O6 0.000000 0.875014 0.000000
O O7 0.750000 0.750000 0.500000
O O8 0.566173 0.867022 0.585377
O O9 0.500000 0.404102 0.500000
O O10 0.886845 0.500000 0.630085
#
# Coordination Sequence:
#
# PCOD8112455 Si02
#       4
#     8   8   4   8
#     4  12  27  43  67 102 136 178 222 278 342 401
#     4  10  22  44  71  98 132 175 220 274 335 402
#     4  12  23  42  67  94 130 170 218 276 337 394
#     4  11  26  47  70  99 136 184 234 282 337 405
#
# _framework density 22.563445000000002
#
# number of rings (size 3 to 8) (size 9 to 14) (size 15 to 20)
#    0.000    0.857    1.429    4.714    4.000    3.429 
#    0.000    2.857    0.000    0.000    0.000    0.000 
#    0.000    0.000    0.000    0.000    0.000    0.000 
#
# Total GULP energy -173543.172152 kJ/mol
# GULP energy per Si atom -12395.940868 kJ/mol
# Density = 2.251209 g / cm^3
# Si number density = 22.563445 Si / 1000 Ang^3
#
#
#
# Elastic Constant Matrix: (Units=GPa)
#
#
# Indices 1 2 3 4 5 6 
#
# 1 100.5540 32.6560 10.9749 0.0000 -0.6527 0.0000
# 2 32.6560 124.5929 65.2575 0.0000 -12.9311 0.0000
# 3 10.9749 65.2575 128.9770 0.0000 3.0375 0.0000
# 4 0.0000 0.0000 0.0000 68.4775 0.0000 -29.1252
# 5 -0.6527 -12.9311 3.0375 0.0000 27.2103 0.0000
# 6 0.0000 0.0000 0.0000 -29.1252 0.0000 38.6084
#
#
#
# Elastic Compliance Matrix: (Units=1/GPa)
#
#
# Indices 1 2 3 4 5 6 
#
# 1 0.010972 -0.003482 0.000863 0.000000 -0.001488 0.000000
# 2 -0.003482 0.013030 -0.006457 0.000000 0.006829 0.000000
# 3 0.000863 -0.006457 0.011048 0.000000 -0.004281 0.000000
# 4 0.000000 0.000000 0.000000 0.021503 0.000000 0.016221
# 5 -0.001488 0.006829 -0.004281 0.000000 0.040438 0.000000
# 6 0.000000 0.000000 0.000000 0.016221 0.000000 0.038138
#
#
# Mechanical properties :
#
#
# Convention : Reuss Voigt Hill
#
# Bulk Modulus (GPa) = 59.18143 63.54450 61.36297
# Shear Modulus (GPa) = 31.46387 43.20829 37.33608
#
# Velocity S-wave (km/s) = 3.73830 4.38078 4.07223
# Velocity P-wave (km/s) = 6.70217 7.33567 7.02606
#
# Compressibility (1/GPa) = 0.01689719
#
# Stress axis : x y z
#
# Youngs Moduli (GPa) = 91.14137 76.74804 90.51669
#
# Poissons Ratio (x) = 0.26727 -0.07815
# Poissons Ratio (y) = 0.31739 0.58447
# Poissons Ratio (z) = -0.07869 0.49556
#
# Static dielectric constant tensor:
#      x y z
#    x 28.946410 0.000000 -5.698550 
#    y 0.000000 4.678650 0.000000 
#    z -5.698550 0.000000 5.346190 
# 
# 
# High freq. dielectric constant tensor:
#      x y z
#    x 1.896600 0.000000 -0.021360 
#    y 0.000000 1.912740 0.000000 
#    z -0.021360 0.000000 1.889520 
# 
# From -- ./inp_files/190977.got.cif
#   From: 2010.06.25/outbox.cif.g09.slc.cpg/sg12_96_cif.got.tgz:190977.got - 2010.06.28 00:19:55.
