data_PCOD8112192
_publ_section_title
;
Structure prediction by ZEFSAII (Michael W. Deem and Ramdas Pophale) SiO2 
 PCOD8112192
Probable space group: C 2/M
;
_chemical_formula_sum "Si O2"
_cell_formula_units_Z 52
_cell_length_a 24.656014
_cell_length_b 11.878588
_cell_length_c 10.744268
_cell_angle_alpha 90.000000
_cell_angle_beta 52.795872
_cell_angle_gamma 90.000000
_cell_volume 2506.356595
_symmetry_space_group_name_H-M "C 2/M"
_symmetry_group_IT_number 12
_symmetry_cell_setting 'monoclinic'
loop_
_space_group_symop_operation_xyz
x,y,z
-x,y,-z
-x,-y,-z
x,-y,z
1/2+x,1/2+y,z
1/2-x,1/2+y,-z
1/2-x,1/2-y,-z
1/2+x,1/2-y,z
loop_
_atom_site_type_symbol
_atom_site_label
_atom_site_fract_x
_atom_site_fract_y
_atom_site_fract_z
Si Si1 0.956023 0.000000 0.897999
Si Si2 0.288786 0.284035 0.824324
Si Si3 0.339921 0.129375 0.103160
Si Si4 0.590555 0.292203 0.185071
Si Si5 0.500000 0.187985 0.500000
Si Si6 0.330686 0.259790 0.367210
Si Si7 0.633104 0.125476 0.448805
Si Si8 0.397011 0.500000 0.251403
O O1 0.920741 0.109703 0.894491
O O2 0.036539 0.000000 0.751041
O O3 0.935687 0.000000 0.068296
O O4 0.241693 0.368202 0.809815
O O5 0.359407 0.337506 0.774032
O O6 0.304968 0.173658 0.719738
O O7 0.250000 0.250000 0.000000
O O8 0.355083 0.197726 0.207963
O O9 0.363411 0.000000 0.084996
O O10 0.380279 0.184840 0.931634
O O11 0.521074 0.261034 0.350978
O O12 0.564320 0.117176 0.461203
O O13 0.250000 0.250000 0.500000
O O14 0.373298 0.202202 0.419452
O O15 0.349931 0.391211 0.336449
O O16 0.653390 0.000000 0.461900
#
# Coordination Sequence:
#
# PCOD8112192 Si02
#       8
#     4   8   8   8   4   8   8   4
#     4  11  22  45  72  94 134 179 227 273 329 404
#     4   9  21  38  58  93 127 170 215 262 322 389
#     4  11  23  41  61  94 136 170 215 276 330 390
#     4  10  22  42  65  98 125 174 221 268 328 393
#     4  10  23  43  66  94 134 167 219 268 324 396
#     4  12  25  42  67 100 131 173 224 274 335 397
#     4  11  23  41  66  96 129 169 216 266 330 390
#     4  11  26  44  70  96 136 180 220 278 335 397
#
# _framework density 20.747247000000002
#
# number of rings (size 3 to 8) (size 9 to 14) (size 15 to 20)
#    0.000    1.385    3.077    1.615    3.231    6.462 
#    4.154    0.769    0.000    2.769    0.000    0.000 
#    0.000    0.000    0.000    0.000    0.000    0.000 
#
# Total GULP energy -322259.721028 kJ/mol
# GULP energy per Si atom -12394.604655 kJ/mol
# Density = 2.070002 g / cm^3
# Si number density = 20.747247 Si / 1000 Ang^3
#
#
#
# Elastic Constant Matrix: (Units=GPa)
#
#
# Indices 1 2 3 4 5 6 
#
# 1 86.9583 47.5535 25.9911 0.0000 7.7131 0.0000
# 2 47.5535 155.3889 46.8714 0.0000 0.2779 0.0000
# 3 25.9911 46.8714 112.7160 0.0000 4.4534 0.0000
# 4 0.0000 0.0000 0.0000 30.6892 0.0000 5.7845
# 5 7.7131 0.2779 4.4534 0.0000 35.4943 0.0000
# 6 0.0000 0.0000 0.0000 5.7845 0.0000 23.1799
#
#
#
# Elastic Compliance Matrix: (Units=1/GPa)
#
#
# Indices 1 2 3 4 5 6 
#
# 1 0.014369 -0.003919 -0.001569 0.000000 -0.002895 0.000000
# 2 -0.003919 0.008431 -0.002646 0.000000 0.001118 0.000000
# 3 -0.001569 -0.002646 0.010371 0.000000 -0.000940 0.000000
# 4 0.000000 0.000000 0.000000 0.034193 0.000000 -0.008533
# 5 -0.002895 0.001118 -0.000940 0.000000 0.028912 0.000000
# 6 0.000000 0.000000 0.000000 -0.008533 0.000000 0.045270
#
#
# Mechanical properties :
#
#
# Convention : Reuss Voigt Hill
#
# Bulk Modulus (GPa) = 59.16478 66.21059 62.68768
# Shear Modulus (GPa) = 30.59066 33.51583 32.05324
#
# Velocity S-wave (km/s) = 3.84402 4.02361 3.93484
# Velocity P-wave (km/s) = 6.94844 7.31902 7.13614
#
# Compressibility (1/GPa) = 0.01690195
#
# Stress axis : x y z
#
# Youngs Moduli (GPa) = 69.59659 118.61047 96.41951
#
# Poissons Ratio (x) = 0.46479 0.15132
# Poissons Ratio (y) = 0.27272 0.25517
# Poissons Ratio (z) = 0.10922 0.31390
#
# Static dielectric constant tensor:
#      x y z
#    x 4.731380 0.000000 -0.186250 
#    y 0.000000 3.538060 0.000000 
#    z -0.186250 0.000000 3.874870 
# 
# 
# High freq. dielectric constant tensor:
#      x y z
#    x 1.825090 0.000000 0.007590 
#    y 0.000000 1.796960 0.000000 
#    z 0.007590 0.000000 1.818410 
# 
# From -- ./inp_files/175224.got.cif
#   From: 2010.06.25/outbox.cif.g09.slc.cpg/sg12_88_cif.got.tgz:175224.got - 2010.06.28 00:19:55.
