data_PCOD8112261
_publ_section_title
;
Structure prediction by ZEFSAII (Michael W. Deem and Ramdas Pophale) SiO2 
 PCOD8112261
Probable space group: C 2/M
;
_chemical_formula_sum "Si O2"
_cell_formula_units_Z 36
_cell_length_a 18.787345
_cell_length_b 19.809340
_cell_length_c 8.004019
_cell_angle_alpha 90.000000
_cell_angle_beta 142.779275
_cell_angle_gamma 90.000000
_cell_volume 1801.847033
_symmetry_space_group_name_H-M "C 2/M"
_symmetry_group_IT_number 12
_symmetry_cell_setting 'monoclinic'
loop_
_space_group_symop_operation_xyz
x,y,z
-x,y,-z
-x,-y,-z
x,-y,z
1/2+x,1/2+y,z
1/2-x,1/2+y,-z
1/2-x,1/2-y,-z
1/2+x,1/2-y,z
loop_
_atom_site_type_symbol
_atom_site_label
_atom_site_fract_x
_atom_site_fract_y
_atom_site_fract_z
Si Si1 0.500000 0.184936 0.500000
Si Si2 0.632951 0.500000 0.807596
Si Si3 0.159597 0.000000 0.240588
Si Si4 0.000000 0.882535 0.000000
Si Si5 0.561690 0.686209 0.448937
Si Si6 0.788085 0.389513 0.929250
Si Si7 0.873518 0.500000 0.838742
O O1 0.452299 0.232446 0.562415
O O2 0.607581 0.139527 0.762831
O O3 0.500000 0.500000 0.500000
O O4 0.620673 0.500000 0.980207
O O5 0.703475 0.434726 0.883206
O O6 0.111052 0.931891 0.236456
O O7 0.297518 0.000000 0.527963
O O8 0.992496 0.837079 0.152848
O O9 0.500000 0.653078 0.500000
O O10 0.701312 0.669064 0.697388
O O11 0.848407 0.432562 0.896215
O O12 0.000000 0.500000 0.000000
#
# Coordination Sequence:
#
# PCOD8112261 Si02
#       7
#     4   4   4   4   8   8   4
#     4  10  26  41  66  91 134 184 216 258 322 400
#     4  11  24  38  74  98 123 166 221 280 329 386
#     4  11  22  37  65 100 129 161 212 279 338 379
#     4  11  20  40  68 100 130 165 212 282 332 379
#     4  10  22  42  67  96 132 167 223 265 322 391
#     4  11  22  46  65  92 132 173 219 271 330 385
#     4  11  26  41  63  95 136 167 215 279 328 394
#
# _framework density 19.979499000000001
#
# number of rings (size 3 to 8) (size 9 to 14) (size 15 to 20)
#    0.667    0.667    2.222    4.000    6.222    0.889 
#    2.000    1.667    0.000    0.000    0.000    0.000 
#    0.000    0.000    0.000    0.000    0.000    0.000 
#
# Total GULP energy -223101.875678 kJ/mol
# GULP energy per Si atom -12394.548649 kJ/mol
# Density = 1.993402 g / cm^3
# Si number density = 19.979499 Si / 1000 Ang^3
#
#
#
# Elastic Constant Matrix: (Units=GPa)
#
#
# Indices 1 2 3 4 5 6 
#
# 1 119.3405 44.4512 62.8155 0.0000 1.3894 0.0000
# 2 44.4512 108.0407 73.1921 0.0000 8.2837 0.0000
# 3 62.8155 73.1921 172.6995 0.0000 12.7858 0.0000
# 4 0.0000 0.0000 0.0000 36.7324 0.0000 -30.2876
# 5 1.3894 8.2837 12.7858 0.0000 46.6463 0.0000
# 6 0.0000 0.0000 0.0000 -30.2876 0.0000 126.9086
#
#
#
# Elastic Compliance Matrix: (Units=1/GPa)
#
#
# Indices 1 2 3 4 5 6 
#
# 1 0.010866 -0.002550 -0.002941 0.000000 0.000935 0.000000
# 2 -0.002550 0.013612 -0.004765 0.000000 -0.001035 0.000000
# 3 -0.002941 -0.004765 0.008993 0.000000 -0.001531 0.000000
# 4 0.000000 0.000000 0.000000 0.033894 0.000000 0.008089
# 5 0.000935 -0.001035 -0.001531 0.000000 0.022014 0.000000
# 6 0.000000 0.000000 0.000000 0.008089 0.000000 0.009810
#
#
# Mechanical properties :
#
#
# Convention : Reuss Voigt Hill
#
# Bulk Modulus (GPa) = 77.16198 84.55537 80.85867
# Shear Modulus (GPa) = 40.31596 56.69893 48.50744
#
# Velocity S-wave (km/s) = 4.49694 5.33293 4.93268
# Velocity P-wave (km/s) = 8.10356 8.96288 8.54403
#
# Compressibility (1/GPa) = 0.01295975
#
# Stress axis : x y z
#
# Youngs Moduli (GPa) = 92.02785 73.46293 111.19999
#
# Poissons Ratio (x) = 0.18734 0.32702
# Poissons Ratio (y) = 0.23469 0.52985
# Poissons Ratio (z) = 0.27064 0.35004
#
# Static dielectric constant tensor:
#      x y z
#    x 3.259160 0.000000 0.011980 
#    y 0.000000 3.635270 0.000000 
#    z 0.011980 0.000000 3.554940 
# 
# 
# High freq. dielectric constant tensor:
#      x y z
#    x 1.768780 0.000000 0.001840 
#    y 0.000000 1.778770 0.000000 
#    z 0.001840 0.000000 1.789750 
# 
# From -- ./inp_files/89810.got.cif
#   From: 2010.06.25/outbox.cif.g09.slc.cpg/sg12_45_cif.got.tgz:89810.got - 2010.06.28 00:19:55.
