data_PCOD8112409
_publ_section_title
;
Structure prediction by ZEFSAII (Michael W. Deem and Ramdas Pophale) SiO2 
 PCOD8112409
Probable space group: C 2/M
;
_chemical_formula_sum "Si O2"
_cell_formula_units_Z 24
_cell_length_a 7.848440
_cell_length_b 27.875953
_cell_length_c 7.753178
_cell_angle_alpha 90.000000
_cell_angle_beta 35.554828
_cell_angle_gamma 90.000000
_cell_volume 986.345125
_symmetry_space_group_name_H-M "C 2/M"
_symmetry_group_IT_number 12
_symmetry_cell_setting 'monoclinic'
loop_
_space_group_symop_operation_xyz
x,y,z
-x,y,-z
-x,-y,-z
x,-y,z
1/2+x,1/2+y,z
1/2-x,1/2+y,-z
1/2-x,1/2-y,-z
1/2+x,1/2-y,z
loop_
_atom_site_type_symbol
_atom_site_label
_atom_site_fract_x
_atom_site_fract_y
_atom_site_fract_z
Si Si1 0.180747 0.552937 0.692971
Si Si2 0.201506 0.131284 0.678245
Si Si3 0.188439 0.209372 0.189290
O O1 0.500000 0.546487 0.500000
O O2 0.052826 0.500000 0.749295
O O3 0.176303 0.586580 0.530349
O O4 0.000000 0.576378 0.000000
O O5 0.500000 0.157536 0.500000
O O6 0.006198 0.166688 0.725739
O O7 0.000000 0.112269 0.000000
O O8 0.000000 0.232436 0.500000
O O9 0.500000 0.188989 0.000000
O O10 0.250000 0.250000 0.000000
#
# Coordination Sequence:
#
# PCOD8112409 Si02
#       3
#     8   8   8
#     4  10  22  43  70 101 139 184 231 280 342 411
#     4  12  26  44  69 105 143 181 231 285 346 412
#     4  12  27  49  73  99 137 182 234 289 349 412
#
# _framework density 24.332256000000001
#
# number of rings (size 3 to 8) (size 9 to 14) (size 15 to 20)
#    0.000    0.667    0.000    7.000    0.000    6.667 
#    0.000    0.000    0.000    0.000    0.000    0.000 
#    0.000    0.000    0.000    0.000    0.000    0.000 
#
# Total GULP energy -148793.590591 kJ/mol
# GULP energy per Si atom -12399.465883 kJ/mol
# Density = 2.427688 g / cm^3
# Si number density = 24.332256 Si / 1000 Ang^3
#
#
#
# Elastic Constant Matrix: (Units=GPa)
#
#
# Indices 1 2 3 4 5 6 
#
# 1 155.1079 67.3144 83.3108 0.0000 -12.0305 0.0000
# 2 67.3144 119.4216 63.4803 0.0000 16.7341 0.0000
# 3 83.3108 63.4803 232.3255 0.0000 27.8459 0.0000
# 4 0.0000 0.0000 0.0000 30.7457 0.0000 -4.4583
# 5 -12.0305 16.7341 27.8459 0.0000 73.6104 0.0000
# 6 0.0000 0.0000 0.0000 -4.4583 0.0000 8.7362
#
#
#
# Elastic Compliance Matrix: (Units=1/GPa)
#
#
# Indices 1 2 3 4 5 6 
#
# 1 0.010410 -0.004892 -0.002864 0.000000 0.003897 0.000000
# 2 -0.004892 0.012210 -0.001208 0.000000 -0.003118 0.000000
# 3 -0.002864 -0.001208 0.005954 0.000000 -0.002446 0.000000
# 4 0.000000 0.000000 0.000000 0.035124 0.000000 0.017925
# 5 0.003897 -0.003118 -0.002446 0.000000 0.015856 0.000000
# 6 0.000000 0.000000 0.000000 0.017925 0.000000 0.123614
#
#
# Mechanical properties :
#
#
# Convention : Reuss Voigt Hill
#
# Bulk Modulus (GPa) = 93.91766 103.89623 98.90694
# Shear Modulus (GPa) = 22.25723 42.13510 32.19616
#
# Velocity S-wave (km/s) = 3.02772 4.16583 3.64151
# Velocity P-wave (km/s) = 7.13474 8.11976 7.64314
#
# Compressibility (1/GPa) = 0.01064762
#
# Stress axis : x y z
#
# Youngs Moduli (GPa) = 96.05742 81.89724 167.94098
#
# Poissons Ratio (x) = 0.40064 0.48090
# Poissons Ratio (y) = 0.46991 0.20294
# Poissons Ratio (z) = 0.27506 0.09896
#
# Static dielectric constant tensor:
#      x y z
#    x 4.738480 0.000000 -0.170600 
#    y 0.000000 4.416150 0.000000 
#    z -0.170600 0.000000 5.330270 
# 
# 
# High freq. dielectric constant tensor:
#      x y z
#    x 1.973340 0.000000 -0.000720 
#    y 0.000000 1.952390 0.000000 
#    z -0.000720 0.000000 2.003270 
# 
# From -- ./inp_files/41245.got.cif
#   From: 2010.06.25/outbox.cif.g09.slc.cpg/sg12_21_cif.got.tgz:41245.got - 2010.06.28 00:19:55.
