data_PCOD8112672
_publ_section_title
;
Structure prediction by ZEFSAII (Michael W. Deem and Ramdas Pophale) SiO2 
 PCOD8112672
Probable space group: C 2/M
;
_chemical_formula_sum "Si O2"
_cell_formula_units_Z 44
_cell_length_a 8.553687
_cell_length_b 15.704925
_cell_length_c 21.903487
_cell_angle_alpha 90.000000
_cell_angle_beta 43.036326
_cell_angle_gamma 90.000000
_cell_volume 2008.079469
_symmetry_space_group_name_H-M "C 2/M"
_symmetry_group_IT_number 12
_symmetry_cell_setting 'monoclinic'
loop_
_space_group_symop_operation_xyz
x,y,z
-x,y,-z
-x,-y,-z
x,-y,z
1/2+x,1/2+y,z
1/2-x,1/2+y,-z
1/2-x,1/2-y,-z
1/2+x,1/2-y,z
loop_
_atom_site_type_symbol
_atom_site_label
_atom_site_fract_x
_atom_site_fract_y
_atom_site_fract_z
Si Si1 0.596098 0.729337 0.693478
Si Si2 0.090686 0.321818 0.573608
Si Si3 0.008342 0.500000 0.744669
Si Si4 0.839357 0.655656 0.987329
Si Si5 0.740616 0.000000 0.553036
Si Si6 0.858256 0.651672 0.213936
Si Si7 0.985577 0.000000 0.931848
O O1 0.578405 0.807025 0.650217
O O2 0.398708 0.660539 0.737922
O O3 0.563729 0.763037 0.772189
O O4 0.839484 0.683254 0.615747
O O5 0.250000 0.250000 0.500000
O O6 0.195398 0.414138 0.527393
O O7 0.055361 0.500000 0.659859
O O8 0.136305 0.579021 0.737843
O O9 0.735816 0.500000 0.831298
O O10 0.976137 0.626979 0.888435
O O11 0.750000 0.750000 0.000000
O O12 0.640013 0.586271 0.054902
O O13 0.000000 0.656588 0.000000
O O14 0.000000 0.000000 0.500000
O O15 0.000000 0.000000 0.000000
#
# Coordination Sequence:
#
# PCOD8112672 Si02
#       7
#     8   8   4   8   4   8   4
#     4  10  23  40  69  95 137 184 231 287 352 416
#     4  11  23  44  67 103 138 179 231 294 353 423
#     4  12  26  45  71  99 142 184 237 296 354 433
#     4  12  26  43  70 106 144 189 241 296 359 430
#     4  12  26  43  71 103 137 184 231 282 360 426
#     4  11  23  43  66  98 138 183 236 285 350 420
#     4  12  25  46  70 102 147 192 238 305 361 420
#
# _framework density 21.911484999999999
#
# number of rings (size 3 to 8) (size 9 to 14) (size 15 to 20)
#    0.000    0.727    3.636    3.545    5.091    2.182 
#    0.000    1.818    0.000    0.000    0.000    0.000 
#    0.000    0.000    0.000    0.000    0.000    0.000 
#
# Total GULP energy -272854.509132 kJ/mol
# GULP energy per Si atom -12402.477688 kJ/mol
# Density = 2.186161 g / cm^3
# Si number density = 21.911485 Si / 1000 Ang^3
#
#
#
# Elastic Constant Matrix: (Units=GPa)
#
#
# Indices 1 2 3 4 5 6 
#
# 1 134.8159 51.9285 32.5340 -0.0014 -29.1880 -0.0024
# 2 51.9285 157.4102 27.1227 -0.0043 -27.3056 -0.0024
# 3 32.5340 27.1227 100.4071 -0.0102 -18.7919 -0.0182
# 4 -0.0014 -0.0043 -0.0102 28.5600 -0.0021 -7.2157
# 5 -29.1880 -27.3056 -18.7919 -0.0021 48.6835 0.0019
# 6 -0.0024 -0.0024 -0.0182 -7.2157 0.0019 32.8507
#
#
#
# Elastic Compliance Matrix: (Units=1/GPa)
#
#
# Indices 1 2 3 4 5 6 
#
# 1 0.009505 -0.002170 -0.001784 0.000000 0.003793 -0.000001
# 2 -0.002170 0.007682 -0.000872 0.000001 0.002671 0.000000
# 3 -0.001784 -0.000872 0.011297 0.000006 0.002802 0.000007
# 4 0.000000 0.000001 0.000006 0.037071 0.000004 0.008143
# 5 0.003793 0.002671 0.002802 0.000004 0.025395 0.000001
# 6 -0.000001 0.000000 0.000007 0.008143 0.000001 0.032229
#
#
# Mechanical properties :
#
#
# Convention : Reuss Voigt Hill
#
# Bulk Modulus (GPa) = 53.09916 68.42261 60.76089
# Shear Modulus (GPa) = 35.94272 40.75538 38.34905
#
# Velocity S-wave (km/s) = 4.05453 4.31745 4.18805
# Velocity P-wave (km/s) = 6.79743 7.49323 7.15379
#
# Compressibility (1/GPa) = 0.01883269
#
# Stress axis : x y z
#
# Youngs Moduli (GPa) = 105.20623 130.16719 88.51548
#
# Poissons Ratio (x) = 0.28251 0.15789
# Poissons Ratio (y) = 0.22834 0.07719
# Poissons Ratio (z) = 0.18766 0.11352
#
# Static dielectric constant tensor:
#      x y z
#    x 4.115270 0.000020 0.013290 
#    y 0.000020 3.928470 -0.000150 
#    z 0.013290 -0.000150 4.018150 
# 
# 
# High freq. dielectric constant tensor:
#      x y z
#    x 1.874080 0.000000 -0.003840 
#    y 0.000000 1.862390 0.000000 
#    z -0.003840 0.000000 1.864950 
# 
# From -- ./inp_files/333289.got.cif
#   From: 2010.06.25/outbox.cif.g09.slc.cpg/sg12_167_cif.got.tgz:333289.got - 2010.06.28 00:19:55.
