data_PCOD8112631
_publ_section_title
;
Structure prediction by ZEFSAII (Michael W. Deem and Ramdas Pophale) SiO2 
 PCOD8112631
Probable space group: C 2/M
;
_chemical_formula_sum "Si O2"
_cell_formula_units_Z 40
_cell_length_a 13.634897
_cell_length_b 20.273353
_cell_length_c 18.282869
_cell_angle_alpha 90.000000
_cell_angle_beta 158.239785
_cell_angle_gamma 90.000000
_cell_volume 1873.576159
_symmetry_space_group_name_H-M "C 2/M"
_symmetry_group_IT_number 12
_symmetry_cell_setting 'monoclinic'
loop_
_space_group_symop_operation_xyz
x,y,z
-x,y,-z
-x,-y,-z
x,-y,z
1/2+x,1/2+y,z
1/2-x,1/2+y,-z
1/2-x,1/2-y,-z
1/2+x,1/2-y,z
loop_
_atom_site_type_symbol
_atom_site_label
_atom_site_fract_x
_atom_site_fract_y
_atom_site_fract_z
Si Si1 0.109509 0.772715 0.699411
Si Si2 0.849973 0.354519 0.572094
Si Si3 0.169723 0.575463 0.911404
Si Si4 0.097706 0.298629 0.950672
Si Si5 0.263642 0.424524 0.646683
O O1 0.297175 0.774273 0.757974
O O2 0.042957 0.696974 0.666811
O O3 0.843685 0.816881 0.504588
O O4 0.249873 0.801884 0.867986
O O5 0.676925 0.389041 0.389150
O O6 0.033579 0.407986 0.739903
O O7 0.099066 0.500000 0.884981
O O8 0.066271 0.627056 0.899596
O O9 0.487970 0.584243 0.126543
O O10 0.250000 0.250000 0.000000
O O11 0.211166 0.500000 0.591324
O O12 0.000000 0.393696 0.500000
#
# Coordination Sequence:
#
# PCOD8112631 Si02
#       5
#     8   8   8   8   8
#     4  10  24  39  66  99 126 172 227 260 335 387
#     4  11  22  42  65  98 129 168 217 277 318 396
#     4  11  24  43  66  95 131 174 218 267 330 388
#     4  11  22  44  67  93 136 173 216 276 322 394
#     4  10  23  40  62  93 131 172 213 265 330 391
#
# _framework density 21.349546
#
# number of rings (size 3 to 8) (size 9 to 14) (size 15 to 20)
#    0.000    1.400    4.000    0.600    2.800    1.600 
#    0.000    8.000    0.000    0.000    0.000    0.000 
#    0.000    0.000    0.000    0.000    0.000    0.000 
#
# Total GULP energy -247952.875796 kJ/mol
# GULP energy per Si atom -12397.643790 kJ/mol
# Density = 2.130095 g / cm^3
# Si number density = 21.349546 Si / 1000 Ang^3
#
#
#
# Elastic Constant Matrix: (Units=GPa)
#
#
# Indices 1 2 3 4 5 6 
#
# 1 103.5526 52.3723 44.6529 0.0298 27.1904 0.0598
# 2 52.3723 131.5779 47.0848 -0.0514 11.3748 0.0301
# 3 44.6529 47.0848 107.0609 0.1127 13.8305 0.1231
# 4 0.0298 -0.0514 0.1127 31.5706 0.1305 -9.2248
# 5 27.1904 11.3748 13.8305 0.1305 48.2744 0.0608
# 6 0.0598 0.0301 0.1231 -9.2248 0.0608 29.8437
#
#
#
# Elastic Compliance Matrix: (Units=1/GPa)
#
#
# Indices 1 2 3 4 5 6 
#
# 1 0.014985 -0.004117 -0.003608 0.000021 -0.006437 0.000009
# 2 -0.004117 0.010200 -0.002864 0.000033 0.000736 0.000018
# 3 -0.003608 -0.002864 0.012207 -0.000058 -0.000790 -0.000057
# 4 0.000021 0.000033 -0.000058 0.034821 -0.000111 0.010764
# 5 -0.006437 0.000736 -0.000790 -0.000111 0.024394 -0.000069
# 6 0.000009 0.000018 -0.000057 0.010764 -0.000069 0.036835
#
#
# Mechanical properties :
#
#
# Convention : Reuss Voigt Hill
#
# Bulk Modulus (GPa) = 61.67340 70.04572 65.85956
# Shear Modulus (GPa) = 31.24533 35.14316 33.19425
#
# Velocity S-wave (km/s) = 3.82974 4.06160 3.94737
# Velocity P-wave (km/s) = 6.96463 7.40781 7.18963
#
# Compressibility (1/GPa) = 0.01621445
#
# Stress axis : x y z
#
# Youngs Moduli (GPa) = 66.73375 98.03921 81.92052
#
# Poissons Ratio (x) = 0.40363 0.29555
# Poissons Ratio (y) = 0.27474 0.23461
# Poissons Ratio (z) = 0.24076 0.28078
#
# Static dielectric constant tensor:
#      x y z
#    x 3.780350 0.000040 0.133000 
#    y 0.000040 3.856280 -0.000220 
#    z 0.133000 -0.000220 4.112770 
# 
# 
# High freq. dielectric constant tensor:
#      x y z
#    x 1.817130 0.000000 -0.004730 
#    y 0.000000 1.840390 -0.000020 
#    z -0.004730 -0.000020 1.853110 
# 
# From -- ./inp_files/311795.got.cif
#   From: 2010.06.25/outbox.cif.g09.slc.cpg/sg12_156_cif.got.tgz:311795.got - 2010.06.28 00:19:55.
