data_PCOD8112558
_publ_section_title
;
Structure prediction by ZEFSAII (Michael W. Deem and Ramdas Pophale) SiO2 
 PCOD8112558
Probable space group: C 2/M
;
_chemical_formula_sum "Si O2"
_cell_formula_units_Z 56
_cell_length_a 23.661196
_cell_length_b 8.738376
_cell_length_c 14.669538
_cell_angle_alpha 90.000000
_cell_angle_beta 70.799136
_cell_angle_gamma 90.000000
_cell_volume 2864.353987
_symmetry_space_group_name_H-M "C 2/M"
_symmetry_group_IT_number 12
_symmetry_cell_setting 'monoclinic'
loop_
_space_group_symop_operation_xyz
x,y,z
-x,y,-z
-x,-y,-z
x,-y,z
1/2+x,1/2+y,z
1/2-x,1/2+y,-z
1/2-x,1/2-y,-z
1/2+x,1/2-y,z
loop_
_atom_site_type_symbol
_atom_site_label
_atom_site_fract_x
_atom_site_fract_y
_atom_site_fract_z
Si Si1 0.097968 0.179567 0.741758
Si Si2 0.311767 0.179682 0.174330
Si Si3 0.864305 0.823688 0.968809
Si Si4 0.512979 0.825086 0.098827
Si Si5 0.426639 0.820229 0.626745
Si Si6 0.560079 0.181437 0.583553
Si Si7 0.678317 0.323551 0.204143
O O1 0.159706 0.227497 0.757347
O O2 0.100710 0.228156 0.634627
O O3 0.044371 0.270897 0.816247
O O4 0.088000 0.000000 0.757816
O O5 0.242616 0.229645 0.206813
O O6 0.319472 0.000000 0.187448
O O7 0.343890 0.217588 0.062283
O O8 0.931312 0.780212 0.903347
O O9 0.822294 0.793098 0.903924
O O10 0.861953 0.000000 0.001189
O O11 0.526982 0.000000 0.118213
O O12 0.500000 0.807000 0.000000
O O13 0.418233 0.761719 0.527502
O O14 0.490615 0.767742 0.633618
O O15 0.373011 0.768919 0.718610
O O16 0.427635 0.000000 0.621442
O O17 0.568243 0.000000 0.592349
O O18 0.666431 0.500000 0.231404
#
# Coordination Sequence:
#
# PCOD8112558 Si02
#       7
#     8   8   8   8   8   8   8
#     4  12  24  37  57  86 116 149 190 237 284 331
#     4  11  23  40  57  77 112 157 195 231 279 338
#     4  11  22  37  58  86 115 146 189 240 285 330
#     4  11  22  36  56  81 113 152 187 223 277 338
#     4   9  19  37  63  90 115 145 186 231 277 335
#     4   9  19  38  62  89 118 148 182 226 282 343
#     4  10  23  39  57  83 115 149 189 236 285 334
#
# _framework density 19.550654999999999
#
# number of rings (size 3 to 8) (size 9 to 14) (size 15 to 20)
#    0.000    1.571    1.429    4.714    0.000    6.286 
#    0.000    2.143    0.000    0.000    0.000    0.000 
#    0.000    0.000    0.000    0.000    0.000    0.000 
#
# Total GULP energy -347294.779756 kJ/mol
# GULP energy per Si atom -12403.384991 kJ/mol
# Density = 1.950616 g / cm^3
# Si number density = 19.550655 Si / 1000 Ang^3
#
#
#
# Elastic Constant Matrix: (Units=GPa)
#
#
# Indices 1 2 3 4 5 6 
#
# 1 93.8666 16.4156 33.5795 0.0000 16.8159 0.0000
# 2 16.4156 40.3766 28.6271 0.0000 12.2385 0.0000
# 3 33.5795 28.6271 60.9096 0.0000 19.0132 0.0000
# 4 0.0000 0.0000 0.0000 31.1472 0.0000 0.1564
# 5 16.8159 12.2385 19.0132 0.0000 31.0074 0.0000
# 6 0.0000 0.0000 0.0000 0.1564 0.0000 30.5490
#
#
#
# Elastic Compliance Matrix: (Units=1/GPa)
#
#
# Indices 1 2 3 4 5 6 
#
# 1 0.013559 0.000103 -0.006450 0.000000 -0.003439 0.000000
# 2 0.000103 0.037755 -0.016241 0.000000 -0.004999 0.000000
# 3 -0.006450 -0.016241 0.030317 0.000000 -0.008682 0.000000
# 4 0.000000 0.000000 0.000000 0.032106 0.000000 -0.000164
# 5 -0.003439 -0.004999 -0.008682 0.000000 0.041412 0.000000
# 6 0.000000 0.000000 0.000000 -0.000164 0.000000 0.032735
#
#
# Mechanical properties :
#
#
# Convention : Reuss Voigt Hill
#
# Bulk Modulus (GPa) = 27.43129 39.15525 33.29327
# Shear Modulus (GPa) = 20.39057 26.30943 23.35000
#
# Velocity S-wave (km/s) = 3.23299 3.67237 3.45966
# Velocity P-wave (km/s) = 5.29128 6.16869 5.74676
#
# Compressibility (1/GPa) = 0.03645472
#
# Stress axis : x y z
#
# Youngs Moduli (GPa) = 73.75249 26.48649 32.98512
#
# Poissons Ratio (x) = -0.00272 0.21275
# Poissons Ratio (y) = -0.00758 0.53571
# Poissons Ratio (z) = 0.47569 0.43016
#
# Static dielectric constant tensor:
#      x y z
#    x 3.795020 0.000000 0.209500 
#    y 0.000000 3.478790 0.000000 
#    z 0.209500 0.000000 3.699070 
# 
# 
# High freq. dielectric constant tensor:
#      x y z
#    x 1.764260 0.000000 0.013870 
#    y 0.000000 1.760450 0.000000 
#    z 0.013870 0.000000 1.758330 
# 
# From -- ./inp_files/237383.got.cif
#   From: 2010.06.25/outbox.cif.g09.slc.cpg/sg12_119_cif.got.tgz:237383.got - 2010.06.28 00:19:55.
