data_PCOD8112233
_publ_section_title
;
Structure prediction by ZEFSAII (Michael W. Deem and Ramdas Pophale) SiO2 
 PCOD8112233
Probable space group: C 2/M
;
_chemical_formula_sum "Si O2"
_cell_formula_units_Z 56
_cell_length_a 23.797551
_cell_length_b 18.534432
_cell_length_c 8.494753
_cell_angle_alpha 90.000000
_cell_angle_beta 138.323051
_cell_angle_gamma 90.000000
_cell_volume 2491.369688
_symmetry_space_group_name_H-M "C 2/M"
_symmetry_group_IT_number 12
_symmetry_cell_setting 'monoclinic'
loop_
_space_group_symop_operation_xyz
x,y,z
-x,y,-z
-x,-y,-z
x,-y,z
1/2+x,1/2+y,z
1/2-x,1/2+y,-z
1/2-x,1/2-y,-z
1/2+x,1/2-y,z
loop_
_atom_site_type_symbol
_atom_site_label
_atom_site_fract_x
_atom_site_fract_y
_atom_site_fract_z
Si Si1 0.181921 0.315157 0.674620
Si Si2 0.641428 0.339189 0.076881
Si Si3 0.413532 0.201429 0.222456
Si Si4 0.417337 0.081300 0.738032
Si Si5 0.669653 0.918933 0.130110
Si Si6 0.837204 0.161799 0.508398
Si Si7 0.988400 0.917163 0.655292
O O1 0.272924 0.352913 0.842769
O O2 0.165401 0.296272 0.821775
O O3 0.107055 0.368193 0.459236
O O4 0.181928 0.243571 0.572653
O O5 0.658628 0.336358 0.296392
O O6 0.594225 0.267094 0.916520
O O7 0.580104 0.407445 0.925216
O O8 0.500000 0.206413 0.500000
O O9 0.405382 0.126746 0.109185
O O10 0.341074 0.081950 0.703945
O O11 0.434610 0.000000 0.711735
O O12 0.500000 0.111449 0.000000
O O13 0.761549 0.887285 0.284976
O O14 0.664021 0.000000 0.051294
O O15 0.922339 0.134101 0.605278
O O16 0.000000 0.892084 0.500000
O O17 0.959324 0.000000 0.609105
#
# Coordination Sequence:
#
# PCOD8112233 Si02
#       7
#     8   8   8   8   8   8   8
#     4  12  24  41  70 100 137 180 231 285 349 410
#     4  12  24  43  69 100 137 177 234 285 343 411
#     4  12  26  43  67 102 140 182 231 283 350 415
#     4  10  22  42  66  97 136 178 228 283 342 410
#     4  11  24  43  68  96 134 179 227 286 347 415
#     4  12  24  45  71 100 137 179 235 287 346 415
#     4  11  27  47  70 102 142 185 229 286 352 419
#
# _framework density 22.477596999999999
#
# number of rings (size 3 to 8) (size 9 to 14) (size 15 to 20)
#    0.000    0.571    2.857    5.571    2.000    4.286 
#    0.000    0.000    0.000    0.000    0.000    0.000 
#    0.000    0.000    0.000    0.000    0.000    0.000 
#
# Total GULP energy -347340.230796 kJ/mol
# GULP energy per Si atom -12405.008243 kJ/mol
# Density = 2.242644 g / cm^3
# Si number density = 22.477597 Si / 1000 Ang^3
#
#
#
# Elastic Constant Matrix: (Units=GPa)
#
#
# Indices 1 2 3 4 5 6 
#
# 1 96.7512 5.0774 9.6081 0.0000 8.2129 0.0000
# 2 5.0774 86.3601 36.2380 0.0000 4.7670 0.0000
# 3 9.6081 36.2380 86.5797 0.0000 9.5075 0.0000
# 4 0.0000 0.0000 0.0000 38.3048 0.0000 -0.5337
# 5 8.2129 4.7670 9.5075 0.0000 42.0883 0.0000
# 6 0.0000 0.0000 0.0000 -0.5337 0.0000 18.4746
#
#
#
# Elastic Compliance Matrix: (Units=1/GPa)
#
#
# Indices 1 2 3 4 5 6 
#
# 1 0.010590 -0.000137 -0.000916 0.000000 -0.001844 0.000000
# 2 -0.000137 0.014051 -0.005839 0.000000 -0.000246 0.000000
# 3 -0.000916 -0.005839 0.014360 0.000000 -0.002404 0.000000
# 4 0.000000 0.000000 0.000000 0.026117 0.000000 0.000754
# 5 -0.001844 -0.000246 -0.002404 0.000000 0.024690 0.000000
# 6 0.000000 0.000000 0.000000 0.000754 0.000000 0.054150
#
#
# Mechanical properties :
#
#
# Convention : Reuss Voigt Hill
#
# Bulk Modulus (GPa) = 39.65301 41.28199 40.46750
# Shear Modulus (GPa) = 30.09383 34.35804 32.22594
#
# Velocity S-wave (km/s) = 3.66298 3.91390 3.79052
# Velocity P-wave (km/s) = 5.96400 6.23142 6.09918
#
# Compressibility (1/GPa) = 0.02521877
#
# Stress axis : x y z
#
# Youngs Moduli (GPa) = 94.42486 71.16867 69.64026
#
# Poissons Ratio (x) = 0.00973 0.06376
# Poissons Ratio (y) = 0.01291 0.40663
# Poissons Ratio (z) = 0.08645 0.41555
#
# Static dielectric constant tensor:
#      x y z
#    x 4.156840 0.000000 0.054950 
#    y 0.000000 4.000240 0.000000 
#    z 0.054950 0.000000 4.092720 
# 
# 
# High freq. dielectric constant tensor:
#      x y z
#    x 1.896230 0.000000 0.005240 
#    y 0.000000 1.884880 0.000000 
#    z 0.005240 0.000000 1.891210 
# 
# From -- ./inp_files/106016.got.cif
#   From: 2010.06.25/outbox.cif.g09.slc.cpg/sg12_54_cif.got.tgz:106016.got - 2010.06.28 00:19:55.
