data_PCOD8112045
_publ_section_title
;
Structure prediction by ZEFSAII (Michael W. Deem and Ramdas Pophale) SiO2 
 PCOD8112045
Probable space group: C 2/M
;
_chemical_formula_sum "Si O2"
_cell_formula_units_Z 48
_cell_length_a 20.389706
_cell_length_b 7.752433
_cell_length_c 21.994660
_cell_angle_alpha 90.000000
_cell_angle_beta 42.114126
_cell_angle_gamma 90.000000
_cell_volume 2331.502892
_symmetry_space_group_name_H-M "C 2/M"
_symmetry_group_IT_number 12
_symmetry_cell_setting 'monoclinic'
loop_
_space_group_symop_operation_xyz
x,y,z
-x,y,-z
-x,-y,-z
x,-y,z
1/2+x,1/2+y,z
1/2-x,1/2+y,-z
1/2-x,1/2-y,-z
1/2+x,1/2-y,z
loop_
_atom_site_type_symbol
_atom_site_label
_atom_site_fract_x
_atom_site_fract_y
_atom_site_fract_z
Si Si1 0.892349 0.303740 0.064171
Si Si2 0.647499 0.298427 0.041622
Si Si3 0.048616 0.000000 0.564412
Si Si4 0.210173 0.192019 0.752430
Si Si5 0.051245 0.199645 0.762493
Si Si6 0.137422 0.695224 0.579416
Si Si7 0.146206 0.000000 0.367421
O O1 0.890678 0.500000 0.088602
O O2 0.817107 0.198483 0.157680
O O3 0.859542 0.298411 0.017250
O O4 0.000000 0.223665 0.000000
O O5 0.638365 0.500000 0.035104
O O6 0.559646 0.239368 0.146828
O O7 0.750000 0.250000 0.000000
O O8 0.074344 0.826200 0.582743
O O9 0.103429 0.000000 0.463520
O O10 0.933100 0.000000 0.631836
O O11 0.114021 0.236374 0.779539
O O12 0.293723 0.325712 0.679570
O O13 0.248962 0.000000 0.710377
O O14 0.096720 0.306957 0.675983
O O15 0.053726 0.000000 0.741746
O O16 0.127642 0.500000 0.560515
O O17 0.250000 0.750000 0.500000
#
# Coordination Sequence:
#
# PCOD8112045 Si02
#       7
#     8   8   4   8   8   8   4
#     4  11  22  39  65  95 130 174 225 275 330 397
#     4  11  24  41  62  92 136 179 222 282 340 393
#     4  11  26  48  68  98 142 172 218 278 337 400
#     4  11  23  41  70  99 129 174 226 274 329 399
#     4  10  22  41  66  96 133 174 222 280 335 399
#     4  12  24  42  72 102 134 174 220 276 336 402
#     4  11  26  46  69  98 136 178 217 278 336 400
#
# _framework density 20.587578000000001
#
# number of rings (size 3 to 8) (size 9 to 14) (size 15 to 20)
#    0.000    1.000    4.167    2.000    1.167    6.000 
#    0.000    1.667    0.000    0.000    0.000    0.000 
#    0.000    0.000    0.000    0.000    0.000    0.000 
#
# Total GULP energy -297705.497189 kJ/mol
# GULP energy per Si atom -12404.395716 kJ/mol
# Density = 2.054072 g / cm^3
# Si number density = 20.587578 Si / 1000 Ang^3
#
#
#
# Elastic Constant Matrix: (Units=GPa)
#
#
# Indices 1 2 3 4 5 6 
#
# 1 128.2182 43.8445 51.5562 -0.0005 -11.8892 0.0008
# 2 43.8445 131.2431 36.5156 -0.0014 -11.7771 0.0023
# 3 51.5562 36.5156 110.0692 -0.0003 -10.0746 0.0005
# 4 -0.0005 -0.0014 -0.0003 27.1960 0.0001 0.0331
# 5 -11.8892 -11.7771 -10.0746 0.0001 38.0407 -0.0002
# 6 0.0008 0.0023 0.0005 0.0331 -0.0002 30.9580
#
#
#
# Elastic Compliance Matrix: (Units=1/GPa)
#
#
# Indices 1 2 3 4 5 6 
#
# 1 0.010277 -0.002202 -0.003947 0.000000 0.001485 0.000000
# 2 -0.002202 0.009003 -0.001807 0.000000 0.001621 -0.000001
# 3 -0.003947 -0.001807 0.011652 0.000000 0.001293 0.000000
# 4 0.000000 0.000000 0.000000 0.036770 0.000000 -0.000039
# 5 0.001485 0.001621 0.001293 0.000000 0.027596 0.000000
# 6 0.000000 -0.000001 0.000000 -0.000039 0.000000 0.032302
#
#
# Mechanical properties :
#
#
# Convention : Reuss Voigt Hill
#
# Bulk Modulus (GPa) = 66.57979 70.37367 68.47673
# Shear Modulus (GPa) = 33.66565 35.07988 34.37277
#
# Velocity S-wave (km/s) = 4.04820 4.13235 4.09049
# Velocity P-wave (km/s) = 7.36618 7.55151 7.45942
#
# Compressibility (1/GPa) = 0.01501957
#
# Stress axis : x y z
#
# Youngs Moduli (GPa) = 97.30449 111.07131 85.82212
#
# Poissons Ratio (x) = 0.24455 0.33877
# Poissons Ratio (y) = 0.21424 0.15510
# Poissons Ratio (z) = 0.38410 0.20073
#
# Static dielectric constant tensor:
#      x y z
#    x 3.721900 0.000000 -0.065590 
#    y 0.000000 3.854530 -0.000010 
#    z -0.065590 -0.000010 3.946780 
# 
# 
# High freq. dielectric constant tensor:
#      x y z
#    x 1.798010 0.000000 0.004500 
#    y 0.000000 1.815560 0.000000 
#    z 0.004500 0.000000 1.815220 
# 
# From -- ./inp_files/319592.got.cif
#   From: 2010.06.25/outbox.cif.g09.slc.cpg/sg12_160_cif.got.tgz:319592.got - 2010.06.28 00:19:55.
