data_PCOD8112140
_publ_section_title
;
Structure prediction by ZEFSAII (Michael W. Deem and Ramdas Pophale) SiO2 
 PCOD8112140
Probable space group: C 2/M
;
_chemical_formula_sum "Si O2"
_cell_formula_units_Z 48
_cell_length_a 12.969129
_cell_length_b 27.822965
_cell_length_c 14.726298
_cell_angle_alpha 90.000000
_cell_angle_beta 27.377999
_cell_angle_gamma 90.000000
_cell_volume 2443.612524
_symmetry_space_group_name_H-M "C 2/M"
_symmetry_group_IT_number 12
_symmetry_cell_setting 'monoclinic'
loop_
_space_group_symop_operation_xyz
x,y,z
-x,y,-z
-x,-y,-z
x,-y,z
1/2+x,1/2+y,z
1/2-x,1/2+y,-z
1/2-x,1/2-y,-z
1/2+x,1/2-y,z
loop_
_atom_site_type_symbol
_atom_site_label
_atom_site_fract_x
_atom_site_fract_y
_atom_site_fract_z
Si Si1 0.569064 0.944095 0.720340
Si Si2 0.907568 0.632337 0.974937
Si Si3 0.408327 0.611695 0.333120
Si Si4 0.524978 0.223113 0.198686
Si Si5 0.586807 0.555293 0.026218
Si Si6 0.640262 0.204324 0.480688
O O1 0.514649 0.918338 0.858890
O O2 0.783254 0.920460 0.505550
O O3 0.617654 0.000000 0.702398
O O4 0.353716 0.937154 0.823555
O O5 0.980169 0.671032 0.843037
O O6 0.640332 0.629621 0.194826
O O7 0.000000 0.647505 0.000000
O O8 0.452100 0.580138 0.211107
O O9 0.266682 0.656940 0.413222
O O10 0.522670 0.218899 0.309519
O O11 0.313756 0.252714 0.325770
O O12 0.750000 0.250000 0.000000
O O13 0.519251 0.500000 0.084506
O O14 0.500000 0.578091 0.000000
O O15 0.500000 0.194294 0.500000
#
# Coordination Sequence:
#
# PCOD8112140 Si02
#       6
#     8   8   8   8   8   8
#     4  10  22  42  63  90 130 165 209 266 313 375
#     4  11  25  43  68  91 124 169 216 265 319 371
#     4  11  22  40  61  95 126 163 209 260 310 377
#     4  11  24  46  63  93 130 165 213 258 311 377
#     4   9  20  36  58  89 125 168 208 248 305 371
#     4  11  26  40  66  98 130 165 207 257 315 378
#
# _framework density 19.643049000000001
#
# number of rings (size 3 to 8) (size 9 to 14) (size 15 to 20)
#    0.000    1.500    3.333    0.500    4.667    1.667 
#    0.000    3.333    0.000    0.000    0.000    0.000 
#    0.000    0.000    0.000    0.000    0.000    0.000 
#
# Total GULP energy -297697.462933 kJ/mol
# GULP energy per Si atom -12404.060956 kJ/mol
# Density = 1.959834 g / cm^3
# Si number density = 19.643049 Si / 1000 Ang^3
#
#
#
# Elastic Constant Matrix: (Units=GPa)
#
#
# Indices 1 2 3 4 5 6 
#
# 1 104.5399 27.9523 46.9378 -0.0257 2.2665 0.0541
# 2 27.9523 110.6016 54.1005 0.0067 -1.1804 -0.0113
# 3 46.9378 54.1005 135.3996 0.0004 4.0454 -0.0049
# 4 -0.0257 0.0067 0.0004 95.0081 0.0088 -100.1543
# 5 2.2665 -1.1804 4.0454 0.0088 16.7158 -0.0181
# 6 0.0541 -0.0113 -0.0049 -100.1543 -0.0181 248.2855
#
#
#
# Elastic Compliance Matrix: (Units=1/GPa)
#
#
# Indices 1 2 3 4 5 6 
#
# 1 0.011463 -0.001210 -0.003466 0.000001 -0.000801 -0.000002
# 2 -0.001210 0.011425 -0.004205 -0.000001 0.001989 0.000001
# 3 -0.003466 -0.004205 0.010337 0.000000 -0.002329 0.000001
# 4 0.000001 -0.000001 0.000000 0.018313 -0.000002 0.007387
# 5 -0.000801 0.001989 -0.002329 -0.000002 0.060636 0.000004
# 6 -0.000002 0.000001 0.000001 0.007387 0.000004 0.007007
#
#
# Mechanical properties :
#
#
# Convention : Reuss Voigt Hill
#
# Bulk Modulus (GPa) = 64.67303 67.61359 66.14331
# Shear Modulus (GPa) = 35.18683 86.77191 60.97937
#
# Velocity S-wave (km/s) = 4.23698 6.65359 5.57774
# Velocity P-wave (km/s) = 7.54530 9.67072 8.67336
#
# Compressibility (1/GPa) = 0.01546240
#
# Stress axis : x y z
#
# Youngs Moduli (GPa) = 87.23706 87.52423 96.74013
#
# Poissons Ratio (x) = 0.10591 0.33534
# Poissons Ratio (y) = 0.10556 0.40680
# Poissons Ratio (z) = 0.30240 0.36805
#
# Static dielectric constant tensor:
#      x y z
#    x 3.532690 -0.000010 0.038070 
#    y -0.000010 3.807690 0.000020 
#    z 0.038070 0.000020 3.717440 
# 
# 
# High freq. dielectric constant tensor:
#      x y z
#    x 1.754270 0.000000 0.004410 
#    y 0.000000 1.781190 0.000000 
#    z 0.004410 0.000000 1.778740 
# 
# From -- ./inp_files/13053.got.cif
#   From: 2010.06.25/outbox.cif.g09.slc.cpg/sg12_7_cif.got.tgz:13053.got - 2010.06.28 00:19:55.
