data_PCOD8112109
_publ_section_title
;
Structure prediction by ZEFSAII (Michael W. Deem and Ramdas Pophale) SiO2 
 PCOD8112109
Probable space group: C 2/M
;
_chemical_formula_sum "Si O2"
_cell_formula_units_Z 48
_cell_length_a 10.700872
_cell_length_b 15.730214
_cell_length_c 13.434318
_cell_angle_alpha 90.000000
_cell_angle_beta 76.552977
_cell_angle_gamma 90.000000
_cell_volume 2199.364190
_symmetry_space_group_name_H-M "C 2/M"
_symmetry_group_IT_number 12
_symmetry_cell_setting 'monoclinic'
loop_
_space_group_symop_operation_xyz
x,y,z
-x,y,-z
-x,-y,-z
x,-y,z
1/2+x,1/2+y,z
1/2-x,1/2+y,-z
1/2-x,1/2-y,-z
1/2+x,1/2-y,z
loop_
_atom_site_type_symbol
_atom_site_label
_atom_site_fract_x
_atom_site_fract_y
_atom_site_fract_z
Si Si1 0.004244 0.734833 0.889947
Si Si2 0.639664 0.748908 0.437473
Si Si3 0.174385 0.593011 0.115615
Si Si4 0.857293 0.094285 0.905908
Si Si5 0.683058 0.665279 0.741563
Si Si6 0.568000 0.403978 0.319786
O O1 0.921795 0.669656 0.838825
O O2 0.954783 0.831040 0.912946
O O3 0.139543 0.747746 0.808421
O O4 0.000000 0.692986 0.000000
O O5 0.500000 0.782300 0.500000
O O6 0.750000 0.750000 0.500000
O O7 0.688373 0.812513 0.342954
O O8 0.622186 0.653185 0.399137
O O9 0.107946 0.500000 0.130759
O O10 0.283701 0.594982 0.180813
O O11 0.229696 0.609442 0.994350
O O12 0.831759 0.098190 0.791598
O O13 0.913975 0.000000 0.921497
O O14 0.570816 0.631383 0.690268
O O15 0.551949 0.500000 0.363048
#
# Coordination Sequence:
#
# PCOD8112109 Si02
#       6
#     8   8   8   8   8   8
#     4  11  22  35  61  94 134 182 226 270 331 407
#     4  12  26  48  72  99 129 174 232 294 348 404
#     4  11  23  38  60  97 143 184 222 270 333 405
#     4   9  19  36  61  96 136 175 223 272 323 400
#     4  11  22  42  69  94 133 177 228 282 337 402
#     4  10  22  41  69 102 132 173 226 280 339 410
#
# _framework density 21.824487999999999
#
# number of rings (size 3 to 8) (size 9 to 14) (size 15 to 20)
#    0.000    1.333    3.333    3.000    2.333    1.667 
#    0.000    0.833    0.000    2.500    0.000    0.000 
#    0.000    0.000    0.000    0.000    0.000    0.000 
#
# Total GULP energy -297352.339129 kJ/mol
# GULP energy per Si atom -12389.680797 kJ/mol
# Density = 2.177481 g / cm^3
# Si number density = 21.824488 Si / 1000 Ang^3
#
#
#
# Elastic Constant Matrix: (Units=GPa)
#
#
# Indices 1 2 3 4 5 6 
#
# 1 91.1330 48.0082 52.0234 0.0000 0.4085 0.0000
# 2 48.0082 122.2151 47.0691 0.0000 -6.9999 0.0000
# 3 52.0234 47.0691 114.3712 0.0000 -12.6795 0.0000
# 4 0.0000 0.0000 0.0000 23.0635 0.0000 6.5390
# 5 0.4085 -6.9999 -12.6795 0.0000 39.2221 0.0000
# 6 0.0000 0.0000 0.0000 6.5390 0.0000 10.5774
#
#
#
# Elastic Compliance Matrix: (Units=1/GPa)
#
#
# Indices 1 2 3 4 5 6 
#
# 1 0.016828 -0.004403 -0.006170 0.000000 -0.002956 0.000000
# 2 -0.004403 0.010884 -0.002340 0.000000 0.001232 0.000000
# 3 -0.006170 -0.002340 0.012937 0.000000 0.003829 0.000000
# 4 0.000000 0.000000 0.000000 0.052573 0.000000 -0.032501
# 5 -0.002956 0.001232 0.003829 0.000000 0.026984 0.000000
# 6 0.000000 0.000000 0.000000 -0.032501 0.000000 0.114633
#
#
# Mechanical properties :
#
#
# Convention : Reuss Voigt Hill
#
# Bulk Modulus (GPa) = 67.46238 69.10232 68.28235
# Shear Modulus (GPa) = 18.82484 26.61384 22.71934
#
# Velocity S-wave (km/s) = 2.94012 3.49585 3.22996
# Velocity P-wave (km/s) = 6.51952 6.93009 6.72794
#
# Compressibility (1/GPa) = 0.01482308
#
# Stress axis : x y z
#
# Youngs Moduli (GPa) = 59.42470 91.88099 77.29584
#
# Poissons Ratio (x) = 0.40459 0.47691
# Poissons Ratio (y) = 0.26167 0.18084
# Poissons Ratio (z) = 0.36665 0.21497
#
# Static dielectric constant tensor:
#      x y z
#    x 3.588680 0.000000 -0.115530 
#    y 0.000000 3.926390 0.000000 
#    z -0.115530 0.000000 4.323400 
# 
# 
# High freq. dielectric constant tensor:
#      x y z
#    x 1.829710 0.000000 0.002920 
#    y 0.000000 1.854850 0.000000 
#    z 0.002920 0.000000 1.864910 
# 
# From -- ./inp_files/204291.got.cif
#   From: 2010.06.25/outbox.cif.g09.slc.cpg/sg12_103_cif.got.tgz:204291.got - 2010.06.28 00:19:55.
