data_PCOD8112922
_publ_section_title
;
Structure prediction by ZEFSAII (Michael W. Deem and Ramdas Pophale) SiO2 
 PCOD8112922
Probable space group: C 2/M
;
_chemical_formula_sum "Si O2"
_cell_formula_units_Z 64
_cell_length_a 28.496098
_cell_length_b 8.728965
_cell_length_c 18.215720
_cell_angle_alpha 90.000000
_cell_angle_beta 43.033105
_cell_angle_gamma 90.000000
_cell_volume 3092.051762
_symmetry_space_group_name_H-M "C 2/M"
_symmetry_group_IT_number 12
_symmetry_cell_setting 'monoclinic'
loop_
_space_group_symop_operation_xyz
x,y,z
-x,y,-z
-x,-y,-z
x,-y,z
1/2+x,1/2+y,z
1/2-x,1/2+y,-z
1/2-x,1/2-y,-z
1/2+x,1/2-y,z
loop_
_atom_site_type_symbol
_atom_site_label
_atom_site_fract_x
_atom_site_fract_y
_atom_site_fract_z
Si Si1 0.312203 0.321948 0.973842
Si Si2 0.963081 0.824046 0.757009
Si Si3 0.071266 0.319820 0.726357
Si Si4 0.196872 0.819498 0.505220
Si Si5 0.307181 0.818057 0.137325
Si Si6 0.573463 0.817986 0.889962
Si Si7 0.033523 0.323449 0.539362
Si Si8 0.691375 0.819537 0.359842
O O1 0.296744 0.500000 0.005889
O O2 0.381310 0.297635 0.847571
O O3 0.250000 0.250000 0.000000
O O4 0.324348 0.236960 0.036507
O O5 0.994624 0.724156 0.787932
O O6 0.994283 0.777843 0.643400
O O7 0.980946 0.000000 0.752411
O O8 0.082704 0.500000 0.707218
O O9 0.120753 0.237032 0.611735
O O10 0.086201 0.261969 0.791895
O O11 0.250000 0.750000 0.500000
O O12 0.220404 0.761180 0.399129
O O13 0.200964 0.000000 0.502743
O O14 0.366328 0.757363 0.125540
O O15 0.234043 0.745864 0.242748
O O16 0.302169 0.000000 0.144838
O O17 0.570952 0.000000 0.895146
O O18 0.500000 0.751144 0.000000
O O19 0.027525 0.500000 0.570657
O O20 0.112282 0.272840 0.441026
O O21 0.000000 0.292042 0.500000
O O22 0.701655 0.000000 0.353637
#
# Coordination Sequence:
#
# PCOD8112922 Si02
#       8
#     8   8   8   8   8   8   8   8
#     4  11  26  46  67  95 128 168 218 272 330 387
#     4  11  24  42  65  96 130 165 212 269 325 385
#     4  11  21  37  63  93 126 166 210 259 318 383
#     4  12  24  39  60  89 127 170 216 264 317 379
#     4  11  23  41  66  96 130 171 214 264 325 385
#     4   9  19  36  60  90 122 161 212 259 306 371
#     4  10  23  42  66  95 125 166 215 262 321 390
#     4  11  23  41  64  94 132 171 213 265 323 386
#
# _framework density 20.698229999999999
#
# number of rings (size 3 to 8) (size 9 to 14) (size 15 to 20)
#    0.000    1.250    1.250    4.500    1.750    4.750 
#    0.000    1.875    0.000    4.500    0.000    0.000 
#    0.000    0.000    0.000    0.000    0.000    0.000 
#
# Total GULP energy -396969.160708 kJ/mol
# GULP energy per Si atom -12405.286272 kJ/mol
# Density = 2.065112 g / cm^3
# Si number density = 20.698230 Si / 1000 Ang^3
#
#
#
# Elastic Constant Matrix: (Units=GPa)
#
#
# Indices 1 2 3 4 5 6 
#
# 1 113.8816 29.3404 41.5959 -0.0304 -6.8325 0.0193
# 2 29.3404 95.4609 47.1311 -0.0222 -7.2327 0.0295
# 3 41.5959 47.1311 119.4204 -0.0117 -7.8133 0.0262
# 4 -0.0304 -0.0222 -0.0117 34.0766 0.0156 2.2279
# 5 -6.8325 -7.2327 -7.8133 0.0156 32.7813 -0.0231
# 6 0.0193 0.0295 0.0262 2.2279 -0.0231 31.1732
#
#
#
# Elastic Compliance Matrix: (Units=1/GPa)
#
#
# Indices 1 2 3 4 5 6 
#
# 1 0.010325 -0.001677 -0.002863 0.000007 0.001100 -0.000002
# 2 -0.001677 0.013374 -0.004596 0.000005 0.001506 -0.000007
# 3 -0.002863 -0.004596 0.011255 -0.000002 0.001072 -0.000002
# 4 0.000007 0.000005 -0.000002 0.029483 -0.000013 -0.002107
# 5 0.001100 0.001506 0.001072 -0.000013 0.031322 0.000021
# 6 -0.000002 -0.000007 -0.000002 -0.002107 0.000021 0.032229
#
#
# Mechanical properties :
#
#
# Convention : Reuss Voigt Hill
#
# Bulk Modulus (GPa) = 59.93972 62.76641 61.35306
# Shear Modulus (GPa) = 32.93392 33.65258 33.29325
#
# Velocity S-wave (km/s) = 3.99325 4.03658 4.01497
# Velocity P-wave (km/s) = 7.09106 7.21912 7.15537
#
# Compressibility (1/GPa) = 0.01668343
#
# Stress axis : x y z
#
# Youngs Moduli (GPa) = 96.85638 74.77244 88.85164
#
# Poissons Ratio (x) = 0.12537 0.25434
# Poissons Ratio (y) = 0.16240 0.40833
# Poissons Ratio (z) = 0.27725 0.34363
#
# Static dielectric constant tensor:
#      x y z
#    x 3.916360 -0.000070 -0.059040 
#    y -0.000070 3.680930 0.000080 
#    z -0.059040 0.000080 3.771030 
# 
# 
# High freq. dielectric constant tensor:
#      x y z
#    x 1.821700 0.000000 -0.002430 
#    y 0.000000 1.804500 0.000000 
#    z -0.002430 0.000000 1.821080 
# 
# From -- ./inp_files/295572.got.cif
#   From: 2010.06.25/outbox.cif.g09.slc.cpg/sg12_148_cif.got.tgz:295572.got - 2010.06.28 00:19:55.
