data_PCOD8112664
_publ_section_title
;
Structure prediction by ZEFSAII (Michael W. Deem and Ramdas Pophale) SiO2 
 PCOD8112664
Probable space group: C 2/M
;
_chemical_formula_sum "Si O2"
_cell_formula_units_Z 56
_cell_length_a 15.138228
_cell_length_b 15.845194
_cell_length_c 14.775090
_cell_angle_alpha 90.000000
_cell_angle_beta 46.707030
_cell_angle_gamma 90.000000
_cell_volume 2579.578455
_symmetry_space_group_name_H-M "C 2/M"
_symmetry_group_IT_number 12
_symmetry_cell_setting 'monoclinic'
loop_
_space_group_symop_operation_xyz
x,y,z
-x,y,-z
-x,-y,-z
x,-y,z
1/2+x,1/2+y,z
1/2-x,1/2+y,-z
1/2-x,1/2-y,-z
1/2+x,1/2-y,z
loop_
_atom_site_type_symbol
_atom_site_label
_atom_site_fract_x
_atom_site_fract_y
_atom_site_fract_z
Si Si1 0.636919 0.803493 0.376079
Si Si2 0.204039 0.595219 0.153447
Si Si3 0.284213 0.153708 0.493313
Si Si4 0.703900 0.155770 0.803927
Si Si5 0.145271 0.000000 0.298879
Si Si6 0.867475 0.000000 0.477142
Si Si7 0.639150 0.731834 0.013956
Si Si8 0.481234 0.849697 0.212026
O O1 0.500000 0.779828 0.500000
O O2 0.642560 0.854707 0.279111
O O3 0.696860 0.860352 0.412931
O O4 0.710358 0.716156 0.316548
O O5 0.229763 0.500000 0.163106
O O6 0.336907 0.635822 0.036291
O O7 0.108751 0.600377 0.135949
O O8 0.250000 0.250000 0.500000
O O9 0.413043 0.141896 0.354332
O O10 0.187982 0.085211 0.526199
O O11 0.637080 0.205559 0.930120
O O12 0.602868 0.113419 0.808906
O O13 0.786825 0.082233 0.787713
O O14 0.153153 0.000000 0.401669
O O15 0.009847 0.000000 0.355038
O O16 0.750000 0.750000 0.000000
O O17 0.515807 0.751874 0.157361
#
# Coordination Sequence:
#
# PCOD8112664 Si02
#       8
#     8   8   8   8   4   4   8   8
#     4  11  23  38  64  94 132 173 220 261 325 396
#     4  10  23  40  66  95 132 172 213 272 332 387
#     4  12  24  41  65  97 134 177 221 272 331 394
#     4  11  23  41  66  95 124 172 218 266 328 389
#     4  11  24  42  64  93 137 168 209 269 332 391
#     4  11  26  40  62  98 140 169 216 267 326 401
#     4   9  22  44  64  89 125 168 218 268 323 390
#     4  11  21  39  67  92 129 167 221 265 326 380
#
# _framework density 21.708974000000001
#
# number of rings (size 3 to 8) (size 9 to 14) (size 15 to 20)
#    0.000    1.286    4.286    0.429    7.000    0.286 
#    5.143    0.714    1.571    6.857    0.000    0.000 
#    0.000    0.000    0.000    0.000    0.000    0.000 
#
# Total GULP energy -347002.569849 kJ/mol
# GULP energy per Si atom -12392.948923 kJ/mol
# Density = 2.165956 g / cm^3
# Si number density = 21.708974 Si / 1000 Ang^3
#
#
#
# Elastic Constant Matrix: (Units=GPa)
#
#
# Indices 1 2 3 4 5 6 
#
# 1 103.5165 34.7850 25.7254 0.0000 -2.0307 0.0000
# 2 34.7850 122.1189 25.5810 0.0000 -13.3271 0.0000
# 3 25.7254 25.5810 57.5379 0.0000 -9.0405 0.0000
# 4 0.0000 0.0000 0.0000 19.2823 0.0000 -4.2580
# 5 -2.0307 -13.3271 -9.0405 0.0000 32.4662 0.0000
# 6 0.0000 0.0000 0.0000 -4.2580 0.0000 28.8902
#
#
#
# Elastic Compliance Matrix: (Units=1/GPa)
#
#
# Indices 1 2 3 4 5 6 
#
# 1 0.011551 -0.002563 -0.004264 0.000000 -0.001517 0.000000
# 2 -0.002563 0.009832 -0.002736 0.000000 0.003114 0.000000
# 3 -0.004264 -0.002736 0.021212 0.000000 0.004517 0.000000
# 4 0.000000 0.000000 0.000000 0.053606 0.000000 0.007901
# 5 -0.001517 0.003114 0.004517 0.000000 0.033242 0.000000
# 6 0.000000 0.000000 0.000000 0.007901 0.000000 0.035778
#
#
# Mechanical properties :
#
#
# Convention : Reuss Voigt Hill
#
# Bulk Modulus (GPa) = 42.60671 50.59512 46.60091
# Shear Modulus (GPa) = 26.01872 29.26655 27.64264
#
# Velocity S-wave (km/s) = 3.46573 3.67567 3.57224
# Velocity P-wave (km/s) = 5.97360 6.43201 6.20704
#
# Compressibility (1/GPa) = 0.02347048
#
# Stress axis : x y z
#
# Youngs Moduli (GPa) = 86.57066 101.71222 47.14262
#
# Poissons Ratio (x) = 0.26066 0.20099
# Poissons Ratio (y) = 0.22186 0.12899
# Poissons Ratio (z) = 0.36910 0.27829
#
# Static dielectric constant tensor:
#      x y z
#    x 3.993860 0.000000 -0.632590 
#    y 0.000000 3.879500 0.000000 
#    z -0.632590 0.000000 0.019710 
# 
# 
# High freq. dielectric constant tensor:
#      x y z
#    x 1.864310 0.000000 0.003020 
#    y 0.000000 1.829370 0.000000 
#    z 0.003020 0.000000 1.852210 
# 
# From -- ./inp_files/277849.got.cif
#   From: 2010.06.25/outbox.cif.g09.slc.cpg/sg12_139_cif.got.tgz:277849.got - 2010.06.28 00:19:55.
