data_PCOD8112678
_publ_section_title
;
Structure prediction by ZEFSAII (Michael W. Deem and Ramdas Pophale) SiO2 
 PCOD8112678
Probable space group: C 2/M
;
_chemical_formula_sum "Si O2"
_cell_formula_units_Z 56
_cell_length_a 18.922094
_cell_length_b 9.013892
_cell_length_c 24.896075
_cell_angle_alpha 90.000000
_cell_angle_beta 45.268770
_cell_angle_gamma 90.000000
_cell_volume 3016.651536
_symmetry_space_group_name_H-M "C 2/M"
_symmetry_group_IT_number 12
_symmetry_cell_setting 'monoclinic'
loop_
_space_group_symop_operation_xyz
x,y,z
-x,y,-z
-x,-y,-z
x,-y,z
1/2+x,1/2+y,z
1/2-x,1/2+y,-z
1/2-x,1/2-y,-z
1/2+x,1/2-y,z
loop_
_atom_site_type_symbol
_atom_site_label
_atom_site_fract_x
_atom_site_fract_y
_atom_site_fract_z
Si Si1 0.950867 0.338715 0.681989
Si Si2 0.661968 0.828915 0.704304
Si Si3 0.387570 0.175830 0.074887
Si Si4 0.558419 0.159176 0.188011
Si Si5 0.762364 0.822883 0.234318
Si Si6 0.836079 0.322540 0.419851
Si Si7 0.759139 0.828795 0.939225
O O1 0.946237 0.500000 0.656032
O O2 0.959661 0.361667 0.740205
O O3 0.847700 0.256235 0.721981
O O4 0.057940 0.262095 0.611485
O O5 0.547059 0.808883 0.783267
O O6 0.722809 0.724198 0.712037
O O7 0.679426 0.774290 0.633919
O O8 0.695216 0.000000 0.693349
O O9 0.347158 0.253455 0.150495
O O10 0.320494 0.231742 0.061037
O O11 0.379796 0.000000 0.087909
O O12 0.500000 0.223876 0.000000
O O13 0.630352 0.296911 0.140405
O O14 0.600931 0.000000 0.143047
O O15 0.766508 0.000000 0.225224
O O16 0.833883 0.500000 0.425472
O O17 0.750000 0.250000 0.500000
O O18 0.742404 0.000000 0.957051
O O19 0.750000 0.750000 0.000000
#
# Coordination Sequence:
#
# PCOD8112678 Si02
#       7
#     8   8   8   8   8   8   8
#     4   8  16  33  56  79 105 140 177 215 268 321
#     4   9  20  36  56  80 111 148 180 215 273 333
#     4  10  23  41  56  74 107 151 188 222 278 337
#     4   9  17  35  57  73  98 140 182 222 266 321
#     4  11  21  35  58  84 110 141 184 235 274 318
#     4   9  18  36  60  84 111 145 181 220 266 321
#     4  11  23  36  53  77 105 138 180 229 274 324
#
# _framework density 18.563628999999999
#
# number of rings (size 3 to 8) (size 9 to 14) (size 15 to 20)
#    0.000    2.429    1.429    2.571    2.000    2.000 
#    0.000    4.286    0.000    4.286    0.000    0.000 
#    0.000    0.000    0.000    0.000    0.000    0.000 
#
# Total GULP energy -346914.076140 kJ/mol
# GULP energy per Si atom -12389.788434 kJ/mol
# Density = 1.852138 g / cm^3
# Si number density = 18.563629 Si / 1000 Ang^3
#
#
#
# Elastic Constant Matrix: (Units=GPa)
#
#
# Indices 1 2 3 4 5 6 
#
# 1 113.4322 30.7457 55.9188 0.0000 -7.7127 0.0000
# 2 30.7457 39.4742 32.7472 0.0000 -0.4219 -0.0005
# 3 55.9188 32.7472 116.5381 0.0000 -16.5725 0.0000
# 4 0.0000 0.0000 0.0000 33.3600 0.0000 1.6061
# 5 -7.7127 -0.4219 -16.5725 0.0000 29.9733 0.0000
# 6 0.0000 -0.0005 0.0000 1.6061 0.0000 23.7445
#
#
#
# Elastic Compliance Matrix: (Units=1/GPa)
#
#
# Indices 1 2 3 4 5 6 
#
# 1 0.012657 -0.006407 -0.004149 0.000000 0.000873 0.000000
# 2 -0.006407 0.037001 -0.008122 0.000000 -0.005619 0.000001
# 3 -0.004149 -0.008122 0.013768 0.000000 0.006431 0.000000
# 4 0.000000 0.000000 0.000000 0.030074 0.000000 -0.002034
# 5 0.000873 -0.005619 0.006431 0.000000 0.037064 0.000000
# 6 0.000000 0.000001 0.000000 -0.002034 0.000000 0.042253
#
#
# Mechanical properties :
#
#
# Convention : Reuss Voigt Hill
#
# Bulk Modulus (GPa) = 38.35703 56.47421 47.41562
# Shear Modulus (GPa) = 22.84527 27.41775 25.13151
#
# Velocity S-wave (km/s) = 3.51186 3.84729 3.68340
# Velocity P-wave (km/s) = 6.09521 7.08686 6.60966
#
# Compressibility (1/GPa) = 0.02607084
#
# Stress axis : x y z
#
# Youngs Moduli (GPa) = 79.00726 27.02602 72.63038
#
# Poissons Ratio (x) = 0.17316 0.30132
# Poissons Ratio (y) = 0.50622 0.58990
# Poissons Ratio (z) = 0.32778 0.21950
#
# Static dielectric constant tensor:
#      x y z
#    x 3.522080 0.000000 -0.055830 
#    y 0.000000 3.166030 0.000000 
#    z -0.055830 0.000000 3.168440 
# 
# 
# High freq. dielectric constant tensor:
#      x y z
#    x 1.729850 0.000000 -0.009460 
#    y 0.000000 1.698500 0.000000 
#    z -0.009460 0.000000 1.710060 
# 
# From -- ./inp_files/342309.got.cif
#   From: 2010.06.25/outbox.cif.g09.slc.cpg/sg12_172_cif.got.tgz:342309.got - 2010.06.28 00:19:55.
