data_PCOD8112952
_publ_section_title
;
Structure prediction by ZEFSAII (Michael W. Deem and Ramdas Pophale) SiO2 
 PCOD8112952
Probable space group: C 2/M
;
_chemical_formula_sum "Si O2"
_cell_formula_units_Z 40
_cell_length_a 22.665142
_cell_length_b 7.498681
_cell_length_c 11.156149
_cell_angle_alpha 90.000000
_cell_angle_beta 89.857636
_cell_angle_gamma 90.000000
_cell_volume 1896.078390
_symmetry_space_group_name_H-M "C 2/M"
_symmetry_group_IT_number 12
_symmetry_cell_setting 'monoclinic'
loop_
_space_group_symop_operation_xyz
x,y,z
-x,y,-z
-x,-y,-z
x,-y,z
1/2+x,1/2+y,z
1/2-x,1/2+y,-z
1/2-x,1/2-y,-z
1/2+x,1/2-y,z
loop_
_atom_site_type_symbol
_atom_site_label
_atom_site_fract_x
_atom_site_fract_y
_atom_site_fract_z
Si Si1 0.160565 0.797257 0.939571
Si Si2 0.810917 0.791893 0.563778
Si Si3 0.902192 0.500000 0.505850
Si Si4 0.777237 0.789313 0.827151
Si Si5 0.034025 0.794963 0.876164
Si Si6 0.002512 0.500000 0.697243
O O1 0.210354 0.783248 0.836712
O O2 0.099673 0.711202 0.894013
O O3 0.144575 0.000000 0.968982
O O4 0.184116 0.707727 0.063350
O O5 0.750000 0.750000 0.500000
O O6 0.862461 0.677707 0.503285
O O7 0.805348 0.729724 0.701967
O O8 0.827049 0.000000 0.552776
O O9 0.939903 0.500000 0.385540
O O10 0.942924 0.500000 0.622038
O O11 0.773576 0.000000 0.837745
O O12 0.001240 0.678446 0.776699
O O13 0.034956 0.000000 0.831276
O O14 0.000000 0.776792 0.000000
#
# Coordination Sequence:
#
# PCOD8112952 Si02
#       6
#     8   8   4   8   8   4
#     4   9  19  35  57  91 126 163 204 260 330 404
#     4  11  24  42  68  97 131 174 220 280 341 399
#     4  11  28  48  66  98 136 177 241 282 325 399
#     4   9  20  36  57  89 128 163 202 261 335 395
#     4  10  23  42  68  98 131 171 222 276 337 405
#     4  11  27  48  68  96 133 187 234 279 328 394
#
# _framework density 21.096173
#
# number of rings (size 3 to 8) (size 9 to 14) (size 15 to 20)
#    0.000    2.000    1.000    0.300    8.400    1.600 
#    0.000    2.000    0.000    0.000    0.000    0.000 
#    0.000    0.000    0.000    0.000    0.000    0.000 
#
# Total GULP energy -248024.724850 kJ/mol
# GULP energy per Si atom -12401.236243 kJ/mol
# Density = 2.104816 g / cm^3
# Si number density = 21.096173 Si / 1000 Ang^3
#
#
#
# Elastic Constant Matrix: (Units=GPa)
#
#
# Indices 1 2 3 4 5 6 
#
# 1 106.0363 41.6298 19.8798 0.0000 5.0499 0.0000
# 2 41.6298 102.5131 45.6481 0.0000 0.1509 0.0000
# 3 19.8798 45.6481 83.3049 0.0000 2.0124 0.0000
# 4 0.0000 0.0000 0.0000 22.5321 0.0000 -1.5731
# 5 5.0499 0.1509 2.0124 0.0000 28.1770 0.0000
# 6 0.0000 0.0000 0.0000 -1.5731 0.0000 31.3347
#
#
#
# Elastic Compliance Matrix: (Units=1/GPa)
#
#
# Indices 1 2 3 4 5 6 
#
# 1 0.011334 -0.004519 -0.000180 0.000000 -0.001994 0.000000
# 2 -0.004519 0.014711 -0.007012 0.000000 0.001232 0.000000
# 3 -0.000180 -0.007012 0.015915 0.000000 -0.001067 0.000000
# 4 0.000000 0.000000 0.000000 0.044537 0.000000 0.002236
# 5 -0.001994 0.001232 -0.001067 0.000000 0.035917 0.000000
# 6 0.000000 0.000000 0.000000 0.002236 0.000000 0.032026
#
#
# Mechanical properties :
#
#
# Convention : Reuss Voigt Hill
#
# Bulk Modulus (GPa) = 53.94772 56.24108 55.09440
# Shear Modulus (GPa) = 27.16769 28.72187 27.94478
#
# Velocity S-wave (km/s) = 3.59249 3.69382 3.64351
# Velocity P-wave (km/s) = 6.54490 6.70146 6.62365
#
# Compressibility (1/GPa) = 0.01853646
#
# Stress axis : x y z
#
# Youngs Moduli (GPa) = 88.23168 67.97707 62.83272
#
# Poissons Ratio (x) = 0.30722 0.01131
# Poissons Ratio (y) = 0.39876 0.44060
# Poissons Ratio (z) = 0.01588 0.47667
#
# Static dielectric constant tensor:
#      x y z
#    x 3.928150 0.000000 0.141540 
#    y 0.000000 3.779870 0.000000 
#    z 0.141540 0.000000 3.983980 
# 
# 
# High freq. dielectric constant tensor:
#      x y z
#    x 1.830970 0.000000 0.002130 
#    y 0.000000 1.826480 0.000000 
#    z 0.002130 0.000000 1.825260 
# 
# From -- ./inp_files/162623.got.cif
#   From: 2010.06.25/outbox.cif.g09.slc.cpg/sg12_82_cif.got.tgz:162623.got - 2010.06.28 00:19:55.
