data_PCOD8112639
_publ_section_title
;
Structure prediction by ZEFSAII (Michael W. Deem and Ramdas Pophale) SiO2 
 PCOD8112639
Probable space group: C 2/M
;
_chemical_formula_sum "Si O2"
_cell_formula_units_Z 48
_cell_length_a 5.252113
_cell_length_b 23.733717
_cell_length_c 19.449601
_cell_angle_alpha 90.000000
_cell_angle_beta 66.323409
_cell_angle_gamma 90.000000
_cell_volume 2220.362257
_symmetry_space_group_name_H-M "C 2/M"
_symmetry_group_IT_number 12
_symmetry_cell_setting 'monoclinic'
loop_
_space_group_symop_operation_xyz
x,y,z
-x,y,-z
-x,-y,-z
x,-y,z
1/2+x,1/2+y,z
1/2-x,1/2+y,-z
1/2-x,1/2-y,-z
1/2+x,1/2-y,z
loop_
_atom_site_type_symbol
_atom_site_label
_atom_site_fract_x
_atom_site_fract_y
_atom_site_fract_z
Si Si1 0.849338 0.065086 0.588500
Si Si2 0.904821 0.500000 0.877740
Si Si3 0.795443 0.770706 0.306393
Si Si4 0.231507 0.898738 0.669949
Si Si5 0.045930 0.000000 0.782640
Si Si6 0.955964 0.722460 0.859490
Si Si7 0.821320 0.382076 0.952773
O O1 0.551192 0.094423 0.613412
O O2 0.000000 0.070896 0.500000
O O3 0.035500 0.095521 0.625209
O O4 0.811377 0.000000 0.613897
O O5 0.662959 0.500000 0.846944
O O6 0.866540 0.446720 0.930141
O O7 0.213493 0.500000 0.812854
O O8 0.477964 0.749808 0.351996
O O9 0.815520 0.837364 0.291897
O O10 0.911736 0.734028 0.229543
O O11 0.158272 0.943893 0.735285
O O12 0.149858 0.750226 0.896892
O O13 0.930595 0.655840 0.877124
O O14 0.500000 0.368890 0.000000
O O15 0.000000 0.366553 0.000000
#
# Coordination Sequence:
#
# PCOD8112639 Si02
#       7
#     8   4   8   8   4   8   8
#     4  11  22  41  67 103 144 182 222 270 322 393
#     4  12  28  43  68  94 137 170 213 270 343 396
#     4  10  23  40  66  92 134 171 221 275 334 391
#     4  12  23  42  67 103 139 175 226 271 340 396
#     4  12  26  39  69 102 132 172 211 284 327 408
#     4  10  23  40  63  92 122 160 215 270 323 379
#     4  12  26  46  70  91 127 172 219 267 328 410
#
# _framework density 21.618093999999999
#
# number of rings (size 3 to 8) (size 9 to 14) (size 15 to 20)
#    0.000    0.833    1.667    5.000    9.333    3.333 
#    0.000    0.000    0.000   10.000    0.000    0.000 
#    0.000    0.000    0.000    0.000    0.000    0.000 
#
# Total GULP energy -297602.629565 kJ/mol
# GULP energy per Si atom -12400.109565 kJ/mol
# Density = 2.156889 g / cm^3
# Si number density = 21.618094 Si / 1000 Ang^3
#
#
#
# Elastic Constant Matrix: (Units=GPa)
#
#
# Indices 1 2 3 4 5 6 
#
# 1 168.3049 24.3240 13.7543 0.0000 5.1121 0.0000
# 2 24.3240 114.8989 12.8597 0.0000 2.0453 0.0000
# 3 13.7543 12.8597 51.2551 0.0000 -0.1978 0.0000
# 4 0.0000 0.0000 0.0000 -19.2401 0.0000 -2.2218
# 5 5.1121 2.0453 -0.1978 0.0000 19.8813 0.0000
# 6 0.0000 0.0000 0.0000 -2.2218 0.0000 36.4059
#
#
#
# Elastic Compliance Matrix: (Units=1/GPa)
#
#
# Indices 1 2 3 4 5 6 
#
# 1 0.006267 -0.001143 -0.001401 0.000000 -0.001508 0.000000
# 2 -0.001143 0.009181 -0.001999 0.000000 -0.000670 0.000000
# 3 -0.001401 -0.001999 0.020391 0.000000 0.000769 0.000000
# 4 0.000000 0.000000 0.000000 -0.051611 0.000000 -0.003150
# 5 -0.001508 -0.000670 0.000769 0.000000 0.050763 0.000000
# 6 0.000000 0.000000 0.000000 -0.003150 0.000000 0.027276
#
#
# Mechanical properties :
#
#
# Convention : Reuss Voigt Hill
#
# Bulk Modulus (GPa) = 37.37983 48.48166 42.93075
# Shear Modulus (GPa) = 62.28957 26.31082 44.30020
#
# Velocity S-wave (km/s) = 5.37366 3.49244 4.53174
# Velocity P-wave (km/s) = 7.47195 6.22399 6.87634
#
# Compressibility (1/GPa) = 0.02675239
#
# Stress axis : x y z
#
# Youngs Moduli (GPa) = 159.56399 108.92059 49.04188
#
# Poissons Ratio (x) = 0.12451 0.06870
# Poissons Ratio (y) = 0.18240 0.09805
# Poissons Ratio (z) = 0.22351 0.21777
#
# Static dielectric constant tensor:
#      x y z
#    x 5.434420 0.000000 0.137640 
#    y 0.000000 3.943790 0.000000 
#    z 0.137640 0.000000 3.542600 
# 
# 
# High freq. dielectric constant tensor:
#      x y z
#    x 1.888460 0.000000 0.004330 
#    y 0.000000 1.858050 0.000000 
#    z 0.004330 0.000000 1.814930 
# 
# From -- ./inp_files/253226.got.cif
#   From: 2010.06.25/outbox.cif.g09.slc.cpg/sg12_127_cif.got.tgz:253226.got - 2010.06.28 00:19:55.
