data_PCOD8112302
_publ_section_title
;
Structure prediction by ZEFSAII (Michael W. Deem and Ramdas Pophale) SiO2 
 PCOD8112302
Probable space group: C 2/M
;
_chemical_formula_sum "Si O2"
_cell_formula_units_Z 56
_cell_length_a 12.100018
_cell_length_b 18.564339
_cell_length_c 14.075719
_cell_angle_alpha 90.000000
_cell_angle_beta 124.981850
_cell_angle_gamma 90.000000
_cell_volume 2590.579430
_symmetry_space_group_name_H-M "C 2/M"
_symmetry_group_IT_number 12
_symmetry_cell_setting 'monoclinic'
loop_
_space_group_symop_operation_xyz
x,y,z
-x,y,-z
-x,-y,-z
x,-y,z
1/2+x,1/2+y,z
1/2-x,1/2+y,-z
1/2-x,1/2-y,-z
1/2+x,1/2-y,z
loop_
_atom_site_type_symbol
_atom_site_label
_atom_site_fract_x
_atom_site_fract_y
_atom_site_fract_z
Si Si1 0.336545 0.916441 0.594660
Si Si2 0.747713 0.657816 0.365191
Si Si3 0.713412 0.917956 0.001994
Si Si4 0.934870 0.831688 0.212640
Si Si5 0.013484 0.710047 0.905774
Si Si6 0.356580 0.919602 0.241004
Si Si7 0.774090 0.188077 0.319423
O O1 0.326851 0.886396 0.483363
O O2 0.487778 0.899427 0.706449
O O3 0.226219 0.879468 0.608810
O O4 0.302468 0.000000 0.577510
O O5 0.588879 0.643843 0.293498
O O6 0.794888 0.635160 0.284489
O O7 0.787734 0.741678 0.393040
O O8 0.596619 0.862072 0.970975
O O9 0.733015 0.914665 0.897983
O O10 0.674989 0.000000 0.013395
O O11 0.850494 0.896158 0.123480
O O12 0.915246 0.759583 0.139027
O O13 0.892471 0.817120 0.300523
O O14 0.865113 0.687927 0.804131
O O15 0.000000 0.752491 0.000000
O O16 0.352752 0.000000 0.282467
#
# Coordination Sequence:
#
# PCOD8112302 Si02
#       7
#     8   8   8   8   8   8   8
#     4  11  24  46  71  95 127 172 226 272 319 380
#     4  11  25  42  68  95 132 173 218 273 325 384
#     4  11  23  39  65  99 135 167 213 267 323 394
#     4  11  26  42  64 100 137 174 211 259 337 394
#     4  11  22  40  68  94 129 174 221 268 316 381
#     4  10  22  42  69  98 128 170 220 273 323 375
#     4  11  24  42  66  98 131 173 219 272 317 388
#
# _framework density 21.616786999999999
#
# number of rings (size 3 to 8) (size 9 to 14) (size 15 to 20)
#    0.000    1.143    2.857    2.571    6.000    3.714 
#    2.571    2.143    0.000    0.000    0.000    0.000 
#    0.000    0.000    0.000    0.000    0.000    0.000 
#
# Total GULP energy -347259.981031 kJ/mol
# GULP energy per Si atom -12402.142180 kJ/mol
# Density = 2.156759 g / cm^3
# Si number density = 21.616787 Si / 1000 Ang^3
#
#
#
# Elastic Constant Matrix: (Units=GPa)
#
#
# Indices 1 2 3 4 5 6 
#
# 1 105.5208 46.6727 18.8647 0.0000 -21.7961 0.0000
# 2 46.6727 104.8731 17.5596 0.0000 -0.6933 0.0000
# 3 18.8647 17.5596 59.3594 0.0000 -5.6395 0.0000
# 4 0.0000 0.0000 0.0000 35.5048 0.0000 -5.2283
# 5 -21.7961 -0.6933 -5.6395 0.0000 33.9180 0.0000
# 6 0.0000 0.0000 0.0000 -5.2283 0.0000 25.6502
#
#
#
# Elastic Compliance Matrix: (Units=1/GPa)
#
#
# Indices 1 2 3 4 5 6 
#
# 1 0.014264 -0.005965 -0.001940 0.000000 0.008722 0.000000
# 2 -0.005965 0.012530 -0.002185 0.000000 -0.003941 0.000000
# 3 -0.001940 -0.002185 0.018275 0.000000 0.001747 0.000000
# 4 0.000000 0.000000 0.000000 0.029037 0.000000 0.005919
# 5 0.008722 -0.003941 0.001747 0.000000 0.035297 0.000000
# 6 0.000000 0.000000 0.000000 0.005919 0.000000 0.040192
#
#
# Mechanical properties :
#
#
# Convention : Reuss Voigt Hill
#
# Bulk Modulus (GPa) = 40.17946 48.43860 44.30903
# Shear Modulus (GPa) = 28.07843 31.45833 29.76838
#
# Velocity S-wave (km/s) = 3.60796 3.81894 3.71495
# Velocity P-wave (km/s) = 5.99867 6.47320 6.24044
#
# Compressibility (1/GPa) = 0.02488834
#
# Stress axis : x y z
#
# Youngs Moduli (GPa) = 70.10823 79.80835 54.71835
#
# Poissons Ratio (x) = 0.47609 0.10614
# Poissons Ratio (y) = 0.41823 0.11957
# Poissons Ratio (z) = 0.13599 0.17439
#
# Static dielectric constant tensor:
#      x y z
#    x 3.886960 0.000000 -0.087800 
#    y 0.000000 3.964370 0.000000 
#    z -0.087800 0.000000 3.907680 
# 
# 
# High freq. dielectric constant tensor:
#      x y z
#    x 1.844140 0.000000 -0.010580 
#    y 0.000000 1.849830 0.000000 
#    z -0.010580 0.000000 1.856560 
# 
# From -- ./inp_files/133977.got.cif
#   From: 2010.06.25/outbox.cif.g09.slc.cpg/sg12_67_cif.got.tgz:133977.got - 2010.06.28 00:19:55.
