data_PCOD8112293
_publ_section_title
;
Structure prediction by ZEFSAII (Michael W. Deem and Ramdas Pophale) SiO2 
 PCOD8112293
Probable space group: C 2/M
;
_chemical_formula_sum "Si O2"
_cell_formula_units_Z 48
_cell_length_a 9.571087
_cell_length_b 26.441730
_cell_length_c 15.557148
_cell_angle_alpha 90.000000
_cell_angle_beta 142.294768
_cell_angle_gamma 90.000000
_cell_volume 2407.953440
_symmetry_space_group_name_H-M "C 2/M"
_symmetry_group_IT_number 12
_symmetry_cell_setting 'monoclinic'
loop_
_space_group_symop_operation_xyz
x,y,z
-x,y,-z
-x,-y,-z
x,-y,z
1/2+x,1/2+y,z
1/2-x,1/2+y,-z
1/2-x,1/2-y,-z
1/2+x,1/2-y,z
loop_
_atom_site_type_symbol
_atom_site_label
_atom_site_fract_x
_atom_site_fract_y
_atom_site_fract_z
Si Si1 0.342078 0.405080 0.202757
Si Si2 0.751087 0.116313 0.847524
Si Si3 0.624546 0.202474 0.333434
Si Si4 0.278552 0.942412 0.340918
Si Si5 0.539960 0.301608 0.657344
Si Si6 0.576647 0.941886 0.915490
O O1 0.571107 0.437951 0.306925
O O2 0.397405 0.347253 0.249814
O O3 0.192906 0.429837 0.206895
O O4 0.208509 0.406671 0.047415
O O5 0.574526 0.161726 0.771272
O O6 0.765138 0.096124 0.757811
O O7 0.662402 0.069753 0.861960
O O8 0.000000 0.134710 0.000000
O O9 0.507025 0.254282 0.304523
O O10 0.748465 0.210849 0.302475
O O11 0.811826 0.184041 0.493612
O O12 0.500000 0.924674 0.500000
O O13 0.301167 0.000000 0.318641
O O14 0.628376 0.000000 0.962613
#
# Coordination Sequence:
#
# PCOD8112293 Si02
#       6
#     8   8   8   8   8   8
#     4  11  21  40  63  92 122 169 211 263 310 379
#     4  12  24  42  64  95 132 168 213 267 320 383
#     4  10  23  43  64  96 119 169 211 260 331 382
#     4  11  24  40  62  93 128 168 215 263 316 378
#     4  10  22  42  69  88 127 160 214 268 317 389
#     4  11  23  40  65  92 126 171 215 260 320 383
#
# _framework density 19.93394
#
# number of rings (size 3 to 8) (size 9 to 14) (size 15 to 20)
#    0.000    1.167    3.333    3.500    2.333    0.667 
#    3.000    1.667    0.000    4.000    0.000    0.000 
#    0.000    0.000    0.000    0.000    0.000    0.000 
#
# Total GULP energy -297687.460577 kJ/mol
# GULP energy per Si atom -12403.644191 kJ/mol
# Density = 1.988857 g / cm^3
# Si number density = 19.933940 Si / 1000 Ang^3
#
#
#
# Elastic Constant Matrix: (Units=GPa)
#
#
# Indices 1 2 3 4 5 6 
#
# 1 120.4351 49.5728 59.0173 0.0000 20.5449 0.0000
# 2 49.5728 126.6779 66.2408 0.0000 0.4130 0.0000
# 3 59.0173 66.2408 117.5004 -0.0001 19.0684 0.0000
# 4 0.0000 0.0000 -0.0001 0.1836 0.0000 5.0741
# 5 20.5449 0.4130 19.0684 0.0000 34.4645 0.0000
# 6 0.0000 0.0000 0.0000 5.0741 0.0000 33.6292
#
#
#
# Elastic Compliance Matrix: (Units=1/GPa)
#
#
# Indices 1 2 3 4 5 6 
#
# 1 0.012144 -0.002815 -0.003673 0.000001 -0.005173 0.000000
# 2 -0.002815 0.012290 -0.006332 0.000001 0.005034 0.000000
# 3 -0.003673 -0.006332 0.014895 -0.000002 -0.005975 0.000000
# 4 0.000001 0.000001 -0.000002 -1.718220 -0.000001 0.259252
# 5 -0.005173 0.005034 -0.005975 -0.000001 0.035345 0.000000
# 6 0.000000 0.000000 0.000000 0.259252 0.000000 -0.009381
#
#
# Mechanical properties :
#
#
# Convention : Reuss Voigt Hill
#
# Bulk Modulus (GPa) = 73.04801 79.36392 76.20596
# Shear Modulus (GPa) = -3.08124 26.30762 11.61319
#
# Velocity S-wave (km/s) = -1.24462 3.63676 2.41630
# Velocity P-wave (km/s) = 5.88720 7.58516 6.78947
#
# Compressibility (1/GPa) = 0.01368963
#
# Stress axis : x y z
#
# Youngs Moduli (GPa) = 82.34206 81.36734 67.13741
#
# Poissons Ratio (x) = 0.22903 0.24663
# Poissons Ratio (y) = 0.23177 0.42509
# Poissons Ratio (z) = 0.30248 0.51518
#
# Static dielectric constant tensor:
#      x y z
#    x 3.974020 0.000000 0.241360 
#    y 0.000000 3.453440 0.000000 
#    z 0.241360 0.000000 3.637100 
# 
# 
# High freq. dielectric constant tensor:
#      x y z
#    x 1.798440 0.000000 0.015660 
#    y 0.000000 1.772480 0.000000 
#    z 0.015660 0.000000 1.773620 
# 
# From -- ./inp_files/200225.got.cif
#   From: 2010.06.25/outbox.cif.g09.slc.cpg/sg12_101_cif.got.tgz:200225.got - 2010.06.28 00:19:55.
