data_PCOD8112781
_publ_section_title
;
Structure prediction by ZEFSAII (Michael W. Deem and Ramdas Pophale) SiO2 
 PCOD8112781
Probable space group: C 2/M
;
_chemical_formula_sum "Si O2"
_cell_formula_units_Z 64
_cell_length_a 18.990378
_cell_length_b 18.347650
_cell_length_c 22.527705
_cell_angle_alpha 90.000000
_cell_angle_beta 154.747621
_cell_angle_gamma 90.000000
_cell_volume 3348.561388
_symmetry_space_group_name_H-M "C 2/M"
_symmetry_group_IT_number 12
_symmetry_cell_setting 'monoclinic'
loop_
_space_group_symop_operation_xyz
x,y,z
-x,y,-z
-x,-y,-z
x,-y,z
1/2+x,1/2+y,z
1/2-x,1/2+y,-z
1/2-x,1/2-y,-z
1/2+x,1/2-y,z
loop_
_atom_site_type_symbol
_atom_site_label
_atom_site_fract_x
_atom_site_fract_y
_atom_site_fract_z
Si Si1 0.531299 0.414066 0.849073
Si Si2 0.050098 0.417688 0.605962
Si Si3 0.190810 0.916705 0.631943
Si Si4 0.554537 0.823226 0.108346
Si Si5 0.843448 0.325333 0.062013
Si Si6 0.809004 0.321693 0.617936
Si Si7 0.246878 0.158638 0.434611
Si Si8 0.109201 0.843565 0.140408
O O1 0.518453 0.500000 0.835950
O O2 0.421753 0.380262 0.713127
O O3 0.463123 0.389032 0.860458
O O4 0.720608 0.390969 0.984112
O O5 0.086725 0.500000 0.654867
O O6 0.208592 0.368453 0.737680
O O7 0.000000 0.416008 0.500000
O O8 0.902522 0.385914 0.531433
O O9 0.294899 0.876848 0.762506
O O10 0.217528 0.879024 0.589402
O O11 0.000000 0.910921 0.500000
O O12 0.250799 0.000000 0.674223
O O13 0.405074 0.834611 0.041075
O O14 0.617242 0.740987 0.163471
O O15 0.500000 0.840828 0.000000
O O16 0.994202 0.328378 0.223326
O O17 0.750000 0.250000 0.000000
O O18 0.751113 0.240104 0.590691
O O19 0.752505 0.340662 0.509336
O O20 0.000000 0.858328 0.000000
#
# Coordination Sequence:
#
# PCOD8112781 Si02
#       8
#     8   8   8   8   8   8   8   8
#     4  12  24  41  64  90 128 171 206 253 319 377
#     4  11  24  39  60  92 131 166 202 252 307 374
#     4  10  23  42  63  91 123 157 201 260 318 366
#     4  10  23  41  67  93 120 162 208 256 309 369
#     4  11  21  42  63  90 129 162 205 261 306 364
#     4  10  24  41  66  92 123 164 213 260 311 370
#     4  11  23  41  63  95 125 166 213 256 306 375
#     4  11  24  41  63  95 127 164 212 256 309 380
#
# _framework density 19.112686
#
# number of rings (size 3 to 8) (size 9 to 14) (size 15 to 20)
#    0.000    1.250    3.750    1.500    3.500    5.250 
#    0.000    1.250    0.000    0.000    0.000    0.000 
#    0.000    0.000    0.000    0.000    0.000    0.000 
#
# Total GULP energy -396937.413629 kJ/mol
# GULP energy per Si atom -12404.294176 kJ/mol
# Density = 1.906918 g / cm^3
# Si number density = 19.112686 Si / 1000 Ang^3
#
#
#
# Elastic Constant Matrix: (Units=GPa)
#
#
# Indices 1 2 3 4 5 6 
#
# 1 57.2355 27.9259 28.6085 -0.0045 -12.5661 0.0030
# 2 27.9259 118.8452 32.7315 -0.0063 -9.0455 -0.0071
# 3 28.6085 32.7315 87.6980 0.0031 -9.3990 -0.0247
# 4 -0.0045 -0.0063 0.0031 26.4667 0.0073 8.4202
# 5 -12.5661 -9.0455 -9.3990 0.0073 33.9278 -0.0033
# 6 0.0030 -0.0071 -0.0247 8.4202 -0.0033 7.0601
#
#
#
# Elastic Compliance Matrix: (Units=1/GPa)
#
#
# Indices 1 2 3 4 5 6 
#
# 1 0.023340 -0.003456 -0.005665 0.000019 0.006154 -0.000053
# 2 -0.003456 0.009973 -0.002522 0.000002 0.000680 0.000001
# 3 -0.005665 -0.002522 0.014320 -0.000032 0.001197 0.000088
# 4 0.000019 0.000002 -0.000032 0.060885 -0.000021 -0.072615
# 5 0.006154 0.000680 0.001197 -0.000021 0.032267 0.000043
# 6 -0.000053 0.000001 0.000088 -0.072615 0.000043 0.228245
#
#
# Mechanical properties :
#
#
# Convention : Reuss Voigt Hill
#
# Bulk Modulus (GPa) = 41.07029 49.14561 45.10795
# Shear Modulus (GPa) = 12.48655 25.12512 18.80584
#
# Velocity S-wave (km/s) = 2.55877 3.62964 3.14019
# Velocity P-wave (km/s) = 5.50135 6.58295 6.06630
#
# Compressibility (1/GPa) = 0.02434850
#
# Stress axis : x y z
#
# Youngs Moduli (GPa) = 42.84418 100.27382 69.83168
#
# Poissons Ratio (x) = 0.34654 0.39557
# Poissons Ratio (y) = 0.14807 0.17610
# Poissons Ratio (z) = 0.24269 0.25287
#
# Static dielectric constant tensor:
#      x y z
#    x 3.323910 0.000030 0.026510 
#    y 0.000030 3.727690 -0.000080 
#    z 0.026510 -0.000080 3.750160 
# 
# 
# High freq. dielectric constant tensor:
#      x y z
#    x 1.746020 0.000000 -0.000320 
#    y 0.000000 1.754620 0.000000 
#    z -0.000320 0.000000 1.755740 
# 
# From -- ./inp_files/347930.got.cif
#   From: 2010.06.25/outbox.cif.g09.slc.cpg/sg12_174_cif.got.tgz:347930.got - 2010.06.28 00:19:55.
