data_PCOD8112623
_publ_section_title
;
Structure prediction by ZEFSAII (Michael W. Deem and Ramdas Pophale) SiO2 
 PCOD8112623
Probable space group: C 2/M
;
_chemical_formula_sum "Si O2"
_cell_formula_units_Z 56
_cell_length_a 31.050912
_cell_length_b 18.379622
_cell_length_c 9.023983
_cell_angle_alpha 90.000000
_cell_angle_beta 148.426107
_cell_angle_gamma 90.000000
_cell_volume 2696.540726
_symmetry_space_group_name_H-M "C 2/M"
_symmetry_group_IT_number 12
_symmetry_cell_setting 'monoclinic'
loop_
_space_group_symop_operation_xyz
x,y,z
-x,y,-z
-x,-y,-z
x,-y,z
1/2+x,1/2+y,z
1/2-x,1/2+y,-z
1/2-x,1/2-y,-z
1/2+x,1/2-y,z
loop_
_atom_site_type_symbol
_atom_site_label
_atom_site_fract_x
_atom_site_fract_y
_atom_site_fract_z
Si Si1 0.825842 0.323409 0.710208
Si Si2 0.016292 0.847468 0.210534
Si Si3 0.917005 0.417442 0.190483
Si Si4 0.825032 0.582373 0.211725
Si Si5 0.646103 0.583970 0.797016
Si Si6 0.417762 0.193268 0.687065
Si Si7 0.347037 0.670689 0.883371
O O1 0.851188 0.294420 0.621795
O O2 0.736144 0.362668 0.434589
O O3 0.826009 0.256935 0.828667
O O4 0.891812 0.380928 0.962550
O O5 0.071726 0.902650 0.466063
O O6 0.061255 0.769265 0.332659
O O7 0.000000 0.880162 0.000000
O O8 0.927259 0.841844 0.022336
O O9 0.937528 0.500000 0.209955
O O10 0.842386 0.409848 0.088086
O O11 0.000000 0.380944 0.500000
O O12 0.843504 0.500000 0.319458
O O13 0.884782 0.636224 0.472700
O O14 0.730491 0.602730 0.960818
O O15 0.643088 0.500000 0.840894
O O16 0.636617 0.637431 0.907858
O O17 0.500000 0.160315 0.000000
#
# Coordination Sequence:
#
# PCOD8112623 Si02
#       7
#     8   8   8   8   8   8   8
#     4  11  23  40  66  95 131 170 215 267 324 380
#     4  11  25  43  67  97 130 162 219 275 326 390
#     4  10  23  40  61  95 134 175 218 261 319 387
#     4  10  23  42  64  97 134 171 218 263 319 393
#     4  11  26  46  69  96 128 174 221 268 331 390
#     4  11  21  41  65  97 130 167 213 265 321 389
#     4  11  24  43  64  98 128 166 219 269 319 392
#
# _framework density 20.767347999999998
#
# number of rings (size 3 to 8) (size 9 to 14) (size 15 to 20)
#    0.000    1.286    4.286    1.286    4.000    3.429 
#    0.000    0.000    0.000    0.000    0.000    0.000 
#    0.000    0.000    0.000    0.000    0.000    0.000 
#
# Total GULP energy -347191.275701 kJ/mol
# GULP energy per Si atom -12399.688418 kJ/mol
# Density = 2.072008 g / cm^3
# Si number density = 20.767348 Si / 1000 Ang^3
#
#
#
# Elastic Constant Matrix: (Units=GPa)
#
#
# Indices 1 2 3 4 5 6 
#
# 1 114.5250 26.2952 33.7619 0.0000 15.0225 0.0000
# 2 26.2952 47.3491 29.8684 0.0000 -4.3522 0.0000
# 3 33.7619 29.8684 125.1555 0.0000 6.5964 0.0000
# 4 0.0000 0.0000 0.0000 37.7405 0.0000 0.5061
# 5 15.0225 -4.3522 6.5964 0.0000 40.1190 0.0000
# 6 0.0000 0.0000 0.0000 0.5061 0.0000 16.7264
#
#
#
# Elastic Compliance Matrix: (Units=1/GPa)
#
#
# Indices 1 2 3 4 5 6 
#
# 1 0.011035 -0.005669 -0.001386 0.000000 -0.004519 0.000000
# 2 -0.005669 0.028334 -0.005554 0.000000 0.006110 0.000000
# 3 -0.001386 -0.005554 0.009779 0.000000 -0.001692 0.000000
# 4 0.000000 0.000000 0.000000 0.026507 0.000000 -0.000802
# 5 -0.004519 0.006110 -0.001692 0.000000 0.027559 0.000000
# 6 0.000000 0.000000 0.000000 -0.000802 0.000000 0.059810
#
#
# Mechanical properties :
#
#
# Convention : Reuss Voigt Hill
#
# Bulk Modulus (GPa) = 41.79202 51.87563 46.83382
# Shear Modulus (GPa) = 25.48183 32.05746 28.76964
#
# Velocity S-wave (km/s) = 3.50668 3.93319 3.72604
# Velocity P-wave (km/s) = 6.04676 6.75724 6.41185
#
# Compressibility (1/GPa) = 0.02392801
#
# Stress axis : x y z
#
# Youngs Moduli (GPa) = 90.62343 35.29363 102.26460
#
# Poissons Ratio (x) = 0.20010 0.14169
# Poissons Ratio (y) = 0.51379 0.56803
# Poissons Ratio (z) = 0.12556 0.19604
#
# Static dielectric constant tensor:
#      x y z
#    x 3.832220 0.000000 0.147170 
#    y 0.000000 3.626190 0.000000 
#    z 0.147170 0.000000 3.933620 
# 
# 
# High freq. dielectric constant tensor:
#      x y z
#    x 1.821660 0.000000 0.014520 
#    y 0.000000 1.795660 0.000000 
#    z 0.014520 0.000000 1.823900 
# 
# From -- ./inp_files/113418.got.cif
#   From: 2010.06.25/outbox.cif.g09.slc.cpg/sg12_57_cif.got.tgz:113418.got - 2010.06.28 00:19:55.
