data_PCOD8112970
_publ_section_title
;
Structure prediction by ZEFSAII (Michael W. Deem and Ramdas Pophale) SiO2 
 PCOD8112970
Probable space group: C 2/M
;
_chemical_formula_sum "Si O2"
_cell_formula_units_Z 40
_cell_length_a 12.648144
_cell_length_b 12.332308
_cell_length_c 24.515171
_cell_angle_alpha 90.000000
_cell_angle_beta 154.368277
_cell_angle_gamma 90.000000
_cell_volume 1654.160127
_symmetry_space_group_name_H-M "C 2/M"
_symmetry_group_IT_number 12
_symmetry_cell_setting 'monoclinic'
loop_
_space_group_symop_operation_xyz
x,y,z
-x,y,-z
-x,-y,-z
x,-y,z
1/2+x,1/2+y,z
1/2-x,1/2+y,-z
1/2-x,1/2-y,-z
1/2+x,1/2-y,z
loop_
_atom_site_type_symbol
_atom_site_label
_atom_site_fract_x
_atom_site_fract_y
_atom_site_fract_z
Si Si1 0.811211 0.876954 0.686154
Si Si2 0.207848 0.628650 0.519289
Si Si3 0.065432 0.872154 0.592220
Si Si4 0.830508 0.329782 0.969646
Si Si5 0.912814 0.378811 0.127012
O O1 0.570811 0.819728 0.603125
O O2 0.852452 0.839511 0.642414
O O3 0.054927 0.871609 0.835132
O O4 0.722292 0.000000 0.641629
O O5 0.192919 0.500000 0.502883
O O6 0.355301 0.676499 0.535160
O O7 0.342231 0.827367 0.731869
O O8 0.000000 0.845051 0.500000
O O9 0.086070 0.000000 0.613187
O O10 0.816895 0.198227 0.965322
O O11 0.949330 0.379853 0.078835
O O12 0.000000 0.370672 0.000000
O O13 0.858087 0.500000 0.122974
#
# Coordination Sequence:
#
# PCOD8112970 Si02
#       5
#     8   8   8   8   8
#     4   9  17  32  57  90 122 155 195 252 316 358
#     4   8  15  30  55  88 122 151 195 253 304 360
#     4   9  17  34  58  84 115 158 203 239 292 366
#     4  11  23  40  63  91 123 156 211 259 300 360
#     4  10  23  43  62  87 124 162 204 251 305 366
#
# _framework density 24.181455
#
# number of rings (size 3 to 8) (size 9 to 14) (size 15 to 20)
#    0.000    2.600    0.000    3.000    0.000    3.600 
#   10.800    1.000    0.000    0.000    0.000    0.000 
#    0.000    0.000    0.000    0.000    0.000    0.000 
#
# Total GULP energy -248008.159475 kJ/mol
# GULP energy per Si atom -12400.407974 kJ/mol
# Density = 2.412642 g / cm^3
# Si number density = 24.181455 Si / 1000 Ang^3
#
#
#
# Elastic Constant Matrix: (Units=GPa)
#
#
# Indices 1 2 3 4 5 6 
#
# 1 146.6279 3.5508 46.1705 0.0011 -7.1399 0.0003
# 2 3.5508 52.5892 5.2018 0.0017 13.4315 0.0007
# 3 46.1705 5.2018 140.5792 -0.0050 -20.9774 0.0026
# 4 0.0011 0.0017 -0.0050 30.9762 -0.0011 2.3232
# 5 -7.1399 13.4315 -20.9774 -0.0011 36.8371 -0.0003
# 6 0.0003 0.0007 0.0026 2.3232 -0.0003 22.6336
#
#
#
# Elastic Compliance Matrix: (Units=1/GPa)
#
#
# Indices 1 2 3 4 5 6 
#
# 1 0.007611 -0.000319 -0.002459 -0.000001 0.000191 0.000000
# 2 -0.000319 0.021561 -0.002049 -0.000002 -0.009091 0.000000
# 3 -0.002459 -0.002049 0.008784 0.000002 0.005273 -0.000001
# 4 -0.000001 -0.000002 0.000002 0.032533 0.000002 -0.003339
# 5 0.000191 -0.009091 0.005273 0.000002 0.033501 0.000000
# 6 0.000000 0.000000 -0.000001 -0.003339 0.000000 0.044525
#
#
# Mechanical properties :
#
#
# Convention : Reuss Voigt Hill
#
# Bulk Modulus (GPa) = 35.33581 49.96029 42.64805
# Shear Modulus (GPa) = 29.83191 37.08094 33.45642
#
# Velocity S-wave (km/s) = 3.51617 3.92017 3.72366
# Velocity P-wave (km/s) = 5.57935 6.41839 6.01352
#
# Compressibility (1/GPa) = 0.02829990
#
# Stress axis : x y z
#
# Youngs Moduli (GPa) = 131.38050 46.37919 113.84564
#
# Poissons Ratio (x) = 0.01482 0.28000
# Poissons Ratio (y) = 0.04197 0.23332
# Poissons Ratio (z) = 0.32313 0.09505
#
# Static dielectric constant tensor:
#      x y z
#    x 4.238040 0.000000 0.018270 
#    y 0.000000 4.821110 0.000000 
#    z 0.018270 0.000000 4.106820 
# 
# 
# High freq. dielectric constant tensor:
#      x y z
#    x 1.947860 0.000000 -0.001050 
#    y 0.000000 2.016940 0.000000 
#    z -0.001050 0.000000 1.952730 
# 
# From -- ./inp_files/263104.got.cif
#   From: 2010.06.25/outbox.cif.g09.slc.cpg/sg12_132_cif.got.tgz:263104.got - 2010.06.28 00:19:55.
