data_PCOD8112735
_publ_section_title
;
Structure prediction by ZEFSAII (Michael W. Deem and Ramdas Pophale) SiO2 
 PCOD8112735
Probable space group: C 2/M
;
_chemical_formula_sum "Si O2"
_cell_formula_units_Z 64
_cell_length_a 15.195140
_cell_length_b 8.571895
_cell_length_c 33.552287
_cell_angle_alpha 90.000000
_cell_angle_beta 44.511239
_cell_angle_gamma 90.000000
_cell_volume 3063.741715
_symmetry_space_group_name_H-M "C 2/M"
_symmetry_group_IT_number 12
_symmetry_cell_setting 'monoclinic'
loop_
_space_group_symop_operation_xyz
x,y,z
-x,y,-z
-x,-y,-z
x,-y,z
1/2+x,1/2+y,z
1/2-x,1/2+y,-z
1/2-x,1/2-y,-z
1/2+x,1/2-y,z
loop_
_atom_site_type_symbol
_atom_site_label
_atom_site_fract_x
_atom_site_fract_y
_atom_site_fract_z
Si Si1 0.385301 0.679169 0.146462
Si Si2 0.672182 0.684495 0.061527
Si Si3 0.206415 0.320531 0.134589
Si Si4 0.001304 0.180800 0.377747
Si Si5 0.071604 0.681903 0.437242
Si Si6 0.338486 0.819860 0.366254
Si Si7 0.271773 0.819555 0.257783
Si Si8 0.031952 0.819731 0.747337
O O1 0.375415 0.500000 0.163675
O O2 0.528102 0.738067 0.102856
O O3 0.335811 0.698636 0.117322
O O4 0.298254 0.784163 0.203049
O O5 0.683916 0.500000 0.059107
O O6 0.730255 0.755897 0.082860
O O7 0.750000 0.750000 0.000000
O O8 0.163616 0.500000 0.146199
O O9 0.099736 0.222217 0.190691
O O10 0.009232 0.224050 0.421381
O O11 0.129321 0.223739 0.313706
O O12 0.888690 0.277444 0.393890
O O13 0.968786 0.000000 0.384068
O O14 0.054092 0.500000 0.434489
O O15 0.217936 0.718584 0.393925
O O16 0.000000 0.735820 0.500000
O O17 0.446772 0.781661 0.299221
O O18 0.300950 0.000000 0.376527
O O19 0.359362 0.710510 0.255955
O O20 0.299505 0.000000 0.258657
O O21 0.031345 0.000000 0.735237
#
# Coordination Sequence:
#
# PCOD8112735 Si02
#       8
#     8   8   8   8   8   8   8   8
#     4  10  23  41  63  91 126 165 204 252 314 374
#     4  11  24  43  64  89 122 165 212 262 316 369
#     4  11  23  41  65  94 126 163 207 257 313 376
#     4  11  24  42  66  97 131 168 212 262 317 380
#     4  11  25  45  68  94 126 167 215 267 322 378
#     4  12  25  42  66  96 130 170 214 261 318 380
#     4  11  22  37  63  96 128 164 207 254 311 377
#     4  12  23  38  63  94 131 168 205 255 316 379
#
# _framework density 20.889489999999999
#
# number of rings (size 3 to 8) (size 9 to 14) (size 15 to 20)
#    0.000    0.875    2.500    4.875    0.000    7.000 
#    0.000    2.500    0.000    0.000    0.000    0.000 
#    0.000    0.000    0.000    0.000    0.000    0.000 
#
# Total GULP energy -397055.092818 kJ/mol
# GULP energy per Si atom -12407.971651 kJ/mol
# Density = 2.084194 g / cm^3
# Si number density = 20.889490 Si / 1000 Ang^3
#
#
#
# Elastic Constant Matrix: (Units=GPa)
#
#
# Indices 1 2 3 4 5 6 
#
# 1 104.5949 21.4700 24.3920 -0.0002 27.6508 0.0011
# 2 21.4700 69.4592 22.2606 -0.0001 2.0112 -0.0005
# 3 24.3920 22.2606 103.6077 0.0006 25.6737 0.0006
# 4 -0.0002 -0.0001 0.0006 32.2539 0.0007 7.1445
# 5 27.6508 2.0112 25.6737 0.0007 23.0176 0.0009
# 6 0.0011 -0.0005 0.0006 7.1445 0.0009 33.2674
#
#
#
# Elastic Compliance Matrix: (Units=1/GPa)
#
#
# Indices 1 2 3 4 5 6 
#
# 1 0.015607 -0.005071 0.002697 0.000001 -0.021314 0.000000
# 2 -0.005071 0.017288 -0.005052 0.000000 0.010217 0.000000
# 3 0.002697 -0.005052 0.014919 0.000000 -0.019439 0.000000
# 4 0.000001 0.000000 0.000000 0.032553 -0.000001 -0.006991
# 5 -0.021314 0.010217 -0.019439 -0.000001 0.089838 -0.000001
# 6 0.000000 0.000000 0.000000 -0.006991 -0.000001 0.031561
#
#
# Mechanical properties :
#
#
# Convention : Reuss Voigt Hill
#
# Bulk Modulus (GPa) = 30.33901 45.98967 38.16434
# Shear Modulus (GPa) = 21.96773 31.67707 26.82240
#
# Velocity S-wave (km/s) = 3.24638 3.89834 3.58720
# Velocity P-wave (km/s) = 5.34856 6.50586 5.95539
#
# Compressibility (1/GPa) = 0.03296087
#
# Stress axis : x y z
#
# Youngs Moduli (GPa) = 64.07255 57.84421 67.02726
#
# Poissons Ratio (x) = 0.29335 -0.18075
# Poissons Ratio (y) = 0.32494 0.33863
# Poissons Ratio (z) = -0.17278 0.29224
#
# Static dielectric constant tensor:
#      x y z
#    x 3.950580 0.000000 0.088770 
#    y 0.000000 3.777320 -0.000010 
#    z 0.088770 -0.000010 3.775110 
# 
# 
# High freq. dielectric constant tensor:
#      x y z
#    x 1.829260 0.000000 0.009440 
#    y 0.000000 1.825730 0.000000 
#    z 0.009440 0.000000 1.813350 
# 
# From -- ./inp_files/375494.got.cif
#   From: 2010.06.25/outbox.cif.g09.slc.cpg/sg12_188_cif.got.tgz:375494.got - 2010.06.28 00:19:55.
