data_PCOD8112578
_publ_section_title
;
Structure prediction by ZEFSAII (Michael W. Deem and Ramdas Pophale) SiO2 
 PCOD8112578
Probable space group: C 2/M
;
_chemical_formula_sum "Si O2"
_cell_formula_units_Z 32
_cell_length_a 10.308620
_cell_length_b 8.167822
_cell_length_c 18.838122
_cell_angle_alpha 90.000000
_cell_angle_beta 60.570496
_cell_angle_gamma 90.000000
_cell_volume 1381.475107
_symmetry_space_group_name_H-M "C 2/M"
_symmetry_group_IT_number 12
_symmetry_cell_setting 'monoclinic'
loop_
_space_group_symop_operation_xyz
x,y,z
-x,y,-z
-x,-y,-z
x,-y,z
1/2+x,1/2+y,z
1/2-x,1/2+y,-z
1/2-x,1/2-y,-z
1/2+x,1/2-y,z
loop_
_atom_site_type_symbol
_atom_site_label
_atom_site_fract_x
_atom_site_fract_y
_atom_site_fract_z
Si Si1 0.163376 0.500000 0.038885
Si Si2 0.184680 0.500000 0.876907
Si Si3 0.065946 0.191250 0.408783
Si Si4 0.105561 0.188081 0.685895
Si Si5 0.166745 0.322595 0.171765
O O1 0.198279 0.339319 0.078221
O O2 0.988830 0.500000 0.072509
O O3 0.249340 0.500000 0.940949
O O4 0.243382 0.665606 0.822032
O O5 0.220891 0.278985 0.349457
O O6 0.000000 0.261386 0.500000
O O7 0.946390 0.233069 0.380061
O O8 0.098788 0.000000 0.406967
O O9 0.008947 0.295593 0.766877
O O10 0.070607 0.000000 0.711462
O O11 0.213019 0.500000 0.194684
#
# Coordination Sequence:
#
# PCOD8112578 Si02
#       5
#     4   4   8   8   8
#     4   9  24  40  65  93 122 167 212 263 315 377
#     4  11  20  46  63  87 132 161 210 271 311 373
#     4  10  23  42  64  91 126 166 214 266 318 379
#     4  11  23  39  63  92 129 169 210 266 318 377
#     4  10  23  39  62  93 125 165 210 258 315 381
#
# _framework density 23.163646
#
# number of rings (size 3 to 8) (size 9 to 14) (size 15 to 20)
#    0.750    1.000    1.250    2.250    3.500    2.500 
#    2.250    1.250    0.000    0.000    0.000    0.000 
#    0.000    0.000    0.000    0.000    0.000    0.000 
#
# Total GULP energy -198260.245668 kJ/mol
# GULP energy per Si atom -12391.265354 kJ/mol
# Density = 2.311092 g / cm^3
# Si number density = 23.163646 Si / 1000 Ang^3
#
#
#
# Elastic Constant Matrix: (Units=GPa)
#
#
# Indices 1 2 3 4 5 6 
#
# 1 53.4830 14.9189 -19.2300 0.0000 -8.2480 0.0000
# 2 14.9189 141.0229 9.1624 0.0000 -14.1799 0.0000
# 3 -19.2300 9.1624 48.7094 0.0000 -8.1576 0.0000
# 4 0.0000 0.0000 0.0000 48.6871 0.0000 -22.0702
# 5 -8.2480 -14.1799 -8.1576 0.0000 33.0742 0.0000
# 6 0.0000 0.0000 0.0000 -22.0702 0.0000 34.0453
#
#
#
# Elastic Compliance Matrix: (Units=1/GPa)
#
#
# Indices 1 2 3 4 5 6 
#
# 1 0.024819 -0.002581 0.011615 0.000000 0.007948 0.000000
# 2 -0.002581 0.007717 -0.002112 0.000000 0.002144 0.000000
# 3 0.011615 -0.002112 0.026960 0.000000 0.008641 0.000000
# 4 0.000000 0.000000 0.000000 0.029087 0.000000 0.018856
# 5 0.007948 0.002144 0.008641 0.000000 0.035267 0.000000
# 6 0.000000 0.000000 0.000000 0.018856 0.000000 0.041596
#
#
# Mechanical properties :
#
#
# Convention : Reuss Voigt Hill
#
# Bulk Modulus (GPa) = 13.63500 28.10197 20.86849
# Shear Modulus (GPa) = 28.40126 39.05226 33.72676
#
# Velocity S-wave (km/s) = 3.50539 4.11046 3.81992
# Velocity P-wave (km/s) = 4.72047 5.88949 5.33708
#
# Compressibility (1/GPa) = 0.07334067
#
# Stress axis : x y z
#
# Youngs Moduli (GPa) = 40.29105 129.58615 37.09236
#
# Poissons Ratio (x) = 0.33448 -0.43083
# Poissons Ratio (y) = 0.10400 0.07832
# Poissons Ratio (z) = -0.46798 0.27362
#
# Static dielectric constant tensor:
#      x y z
#    x 3.825580 0.000000 0.243670 
#    y 0.000000 4.065520 0.000000 
#    z 0.243670 0.000000 4.326530 
# 
# 
# High freq. dielectric constant tensor:
#      x y z
#    x 1.893050 0.000000 0.004730 
#    y 0.000000 1.918420 0.000000 
#    z 0.004730 0.000000 1.920680 
# 
# From -- ./inp_files/303366.got.cif
#   From: 2010.06.25/outbox.cif.g09.slc.cpg/sg12_152_cif.got.tgz:303366.got - 2010.06.28 00:19:55.
