data_PCOD8112029
_publ_section_title
;
Structure prediction by ZEFSAII (Michael W. Deem and Ramdas Pophale) SiO2 
 PCOD8112029
Probable space group: C 2/M
;
_chemical_formula_sum "Si O2"
_cell_formula_units_Z 48
_cell_length_a 9.316182
_cell_length_b 21.986577
_cell_length_c 12.641414
_cell_angle_alpha 90.000000
_cell_angle_beta 110.952970
_cell_angle_gamma 90.000000
_cell_volume 2418.130028
_symmetry_space_group_name_H-M "C 2/M"
_symmetry_group_IT_number 12
_symmetry_cell_setting 'monoclinic'
loop_
_space_group_symop_operation_xyz
x,y,z
-x,y,-z
-x,-y,-z
x,-y,z
1/2+x,1/2+y,z
1/2-x,1/2+y,-z
1/2-x,1/2-y,-z
1/2+x,1/2-y,z
loop_
_atom_site_type_symbol
_atom_site_label
_atom_site_fract_x
_atom_site_fract_y
_atom_site_fract_z
Si Si1 0.637987 0.500000 0.184231
Si Si2 0.963077 0.668292 0.751045
Si Si3 0.268577 0.626722 0.734673
Si Si4 0.466270 0.707295 0.111602
Si Si5 0.669130 0.129588 0.080962
Si Si6 0.659721 0.809155 0.499674
Si Si7 0.708191 0.500000 0.956919
O O1 0.708445 0.555408 0.267302
O O2 0.454548 0.500000 0.143993
O O3 0.692251 0.500000 0.077956
O O4 0.848413 0.631494 0.797281
O O5 0.868864 0.657920 0.618509
O O6 0.131000 0.639546 0.780520
O O7 0.995649 0.737418 0.798491
O O8 0.422497 0.652876 0.826472
O O9 0.242155 0.648954 0.608095
O O10 0.292650 0.680414 0.074993
O O11 0.500000 0.727042 0.000000
O O12 0.702588 0.061138 0.052687
O O13 0.500000 0.151308 0.000000
O O14 0.500000 0.784556 0.500000
O O15 0.750000 0.750000 0.500000
#
# Coordination Sequence:
#
# PCOD8112029 Si02
#       7
#     4   8   8   8   8   8   4
#     4  11  22  42  68  91 127 172 221 261 312 392
#     4  11  24  40  62  97 128 166 213 269 323 381
#     4  11  23  42  65  94 128 171 220 257 319 383
#     4  12  23  38  63  93 133 170 209 261 322 393
#     4  12  25  40  62  96 133 167 214 266 321 381
#     4  10  22  41  66  94 125 170 217 263 321 375
#     4  11  23  42  67  91 126 178 215 261 320 384
#
# _framework density 19.850048000000001
#
# number of rings (size 3 to 8) (size 9 to 14) (size 15 to 20)
#    0.000    0.833    3.333    4.750    2.333    2.667 
#    0.000    4.583    0.000    1.000    0.000    0.000 
#    0.000    0.000    0.000    0.000    0.000    0.000 
#
# Total GULP energy -297508.614981 kJ/mol
# GULP energy per Si atom -12396.192291 kJ/mol
# Density = 1.980487 g / cm^3
# Si number density = 19.850048 Si / 1000 Ang^3
#
#
#
# Elastic Constant Matrix: (Units=GPa)
#
#
# Indices 1 2 3 4 5 6 
#
# 1 114.7011 32.5829 56.1824 0.0000 -0.2594 0.0000
# 2 32.5829 114.3440 37.6586 0.0000 3.8409 0.0000
# 3 56.1824 37.6586 106.5091 0.0000 -8.5462 0.0000
# 4 0.0000 0.0000 0.0000 98.8079 0.0000 8.2250
# 5 -0.2594 3.8409 -8.5462 0.0000 29.5617 0.0000
# 6 0.0000 0.0000 0.0000 8.2250 0.0000 34.8226
#
#
#
# Elastic Compliance Matrix: (Units=1/GPa)
#
#
# Indices 1 2 3 4 5 6 
#
# 1 0.012039 -0.001418 -0.005964 0.000000 -0.001434 0.000000
# 2 -0.001418 0.010228 -0.003046 0.000000 -0.002222 0.000000
# 3 -0.005964 -0.003046 0.013964 0.000000 0.004380 0.000000
# 4 0.000000 0.000000 0.000000 0.010324 0.000000 -0.002438
# 5 -0.001434 -0.002222 0.004380 0.000000 0.035370 0.000000
# 6 0.000000 0.000000 0.000000 -0.002438 0.000000 0.029293
#
#
# Mechanical properties :
#
#
# Convention : Reuss Voigt Hill
#
# Bulk Modulus (GPa) = 65.05016 65.37803 65.21410
# Shear Modulus (GPa) = 36.44339 46.58045 41.51192
#
# Velocity S-wave (km/s) = 4.28943 4.84944 4.57801
# Velocity P-wave (km/s) = 7.57458 8.02269 7.80185
#
# Compressibility (1/GPa) = 0.01537275
#
# Stress axis : x y z
#
# Youngs Moduli (GPa) = 83.06107 97.77450 71.61493
#
# Poissons Ratio (x) = 0.13866 0.42713
# Poissons Ratio (y) = 0.11780 0.21817
# Poissons Ratio (z) = 0.49540 0.29786
#
# Static dielectric constant tensor:
#      x y z
#    x 3.512780 0.000000 -0.079540 
#    y 0.000000 3.424980 0.000000 
#    z -0.079540 0.000000 4.027400 
# 
# 
# High freq. dielectric constant tensor:
#      x y z
#    x 1.791700 0.000000 -0.000010 
#    y 0.000000 1.769120 0.000000 
#    z -0.000010 0.000000 1.780350 
# 
# From -- ./inp_files/122613.got.cif
#   From: 2010.06.25/outbox.cif.g09.slc.cpg/sg12_62_cif.got.tgz:122613.got - 2010.06.28 00:19:55.
