data_PCOD8112415
_publ_section_title
;
Structure prediction by ZEFSAII (Michael W. Deem and Ramdas Pophale) SiO2 
 PCOD8112415
Probable space group: C 2/M
;
_chemical_formula_sum "Si O2"
_cell_formula_units_Z 48
_cell_length_a 9.108131
_cell_length_b 14.701493
_cell_length_c 28.707440
_cell_angle_alpha 90.000000
_cell_angle_beta 36.652720
_cell_angle_gamma 90.000000
_cell_volume 2294.736514
_symmetry_space_group_name_H-M "C 2/M"
_symmetry_group_IT_number 12
_symmetry_cell_setting 'monoclinic'
loop_
_space_group_symop_operation_xyz
x,y,z
-x,y,-z
-x,-y,-z
x,-y,z
1/2+x,1/2+y,z
1/2-x,1/2+y,-z
1/2-x,1/2-y,-z
1/2+x,1/2-y,z
loop_
_atom_site_type_symbol
_atom_site_label
_atom_site_fract_x
_atom_site_fract_y
_atom_site_fract_z
Si Si1 0.684018 0.105432 0.996138
Si Si2 0.977884 0.261589 0.122355
Si Si3 0.061596 0.397453 0.342850
Si Si4 0.837641 0.346803 0.494915
Si Si5 0.199646 0.100422 0.355065
Si Si6 0.949231 0.253626 0.232039
O O1 0.552120 0.148937 0.074601
O O2 0.758343 0.000000 0.987132
O O3 0.500000 0.111113 0.000000
O O4 0.922597 0.167089 0.924819
O O5 0.074047 0.274962 0.150319
O O6 0.684949 0.255597 0.205066
O O7 0.136564 0.500000 0.312081
O O8 0.299265 0.339625 0.269132
O O9 0.000304 0.390757 0.412966
O O10 0.826163 0.367350 0.371422
O O11 0.750000 0.250000 0.500000
O O12 0.593784 0.405368 0.565349
O O13 0.000000 0.341471 0.500000
O O14 0.270258 0.167193 0.295304
O O15 0.293696 0.000000 0.317866
#
# Coordination Sequence:
#
# PCOD8112415 Si02
#       6
#     8   8   8   8   8   8
#     4  10  22  43  71  98 127 171 215 255 315 388
#     4  11  24  42  67  99 133 166 211 267 317 381
#     4  11  25  44  67  95 129 176 223 270 329 387
#     4  12  25  42  67  94 129 174 226 275 325 383
#     4  11  25  44  66  95 131 174 221 273 330 385
#     4  12  24  42  65  97 135 171 211 266 328 381
#
# _framework density 20.917435999999999
#
# number of rings (size 3 to 8) (size 9 to 14) (size 15 to 20)
#    0.000    0.833    5.000    2.000    2.333    5.333 
#    0.000    0.833    0.000    0.000    0.000    0.000 
#    0.000    0.000    0.000    0.000    0.000    0.000 
#
# Total GULP energy -297645.714826 kJ/mol
# GULP energy per Si atom -12401.904784 kJ/mol
# Density = 2.086983 g / cm^3
# Si number density = 20.917436 Si / 1000 Ang^3
#
#
#
# Elastic Constant Matrix: (Units=GPa)
#
#
# Indices 1 2 3 4 5 6 
#
# 1 98.9486 41.8584 38.9904 0.0033 -7.2381 -0.0019
# 2 41.8584 143.2782 44.6971 -0.0060 4.8985 -0.0004
# 3 38.9904 44.6971 103.3133 -0.0238 9.9705 0.0010
# 4 0.0033 -0.0060 -0.0238 12.7207 0.0067 -4.0249
# 5 -7.2381 4.8985 9.9705 0.0067 43.4350 0.0018
# 6 -0.0019 -0.0004 0.0010 -4.0249 0.0018 27.1417
#
#
#
# Elastic Compliance Matrix: (Units=1/GPa)
#
#
# Indices 1 2 3 4 5 6 
#
# 1 0.013109 -0.002659 -0.004128 -0.000015 0.003432 -0.000001
# 2 -0.002659 0.008608 -0.002643 0.000000 -0.000807 0.000000
# 3 -0.004128 -0.002643 0.012700 0.000026 -0.003305 0.000003
# 4 -0.000015 0.000000 0.000026 0.082482 -0.000022 0.012231
# 5 0.003432 -0.000807 -0.003305 -0.000022 0.024445 -0.000004
# 6 -0.000001 0.000000 0.000003 0.012231 -0.000004 0.038657
#
#
# Mechanical properties :
#
#
# Convention : Reuss Voigt Hill
#
# Bulk Modulus (GPa) = 64.28109 66.29243 65.28676
# Shear Modulus (GPa) = 24.50422 31.32577 27.91500
#
# Velocity S-wave (km/s) = 3.42639 3.87407 3.65709
# Velocity P-wave (km/s) = 6.81551 7.19531 7.00798
#
# Compressibility (1/GPa) = 0.01555667
#
# Stress axis : x y z
#
# Youngs Moduli (GPa) = 76.28408 116.16590 78.74315
#
# Poissons Ratio (x) = 0.30892 0.32505
# Poissons Ratio (y) = 0.20286 0.20810
# Poissons Ratio (z) = 0.31490 0.30700
#
# Static dielectric constant tensor:
#      x y z
#    x 3.863890 -0.000380 0.049570 
#    y -0.000380 5.918680 -0.000390 
#    z 0.049570 -0.000390 3.823380 
# 
# 
# High freq. dielectric constant tensor:
#      x y z
#    x 1.827530 0.000000 0.002720 
#    y 0.000000 1.822860 0.000000 
#    z 0.002720 0.000000 1.819310 
# 
# From -- ./inp_files/356288.got.cif
#   From: 2010.06.25/outbox.cif.g09.slc.cpg/sg12_179_cif.got.tgz:356288.got - 2010.06.28 00:19:55.
