data_PCOD8112417
_publ_section_title
;
Structure prediction by ZEFSAII (Michael W. Deem and Ramdas Pophale) SiO2 
 PCOD8112417
Probable space group: C 2/M
;
_chemical_formula_sum "Si O2"
_cell_formula_units_Z 56
_cell_length_a 17.219336
_cell_length_b 28.877250
_cell_length_c 9.196030
_cell_angle_alpha 90.000000
_cell_angle_beta 35.459508
_cell_angle_gamma 90.000000
_cell_volume 2652.748244
_symmetry_space_group_name_H-M "C 2/M"
_symmetry_group_IT_number 12
_symmetry_cell_setting 'monoclinic'
loop_
_space_group_symop_operation_xyz
x,y,z
-x,y,-z
-x,-y,-z
x,-y,z
1/2+x,1/2+y,z
1/2-x,1/2+y,-z
1/2-x,1/2-y,-z
1/2+x,1/2-y,z
loop_
_atom_site_type_symbol
_atom_site_label
_atom_site_fract_x
_atom_site_fract_y
_atom_site_fract_z
Si Si1 0.760938 0.365530 0.926576
Si Si2 0.945167 0.781468 0.742777
Si Si3 0.592423 0.183776 0.064420
Si Si4 0.210821 0.798933 0.495558
Si Si5 0.660538 0.447556 0.254303
Si Si6 0.673753 0.866266 0.500605
Si Si7 0.159119 0.552801 0.737430
O O1 0.875320 0.356138 0.868730
O O2 0.829582 0.371231 0.666322
O O3 0.662112 0.322114 0.091818
O O4 0.696142 0.414503 0.065937
O O5 0.885942 0.734366 0.898621
O O6 0.000000 0.770335 0.500000
O O7 0.063894 0.798697 0.659579
O O8 0.441845 0.168188 0.257042
O O9 0.686321 0.181701 0.781696
O O10 0.250000 0.750000 0.500000
O O11 0.198494 0.836031 0.645319
O O12 0.500000 0.443867 0.500000
O O13 0.704015 0.500000 0.150833
O O14 0.744194 0.432603 0.273271
O O15 0.688931 0.916190 0.551391
O O16 0.193148 0.500000 0.645192
O O17 0.000000 0.559185 0.000000
#
# Coordination Sequence:
#
# PCOD8112417 Si02
#       7
#     8   8   8   8   8   8   8
#     4  12  25  41  66  94 129 172 215 261 325 396
#     4  12  25  42  65  89 127 172 222 267 312 388
#     4  12  25  43  64  92 133 173 217 268 326 385
#     4  12  25  42  63  91 124 172 219 268 324 373
#     4  10  23  45  71  98 130 171 221 274 334 399
#     4  12  25  40  64  97 134 167 213 271 325 388
#     4  10  22  43  71  99 129 169 218 272 332 397
#
# _framework density 21.110181999999998
#
# number of rings (size 3 to 8) (size 9 to 14) (size 15 to 20)
#    0.000    0.571    2.857    6.000    2.000    2.286 
#    0.000    0.000    0.000    6.857    0.000    0.000 
#    0.000    0.000    0.000    0.000    0.000    0.000 
#
# Total GULP energy -347008.316609 kJ/mol
# GULP energy per Si atom -12393.154165 kJ/mol
# Density = 2.106213 g / cm^3
# Si number density = 21.110182 Si / 1000 Ang^3
#
#
#
# Elastic Constant Matrix: (Units=GPa)
#
#
# Indices 1 2 3 4 5 6 
#
# 1 97.4343 27.8038 10.6680 0.0000 -2.6858 0.0000
# 2 27.8038 123.8602 30.0613 0.0000 15.2981 0.0000
# 3 10.6680 30.0613 52.9076 0.0000 5.7172 0.0000
# 4 0.0000 0.0000 0.0000 38.1720 0.0000 10.9290
# 5 -2.6858 15.2981 5.7172 0.0000 31.2986 0.0000
# 6 0.0000 0.0000 0.0000 10.9290 0.0000 41.0079
#
#
#
# Elastic Compliance Matrix: (Units=1/GPa)
#
#
# Indices 1 2 3 4 5 6 
#
# 1 0.011172 -0.002545 -0.001066 0.000000 0.002398 0.000000
# 2 -0.002545 0.010379 -0.004909 0.000000 -0.004395 0.000000
# 3 -0.001066 -0.004909 0.022092 0.000000 -0.001727 0.000000
# 4 0.000000 0.000000 0.000000 0.028361 0.000000 -0.007559
# 5 0.002398 -0.004395 -0.001727 0.000000 0.034620 0.000000
# 6 0.000000 0.000000 0.000000 -0.007559 0.000000 0.026400
#
#
# Mechanical properties :
#
#
# Convention : Reuss Voigt Hill
#
# Bulk Modulus (GPa) = 37.58965 45.69647 41.64306
# Shear Modulus (GPa) = 31.45989 35.80698 33.63344
#
# Velocity S-wave (km/s) = 3.86459 4.12296 3.99586
# Velocity P-wave (km/s) = 6.14479 6.66023 6.40770
#
# Compressibility (1/GPa) = 0.02660306
#
# Stress axis : x y z
#
# Youngs Moduli (GPa) = 89.50585 96.34536 45.26585
#
# Poissons Ratio (x) = 0.24525 0.04823
# Poissons Ratio (y) = 0.22784 0.22222
# Poissons Ratio (z) = 0.09537 0.47298
#
# Static dielectric constant tensor:
#      x y z
#    x 4.785230 0.000000 -0.193440 
#    y 0.000000 3.697550 0.000000 
#    z -0.193440 0.000000 3.629390 
# 
# 
# High freq. dielectric constant tensor:
#      x y z
#    x 1.859920 0.000000 -0.005490 
#    y 0.000000 1.839010 0.000000 
#    z -0.005490 0.000000 1.806260 
# 
# From -- ./inp_files/80408.got.cif
#   From: 2010.06.25/outbox.cif.g09.slc.cpg/sg12_41_cif.got.tgz:80408.got - 2010.06.28 00:19:55.
