data_PCOD8112319
_publ_section_title
;
Structure prediction by ZEFSAII (Michael W. Deem and Ramdas Pophale) SiO2 
 PCOD8112319
Probable space group: C 2/M
;
_chemical_formula_sum "Si O2"
_cell_formula_units_Z 64
_cell_length_a 17.599239
_cell_length_b 14.483043
_cell_length_c 12.183038
_cell_angle_alpha 90.000000
_cell_angle_beta 78.675593
_cell_angle_gamma 90.000000
_cell_volume 3044.883501
_symmetry_space_group_name_H-M "C 2/M"
_symmetry_group_IT_number 12
_symmetry_cell_setting 'monoclinic'
loop_
_space_group_symop_operation_xyz
x,y,z
-x,y,-z
-x,-y,-z
x,-y,z
1/2+x,1/2+y,z
1/2-x,1/2+y,-z
1/2-x,1/2-y,-z
1/2+x,1/2-y,z
loop_
_atom_site_type_symbol
_atom_site_label
_atom_site_fract_x
_atom_site_fract_y
_atom_site_fract_z
Si Si1 0.914508 0.897607 0.063178
Si Si2 0.140993 0.602095 0.977831
Si Si3 0.830561 0.392845 0.387809
Si Si4 0.813940 0.148168 0.887529
Si Si5 0.912207 0.706418 0.560337
Si Si6 0.158048 0.899149 0.366227
Si Si7 0.408425 0.179805 0.803526
Si Si8 0.578140 0.219492 0.818154
O O1 0.890854 0.823200 0.163581
O O2 0.914355 0.000000 0.116595
O O3 0.857653 0.901128 0.975316
O O4 0.000000 0.868776 0.000000
O O5 0.147538 0.500000 0.926047
O O6 0.223594 0.651234 0.941406
O O7 0.077162 0.661541 0.930961
O O8 0.108125 0.593133 0.112196
O O9 0.859193 0.500000 0.374841
O O10 0.855239 0.344166 0.493316
O O11 0.738674 0.386630 0.406538
O O12 0.864268 0.332651 0.279485
O O13 0.829875 0.097255 0.768116
O O14 0.843315 0.251622 0.867489
O O15 0.897288 0.816243 0.578241
O O16 0.896266 0.654611 0.680164
O O17 0.000000 0.691258 0.500000
O O18 0.122697 0.000000 0.408544
O O19 0.493295 0.224656 0.790060
#
# Coordination Sequence:
#
# PCOD8112319 Si02
#       8
#     8   8   8   8   8   8   8   8
#     4  11  22  36  59  90 130 174 208 253 318 386
#     4  12  24  38  64  98 131 169 216 267 321 388
#     4  11  24  44  69  94 126 175 222 265 326 388
#     4  11  21  41  62  94 133 172 211 259 318 393
#     4  11  24  44  67  95 129 169 223 269 329 379
#     4  10  22  42  70  99 127 169 220 269 324 387
#     4  11  24  41  63  93 132 174 209 271 326 381
#     4  12  22  42  63  93 133 166 219 264 321 388
#
# _framework density 21.018867
#
# number of rings (size 3 to 8) (size 9 to 14) (size 15 to 20)
#    0.000    0.875    5.000    2.625    0.000    2.500 
#    0.000    0.625    0.000    2.250    0.000    0.000 
#    0.000    0.000    0.000    0.000    0.000    0.000 
#
# Total GULP energy -396728.681759 kJ/mol
# GULP energy per Si atom -12397.771305 kJ/mol
# Density = 2.097103 g / cm^3
# Si number density = 21.018867 Si / 1000 Ang^3
#
#
#
# Elastic Constant Matrix: (Units=GPa)
#
#
# Indices 1 2 3 4 5 6 
#
# 1 50.7568 15.6878 16.0326 0.0000 16.2002 0.0000
# 2 15.6878 95.1772 40.2082 0.0000 4.4141 0.0000
# 3 16.0326 40.2082 93.4981 0.0000 11.2926 0.0000
# 4 0.0000 0.0000 0.0000 15.9287 0.0000 0.7886
# 5 16.2002 4.4141 11.2926 0.0000 34.4207 0.0000
# 6 0.0000 0.0000 0.0000 0.7886 0.0000 14.7622
#
#
#
# Elastic Compliance Matrix: (Units=1/GPa)
#
#
# Indices 1 2 3 4 5 6 
#
# 1 0.024500 -0.002826 -0.001704 0.000000 -0.010609 0.000000
# 2 -0.002826 0.013166 -0.005346 0.000000 0.001396 0.000000
# 3 -0.001704 -0.005346 0.013648 0.000000 -0.002990 0.000000
# 4 0.000000 0.000000 0.000000 0.062946 0.000000 -0.003363
# 5 -0.010609 0.001396 -0.002990 0.000000 0.034848 0.000000
# 6 0.000000 0.000000 0.000000 -0.003363 0.000000 0.067920
#
#
# Mechanical properties :
#
#
# Convention : Reuss Voigt Hill
#
# Bulk Modulus (GPa) = 31.68483 42.58770 37.13627
# Shear Modulus (GPa) = 20.21825 24.18922 22.20373
#
# Velocity S-wave (km/s) = 3.10483 3.39607 3.25371
# Velocity P-wave (km/s) = 5.28777 5.97356 5.64109
#
# Compressibility (1/GPa) = 0.03156084
#
# Stress axis : x y z
#
# Youngs Moduli (GPa) = 40.81650 75.95161 73.27204
#
# Poissons Ratio (x) = 0.21466 0.12488
# Poissons Ratio (y) = 0.11536 0.39171
# Poissons Ratio (z) = 0.06956 0.40604
#
# Static dielectric constant tensor:
#      x y z
#    x 3.760380 0.000000 0.274470 
#    y 0.000000 3.864850 0.000000 
#    z 0.274470 0.000000 3.903830 
# 
# 
# High freq. dielectric constant tensor:
#      x y z
#    x 1.824550 0.000000 0.016750 
#    y 0.000000 1.826940 0.000000 
#    z 0.016750 0.000000 1.818480 
# 
# From -- ./inp_files/156652.got.cif
#   From: 2010.06.25/outbox.cif.g09.slc.cpg/sg12_79_cif.got.tgz:156652.got - 2010.06.28 00:19:55.
