data_PCOD8112011
_publ_section_title
;
Structure prediction by ZEFSAII (Michael W. Deem and Ramdas Pophale) SiO2 
 PCOD8112011
Probable space group: C 2/M
;
_chemical_formula_sum "Si O2"
_cell_formula_units_Z 64
_cell_length_a 8.805229
_cell_length_b 27.842032
_cell_length_c 18.640252
_cell_angle_alpha 90.000000
_cell_angle_beta 137.984905
_cell_angle_gamma 90.000000
_cell_volume 3058.660669
_symmetry_space_group_name_H-M "C 2/M"
_symmetry_group_IT_number 12
_symmetry_cell_setting 'monoclinic'
loop_
_space_group_symop_operation_xyz
x,y,z
-x,y,-z
-x,-y,-z
x,-y,z
1/2+x,1/2+y,z
1/2-x,1/2+y,-z
1/2-x,1/2-y,-z
1/2+x,1/2-y,z
loop_
_atom_site_type_symbol
_atom_site_label
_atom_site_fract_x
_atom_site_fract_y
_atom_site_fract_z
Si Si1 0.186002 0.722291 0.730794
Si Si2 0.066945 0.943634 0.602671
Si Si3 0.744574 0.277367 0.401432
Si Si4 0.255467 0.386760 0.601257
Si Si5 0.080002 0.443675 0.818491
Si Si6 0.663705 0.619564 0.203583
Si Si7 0.852502 0.614900 0.018447
Si Si8 0.464691 0.784079 0.068631
O O1 0.326268 0.722650 0.706690
O O2 0.197784 0.668601 0.766635
O O3 0.304408 0.760273 0.823915
O O4 0.927523 0.739417 0.622336
O O5 0.325132 0.929704 0.708328
O O6 0.000000 0.924765 0.500000
O O7 0.918807 0.919178 0.611793
O O8 0.022480 0.000000 0.592831
O O9 0.718610 0.332097 0.419166
O O10 0.000000 0.258183 0.500000
O O11 0.309215 0.394146 0.703754
O O12 0.000000 0.404498 0.500000
O O13 0.121927 0.500000 0.830527
O O14 0.243386 0.421297 0.816004
O O15 0.137076 0.427281 0.919474
O O16 0.400068 0.626163 0.096174
O O17 0.930649 0.662930 0.090264
O O18 0.000000 0.600689 0.000000
O O19 0.500000 0.798057 0.000000
O O20 0.250000 0.750000 0.000000
#
# Coordination Sequence:
#
# PCOD8112011 Si02
#       8
#     8   8   8   8   8   8   8   8
#     4  11  23  38  62  90 125 169 214 267 315 383
#     4  10  22  42  69  99 128 165 219 277 330 387
#     4  10  23  40  59  89 130 172 215 259 318 391
#     4  10  22  41  65  96 132 171 214 268 329 394
#     4  11  26  45  67  96 132 173 219 272 331 393
#     4  11  24  41  64  96 128 170 221 265 326 390
#     4  11  25  42  65  93 130 170 216 271 328 394
#     4  11  23  37  61  93 125 165 213 268 323 376
#
# _framework density 20.924188999999998
#
# number of rings (size 3 to 8) (size 9 to 14) (size 15 to 20)
#    0.000    1.375    1.250    3.000   10.500    2.000 
#    0.000    1.250    0.000    0.000    0.000    0.000 
#    0.000    0.000    0.000    0.000    0.000    0.000 
#
# Total GULP energy -396807.560503 kJ/mol
# GULP energy per Si atom -12400.236266 kJ/mol
# Density = 2.087656 g / cm^3
# Si number density = 20.924189 Si / 1000 Ang^3
#
#
#
# Elastic Constant Matrix: (Units=GPa)
#
#
# Indices 1 2 3 4 5 6 
#
# 1 117.7331 54.9868 37.6553 0.0001 2.9184 0.0000
# 2 54.9868 85.2670 37.8368 -0.0002 3.9301 0.0000
# 3 37.6553 37.8368 107.7009 0.0006 2.4897 0.0000
# 4 0.0001 -0.0002 0.0006 27.9874 0.0003 1.9792
# 5 2.9184 3.9301 2.4897 0.0003 41.7483 0.0000
# 6 0.0000 0.0000 0.0000 1.9792 0.0000 35.8973
#
#
#
# Elastic Compliance Matrix: (Units=1/GPa)
#
#
# Indices 1 2 3 4 5 6 
#
# 1 0.012447 -0.007218 -0.001814 0.000000 -0.000082 0.000000
# 2 -0.007218 0.018123 -0.003821 0.000000 -0.000974 0.000000
# 3 -0.001814 -0.003821 0.011266 0.000000 -0.000185 0.000000
# 4 0.000000 0.000000 0.000000 0.035870 0.000000 -0.001978
# 5 -0.000082 -0.000974 -0.000185 0.000000 0.024062 0.000000
# 6 0.000000 0.000000 0.000000 -0.001978 0.000000 0.027966
#
#
# Mechanical properties :
#
#
# Convention : Reuss Voigt Hill
#
# Bulk Modulus (GPa) = 61.99605 63.51762 62.75683
# Shear Modulus (GPa) = 31.09129 33.14140 32.11635
#
# Velocity S-wave (km/s) = 3.85892 3.98412 3.92202
# Velocity P-wave (km/s) = 7.03905 7.18235 7.11106
#
# Compressibility (1/GPa) = 0.01613006
#
# Stress axis : x y z
#
# Youngs Moduli (GPa) = 80.33884 55.17864 88.76417
#
# Poissons Ratio (x) = 0.39829 0.16104
# Poissons Ratio (y) = 0.57990 0.33914
# Poissons Ratio (z) = 0.14575 0.21082
#
# Static dielectric constant tensor:
#      x y z
#    x 3.708360 0.000000 0.004090 
#    y 0.000000 3.763180 0.000000 
#    z 0.004090 0.000000 4.047730 
# 
# 
# High freq. dielectric constant tensor:
#      x y z
#    x 1.825850 0.000000 0.000830 
#    y 0.000000 1.815120 0.000000 
#    z 0.000830 0.000000 1.836240 
# 
# From -- ./inp_files/260406.got.cif
#   From: 2010.06.25/outbox.cif.g09.slc.cpg/sg12_131_cif.got.tgz:260406.got - 2010.06.28 00:19:55.
