data_PCOD8112763
_publ_section_title
;
Structure prediction by ZEFSAII (Michael W. Deem and Ramdas Pophale) SiO2 
 PCOD8112763
Probable space group: C 2/M
;
_chemical_formula_sum "Si O2"
_cell_formula_units_Z 32
_cell_length_a 21.266243
_cell_length_b 9.849244
_cell_length_c 10.011592
_cell_angle_alpha 90.000000
_cell_angle_beta 38.377839
_cell_angle_gamma 90.000000
_cell_volume 1301.906304
_symmetry_space_group_name_H-M "C 2/M"
_symmetry_group_IT_number 12
_symmetry_cell_setting 'monoclinic'
loop_
_space_group_symop_operation_xyz
x,y,z
-x,y,-z
-x,-y,-z
x,-y,z
1/2+x,1/2+y,z
1/2-x,1/2+y,-z
1/2-x,1/2-y,-z
1/2+x,1/2-y,z
loop_
_atom_site_type_symbol
_atom_site_label
_atom_site_fract_x
_atom_site_fract_y
_atom_site_fract_z
Si Si1 0.864089 0.263459 0.472594
Si Si2 0.619302 0.649592 0.279619
Si Si3 0.650119 0.353574 0.777961
Si Si4 0.414387 0.845437 0.892413
O O1 0.828143 0.185133 0.666714
O O2 0.772238 0.359233 0.580332
O O3 0.886329 0.159245 0.314758
O O4 0.965128 0.349079 0.336253
O O5 0.500000 0.645173 0.500000
O O6 0.656935 0.500000 0.169730
O O7 0.645699 0.762776 0.123517
O O8 0.610204 0.500000 0.897026
O O9 0.604754 0.227915 0.935118
O O10 0.374229 0.000000 0.962510
#
# Coordination Sequence:
#
# PCOD8112763 Si02
#       4
#     8   8   8   8
#     4  10  23  41  65  91 123 160 204 254 305 361
#     4   9  19  38  64  91 120 158 204 253 304 359
#     4  11  24  41  64  93 124 162 205 250 304 364
#     4  11  24  41  63  92 125 162 204 251 304 362
#
# _framework density 24.579339999999998
#
# number of rings (size 3 to 8) (size 9 to 14) (size 15 to 20)
#    0.000    1.750    0.000    3.000    0.000   17.500 
#    0.000    0.000    0.000    0.000    0.000    0.000 
#    0.000    0.000    0.000    0.000    0.000    0.000 
#
# Total GULP energy -198402.794119 kJ/mol
# GULP energy per Si atom -12400.174632 kJ/mol
# Density = 2.452340 g / cm^3
# Si number density = 24.579340 Si / 1000 Ang^3
#
#
#
# Elastic Constant Matrix: (Units=GPa)
#
#
# Indices 1 2 3 4 5 6 
#
# 1 145.5364 52.9703 20.9311 0.0000 33.8695 0.0000
# 2 52.9703 228.4861 42.8250 0.0000 39.9312 0.0000
# 3 20.9311 42.8250 61.1381 0.0000 28.4650 0.0000
# 4 0.0000 0.0000 0.0000 29.9125 0.0000 14.6175
# 5 33.8695 39.9312 28.4650 0.0000 49.5033 0.0000
# 6 0.0000 0.0000 0.0000 14.6175 0.0000 13.7394
#
#
#
# Elastic Compliance Matrix: (Units=1/GPa)
#
#
# Indices 1 2 3 4 5 6 
#
# 1 0.008405 -0.001121 0.000224 0.000000 -0.004975 0.000000
# 2 -0.001121 0.005484 -0.002397 0.000000 -0.002278 0.000000
# 3 0.000224 -0.002397 0.023392 0.000000 -0.011671 0.000000
# 4 0.000000 0.000000 0.000000 0.069634 0.000000 -0.074084
# 5 -0.004975 -0.002278 -0.011671 0.000000 0.032153 0.000000
# 6 0.000000 0.000000 0.000000 -0.074084 0.000000 0.151603
#
#
# Mechanical properties :
#
#
# Convention : Reuss Voigt Hill
#
# Bulk Modulus (GPa) = 32.57996 74.29037 53.43517
# Shear Modulus (GPa) = 16.26072 39.85998 28.06035
#
# Velocity S-wave (km/s) = 2.57487 4.03139 3.38246
# Velocity P-wave (km/s) = 4.70359 7.20831 6.08619
#
# Compressibility (1/GPa) = 0.03069371
#
# Stress axis : x y z
#
# Youngs Moduli (GPa) = 118.98103 182.35132 42.74904
#
# Poissons Ratio (x) = 0.20442 -0.00958
# Poissons Ratio (y) = 0.13338 0.10246
# Poissons Ratio (z) = -0.02666 0.43704
#
# Static dielectric constant tensor:
#      x y z
#    x 4.638460 0.000000 -0.021720 
#    y 0.000000 4.230490 0.000000 
#    z -0.021720 0.000000 4.181480 
# 
# 
# High freq. dielectric constant tensor:
#      x y z
#    x 1.990410 0.000000 -0.006220 
#    y 0.000000 1.963500 0.000000 
#    z -0.006220 0.000000 1.970470 
# 
# From -- ./inp_files/138729.got.cif
#   From: 2010.06.25/outbox.cif.g09.slc.cpg/sg12_70_cif.got.tgz:138729.got - 2010.06.28 00:19:55.
