data_PCOD8112422
_publ_section_title
;
Structure prediction by ZEFSAII (Michael W. Deem and Ramdas Pophale) SiO2 
 PCOD8112422
Probable space group: C 2/M
;
_chemical_formula_sum "Si O2"
_cell_formula_units_Z 28
_cell_length_a 17.735671
_cell_length_b 7.561847
_cell_length_c 18.513214
_cell_angle_alpha 90.000000
_cell_angle_beta 142.536239
_cell_angle_gamma 90.000000
_cell_volume 1510.240963
_symmetry_space_group_name_H-M "C 2/M"
_symmetry_group_IT_number 12
_symmetry_cell_setting 'monoclinic'
loop_
_space_group_symop_operation_xyz
x,y,z
-x,y,-z
-x,-y,-z
x,-y,z
1/2+x,1/2+y,z
1/2-x,1/2+y,-z
1/2-x,1/2-y,-z
1/2+x,1/2-y,z
loop_
_atom_site_type_symbol
_atom_site_label
_atom_site_fract_x
_atom_site_fract_y
_atom_site_fract_z
Si Si1 0.593950 0.000000 0.003516
Si Si2 0.930855 0.000000 0.520667
Si Si3 0.747283 0.705605 0.414749
Si Si4 0.980006 0.193916 0.157808
Si Si5 0.126129 0.000000 0.798083
O O1 0.577982 0.173167 0.943195
O O2 0.500000 0.000000 0.000000
O O3 0.738740 0.000000 0.137093
O O4 0.000000 0.000000 0.500000
O O5 0.850714 0.177490 0.455708
O O6 0.021166 0.000000 0.657714
O O7 0.775021 0.500000 0.422033
O O8 0.750000 0.750000 0.500000
O O9 0.615136 0.763185 0.282400
O O10 0.990967 0.000000 0.128786
O O11 0.895725 0.173198 0.166851
#
# Coordination Sequence:
#
# PCOD8112422 Si02
#       5
#     4   4   8   8   4
#     4  12  25  38  65  91 118 164 205 254 318 340
#     4  12  25  38  63  95 137 153 195 275 307 356
#     4  11  19  38  66  94 117 163 211 243 309 380
#     4   9  21  40  63  85 121 160 208 246 291 373
#     4  10  22  44  57  94 120 163 215 237 297 382
#
# _framework density 18.540088000000001
#
# number of rings (size 3 to 8) (size 9 to 14) (size 15 to 20)
#    0.857    0.571    4.286    1.714    4.000    1.143 
#    0.000    0.000    0.000    0.000    0.000    0.000 
#    0.000    0.000    0.000    0.000    0.000    0.000 
#
# Total GULP energy -173494.374944 kJ/mol
# GULP energy per Si atom -12392.455353 kJ/mol
# Density = 1.849789 g / cm^3
# Si number density = 18.540088 Si / 1000 Ang^3
#
#
#
# Elastic Constant Matrix: (Units=GPa)
#
#
# Indices 1 2 3 4 5 6 
#
# 1 132.1614 35.9643 29.7095 0.0000 20.9379 0.0000
# 2 35.9643 89.2017 37.3053 0.0000 10.8068 0.0000
# 3 29.7095 37.3053 93.5015 0.0000 26.2860 0.0000
# 4 0.0000 0.0000 0.0000 27.6819 0.0000 4.8663
# 5 20.9379 10.8068 26.2860 0.0000 32.9776 0.0000
# 6 0.0000 0.0000 0.0000 4.8663 0.0000 25.4218
#
#
#
# Elastic Compliance Matrix: (Units=1/GPa)
#
#
# Indices 1 2 3 4 5 6 
#
# 1 0.009190 -0.002962 -0.000478 0.000000 -0.004483 0.000000
# 2 -0.002962 0.014411 -0.005168 0.000000 0.001277 0.000000
# 3 -0.000478 -0.005168 0.015913 0.000000 -0.010687 0.000000
# 4 0.000000 0.000000 0.000000 0.037383 0.000000 -0.007156
# 5 -0.004483 0.001277 -0.010687 0.000000 0.041270 0.000000
# 6 0.000000 0.000000 0.000000 -0.007156 0.000000 0.040706
#
#
# Mechanical properties :
#
#
# Convention : Reuss Voigt Hill
#
# Bulk Modulus (GPa) = 44.84473 57.86920 51.35697
# Shear Modulus (GPa) = 27.24459 31.34196 29.29327
#
# Velocity S-wave (km/s) = 3.83756 4.11603 3.97923
# Velocity P-wave (km/s) = 6.62392 7.33960 6.99092
#
# Compressibility (1/GPa) = 0.02229916
#
# Stress axis : x y z
#
# Youngs Moduli (GPa) = 108.80983 69.38978 62.84104
#
# Poissons Ratio (x) = 0.20556 0.03003
# Poissons Ratio (y) = 0.32233 0.32474
# Poissons Ratio (z) = 0.05199 0.35858
#
# Static dielectric constant tensor:
#      x y z
#    x 3.601900 0.000000 0.356160 
#    y 0.000000 3.118840 0.000000 
#    z 0.356160 0.000000 3.434700 
# 
# 
# High freq. dielectric constant tensor:
#      x y z
#    x 1.702860 0.000000 0.010040 
#    y 0.000000 1.720650 0.000000 
#    z 0.010040 0.000000 1.731020 
# 
# From -- ./inp_files/267483.got.cif
#   From: 2010.06.25/outbox.cif.g09.slc.cpg/sg12_134_cif.got.tgz:267483.got - 2010.06.28 00:19:55.
