data_PCOD8112078
_publ_section_title
;
Structure prediction by ZEFSAII (Michael W. Deem and Ramdas Pophale) SiO2 
 PCOD8112078
Probable space group: C 2/M
;
_chemical_formula_sum "Si O2"
_cell_formula_units_Z 40
_cell_length_a 19.591951
_cell_length_b 21.102562
_cell_length_c 8.721314
_cell_angle_alpha 90.000000
_cell_angle_beta 149.455897
_cell_angle_gamma 90.000000
_cell_volume 1832.443908
_symmetry_space_group_name_H-M "C 2/M"
_symmetry_group_IT_number 12
_symmetry_cell_setting 'monoclinic'
loop_
_space_group_symop_operation_xyz
x,y,z
-x,y,-z
-x,-y,-z
x,-y,z
1/2+x,1/2+y,z
1/2-x,1/2+y,-z
1/2-x,1/2-y,-z
1/2+x,1/2-y,z
loop_
_atom_site_type_symbol
_atom_site_label
_atom_site_fract_x
_atom_site_fract_y
_atom_site_fract_z
Si Si1 0.238412 0.926713 0.843842
Si Si2 0.626678 0.741271 0.147119
Si Si3 0.023822 0.623193 0.873650
Si Si4 0.006517 0.071360 0.178585
Si Si5 0.762865 0.129562 0.835388
O O1 0.118060 0.898217 0.506375
O O2 0.212645 0.000000 0.845086
O O3 0.377290 0.925373 0.018939
O O4 0.247685 0.877431 0.002348
O O5 0.750000 0.750000 0.500000
O O6 0.664336 0.693998 0.081002
O O7 0.500000 0.715733 0.000000
O O8 0.589098 0.807385 0.995558
O O9 0.883408 0.623100 0.516118
O O10 0.000000 0.599285 0.000000
O O11 0.055286 0.000000 0.247374
O O12 0.000000 0.106071 0.000000
O O13 0.858734 0.072603 0.965864
#
# Coordination Sequence:
#
# PCOD8112078 Si02
#       5
#     8   8   8   8   8
#     4  11  26  45  66 100 141 178 226 285 343 406
#     4  11  23  44  70 102 136 176 228 287 335 402
#     4  11  24  43  68  99 132 178 233 281 336 408
#     4  10  22  41  67  97 129 176 232 279 333 403
#     4  12  23  40  68  97 138 178 217 279 351 399
#
# _framework density 21.828773000000002
#
# number of rings (size 3 to 8) (size 9 to 14) (size 15 to 20)
#    0.000    1.000    4.000    3.600    2.800    5.200 
#    0.000    2.000    0.000    0.000    0.000    0.000 
#    0.000    0.000    0.000    0.000    0.000    0.000 
#
# Total GULP energy -247971.160927 kJ/mol
# GULP energy per Si atom -12398.558046 kJ/mol
# Density = 2.177909 g / cm^3
# Si number density = 21.828773 Si / 1000 Ang^3
#
#
#
# Elastic Constant Matrix: (Units=GPa)
#
#
# Indices 1 2 3 4 5 6 
#
# 1 158.7263 40.4850 79.0716 0.0000 -14.4300 0.0000
# 2 40.4850 58.4391 34.2314 0.0000 -2.8303 0.0000
# 3 79.0716 34.2314 217.6830 0.0000 -7.2353 0.0000
# 4 0.0000 0.0000 0.0000 15.6009 0.0000 16.0548
# 5 -14.4300 -2.8303 -7.2353 0.0000 45.3864 0.0000
# 6 0.0000 0.0000 0.0000 16.0548 0.0000 33.2297
#
#
#
# Elastic Compliance Matrix: (Units=1/GPa)
#
#
# Indices 1 2 3 4 5 6 
#
# 1 0.008886 -0.004630 -0.002428 0.000000 0.002149 0.000000
# 2 -0.004630 0.021282 -0.001679 0.000000 -0.000412 0.000000
# 3 -0.002428 -0.001679 0.005741 0.000000 0.000038 0.000000
# 4 0.000000 0.000000 0.000000 0.127484 0.000000 -0.061593
# 5 0.002149 -0.000412 0.000038 0.000000 0.022697 0.000000
# 6 0.000000 0.000000 0.000000 -0.061593 0.000000 0.059852
#
#
# Mechanical properties :
#
#
# Convention : Reuss Voigt Hill
#
# Bulk Modulus (GPa) = 54.24056 82.49161 68.36609
# Shear Modulus (GPa) = 18.54864 37.58076 28.06470
#
# Velocity S-wave (km/s) = 2.91818 4.15374 3.58952
# Velocity P-wave (km/s) = 6.02134 7.80238 6.96899
#
# Compressibility (1/GPa) = 0.01843639
#
# Stress axis : x y z
#
# Youngs Moduli (GPa) = 112.53557 46.98708 174.17984
#
# Poissons Ratio (x) = 0.21753 0.42297
# Poissons Ratio (y) = 0.52098 0.29242
# Poissons Ratio (z) = 0.27328 0.07888
#
# Static dielectric constant tensor:
#      x y z
#    x 4.502020 0.000000 -0.069300 
#    y 0.000000 3.885330 0.000000 
#    z -0.069300 0.000000 4.155710 
# 
# 
# High freq. dielectric constant tensor:
#      x y z
#    x 1.862650 0.000000 0.004740 
#    y 0.000000 1.847140 0.000000 
#    z 0.004740 0.000000 1.877090 
# 
# From -- ./inp_files/39323.got.cif
#   From: 2010.06.25/outbox.cif.g09.slc.cpg/sg12_20_cif.got.tgz:39323.got - 2010.06.28 00:19:55.
