data_PCOD8112383
_publ_section_title
;
Structure prediction by ZEFSAII (Michael W. Deem and Ramdas Pophale) SiO2 
 PCOD8112383
Probable space group: C 2/M
;
_chemical_formula_sum "Si O2"
_cell_formula_units_Z 40
_cell_length_a 9.797118
_cell_length_b 9.519966
_cell_length_c 23.268734
_cell_angle_alpha 90.000000
_cell_angle_beta 115.245890
_cell_angle_gamma 90.000000
_cell_volume 1962.945385
_symmetry_space_group_name_H-M "C 2/M"
_symmetry_group_IT_number 12
_symmetry_cell_setting 'monoclinic'
loop_
_space_group_symop_operation_xyz
x,y,z
-x,y,-z
-x,-y,-z
x,-y,z
1/2+x,1/2+y,z
1/2-x,1/2+y,-z
1/2-x,1/2-y,-z
1/2+x,1/2-y,z
loop_
_atom_site_type_symbol
_atom_site_label
_atom_site_fract_x
_atom_site_fract_y
_atom_site_fract_z
Si Si1 0.347460 0.247812 0.853723
Si Si2 0.466290 0.000000 0.060751
Si Si3 0.444046 0.340253 0.427542
Si Si4 0.088825 0.338728 0.354328
Si Si5 0.343050 0.500000 0.939513
Si Si6 0.987452 0.158357 0.229741
O O1 0.324810 0.363796 0.897701
O O2 0.188607 0.172839 0.815214
O O3 0.409459 0.317013 0.807064
O O4 0.468255 0.136586 0.897173
O O5 0.286180 0.000000 0.035407
O O6 0.500000 0.000000 0.000000
O O7 0.500000 0.292400 0.500000
O O8 0.495672 0.500000 0.423850
O O9 0.266245 0.325731 0.392094
O O10 0.515268 0.235931 0.395065
O O11 0.035657 0.500000 0.343731
O O12 0.034636 0.269182 0.286000
O O13 0.500000 0.500000 0.000000
O O14 0.016100 0.000000 0.257142
#
# Coordination Sequence:
#
# PCOD8112383 Si02
#       6
#     8   4   8   8   4   8
#     4  12  26  45  69  99 131 176 219 273 336 395
#     4  12  28  46  72 100 136 172 217 274 332 400
#     4  10  22  43  67  97 139 181 222 273 333 396
#     4  11  25  40  66 102 133 175 227 279 330 391
#     4  12  28  46  72 102 136 168 221 274 330 404
#     4  12  26  44  68  95 133 176 223 275 333 395
#
# _framework density 20.377541000000001
#
# number of rings (size 3 to 8) (size 9 to 14) (size 15 to 20)
#    0.000    0.600    4.000    3.000    5.600    6.800 
#    0.000    0.000    0.000    0.000    0.000    0.000 
#    0.000    0.000    0.000    0.000    0.000    0.000 
#
# Total GULP energy -248138.268475 kJ/mol
# GULP energy per Si atom -12406.913424 kJ/mol
# Density = 2.033116 g / cm^3
# Si number density = 20.377541 Si / 1000 Ang^3
#
#
#
# Elastic Constant Matrix: (Units=GPa)
#
#
# Indices 1 2 3 4 5 6 
#
# 1 43.8217 97.1390 54.6111 0.0000 -110.7133 0.0000
# 2 97.1390 128.8766 64.3325 0.0000 36.2482 0.0000
# 3 54.6111 64.3325 138.1628 0.0000 -11.5112 0.0000
# 4 0.0000 0.0000 0.0000 46.8723 0.0000 -3.0259
# 5 -110.7133 36.2482 -11.5112 0.0000 -69.2289 0.0000
# 6 0.0000 0.0000 0.0000 -3.0259 0.0000 34.4088
#
#
#
# Elastic Compliance Matrix: (Units=1/GPa)
#
#
# Indices 1 2 3 4 5 6 
#
# 1 0.005489 -0.000390 -0.002699 0.000000 -0.008533 0.000000
# 2 -0.000390 0.008119 -0.003176 0.000000 0.005403 0.000000
# 3 -0.002699 -0.003176 0.009868 0.000000 0.001012 0.000000
# 4 0.000000 0.000000 0.000000 0.021456 0.000000 0.001887
# 5 -0.008533 0.005403 0.001012 0.000000 0.001862 0.000000
# 6 0.000000 0.000000 0.000000 0.001887 0.000000 0.029228
#
#
# Mechanical properties :
#
#
# Convention : Reuss Voigt Hill
#
# Bulk Modulus (GPa) = 91.35954 82.55848 86.95901
# Shear Modulus (GPa) = 54.22920 8.72901 31.47910
#
# Velocity S-wave (km/s) = 5.16430 2.07194 3.93465
# Velocity P-wave (km/s) = 8.97167 6.80634 7.96295
#
# Compressibility (1/GPa) = 0.01094576
#
# Stress axis : x y z
#
# Youngs Moduli (GPa) = 182.19058 123.16599 101.33785
#
# Poissons Ratio (x) = 0.04800 0.27351
# Poissons Ratio (y) = 0.07101 0.32188
# Poissons Ratio (z) = 0.49173 0.39121
#
# Static dielectric constant tensor:
#      x y z
#    x 3.839440 0.000000 0.033880 
#    y 0.000000 3.973530 0.000000 
#    z 0.033880 0.000000 3.829450 
# 
# 
# High freq. dielectric constant tensor:
#      x y z
#    x 1.814020 0.000000 0.000760 
#    y 0.000000 1.815000 0.000000 
#    z 0.000760 0.000000 1.809180 
# 
# From -- ./inp_files/331766.got.cif
#   From: 2010.06.25/outbox.cif.g09.slc.cpg/sg12_166_cif.got.tgz:331766.got - 2010.06.28 00:19:55.
