data_PCOD8112482
_publ_section_title
;
Structure prediction by ZEFSAII (Michael W. Deem and Ramdas Pophale) SiO2 
 PCOD8112482
Probable space group: C 2/M
;
_chemical_formula_sum "Si O2"
_cell_formula_units_Z 28
_cell_length_a 9.875884
_cell_length_b 26.951438
_cell_length_c 5.016330
_cell_angle_alpha 90.000000
_cell_angle_beta 74.192300
_cell_angle_gamma 90.000000
_cell_volume 1284.697785
_symmetry_space_group_name_H-M "C 2/M"
_symmetry_group_IT_number 12
_symmetry_cell_setting 'monoclinic'
loop_
_space_group_symop_operation_xyz
x,y,z
-x,y,-z
-x,-y,-z
x,-y,z
1/2+x,1/2+y,z
1/2-x,1/2+y,-z
1/2-x,1/2-y,-z
1/2+x,1/2-y,z
loop_
_atom_site_type_symbol
_atom_site_label
_atom_site_fract_x
_atom_site_fract_y
_atom_site_fract_z
Si Si1 0.843196 0.057472 0.676955
Si Si2 0.279627 0.893704 0.757986
Si Si3 0.000000 0.361240 0.000000
Si Si4 0.153691 0.297599 0.527933
O O1 0.733978 0.074983 0.507528
O O2 0.000000 0.068547 0.500000
O O3 0.816113 0.000000 0.750342
O O4 0.828282 0.086883 0.961735
O O5 0.258787 0.835192 0.708266
O O6 0.437965 0.896705 0.799213
O O7 0.873500 0.326386 0.178731
O O8 0.250000 0.250000 0.500000
O O9 0.000000 0.282516 0.500000
#
# Coordination Sequence:
#
# PCOD8112482 Si02
#       4
#     8   8   4   8
#     4  11  24  44  68  99 134 172 222 281 337 397
#     4  11  22  43  69  95 135 176 214 274 335 396
#     4  10  22  46  65  92 144 168 221 278 334 392
#     4  10  23  43  68  97 138 178 223 278 333 399
#
# _framework density 21.795007999999999
#
# number of rings (size 3 to 8) (size 9 to 14) (size 15 to 20)
#    0.000    1.429    2.857    1.714    0.000    8.000 
#   10.286    4.286    0.000    0.000    0.000    0.000 
#    0.000    0.000    0.000    0.000    0.000    0.000 
#
# Total GULP energy -173484.442430 kJ/mol
# GULP energy per Si atom -12391.745888 kJ/mol
# Density = 2.174540 g / cm^3
# Si number density = 21.795008 Si / 1000 Ang^3
#
#
#
# Elastic Constant Matrix: (Units=GPa)
#
#
# Indices 1 2 3 4 5 6 
#
# 1 83.7016 82.3324 35.1179 0.0000 -3.2087 0.0000
# 2 82.3324 149.0679 64.4205 0.0000 -12.6205 0.0000
# 3 35.1179 64.4205 134.5045 0.0000 -3.8075 0.0000
# 4 0.0000 0.0000 0.0000 34.5246 0.0000 -4.0144
# 5 -3.2087 -12.6205 -3.8075 0.0000 35.9423 0.0000
# 6 0.0000 0.0000 0.0000 -4.0144 0.0000 40.7209
#
#
#
# Elastic Compliance Matrix: (Units=1/GPa)
#
#
# Indices 1 2 3 4 5 6 
#
# 1 0.026442 -0.014915 0.000159 0.000000 -0.002860 0.000000
# 2 -0.014915 0.017112 -0.004182 0.000000 0.004234 0.000000
# 3 0.000159 -0.004182 0.009383 0.000000 -0.000460 0.000000
# 4 0.000000 0.000000 0.000000 0.029301 0.000000 0.002889
# 5 -0.002860 0.004234 -0.000460 0.000000 0.029005 0.000000
# 6 0.000000 0.000000 0.000000 0.002889 0.000000 0.024842
#
#
# Mechanical properties :
#
#
# Convention : Reuss Voigt Hill
#
# Bulk Modulus (GPa) = 66.39648 81.22393 73.81021
# Shear Modulus (GPa) = 27.93600 34.59779 31.26690
#
# Velocity S-wave (km/s) = 3.58405 3.98856 3.79171
# Velocity P-wave (km/s) = 6.90344 7.65243 7.28756
#
# Compressibility (1/GPa) = 0.01506104
#
# Stress axis : x y z
#
# Youngs Moduli (GPa) = 37.81860 58.43958 106.57632
#
# Poissons Ratio (x) = 0.87163 -0.01692
# Poissons Ratio (y) = 0.56407 0.44565
# Poissons Ratio (z) = -0.00601 0.24437
#
# Static dielectric constant tensor:
#      x y z
#    x 3.903640 0.000000 0.127920 
#    y 0.000000 3.798210 0.000000 
#    z 0.127920 0.000000 4.472800 
# 
# 
# High freq. dielectric constant tensor:
#      x y z
#    x 1.844150 0.000000 0.005060 
#    y 0.000000 1.841430 0.000000 
#    z 0.005060 0.000000 1.884040 
# 
# From -- ./inp_files/6386.got.cif
#   From: 2010.06.25/outbox.cif.g09.slc.cpg/sg12_4_cif.got.tgz:6386.got - 2010.06.28 00:19:55.
