data_PCOD8112637
_publ_section_title
;
Structure prediction by ZEFSAII (Michael W. Deem and Ramdas Pophale) SiO2 
 PCOD8112637
Probable space group: C 2/M
;
_chemical_formula_sum "Si O2"
_cell_formula_units_Z 52
_cell_length_a 8.222190
_cell_length_b 19.350773
_cell_length_c 19.658597
_cell_angle_alpha 90.000000
_cell_angle_beta 127.317102
_cell_angle_gamma 90.000000
_cell_volume 2487.512487
_symmetry_space_group_name_H-M "C 2/M"
_symmetry_group_IT_number 12
_symmetry_cell_setting 'monoclinic'
loop_
_space_group_symop_operation_xyz
x,y,z
-x,y,-z
-x,-y,-z
x,-y,z
1/2+x,1/2+y,z
1/2-x,1/2+y,-z
1/2-x,1/2-y,-z
1/2+x,1/2-y,z
loop_
_atom_site_type_symbol
_atom_site_label
_atom_site_fract_x
_atom_site_fract_y
_atom_site_fract_z
Si Si1 0.000000 0.146056 0.000000
Si Si2 0.781035 0.807306 0.817375
Si Si3 0.137718 0.338035 0.225207
Si Si4 0.260593 0.420676 0.710180
Si Si5 0.920065 0.418568 0.054260
Si Si6 0.378521 0.923582 0.538762
Si Si7 0.499269 0.420764 0.367933
O O1 0.083057 0.196339 0.080029
O O2 0.186135 0.101887 0.014380
O O3 0.780779 0.734725 0.780344
O O4 0.550823 0.825229 0.774581
O O5 0.863202 0.870641 0.791863
O O6 0.299398 0.373825 0.316536
O O7 0.080628 0.386587 0.147656
O O8 0.248745 0.500000 0.734375
O O9 0.404245 0.417708 0.681872
O O10 0.032211 0.390193 0.633403
O O11 0.935729 0.500000 0.064603
O O12 0.000000 0.394291 0.000000
O O13 0.500000 0.929599 0.500000
O O14 0.157698 0.889051 0.465280
O O15 0.330281 0.000000 0.553543
O O16 0.443953 0.500000 0.371915
#
# Coordination Sequence:
#
# PCOD8112637 Si02
#       7
#     4   8   8   8   8   8   8
#     4  10  25  42  62  84 119 158 196 252 295 356
#     4  11  25  40  59  82 112 157 195 242 293 345
#     4  11  24  39  57  82 116 149 199 239 287 349
#     4   9  18  34  59  88 116 149 190 235 288 349
#     4  10  23  40  63  90 117 150 194 247 298 353
#     4   7  12  27  53  85 115 146 186 229 281 343
#     4   9  17  33  60  88 117 151 187 235 286 343
#
# _framework density 20.904416999999999
#
# number of rings (size 3 to 8) (size 9 to 14) (size 15 to 20)
#    0.000    2.462    0.000    3.462    5.385    4.923 
#    0.000    1.538    0.000    2.769    0.000    0.000 
#    0.000    0.000    0.000    0.000    0.000    0.000 
#
# Total GULP energy -322106.173254 kJ/mol
# GULP energy per Si atom -12388.698971 kJ/mol
# Density = 2.085684 g / cm^3
# Si number density = 20.904417 Si / 1000 Ang^3
#
#
#
# Elastic Constant Matrix: (Units=GPa)
#
#
# Indices 1 2 3 4 5 6 
#
# 1 51.6927 8.9668 4.7042 0.0000 9.3506 0.0000
# 2 8.9668 63.3648 9.6344 0.0000 9.1957 0.0000
# 3 4.7042 9.6344 62.8477 0.0000 24.3586 0.0000
# 4 0.0000 0.0000 0.0000 6.4570 0.0000 10.0570
# 5 9.3506 9.1957 24.3586 0.0000 31.2856 0.0000
# 6 0.0000 0.0000 0.0000 10.0570 0.0000 16.9881
#
#
#
# Elastic Compliance Matrix: (Units=1/GPa)
#
#
# Indices 1 2 3 4 5 6 
#
# 1 0.020800 -0.002187 0.001344 0.000000 -0.006620 0.000000
# 2 -0.002187 0.016753 -0.001073 0.000000 -0.003435 0.000000
# 3 0.001344 -0.001073 0.022928 0.000000 -0.017938 0.000000
# 4 0.000000 0.000000 0.000000 1.987216 0.000000 -1.176435
# 5 -0.006620 -0.003435 -0.017938 0.000000 0.048918 0.000000
# 6 0.000000 0.000000 0.000000 -1.176435 0.000000 0.755316
#
#
# Mechanical properties :
#
#
# Convention : Reuss Voigt Hill
#
# Bulk Modulus (GPa) = 17.65271 24.94623 21.29947
# Shear Modulus (GPa) = 1.73935 21.25278 11.49606
#
# Velocity S-wave (km/s) = 0.91316 3.19198 2.34761
# Velocity P-wave (km/s) = 3.09429 5.05414 4.19040
#
# Compressibility (1/GPa) = 0.05664853
#
# Stress axis : x y z
#
# Youngs Moduli (GPa) = 48.07771 59.69167 43.61544
#
# Poissons Ratio (x) = 0.13054 -0.05863
# Poissons Ratio (y) = 0.10515 0.04681
# Poissons Ratio (z) = -0.06463 0.06406
#
# Static dielectric constant tensor:
#      x y z
#    x 3.803300 0.000000 0.182480 
#    y 0.000000 3.426260 0.000000 
#    z 0.182480 0.000000 4.162360 
# 
# 
# High freq. dielectric constant tensor:
#      x y z
#    x 1.820920 0.000000 0.008930 
#    y 0.000000 1.788510 0.000000 
#    z 0.008930 0.000000 1.830440 
# 
# From -- ./inp_files/301195.got.cif
#   From: 2010.06.25/outbox.cif.g09.slc.cpg/sg12_151_cif.got.tgz:301195.got - 2010.06.28 00:19:55.
