data_PCOD8112521
_publ_section_title
;
Structure prediction by ZEFSAII (Michael W. Deem and Ramdas Pophale) SiO2 
 PCOD8112521
Probable space group: C 2/M
;
_chemical_formula_sum "Si O2"
_cell_formula_units_Z 32
_cell_length_a 9.788440
_cell_length_b 24.026663
_cell_length_c 14.423797
_cell_angle_alpha 90.000000
_cell_angle_beta 153.980451
_cell_angle_gamma 90.000000
_cell_volume 1488.100228
_symmetry_space_group_name_H-M "C 2/M"
_symmetry_group_IT_number 12
_symmetry_cell_setting 'monoclinic'
loop_
_space_group_symop_operation_xyz
x,y,z
-x,y,-z
-x,-y,-z
x,-y,z
1/2+x,1/2+y,z
1/2-x,1/2+y,-z
1/2-x,1/2-y,-z
1/2+x,1/2-y,z
loop_
_atom_site_type_symbol
_atom_site_label
_atom_site_fract_x
_atom_site_fract_y
_atom_site_fract_z
Si Si1 0.337600 0.000000 0.658120
Si Si2 0.717312 0.619367 0.898193
Si Si3 0.347416 0.106758 0.186913
Si Si4 0.336022 0.803391 0.493974
Si Si5 0.270846 0.500000 0.092238
O O1 0.399063 0.942858 0.638858
O O2 0.000000 0.000000 0.500000
O O3 0.621962 0.000000 0.901460
O O4 0.478946 0.666589 0.727167
O O5 0.543283 0.558248 0.783360
O O6 0.858815 0.627501 0.087356
O O7 0.000000 0.623074 0.000000
O O8 0.436820 0.157446 0.308309
O O9 0.000000 0.086369 0.000000
O O10 0.500000 0.783596 0.500000
O O11 0.250000 0.750000 0.500000
O O12 0.000000 0.500000 0.000000
#
# Coordination Sequence:
#
# PCOD8112521 Si02
#       5
#     4   8   8   8   4
#     4  10  23  37  70 107 139 179 222 270 336 413
#     4  10  23  43  70 103 136 176 222 281 341 410
#     4  11  24  46  68 100 146 178 222 281 346 406
#     4  12  29  47  69  97 131 181 240 284 345 401
#     4   8  18  37  62  98 139 163 212 261 337 398
#
# _framework density 21.503927000000001
#
# number of rings (size 3 to 8) (size 9 to 14) (size 15 to 20)
#    0.000    1.500    2.500    0.375   14.000    2.000 
#    0.000    1.250    0.000    0.000    0.000    0.000 
#    0.000    0.000    0.000    0.000    0.000    0.000 
#
# Total GULP energy -198279.945278 kJ/mol
# GULP energy per Si atom -12392.496580 kJ/mol
# Density = 2.145498 g / cm^3
# Si number density = 21.503927 Si / 1000 Ang^3
#
#
#
# Elastic Constant Matrix: (Units=GPa)
#
#
# Indices 1 2 3 4 5 6 
#
# 1 163.9522 61.7727 44.0881 -0.0033 2.9065 0.0002
# 2 61.7727 171.0364 56.6623 0.0017 7.3032 0.0005
# 3 44.0881 56.6623 89.1281 -0.0167 8.5787 -0.0037
# 4 -0.0033 0.0017 -0.0167 27.9941 -0.0060 6.7428
# 5 2.9065 7.3032 8.5787 -0.0060 41.4108 -0.0001
# 6 0.0002 0.0005 -0.0037 6.7428 -0.0001 31.5961
#
#
#
# Elastic Compliance Matrix: (Units=1/GPa)
#
#
# Indices 1 2 3 4 5 6 
#
# 1 0.007483 -0.001875 -0.002542 0.000000 0.000332 0.000000
# 2 -0.001875 0.007881 -0.004042 -0.000003 -0.000421 0.000000
# 3 -0.002542 -0.004042 0.015266 0.000009 -0.002271 0.000000
# 4 0.000000 -0.000003 0.000009 0.037657 0.000004 -0.008036
# 5 0.000332 -0.000421 -0.002271 0.000004 0.024670 -0.000001
# 6 0.000000 0.000000 0.000000 -0.008036 -0.000001 0.033365
#
#
# Mechanical properties :
#
#
# Convention : Reuss Voigt Hill
#
# Bulk Modulus (GPa) = 72.92859 83.24032 78.08446
# Shear Modulus (GPa) = 33.82719 37.63978 35.73348
#
# Velocity S-wave (km/s) = 3.97050 4.18828 4.08084
# Velocity P-wave (km/s) = 7.41670 7.88558 7.65473
#
# Compressibility (1/GPa) = 0.01371204
#
# Stress axis : x y z
#
# Youngs Moduli (GPa) = 133.63006 126.88750 65.50690
#
# Poissons Ratio (x) = 0.23790 0.16650
# Poissons Ratio (y) = 0.25054 0.26480
# Poissons Ratio (z) = 0.33965 0.51292
#
# Static dielectric constant tensor:
#      x y z
#    x 4.177840 0.000010 -0.162380 
#    y 0.000010 4.363180 0.000060 
#    z -0.162380 0.000060 3.636530 
# 
# 
# High freq. dielectric constant tensor:
#      x y z
#    x 1.863650 0.000000 -0.007770 
#    y 0.000000 1.848370 0.000000 
#    z -0.007770 0.000000 1.830660 
# 
# From -- ./inp_files/198716.got.cif
#   From: 2010.06.25/outbox.cif.g09.slc.cpg/sg12_100_cif.got.tgz:198716.got - 2010.06.28 00:19:55.
