data_PCOD8112998
_publ_section_title
;
Structure prediction by ZEFSAII (Michael W. Deem and Ramdas Pophale) SiO2 
 PCOD8112998
Probable space group: C 2/M
;
_chemical_formula_sum "Si O2"
_cell_formula_units_Z 48
_cell_length_a 27.909122
_cell_length_b 8.395453
_cell_length_c 17.311231
_cell_angle_alpha 90.000000
_cell_angle_beta 143.768858
_cell_angle_gamma 90.000000
_cell_volume 2397.387361
_symmetry_space_group_name_H-M "C 2/M"
_symmetry_group_IT_number 12
_symmetry_cell_setting 'monoclinic'
loop_
_space_group_symop_operation_xyz
x,y,z
-x,y,-z
-x,-y,-z
x,-y,z
1/2+x,1/2+y,z
1/2-x,1/2+y,-z
1/2-x,1/2-y,-z
1/2+x,1/2-y,z
loop_
_atom_site_type_symbol
_atom_site_label
_atom_site_fract_x
_atom_site_fract_y
_atom_site_fract_z
Si Si1 0.637680 0.816170 0.520041
Si Si2 0.159697 0.689317 0.874863
Si Si3 0.510466 0.688697 0.770273
Si Si4 0.217353 0.316688 0.378242
Si Si5 0.912613 0.685000 0.376599
Si Si6 0.956381 0.186549 0.867674
O O1 0.552651 0.768927 0.370746
O O2 0.710952 0.704877 0.589358
O O3 0.637906 0.787564 0.611750
O O4 0.655124 0.000000 0.522284
O O5 0.156759 0.500000 0.877209
O O6 0.101530 0.762304 0.865286
O O7 0.132048 0.757574 0.755637
O O8 0.250000 0.750000 0.000000
O O9 0.498980 0.500000 0.751389
O O10 0.493063 0.753404 0.834658
O O11 0.193868 0.500000 0.356403
O O12 0.250000 0.250000 0.500000
O O13 0.138597 0.221491 0.249233
O O14 0.926139 0.500000 0.376766
O O15 0.000000 0.768652 0.500000
O O16 0.971158 0.000000 0.887782
O O17 0.000000 0.263175 0.000000
#
# Coordination Sequence:
#
# PCOD8112998 Si02
#       6
#     8   8   8   8   8   8
#     4  11  21  37  64  92 121 159 205 254 306 360
#     4  11  23  41  63  88 124 162 204 249 302 367
#     4  11  22  38  62  91 122 158 203 251 308 369
#     4  12  24  39  61  91 125 160 205 255 304 363
#     4   9  18  36  61  88 115 155 203 244 293 362
#     4  10  23  43  65  89 123 165 207 252 309 375
#
# _framework density 20.021795000000001
#
# number of rings (size 3 to 8) (size 9 to 14) (size 15 to 20)
#    0.000    1.333    3.333    3.000    0.000    2.333 
#    0.000   10.833    0.000    0.000    0.000    0.000 
#    0.000    0.000    0.000    0.000    0.000    0.000 
#
# Total GULP energy -297614.931688 kJ/mol
# GULP energy per Si atom -12400.622154 kJ/mol
# Density = 1.997622 g / cm^3
# Si number density = 20.021795 Si / 1000 Ang^3
#
#
#
# Elastic Constant Matrix: (Units=GPa)
#
#
# Indices 1 2 3 4 5 6 
#
# 1 115.0968 19.5137 61.0819 0.0000 7.7958 0.0000
# 2 19.5137 37.3714 2.8580 0.0000 -11.3805 0.0000
# 3 61.0819 2.8580 145.6964 0.0000 -1.1452 0.0000
# 4 0.0000 0.0000 0.0000 27.7457 0.0000 6.7123
# 5 7.7958 -11.3805 -1.1452 0.0000 37.9228 0.0000
# 6 0.0000 0.0000 0.0000 6.7123 0.0000 30.7391
#
#
#
# Elastic Compliance Matrix: (Units=1/GPa)
#
#
# Indices 1 2 3 4 5 6 
#
# 1 0.013346 -0.008183 -0.005477 0.000000 -0.005365 0.000000
# 2 -0.008183 0.034505 0.002849 0.000000 0.012123 0.000000
# 3 -0.005477 0.002849 0.009121 0.000000 0.002256 0.000000
# 4 0.000000 0.000000 0.000000 0.038052 0.000000 -0.008309
# 5 -0.005365 0.012123 0.002256 0.000000 0.031178 0.000000
# 6 0.000000 0.000000 0.000000 -0.008309 0.000000 0.034346
#
#
# Mechanical properties :
#
#
# Convention : Reuss Voigt Hill
#
# Bulk Modulus (GPa) = 28.28792 51.67466 39.98129
# Shear Modulus (GPa) = 25.77935 33.59559 29.68747
#
# Velocity S-wave (km/s) = 3.59216 4.10072 3.85484
# Velocity P-wave (km/s) = 5.60036 6.94885 6.31073
#
# Compressibility (1/GPa) = 0.03535077
#
# Stress axis : x y z
#
# Youngs Moduli (GPa) = 74.93137 28.98115 109.63153
#
# Poissons Ratio (x) = 0.23716 0.60041
# Poissons Ratio (y) = 0.61318 -0.31236
# Poissons Ratio (z) = 0.41037 -0.08257
#
# Static dielectric constant tensor:
#      x y z
#    x 3.919220 0.000000 -0.044480 
#    y 0.000000 3.412970 0.000000 
#    z -0.044480 0.000000 3.916880 
# 
# 
# High freq. dielectric constant tensor:
#      x y z
#    x 1.797520 0.000000 -0.001350 
#    y 0.000000 1.768180 0.000000 
#    z -0.001350 0.000000 1.782340 
# 
# From -- ./inp_files/295907.got.cif
#   From: 2010.06.25/outbox.cif.g09.slc.cpg/sg12_148_cif.got.tgz:295907.got - 2010.06.28 00:19:55.
