data_PCOD8112384
_publ_section_title
;
Structure prediction by ZEFSAII (Michael W. Deem and Ramdas Pophale) SiO2 
 PCOD8112384
Probable space group: C 2/M
;
_chemical_formula_sum "Si O2"
_cell_formula_units_Z 64
_cell_length_a 9.188133
_cell_length_b 28.831488
_cell_length_c 18.584383
_cell_angle_alpha 90.000000
_cell_angle_beta 144.317687
_cell_angle_gamma 90.000000
_cell_volume 2871.622699
_symmetry_space_group_name_H-M "C 2/M"
_symmetry_group_IT_number 12
_symmetry_cell_setting 'monoclinic'
loop_
_space_group_symop_operation_xyz
x,y,z
-x,y,-z
-x,-y,-z
x,-y,z
1/2+x,1/2+y,z
1/2-x,1/2+y,-z
1/2-x,1/2-y,-z
1/2+x,1/2-y,z
loop_
_atom_site_type_symbol
_atom_site_label
_atom_site_fract_x
_atom_site_fract_y
_atom_site_fract_z
Si Si1 0.457475 0.051612 0.264654
Si Si2 0.205132 0.874078 0.529914
Si Si3 0.038090 0.101418 0.167103
Si Si4 0.590543 0.394386 0.726127
Si Si5 0.143917 0.688201 0.719549
Si Si6 0.414621 0.947057 0.083507
Si Si7 0.481557 0.758717 0.191870
Si Si8 0.388248 0.811321 0.887401
O O1 0.676501 0.086674 0.371638
O O2 0.215036 0.059199 0.216014
O O3 0.356460 0.059025 0.143744
O O4 0.561462 0.000000 0.317929
O O5 0.414567 0.837474 0.586621
O O6 0.000000 0.850255 0.500000
O O7 0.091456 0.899527 0.414612
O O8 0.136967 0.150666 0.174401
O O9 0.066033 0.104417 0.263907
O O10 0.757978 0.089719 0.028460
O O11 0.715519 0.343573 0.769208
O O12 0.795624 0.434853 0.812003
O O13 0.258325 0.729942 0.716927
O O14 0.007447 0.705464 0.737608
O O15 0.369944 0.000000 0.039274
O O16 0.426464 0.786075 0.094691
O O17 0.255796 0.725484 0.120330
O O18 0.500000 0.841184 0.000000
#
# Coordination Sequence:
#
# PCOD8112384 Si02
#       8
#     8   8   8   8   8   8   8   8
#     4  10  23  43  69  99 132 175 226 276 332 398
#     4  11  23  45  69  96 132 179 230 276 330 406
#     4  11  23  42  66 103 140 174 218 277 345 401
#     4  12  25  42  67  97 140 179 222 274 336 395
#     4  10  23  44  69 100 132 179 227 277 341 391
#     4  11  24  44  71 103 136 178 224 273 334 408
#     4  10  22  43  67  98 131 173 231 277 334 401
#     4  11  22  41  63  96 136 174 220 274 335 399
#
# _framework density 22.287051000000002
#
# number of rings (size 3 to 8) (size 9 to 14) (size 15 to 20)
#    0.000    1.250    2.500    3.000    1.750    5.250 
#    2.250    7.500    0.000    0.000    0.000    0.000 
#    0.000    0.000    0.000    0.000    0.000    0.000 
#
# Total GULP energy -396624.303180 kJ/mol
# GULP energy per Si atom -12394.509474 kJ/mol
# Density = 2.223632 g / cm^3
# Si number density = 22.287051 Si / 1000 Ang^3
#
#
#
# Elastic Constant Matrix: (Units=GPa)
#
#
# Indices 1 2 3 4 5 6 
#
# 1 140.9422 44.6031 30.5919 0.0010 -9.5742 -0.0009
# 2 44.6031 94.5673 31.2640 0.0004 -3.8755 -0.0010
# 3 30.5919 31.2640 100.5170 -0.0018 -3.4504 -0.0042
# 4 0.0010 0.0004 -0.0018 18.4045 -0.0001 7.0666
# 5 -9.5742 -3.8755 -3.4504 -0.0001 27.1056 -0.0011
# 6 -0.0009 -0.0010 -0.0042 7.0666 -0.0011 36.2543
#
#
#
# Elastic Compliance Matrix: (Units=1/GPa)
#
#
# Indices 1 2 3 4 5 6 
#
# 1 0.008688 -0.003514 -0.001469 -0.000001 0.002379 0.000000
# 2 -0.003514 0.013249 -0.003042 0.000000 0.000266 0.000000
# 3 -0.001469 -0.003042 0.011359 0.000001 0.000492 0.000001
# 4 -0.000001 0.000000 0.000001 0.058730 0.000000 -0.011447
# 5 0.002379 0.000266 0.000492 0.000000 0.037834 0.000001
# 6 0.000000 0.000000 0.000001 -0.011447 0.000001 0.029814
#
#
# Mechanical properties :
#
#
# Convention : Reuss Voigt Hill
#
# Bulk Modulus (GPa) = 57.99209 60.99384 59.49297
# Shear Modulus (GPa) = 27.55238 31.65739 29.60488
#
# Velocity S-wave (km/s) = 3.51985 3.77296 3.64860
# Velocity P-wave (km/s) = 6.52657 6.81228 6.67095
#
# Compressibility (1/GPa) = 0.01724373
#
# Stress axis : x y z
#
# Youngs Moduli (GPa) = 115.10355 75.47940 88.03739
#
# Poissons Ratio (x) = 0.26526 0.12936
# Poissons Ratio (y) = 0.40452 0.26781
# Poissons Ratio (z) = 0.16913 0.22961
#
# Static dielectric constant tensor:
#      x y z
#    x 4.193050 0.000000 -0.019380 
#    y 0.000000 4.047490 0.000010 
#    z -0.019380 0.000010 3.868070 
# 
# 
# High freq. dielectric constant tensor:
#      x y z
#    x 1.897430 0.000000 0.000270 
#    y 0.000000 1.878980 0.000000 
#    z 0.000270 0.000000 1.856500 
# 
# From -- ./inp_files/260370.got.cif
#   From: 2010.06.25/outbox.cif.g09.slc.cpg/sg12_131_cif.got.tgz:260370.got - 2010.06.28 00:19:55.
