data_PCOD8112299
_publ_section_title
;
Structure prediction by ZEFSAII (Michael W. Deem and Ramdas Pophale) SiO2 
 PCOD8112299
Probable space group: C 2/M
;
_chemical_formula_sum "Si O2"
_cell_formula_units_Z 48
_cell_length_a 11.364938
_cell_length_b 22.820445
_cell_length_c 9.168936
_cell_angle_alpha 90.000000
_cell_angle_beta 70.484152
_cell_angle_gamma 90.000000
_cell_volume 2241.372893
_symmetry_space_group_name_H-M "C 2/M"
_symmetry_group_IT_number 12
_symmetry_cell_setting 'monoclinic'
loop_
_space_group_symop_operation_xyz
x,y,z
-x,y,-z
-x,-y,-z
x,-y,z
1/2+x,1/2+y,z
1/2-x,1/2+y,-z
1/2-x,1/2-y,-z
1/2+x,1/2-y,z
loop_
_atom_site_type_symbol
_atom_site_label
_atom_site_fract_x
_atom_site_fract_y
_atom_site_fract_z
Si Si1 0.206230 0.434313 0.635590
Si Si2 0.232294 0.854486 0.844288
Si Si3 0.159559 0.139397 0.204429
Si Si4 0.012020 0.657789 0.657502
Si Si5 0.090093 0.932750 0.693123
Si Si6 0.713429 0.762004 0.680054
O O1 0.161386 0.500000 0.678113
O O2 0.237825 0.406665 0.779600
O O3 0.093328 0.400912 0.604322
O O4 0.329550 0.429453 0.486556
O O5 0.381399 0.858689 0.784220
O O6 0.173120 0.912477 0.796539
O O7 0.187896 0.798170 0.772577
O O8 0.181902 0.847798 0.026911
O O9 0.176802 0.200446 0.286316
O O10 0.023575 0.111740 0.282669
O O11 0.082543 0.703049 0.734739
O O12 0.000000 0.685225 0.500000
O O13 0.045539 0.000000 0.739007
O O14 0.750000 0.750000 0.500000
#
# Coordination Sequence:
#
# PCOD8112299 Si02
#       6
#     8   8   8   8   8   8
#     4  10  22  42  69  97 128 177 224 267 320 385
#     4  12  25  43  66  99 134 173 213 275 338 388
#     4  11  25  43  64  98 136 169 217 275 332 390
#     4  11  22  43  67  95 129 168 225 269 323 395
#     4  11  24  44  71  99 134 179 224 269 325 395
#     4  11  24  43  68  94 126 179 223 270 322 395
#
# _framework density 21.415445999999999
#
# number of rings (size 3 to 8) (size 9 to 14) (size 15 to 20)
#    0.000    1.000    3.333    3.000    2.333    7.000 
#    6.000    0.833    0.000    0.000    0.000    0.000 
#    0.000    0.000    0.000    0.000    0.000    0.000 
#
# Total GULP energy -297680.539481 kJ/mol
# GULP energy per Si atom -12403.355812 kJ/mol
# Density = 2.136670 g / cm^3
# Si number density = 21.415446 Si / 1000 Ang^3
#
#
#
# Elastic Constant Matrix: (Units=GPa)
#
#
# Indices 1 2 3 4 5 6 
#
# 1 103.0775 39.6254 13.8131 0.0000 4.1477 0.0000
# 2 39.6254 118.7587 53.5297 0.0000 5.8802 0.0000
# 3 13.8131 53.5297 95.6705 0.0000 28.8485 0.0000
# 4 0.0000 0.0000 0.0000 25.1951 0.0000 4.3527
# 5 4.1477 5.8802 28.8485 0.0000 28.9686 0.0000
# 6 0.0000 0.0000 0.0000 4.3527 0.0000 27.1728
#
#
#
# Elastic Compliance Matrix: (Units=1/GPa)
#
#
# Indices 1 2 3 4 5 6 
#
# 1 0.011246 -0.004289 0.001428 0.000000 -0.002161 0.000000
# 2 -0.004289 0.013595 -0.009062 0.000000 0.006879 0.000000
# 3 0.001428 -0.009062 0.021186 0.000000 -0.019463 0.000000
# 4 0.000000 0.000000 0.000000 0.040820 0.000000 -0.006539
# 5 -0.002161 0.006879 -0.019463 0.000000 0.052815 0.000000
# 6 0.000000 0.000000 0.000000 -0.006539 0.000000 0.037849
#
#
# Mechanical properties :
#
#
# Convention : Reuss Voigt Hill
#
# Bulk Modulus (GPa) = 45.08409 59.04921 52.06665
# Shear Modulus (GPa) = 23.95203 30.30319 27.12761
#
# Velocity S-wave (km/s) = 3.34795 3.76575 3.56298
# Velocity P-wave (km/s) = 6.00357 6.82209 6.42587
#
# Compressibility (1/GPa) = 0.02218077
#
# Stress axis : x y z
#
# Youngs Moduli (GPa) = 88.92193 73.55381 47.20207
#
# Poissons Ratio (x) = 0.31546 -0.06739
# Poissons Ratio (y) = 0.38137 0.42774
# Poissons Ratio (z) = -0.12696 0.66654
#
# Static dielectric constant tensor:
#      x y z
#    x 4.274810 0.000000 0.170290 
#    y 0.000000 4.117320 0.000000 
#    z 0.170290 0.000000 3.748700 
# 
# 
# High freq. dielectric constant tensor:
#      x y z
#    x 1.853880 0.000000 0.012620 
#    y 0.000000 1.849180 0.000000 
#    z 0.012620 0.000000 1.828810 
# 
# From -- ./inp_files/51336.got.cif
#   From: 2010.06.25/outbox.cif.g09.slc.cpg/sg12_26_cif.got.tgz:51336.got - 2010.06.28 00:19:55.
