data_PCOD8112536
_publ_section_title
;
Structure prediction by ZEFSAII (Michael W. Deem and Ramdas Pophale) SiO2 
 PCOD8112536
Probable space group: C 2/M
;
_chemical_formula_sum "Si O2"
_cell_formula_units_Z 48
_cell_length_a 13.787646
_cell_length_b 18.940381
_cell_length_c 8.579403
_cell_angle_alpha 90.000000
_cell_angle_beta 94.805074
_cell_angle_gamma 90.000000
_cell_volume 2232.579143
_symmetry_space_group_name_H-M "C 2/M"
_symmetry_group_IT_number 12
_symmetry_cell_setting 'monoclinic'
loop_
_space_group_symop_operation_xyz
x,y,z
-x,y,-z
-x,-y,-z
x,-y,z
1/2+x,1/2+y,z
1/2-x,1/2+y,-z
1/2-x,1/2-y,-z
1/2+x,1/2-y,z
loop_
_atom_site_type_symbol
_atom_site_label
_atom_site_fract_x
_atom_site_fract_y
_atom_site_fract_z
Si Si1 0.372339 0.000000 0.806440
Si Si2 0.289534 0.864165 0.631763
Si Si3 0.734340 0.113938 0.725851
Si Si4 0.163182 0.759736 0.807519
Si Si5 0.898255 0.846061 0.912135
Si Si6 0.461360 0.246536 0.658116
Si Si7 0.905032 0.500000 0.177031
O O1 0.314204 0.068663 0.741682
O O2 0.482451 0.000000 0.758015
O O3 0.381092 0.000000 0.992559
O O4 0.251255 0.888587 0.457857
O O5 0.200507 0.821289 0.696512
O O6 0.387327 0.818221 0.624698
O O7 0.732911 0.193558 0.793581
O O8 0.828877 0.088660 0.843110
O O9 0.639790 0.069273 0.751720
O O10 0.058727 0.723796 0.760748
O O11 0.157556 0.791876 0.979469
O O12 0.913723 0.808433 0.748929
O O13 0.000000 0.873658 0.000000
O O14 0.500000 0.276714 0.500000
#
# Coordination Sequence:
#
# PCOD8112536 Si02
#       7
#     4   8   8   8   8   8   4
#     4  11  27  45  61  96 133 174 220 255 334 389
#     4  12  24  41  66  95 135 175 213 274 323 391
#     4  12  22  41  62  93 128 171 219 259 332 382
#     4  11  22  38  65  94 128 167 221 270 321 383
#     4  10  23  38  62  94 132 166 218 278 326 380
#     4  11  21  37  59  98 128 165 213 269 326 376
#     4  11  27  43  66  92 135 176 210 267 319 404
#
# _framework density 21.499797000000001
#
# number of rings (size 3 to 8) (size 9 to 14) (size 15 to 20)
#    0.000    0.833    3.333    4.500    2.333    0.667 
#    0.000    0.417    0.000    3.000    0.000   11.667 
#    0.000    0.000    0.000    0.000    0.000    0.000 
#
# Total GULP energy -297340.812957 kJ/mol
# GULP energy per Si atom -12389.200540 kJ/mol
# Density = 2.145086 g / cm^3
# Si number density = 21.499797 Si / 1000 Ang^3
#
#
#
# Elastic Constant Matrix: (Units=GPa)
#
#
# Indices 1 2 3 4 5 6 
#
# 1 66.3171 26.0511 6.6939 0.0000 1.3304 0.0000
# 2 26.0511 60.0082 9.6326 0.0000 0.1629 0.0000
# 3 6.6939 9.6326 103.3508 0.0000 -6.0337 0.0000
# 4 0.0000 0.0000 0.0000 11.4474 0.0000 6.1357
# 5 1.3304 0.1629 -6.0337 0.0000 46.3861 0.0000
# 6 0.0000 0.0000 0.0000 6.1357 0.0000 29.8494
#
#
#
# Elastic Compliance Matrix: (Units=1/GPa)
#
#
# Indices 1 2 3 4 5 6 
#
# 1 0.018214 -0.007828 -0.000483 0.000000 -0.000558 0.000000
# 2 -0.007828 0.020285 -0.001385 0.000000 -0.000027 0.000000
# 3 -0.000483 -0.001385 0.009913 0.000000 0.001308 0.000000
# 4 0.000000 0.000000 0.000000 0.098172 0.000000 -0.020180
# 5 -0.000558 -0.000027 0.001308 0.000000 0.021744 0.000000
# 6 0.000000 0.000000 0.000000 -0.020180 0.000000 0.037650
#
#
# Mechanical properties :
#
#
# Convention : Reuss Voigt Hill
#
# Bulk Modulus (GPa) = 34.45928 34.93680 34.69804
# Shear Modulus (GPa) = 21.27267 30.02317 25.64792
#
# Velocity S-wave (km/s) = 3.14894 3.74095 3.45764
# Velocity P-wave (km/s) = 5.41144 5.91141 5.66694
#
# Compressibility (1/GPa) = 0.02901976
#
# Stress axis : x y z
#
# Youngs Moduli (GPa) = 54.90258 49.29700 100.88259
#
# Poissons Ratio (x) = 0.38591 0.04869
# Poissons Ratio (y) = 0.42979 0.13974
# Poissons Ratio (z) = 0.02650 0.06829
#
# Static dielectric constant tensor:
#      x y z
#    x 4.402860 0.000000 0.008730 
#    y 0.000000 3.501250 0.000000 
#    z 0.008730 0.000000 4.063680 
# 
# 
# High freq. dielectric constant tensor:
#      x y z
#    x 1.871140 0.000000 0.008280 
#    y 0.000000 1.801620 0.000000 
#    z 0.008280 0.000000 1.867580 
# 
# From -- ./inp_files/61774.got.cif
#   From: 2010.06.25/outbox.cif.g09.slc.cpg/sg12_31_cif.got.tgz:61774.got - 2010.06.28 00:19:55.
