data_PCOD8112786
_publ_section_title
;
Structure prediction by ZEFSAII (Michael W. Deem and Ramdas Pophale) SiO2 
 PCOD8112786
Probable space group: C 2/M
;
_chemical_formula_sum "Si O2"
_cell_formula_units_Z 36
_cell_length_a 8.900155
_cell_length_b 24.452157
_cell_length_c 14.379856
_cell_angle_alpha 90.000000
_cell_angle_beta 149.227420
_cell_angle_gamma 90.000000
_cell_volume 1601.130597
_symmetry_space_group_name_H-M "C 2/M"
_symmetry_group_IT_number 12
_symmetry_cell_setting 'monoclinic'
loop_
_space_group_symop_operation_xyz
x,y,z
-x,y,-z
-x,-y,-z
x,-y,z
1/2+x,1/2+y,z
1/2-x,1/2+y,-z
1/2-x,1/2-y,-z
1/2+x,1/2-y,z
loop_
_atom_site_type_symbol
_atom_site_label
_atom_site_fract_x
_atom_site_fract_y
_atom_site_fract_z
Si Si1 0.275471 0.641985 0.964358
Si Si2 0.527615 0.365079 0.730675
Si Si3 0.000000 0.697359 0.500000
Si Si4 0.738784 0.060434 0.290285
Si Si5 0.586463 0.231883 0.143104
O O1 0.999459 0.603210 0.797296
O O2 0.186131 0.706296 0.940082
O O3 0.500000 0.637590 0.000000
O O4 0.438960 0.621473 0.143210
O O5 0.604192 0.421763 0.721921
O O6 0.750681 0.321878 0.806179
O O7 0.200503 0.340888 0.540703
O O8 0.205587 0.732422 0.678938
O O9 0.000000 0.058448 0.500000
O O10 0.598736 0.000000 0.202724
O O11 0.500000 0.263248 0.000000
#
# Coordination Sequence:
#
# PCOD8112786 Si02
#       5
#     8   8   4   8   8
#     4  10  23  41  69 101 137 171 220 280 325 395
#     4  10  24  41  63 100 131 174 225 272 329 394
#     4  12  24  38  69  96 137 188 228 272 326 388
#     4  10  23  46  73  96 127 172 218 273 348 410
#     4   9  22  43  61  94 138 186 228 266 324 393
#
# _framework density 22.484112
#
# number of rings (size 3 to 8) (size 9 to 14) (size 15 to 20)
#    0.000    2.000    0.000    2.667    9.333    8.444 
#    0.000    2.778    0.000    0.000    0.000    0.000 
#    0.000    0.000    0.000    0.000    0.000    0.000 
#
# Total GULP energy -223077.380031 kJ/mol
# GULP energy per Si atom -12393.187779 kJ/mol
# Density = 2.243294 g / cm^3
# Si number density = 22.484112 Si / 1000 Ang^3
#
#
#
# Elastic Constant Matrix: (Units=GPa)
#
#
# Indices 1 2 3 4 5 6 
#
# 1 195.3375 66.8190 61.4707 -0.0008 13.6053 -0.0003
# 2 66.8190 126.3031 44.7957 -0.0004 -2.3259 -0.0001
# 3 61.4707 44.7957 114.4670 0.0005 -0.7932 -0.0001
# 4 -0.0008 -0.0004 0.0005 -25.5019 -0.0005 -14.9972
# 5 13.6053 -2.3259 -0.7932 -0.0005 27.4928 -0.0002
# 6 -0.0003 -0.0001 -0.0001 -14.9972 -0.0002 13.9536
#
#
#
# Elastic Compliance Matrix: (Units=1/GPa)
#
#
# Indices 1 2 3 4 5 6 
#
# 1 0.007272 -0.002932 -0.002785 0.000000 -0.003927 0.000000
# 2 -0.002932 0.010388 -0.002475 0.000000 0.002258 0.000000
# 3 -0.002785 -0.002475 0.011211 0.000000 0.001492 0.000000
# 4 0.000000 0.000000 0.000000 -0.024026 -0.000001 -0.025823
# 5 -0.003927 0.002258 0.001492 -0.000001 0.038551 0.000000
# 6 0.000000 0.000000 0.000000 -0.025823 0.000000 0.043911
#
#
# Mechanical properties :
#
#
# Convention : Reuss Voigt Hill
#
# Bulk Modulus (GPa) = 80.08526 86.91983 83.50255
# Shear Modulus (GPa) = 46.35936 20.72371 33.54153
#
# Velocity S-wave (km/s) = 4.54571 3.03925 3.86656
# Velocity P-wave (km/s) = 7.95281 7.14551 7.55995
#
# Compressibility (1/GPa) = 0.01248669
#
# Stress axis : x y z
#
# Youngs Moduli (GPa) = 137.50977 96.26560 89.19961
#
# Poissons Ratio (x) = 0.28223 0.24844
# Poissons Ratio (y) = 0.40315 0.22078
# Poissons Ratio (z) = 0.38299 0.23827
#
# Static dielectric constant tensor:
#      x y z
#    x 4.716090 0.000000 0.067850 
#    y 0.000000 4.592610 0.000000 
#    z 0.067850 0.000000 4.347670 
# 
# 
# High freq. dielectric constant tensor:
#      x y z
#    x 1.914610 0.000000 0.006800 
#    y 0.000000 1.877480 0.000000 
#    z 0.006800 0.000000 1.891940 
# 
# From -- ./inp_files/40608.got.cif
#   From: 2010.06.25/outbox.cif.g09.slc.cpg/sg12_21_cif.got.tgz:40608.got - 2010.06.28 00:19:55.
