data_PCOD8112573
_publ_section_title
;
Structure prediction by ZEFSAII (Michael W. Deem and Ramdas Pophale) SiO2 
 PCOD8112573
Probable space group: C 2/M
;
_chemical_formula_sum "Si O2"
_cell_formula_units_Z 32
_cell_length_a 8.912621
_cell_length_b 17.663020
_cell_length_c 9.981595
_cell_angle_alpha 90.000000
_cell_angle_beta 55.246173
_cell_angle_gamma 90.000000
_cell_volume 1291.027402
_symmetry_space_group_name_H-M "C 2/M"
_symmetry_group_IT_number 12
_symmetry_cell_setting 'monoclinic'
loop_
_space_group_symop_operation_xyz
x,y,z
-x,y,-z
-x,-y,-z
x,-y,z
1/2+x,1/2+y,z
1/2-x,1/2+y,-z
1/2-x,1/2-y,-z
1/2+x,1/2-y,z
loop_
_atom_site_type_symbol
_atom_site_label
_atom_site_fract_x
_atom_site_fract_y
_atom_site_fract_z
Si Si1 0.409989 0.812635 0.770269
Si Si2 0.691028 0.585573 0.693142
Si Si3 0.798460 0.854980 0.595992
Si Si4 0.805600 0.145135 0.876961
O O1 0.348150 0.860992 0.673291
O O2 0.628498 0.798125 0.657625
O O3 0.311968 0.732356 0.823179
O O4 0.352250 0.861602 0.932073
O O5 0.721577 0.500000 0.727212
O O6 0.698836 0.585720 0.527210
O O7 0.494529 0.615786 0.844877
O O8 0.764784 0.898169 0.756554
O O9 0.000000 0.813279 0.500000
#
# Coordination Sequence:
#
# PCOD8112573 Si02
#       4
#     8   8   8   8
#     4  11  22  41  67  97 131 171 221 271 326 391
#     4  11  25  43  65  97 135 172 216 272 330 389
#     4  10  23  39  61  90 128 169 214 263 320 382
#     4  10  23  41  66  97 131 171 218 273 328 391
#
# _framework density 24.786462
#
# number of rings (size 3 to 8) (size 9 to 14) (size 15 to 20)
#    0.000    1.500    0.000    3.750    0.000   23.500 
#    0.000    0.000    0.000    9.000    0.000    0.000 
#    0.000    0.000    0.000    0.000    0.000    0.000 
#
# Total GULP energy -198267.450402 kJ/mol
# GULP energy per Si atom -12391.715650 kJ/mol
# Density = 2.473005 g / cm^3
# Si number density = 24.786462 Si / 1000 Ang^3
#
#
#
# Elastic Constant Matrix: (Units=GPa)
#
#
# Indices 1 2 3 4 5 6 
#
# 1 156.0168 41.8606 58.2688 0.0000 -13.1554 0.0000
# 2 41.8606 88.9528 7.6781 0.0000 -3.8344 0.0000
# 3 58.2688 7.6781 132.3847 0.0000 -2.4267 0.0000
# 4 0.0000 0.0000 0.0000 16.3218 0.0000 2.9310
# 5 -13.1554 -3.8344 -2.4267 0.0000 52.7544 0.0000
# 6 0.0000 0.0000 0.0000 2.9310 0.0000 22.1387
#
#
#
# Elastic Compliance Matrix: (Units=1/GPa)
#
#
# Indices 1 2 3 4 5 6 
#
# 1 0.008965 -0.003823 -0.003691 0.000000 0.001788 0.000000
# 2 -0.003823 0.012962 0.000932 0.000000 0.000032 0.000000
# 3 -0.003691 0.000932 0.009116 0.000000 -0.000433 0.000000
# 4 0.000000 0.000000 0.000000 0.062760 0.000000 -0.008309
# 5 0.001788 0.000032 -0.000433 0.000000 0.019384 0.000000
# 6 0.000000 0.000000 0.000000 -0.008309 0.000000 0.046270
#
#
# Mechanical properties :
#
#
# Convention : Reuss Voigt Hill
#
# Bulk Modulus (GPa) = 55.93618 65.88549 60.91083
# Shear Modulus (GPa) = 27.99840 36.21276 32.10558
#
# Velocity S-wave (km/s) = 3.36458 3.82644 3.60291
# Velocity P-wave (km/s) = 6.14085 6.79420 6.47577
#
# Compressibility (1/GPa) = 0.01787752
#
# Stress axis : x y z
#
# Youngs Moduli (GPa) = 111.54874 77.14871 109.69145
#
# Poissons Ratio (x) = 0.29494 0.40490
# Poissons Ratio (y) = 0.42646 -0.10218
# Poissons Ratio (z) = 0.41176 -0.07186
#
# Static dielectric constant tensor:
#      x y z
#    x 4.694470 0.000000 0.234290 
#    y 0.000000 3.670510 0.000000 
#    z 0.234290 0.000000 5.070160 
# 
# 
# High freq. dielectric constant tensor:
#      x y z
#    x 2.001520 0.000000 0.010500 
#    y 0.000000 1.916590 0.000000 
#    z 0.010500 0.000000 2.010430 
# 
# From -- ./inp_files/119911.got.cif
#   From: 2010.06.25/outbox.cif.g09.slc.cpg/sg12_60_cif.got.tgz:119911.got - 2010.06.28 00:19:55.
