data_PCOD8112059
_publ_section_title
;
Structure prediction by ZEFSAII (Michael W. Deem and Ramdas Pophale) SiO2 
 PCOD8112059
Probable space group: C 2/M
;
_chemical_formula_sum "Si O2"
_cell_formula_units_Z 48
_cell_length_a 14.240556
_cell_length_b 27.001544
_cell_length_c 9.402143
_cell_angle_alpha 90.000000
_cell_angle_beta 134.979321
_cell_angle_gamma 90.000000
_cell_volume 2557.314179
_symmetry_space_group_name_H-M "C 2/M"
_symmetry_group_IT_number 12
_symmetry_cell_setting 'monoclinic'
loop_
_space_group_symop_operation_xyz
x,y,z
-x,y,-z
-x,-y,-z
x,-y,z
1/2+x,1/2+y,z
1/2-x,1/2+y,-z
1/2-x,1/2-y,-z
1/2+x,1/2-y,z
loop_
_atom_site_type_symbol
_atom_site_label
_atom_site_fract_x
_atom_site_fract_y
_atom_site_fract_z
Si Si1 0.857876 0.274150 0.308556
Si Si2 0.252065 0.179723 0.939308
Si Si3 0.648462 0.884036 0.194126
Si Si4 0.501010 0.361439 0.831553
Si Si5 0.763063 0.308040 0.490311
Si Si6 0.908485 0.942065 0.536767
O O1 0.769315 0.224933 0.194371
O O2 0.808396 0.313061 0.375121
O O3 0.000000 0.252962 0.500000
O O4 0.868138 0.303768 0.171183
O O5 0.295733 0.132758 0.897916
O O6 0.129122 0.166316 0.908841
O O7 0.639556 0.838424 0.298268
O O8 0.753150 0.925770 0.357104
O O9 0.500000 0.904765 0.000000
O O10 0.381565 0.329733 0.640636
O O11 0.480502 0.416727 0.748797
O O12 0.500000 0.363380 0.000000
O O13 0.750000 0.250000 0.500000
O O14 0.000000 0.927690 0.500000
O O15 0.908691 0.000000 0.565695
#
# Coordination Sequence:
#
# PCOD8112059 Si02
#       6
#     8   8   8   8   8   8
#     4  11  22  35  51  77 119 164 198 238 276 335
#     4  11  22  37  54  83 116 158 201 238 285 334
#     4  11  23  38  61  88 117 152 194 244 292 356
#     4  11  22  38  60  84 116 154 200 243 286 346
#     4  11  21  34  53  81 118 158 198 234 277 337
#     4  10  22  41  67  90 112 147 190 247 313 359
#
# _framework density 18.769691999999999
#
# number of rings (size 3 to 8) (size 9 to 14) (size 15 to 20)
#    0.000    1.167    5.000    2.000    2.333    2.667 
#    0.000    0.000    0.000    0.000    0.000    1.167 
#    0.000    0.000    0.000    0.000    0.000    0.000 
#
# Total GULP energy -297469.565506 kJ/mol
# GULP energy per Si atom -12394.565229 kJ/mol
# Density = 1.872697 g / cm^3
# Si number density = 18.769692 Si / 1000 Ang^3
#
#
#
# Elastic Constant Matrix: (Units=GPa)
#
#
# Indices 1 2 3 4 5 6 
#
# 1 77.7794 16.5740 20.9621 0.0000 -7.8342 0.0000
# 2 16.5740 79.4696 21.4339 0.0000 -5.6087 0.0000
# 3 20.9621 21.4339 91.8543 0.0000 -0.0657 0.0000
# 4 0.0000 0.0000 0.0000 20.8741 0.0000 -2.7870
# 5 -7.8342 -5.6087 -0.0657 0.0000 25.3052 0.0000
# 6 0.0000 0.0000 0.0000 -2.7870 0.0000 24.2191
#
#
#
# Elastic Compliance Matrix: (Units=1/GPa)
#
#
# Indices 1 2 3 4 5 6 
#
# 1 0.014445 -0.001964 -0.002836 0.000000 0.004030 0.000000
# 2 -0.001964 0.013922 -0.002799 0.000000 0.002471 0.000000
# 3 -0.002836 -0.002799 0.012186 0.000000 -0.001467 0.000000
# 4 0.000000 0.000000 0.000000 0.048654 0.000000 0.005599
# 5 0.004030 0.002471 -0.001467 0.000000 0.041309 0.000000
# 6 0.000000 0.000000 0.000000 0.005599 0.000000 0.041934
#
#
# Mechanical properties :
#
#
# Convention : Reuss Voigt Hill
#
# Bulk Modulus (GPa) = 39.43570 40.78260 40.10915
# Shear Modulus (GPa) = 25.49740 26.75524 26.12632
#
# Velocity S-wave (km/s) = 3.68969 3.77961 3.73492
# Velocity P-wave (km/s) = 6.26161 6.38923 6.32574
#
# Compressibility (1/GPa) = 0.02535773
#
# Stress axis : x y z
#
# Youngs Moduli (GPa) = 69.22648 71.82780 82.06177
#
# Poissons Ratio (x) = 0.14104 0.23269
# Poissons Ratio (y) = 0.13593 0.22968
# Poissons Ratio (z) = 0.19629 0.20103
#
# Static dielectric constant tensor:
#      x y z
#    x 3.753030 0.000000 -0.273910 
#    y 0.000000 3.205160 0.000000 
#    z -0.273910 0.000000 3.773000 
# 
# 
# High freq. dielectric constant tensor:
#      x y z
#    x 1.734280 0.000000 -0.007200 
#    y 0.000000 1.698470 0.000000 
#    z -0.007200 0.000000 1.743370 
# 
# From -- ./inp_files/52797.got.cif
#   From: 2010.06.25/outbox.cif.g09.slc.cpg/sg12_27_cif.got.tgz:52797.got - 2010.06.28 00:19:55.
