data_PCOD8112968
_publ_section_title
;
Structure prediction by ZEFSAII (Michael W. Deem and Ramdas Pophale) SiO2 
 PCOD8112968
Probable space group: C 2/M
;
_chemical_formula_sum "Si O2"
_cell_formula_units_Z 56
_cell_length_a 8.578270
_cell_length_b 24.601532
_cell_length_c 15.824021
_cell_angle_alpha 90.000000
_cell_angle_beta 63.676741
_cell_angle_gamma 90.000000
_cell_volume 2993.196698
_symmetry_space_group_name_H-M "C 2/M"
_symmetry_group_IT_number 12
_symmetry_cell_setting 'monoclinic'
loop_
_space_group_symop_operation_xyz
x,y,z
-x,y,-z
-x,-y,-z
x,-y,z
1/2+x,1/2+y,z
1/2-x,1/2+y,-z
1/2-x,1/2-y,-z
1/2+x,1/2-y,z
loop_
_atom_site_type_symbol
_atom_site_label
_atom_site_fract_x
_atom_site_fract_y
_atom_site_fract_z
Si Si1 0.348940 0.657786 0.779764
Si Si2 0.690420 0.354374 0.791730
Si Si3 0.711106 0.232287 0.106699
Si Si4 0.197699 0.063577 0.926571
Si Si5 0.978447 0.685669 0.598351
Si Si6 0.009827 0.639079 0.089659
Si Si7 0.350472 0.694728 0.595659
O O1 0.521348 0.632875 0.777175
O O2 0.328274 0.717434 0.825010
O O3 0.361889 0.659257 0.676662
O O4 0.183546 0.618767 0.839632
O O5 0.652310 0.305768 0.871257
O O6 0.731181 0.411503 0.826784
O O7 0.853099 0.346866 0.690757
O O8 0.550223 0.189697 0.142309
O O9 0.750000 0.250000 0.000000
O O10 0.343683 0.092071 0.950738
O O11 0.233630 0.000000 0.918672
O O12 0.000000 0.077814 0.000000
O O13 0.886313 0.743070 0.607889
O O14 0.000000 0.658057 0.500000
O O15 0.165194 0.691095 0.595894
O O16 0.000000 0.666086 0.000000
O O17 0.500000 0.670476 0.500000
#
# Coordination Sequence:
#
# PCOD8112968 Si02
#       7
#     8   8   8   8   8   8   8
#     4  12  22  34  53  84 119 152 189 229 275 333
#     4  11  23  36  58  82 113 151 192 234 284 341
#     4  11  22  34  50  77 119 158 187 227 269 329
#     4  10  23  43  62  80 106 144 191 243 291 340
#     4  11  21  36  54  80 113 154 197 234 278 332
#     4  11  22  36  54  81 111 146 193 233 280 336
#     4  11  21  34  52  77 115 160 197 229 271 328
#
# _framework density 18.709095000000001
#
# number of rings (size 3 to 8) (size 9 to 14) (size 15 to 20)
#    0.000    1.000    2.857    6.857    2.000    0.286 
#    0.000    0.714    0.000    0.429    0.000    0.000 
#    0.000    5.143    0.000    0.000    0.000    0.000 
#
# Total GULP energy -346893.998018 kJ/mol
# GULP energy per Si atom -12389.071358 kJ/mol
# Density = 1.866651 g / cm^3
# Si number density = 18.709095 Si / 1000 Ang^3
#
#
#
# Elastic Constant Matrix: (Units=GPa)
#
#
# Indices 1 2 3 4 5 6 
#
# 1 152.2956 22.0140 44.8452 0.0000 -6.2365 0.0000
# 2 22.0140 49.5100 12.6675 0.0000 -4.2936 0.0000
# 3 44.8452 12.6675 122.3725 0.0000 0.1852 0.0000
# 4 0.0000 0.0000 0.0000 15.5249 0.0000 -5.1165
# 5 -6.2365 -4.2936 0.1852 0.0000 40.2203 0.0000
# 6 0.0000 0.0000 0.0000 -5.1165 0.0000 16.5949
#
#
#
# Elastic Compliance Matrix: (Units=1/GPa)
#
#
# Indices 1 2 3 4 5 6 
#
# 1 0.007750 -0.002711 -0.002561 0.000000 0.000924 0.000000
# 2 -0.002711 0.021896 -0.001276 0.000000 0.001923 0.000000
# 3 -0.002561 -0.001276 0.009243 0.000000 -0.000576 0.000000
# 4 0.000000 0.000000 0.000000 0.071698 0.000000 0.022106
# 5 0.000924 0.001923 -0.000576 0.000000 0.025214 0.000000
# 6 0.000000 0.000000 0.000000 0.022106 0.000000 0.067075
#
#
# Mechanical properties :
#
#
# Convention : Reuss Voigt Hill
#
# Bulk Modulus (GPa) = 38.76827 53.69240 46.23034
# Shear Modulus (GPa) = 22.26478 30.77813 26.52145
#
# Velocity S-wave (km/s) = 3.45345 4.06037 3.76915
# Velocity P-wave (km/s) = 6.05544 7.12341 6.61103
#
# Compressibility (1/GPa) = 0.02579429
#
# Stress axis : x y z
#
# Youngs Moduli (GPa) = 129.03391 45.66951 108.18741
#
# Poissons Ratio (x) = 0.12379 0.27705
# Poissons Ratio (y) = 0.34975 0.13807
# Poissons Ratio (z) = 0.33044 0.05828
#
# Static dielectric constant tensor:
#      x y z
#    x 4.040240 0.000000 -0.018990 
#    y 0.000000 2.916840 0.000000 
#    z -0.018990 0.000000 4.086410 
# 
# 
# High freq. dielectric constant tensor:
#      x y z
#    x 1.760210 0.000000 0.008430 
#    y 0.000000 1.657640 0.000000 
#    z 0.008430 0.000000 1.734940 
# 
# From -- ./inp_files/199676.got.cif
#   From: 2010.06.25/outbox.cif.g09.slc.cpg/sg12_100_cif.got.tgz:199676.got - 2010.06.28 00:19:55.
