data_PCOD8112255
_publ_section_title
;
Structure prediction by ZEFSAII (Michael W. Deem and Ramdas Pophale) SiO2 
 PCOD8112255
Probable space group: C 2/M
;
_chemical_formula_sum "Si O2"
_cell_formula_units_Z 56
_cell_length_a 31.635425
_cell_length_b 8.656857
_cell_length_c 11.730959
_cell_angle_alpha 90.000000
_cell_angle_beta 123.704626
_cell_angle_gamma 90.000000
_cell_volume 2672.658219
_symmetry_space_group_name_H-M "C 2/M"
_symmetry_group_IT_number 12
_symmetry_cell_setting 'monoclinic'
loop_
_space_group_symop_operation_xyz
x,y,z
-x,y,-z
-x,-y,-z
x,-y,z
1/2+x,1/2+y,z
1/2-x,1/2+y,-z
1/2-x,1/2-y,-z
1/2+x,1/2-y,z
loop_
_atom_site_type_symbol
_atom_site_label
_atom_site_fract_x
_atom_site_fract_y
_atom_site_fract_z
Si Si1 0.068811 0.178468 0.870117
Si Si2 0.246333 0.680768 0.869995
Si Si3 0.633510 0.320595 0.318194
Si Si4 0.524583 0.824403 0.159951
Si Si5 0.651269 0.318641 0.601273
Si Si6 0.444156 0.678164 0.407309
Si Si7 0.337193 0.180224 0.865417
O O1 0.080374 0.199108 0.754064
O O2 0.012374 0.242084 0.805649
O O3 0.072670 0.000000 0.913474
O O4 0.107916 0.278689 0.001726
O O5 0.246354 0.500000 0.883965
O O6 0.195090 0.731734 0.732879
O O7 0.294362 0.727791 0.867256
O O8 0.250000 0.750000 0.000000
O O9 0.637821 0.500000 0.293718
O O10 0.575074 0.274858 0.232128
O O11 0.657794 0.284206 0.477359
O O12 0.664387 0.223729 0.270399
O O13 0.535954 0.000000 0.215344
O O14 0.500000 0.821396 0.000000
O O15 0.655544 0.500000 0.634597
O O16 0.596632 0.253313 0.563689
O O17 0.500000 0.759226 0.500000
O O18 0.452076 0.500000 0.450408
O O19 0.326785 0.000000 0.863571
#
# Coordination Sequence:
#
# PCOD8112255 Si02
#       7
#     8   8   8   8   8   8   8
#     4  11  21  35  61  92 123 163 212 265 320 383
#     4  12  26  46  71  97 126 164 211 262 318 378
#     4  11  23  40  65  95 127 168 216 264 319 384
#     4  11  22  36  56  86 127 173 213 260 317 376
#     4  10  22  42  67  95 129 167 210 263 322 382
#     4   9  18  35  60  91 124 159 201 250 307 370
#     4  12  25  42  64  92 127 165 209 264 321 380
#
# _framework density 20.952922999999998
#
# number of rings (size 3 to 8) (size 9 to 14) (size 15 to 20)
#    0.000    1.143    1.429    5.571    0.000    5.714 
#    0.000    0.714    0.000    3.000    0.000    0.000 
#    0.000    0.000    0.000    0.000    0.000    0.000 
#
# Total GULP energy -347321.536414 kJ/mol
# GULP energy per Si atom -12404.340586 kJ/mol
# Density = 2.090523 g / cm^3
# Si number density = 20.952923 Si / 1000 Ang^3
#
#
#
# Elastic Constant Matrix: (Units=GPa)
#
#
# Indices 1 2 3 4 5 6 
#
# 1 130.3253 15.2793 54.0533 0.0000 -4.8492 0.0000
# 2 15.2793 73.7587 53.5018 0.0000 -0.8263 0.0000
# 3 54.0533 53.5018 112.2913 0.0000 -1.9134 0.0000
# 4 0.0000 0.0000 0.0000 28.8661 0.0000 4.1184
# 5 -4.8492 -0.8263 -1.9134 0.0000 31.5868 0.0000
# 6 0.0000 0.0000 0.0000 4.1184 0.0000 24.8016
#
#
#
# Elastic Compliance Matrix: (Units=1/GPa)
#
#
# Indices 1 2 3 4 5 6 
#
# 1 0.009848 0.002135 -0.005737 0.000000 0.001220 0.000000
# 2 0.002135 0.021181 -0.011116 0.000000 0.000208 0.000000
# 3 -0.005737 -0.011116 0.016961 0.000000 -0.000144 0.000000
# 4 0.000000 0.000000 0.000000 0.035483 0.000000 -0.005892
# 5 0.001220 0.000208 -0.000144 0.000000 0.031843 0.000000
# 6 0.000000 0.000000 0.000000 -0.005892 0.000000 0.041298
#
#
# Mechanical properties :
#
#
# Convention : Reuss Voigt Hill
#
# Bulk Modulus (GPa) = 53.89752 62.44935 58.17344
# Shear Modulus (GPa) = 26.01008 29.95364 27.98186
#
# Velocity S-wave (km/s) = 3.52711 3.78507 3.65836
# Velocity P-wave (km/s) = 6.50894 6.99797 6.75788
#
# Compressibility (1/GPa) = 0.01855373
#
# Stress axis : x y z
#
# Youngs Moduli (GPa) = 101.54830 47.21253 58.96018
#
# Poissons Ratio (x) = -0.10079 0.33823
# Poissons Ratio (y) = -0.21679 0.65539
# Poissons Ratio (z) = 0.58255 0.52481
#
# Static dielectric constant tensor:
#      x y z
#    x 4.102020 0.000000 -0.282620 
#    y 0.000000 3.775320 0.000000 
#    z -0.282620 0.000000 4.200330 
# 
# 
# High freq. dielectric constant tensor:
#      x y z
#    x 1.834340 0.000000 -0.008280 
#    y 0.000000 1.811820 0.000000 
#    z -0.008280 0.000000 1.827260 
# 
# From -- ./inp_files/187770.got.cif
#   From: 2010.06.25/outbox.cif.g09.slc.cpg/sg12_94_cif.got.tgz:187770.got - 2010.06.28 00:19:55.
