data_PCOD8112492
_publ_section_title
;
Structure prediction by ZEFSAII (Michael W. Deem and Ramdas Pophale) SiO2 
 PCOD8112492
Probable space group: C 2/M
;
_chemical_formula_sum "Si O2"
_cell_formula_units_Z 64
_cell_length_a 17.725185
_cell_length_b 20.738910
_cell_length_c 9.527938
_cell_angle_alpha 90.000000
_cell_angle_beta 112.876225
_cell_angle_gamma 90.000000
_cell_volume 3226.998437
_symmetry_space_group_name_H-M "C 2/M"
_symmetry_group_IT_number 12
_symmetry_cell_setting 'monoclinic'
loop_
_space_group_symop_operation_xyz
x,y,z
-x,y,-z
-x,-y,-z
x,-y,z
1/2+x,1/2+y,z
1/2-x,1/2+y,-z
1/2-x,1/2-y,-z
1/2+x,1/2-y,z
loop_
_atom_site_type_symbol
_atom_site_label
_atom_site_fract_x
_atom_site_fract_y
_atom_site_fract_z
Si Si1 0.075712 0.370144 0.357521
Si Si2 0.906952 0.216865 0.961157
Si Si3 0.200422 0.571802 0.624589
Si Si4 0.804669 0.192527 0.609510
Si Si5 0.090974 0.762174 0.532835
Si Si6 0.805648 0.795630 0.133969
Si Si7 0.645509 0.854132 0.100108
Si Si8 0.903928 0.573535 0.192365
O O1 0.117781 0.428568 0.471984
O O2 0.095707 0.304847 0.454254
O O3 0.116024 0.368223 0.234377
O O4 0.978813 0.380079 0.287725
O O5 0.846013 0.213418 0.784876
O O6 0.904122 0.292633 0.998937
O O7 0.872134 0.175593 0.069530
O O8 0.000000 0.193957 0.000000
O O9 0.240000 0.500000 0.646156
O O10 0.260352 0.625014 0.603100
O O11 0.174276 0.588725 0.765271
O O12 0.750000 0.250000 0.500000
O O13 0.875434 0.181344 0.545257
O O14 0.146187 0.755789 0.712052
O O15 0.000000 0.783895 0.500000
O O16 0.744953 0.846770 0.164502
O O17 0.750000 0.750000 0.000000
O O18 0.622014 0.914519 0.986475
O O19 0.932344 0.500000 0.228736
#
# Coordination Sequence:
#
# PCOD8112492 Si02
#       8
#     8   8   8   8   8   8   8   8
#     4  12  23  36  61  88 130 169 213 254 308 376
#     4  11  21  36  57  87 120 153 200 257 320 377
#     4  11  24  41  62  88 123 167 214 262 316 375
#     4  12  22  39  64  92 124 160 209 266 318 376
#     4  12  24  37  60  93 128 165 204 265 326 378
#     4  10  23  35  54  83 118 160 203 255 320 373
#     4  11  23  37  57  85 124 165 208 257 311 369
#     4  11  25  42  60  89 130 179 218 250 304 389
#
# _framework density 19.832671000000001
#
# number of rings (size 3 to 8) (size 9 to 14) (size 15 to 20)
#    0.000    0.750    2.500    6.375    7.000    2.500 
#    0.000    0.000    0.000    0.750    0.000    1.750 
#    0.000    0.000    0.000    0.000    0.000    0.000 
#
# Total GULP energy -396612.805469 kJ/mol
# GULP energy per Si atom -12394.150171 kJ/mol
# Density = 1.978753 g / cm^3
# Si number density = 19.832671 Si / 1000 Ang^3
#
#
#
# Elastic Constant Matrix: (Units=GPa)
#
#
# Indices 1 2 3 4 5 6 
#
# 1 144.8175 60.6787 45.4070 0.0000 -17.4542 0.0000
# 2 60.6787 74.7317 46.0896 0.0000 -2.6039 0.0000
# 3 45.4070 46.0896 132.8486 0.0000 -8.3735 0.0000
# 4 0.0000 0.0000 0.0000 22.9126 0.0000 -3.8297
# 5 -17.4542 -2.6039 -8.3735 0.0000 37.7346 0.0000
# 6 0.0000 0.0000 0.0000 -3.8297 0.0000 28.0449
#
#
#
# Elastic Compliance Matrix: (Units=1/GPa)
#
#
# Indices 1 2 3 4 5 6 
#
# 1 0.011232 -0.008613 -0.000569 0.000000 0.004475 0.000000
# 2 -0.008613 0.023629 -0.005479 0.000000 -0.003569 0.000000
# 3 -0.000569 -0.005479 0.009718 0.000000 0.001515 0.000000
# 4 0.000000 0.000000 0.000000 0.044664 0.000000 0.006099
# 5 0.004475 -0.003569 0.001515 0.000000 0.028661 0.000000
# 6 0.000000 0.000000 0.000000 0.006099 0.000000 0.036490
#
#
# Mechanical properties :
#
#
# Convention : Reuss Voigt Hill
#
# Bulk Modulus (GPa) = 65.54025 72.97205 69.25615
# Shear Modulus (GPa) = 26.48299 31.08657 28.78478
#
# Velocity S-wave (km/s) = 3.65817 3.96339 3.81383
# Velocity P-wave (km/s) = 7.13872 7.60384 7.37494
#
# Compressibility (1/GPa) = 0.01525780
#
# Stress axis : x y z
#
# Youngs Moduli (GPa) = 89.03343 42.32054 102.90089
#
# Poissons Ratio (x) = 0.36451 0.05853
# Poissons Ratio (y) = 0.76684 0.56378
# Poissons Ratio (z) = 0.05064 0.23187
#
# Static dielectric constant tensor:
#      x y z
#    x 4.357660 0.000000 -0.296030 
#    y 0.000000 3.251390 0.000000 
#    z -0.296030 0.000000 3.843390 
# 
# 
# High freq. dielectric constant tensor:
#      x y z
#    x 1.791280 0.000000 -0.017590 
#    y 0.000000 1.717800 0.000000 
#    z -0.017590 0.000000 1.792760 
# 
# From -- ./inp_files/89650.got.cif
#   From: 2010.06.25/outbox.cif.g09.slc.cpg/sg12_45_cif.got.tgz:89650.got - 2010.06.28 00:19:55.
