data_PCOD8112771
_publ_section_title
;
Structure prediction by ZEFSAII (Michael W. Deem and Ramdas Pophale) SiO2 
 PCOD8112771
Probable space group: C 2/M
;
_chemical_formula_sum "Si O2"
_cell_formula_units_Z 40
_cell_length_a 11.617736
_cell_length_b 16.880025
_cell_length_c 9.532907
_cell_angle_alpha 90.000000
_cell_angle_beta 74.499386
_cell_angle_gamma 90.000000
_cell_volume 1801.478863
_symmetry_space_group_name_H-M "C 2/M"
_symmetry_group_IT_number 12
_symmetry_cell_setting 'monoclinic'
loop_
_space_group_symop_operation_xyz
x,y,z
-x,y,-z
-x,-y,-z
x,-y,z
1/2+x,1/2+y,z
1/2-x,1/2+y,-z
1/2-x,1/2-y,-z
1/2+x,1/2-y,z
loop_
_atom_site_type_symbol
_atom_site_label
_atom_site_fract_x
_atom_site_fract_y
_atom_site_fract_z
Si Si1 0.605777 0.659383 0.362533
Si Si2 0.452581 0.591156 0.170982
Si Si3 0.526261 0.906716 0.147099
Si Si4 0.173605 0.590493 0.570549
Si Si5 0.794758 0.673077 0.719708
O O1 0.500000 0.687269 0.500000
O O2 0.558425 0.612185 0.243338
O O3 0.690705 0.600719 0.422116
O O4 0.685658 0.733063 0.285250
O O5 0.411463 0.500000 0.207493
O O6 0.344545 0.651419 0.234333
O O7 0.500000 0.604210 0.000000
O O8 0.415473 0.880815 0.279094
O O9 0.645803 0.864953 0.162419
O O10 0.548799 0.000000 0.139869
O O11 0.500000 0.875335 0.000000
O O12 0.150922 0.500000 0.538314
O O13 0.144655 0.640189 0.441369
#
# Coordination Sequence:
#
# PCOD8112771 Si02
#       5
#     8   8   8   8   8
#     4  12  26  43  70 102 140 176 229 285 344 400
#     4  11  27  48  71 101 139 183 229 280 341 409
#     4  10  23  41  65  97 133 174 224 281 339 403
#     4  11  23  42  69  97 133 182 233 280 336 407
#     4  12  25  43  71  98 136 178 229 281 340 405
#
# _framework density 22.203980999999999
#
# number of rings (size 3 to 8) (size 9 to 14) (size 15 to 20)
#    0.000    0.800    2.000    4.800    5.600    4.000 
#    0.000    0.000    0.000    0.000    0.000    0.000 
#    0.000    0.000    0.000    0.000    0.000    0.000 
#
# Total GULP energy -248157.923865 kJ/mol
# GULP energy per Si atom -12407.896193 kJ/mol
# Density = 2.215344 g / cm^3
# Si number density = 22.203981 Si / 1000 Ang^3
#
#
#
# Elastic Constant Matrix: (Units=GPa)
#
#
# Indices 1 2 3 4 5 6 
#
# 1 68.1575 14.9491 13.6978 0.0000 14.5077 0.0000
# 2 14.9491 68.9500 27.7970 0.0000 -3.1773 0.0000
# 3 13.6978 27.7970 121.2461 0.0000 20.2578 0.0000
# 4 0.0000 0.0000 0.0000 6.1326 0.0000 6.7038
# 5 14.5077 -3.1773 20.2578 0.0000 47.8921 0.0000
# 6 0.0000 0.0000 0.0000 6.7038 0.0000 41.9102
#
#
#
# Elastic Compliance Matrix: (Units=1/GPa)
#
#
# Indices 1 2 3 4 5 6 
#
# 1 0.016646 -0.003796 -0.000135 0.000000 -0.005237 0.000000
# 2 -0.003796 0.017205 -0.004195 0.000000 0.004066 0.000000
# 3 -0.000135 -0.004195 0.009969 0.000000 -0.004454 0.000000
# 4 0.000000 0.000000 0.000000 0.197616 0.000000 -0.031610
# 5 -0.005237 0.004066 -0.004454 0.000000 0.024621 0.000000
# 6 0.000000 0.000000 0.000000 -0.031610 0.000000 0.028917
#
#
# Mechanical properties :
#
#
# Convention : Reuss Voigt Hill
#
# Bulk Modulus (GPa) = 36.27405 41.24904 38.76155
# Shear Modulus (GPa) = 15.60477 32.64764 24.12620
#
# Velocity S-wave (km/s) = 2.65390 3.83868 3.29989
# Velocity P-wave (km/s) = 5.07574 6.18586 5.65809
#
# Compressibility (1/GPa) = 0.02756792
#
# Stress axis : x y z
#
# Youngs Moduli (GPa) = 60.07290 58.12357 100.31231
#
# Poissons Ratio (x) = 0.22063 0.01358
# Poissons Ratio (y) = 0.22803 0.42079
# Poissons Ratio (z) = 0.00813 0.24382
#
# Static dielectric constant tensor:
#      x y z
#    x 4.008430 0.000000 0.122160 
#    y 0.000000 3.826980 0.000000 
#    z 0.122160 0.000000 4.145480 
# 
# 
# High freq. dielectric constant tensor:
#      x y z
#    x 1.882390 0.000000 0.009960 
#    y 0.000000 1.870580 0.000000 
#    z 0.009960 0.000000 1.884410 
# 
# From -- ./inp_files/46933.got.cif
#   From: 2010.06.25/outbox.cif.g09.slc.cpg/sg12_24_cif.got.tgz:46933.got - 2010.06.28 00:19:55.
