data_PCOD8112066
_publ_section_title
;
Structure prediction by ZEFSAII (Michael W. Deem and Ramdas Pophale) SiO2 
 PCOD8112066
Probable space group: C 2/M
;
_chemical_formula_sum "Si O2"
_cell_formula_units_Z 36
_cell_length_a 8.622869
_cell_length_b 19.032505
_cell_length_c 10.897232
_cell_angle_alpha 90.000000
_cell_angle_beta 118.097259
_cell_angle_gamma 90.000000
_cell_volume 1577.633356
_symmetry_space_group_name_H-M "C 2/M"
_symmetry_group_IT_number 12
_symmetry_cell_setting 'monoclinic'
loop_
_space_group_symop_operation_xyz
x,y,z
-x,y,-z
-x,-y,-z
x,-y,z
1/2+x,1/2+y,z
1/2-x,1/2+y,-z
1/2-x,1/2-y,-z
1/2+x,1/2-y,z
loop_
_atom_site_type_symbol
_atom_site_label
_atom_site_fract_x
_atom_site_fract_y
_atom_site_fract_z
Si Si1 0.000000 0.644971 0.000000
Si Si2 0.814056 0.809157 0.271828
Si Si3 0.816404 0.169269 0.696156
Si Si4 0.344066 0.078292 0.174034
Si Si5 0.721209 0.919711 0.428115
O O1 0.137689 0.692987 0.124327
O O2 0.889311 0.596175 0.050704
O O3 0.805249 0.739177 0.352268
O O4 0.828570 0.877690 0.363511
O O5 0.982514 0.807731 0.247375
O O6 0.799343 0.131379 0.822369
O O7 0.750489 0.115171 0.569924
O O8 0.515824 0.083825 0.322860
O O9 0.265595 0.000000 0.147210
O O10 0.789195 0.000000 0.454338
#
# Coordination Sequence:
#
# PCOD8112066 Si02
#       5
#     4   8   8   8   8
#     4  10  23  46  66  88 123 164 210 258 311 368
#     4  11  25  41  65  92 126 167 208 257 309 367
#     4  12  24  40  63  94 127 164 209 257 310 368
#     4  10  22  41  67  94 125 165 206 254 309 369
#     4  10  22  42  66  95 130 163 201 255 316 371
#
# _framework density 22.818991
#
# number of rings (size 3 to 8) (size 9 to 14) (size 15 to 20)
#    0.000    1.333    0.000    5.667    0.000   11.556 
#    0.000    1.111    0.000    0.000    0.000    0.000 
#    0.000    0.000    0.000    0.000    0.000    0.000 
#
# Total GULP energy -223294.869626 kJ/mol
# GULP energy per Si atom -12405.270535 kJ/mol
# Density = 2.276705 g / cm^3
# Si number density = 22.818991 Si / 1000 Ang^3
#
#
#
# Elastic Constant Matrix: (Units=GPa)
#
#
# Indices 1 2 3 4 5 6 
#
# 1 148.3605 73.9162 25.8684 0.0000 -40.3231 0.0000
# 2 73.9162 188.3338 41.8107 0.0000 -25.0795 0.0000
# 3 25.8684 41.8107 91.4691 0.0000 -23.9848 0.0000
# 4 0.0000 0.0000 0.0000 24.1400 0.0000 -10.1919
# 5 -40.3231 -25.0795 -23.9848 0.0000 29.2400 0.0000
# 6 0.0000 0.0000 0.0000 -10.1919 0.0000 36.6590
#
#
#
# Elastic Compliance Matrix: (Units=1/GPa)
#
#
# Indices 1 2 3 4 5 6 
#
# 1 0.012297 -0.003176 0.002174 0.000000 0.016017 0.000000
# 2 -0.003176 0.007049 -0.002404 0.000000 -0.000306 0.000000
# 3 0.002174 -0.002404 0.014858 0.000000 0.013124 0.000000
# 4 0.000000 0.000000 0.000000 0.046934 0.000000 0.013049
# 5 0.016017 -0.000306 0.013124 0.000000 0.066791 0.000000
# 6 0.000000 0.000000 0.000000 0.013049 0.000000 0.030906
#
#
# Mechanical properties :
#
#
# Convention : Reuss Voigt Hill
#
# Bulk Modulus (GPa) = 36.50689 79.03931 57.77310
# Shear Modulus (GPa) = 25.67017 37.11233 31.39125
#
# Velocity S-wave (km/s) = 3.35766 4.03721 3.71302
# Velocity P-wave (km/s) = 5.57360 7.51298 6.61475
#
# Compressibility (1/GPa) = 0.02739209
#
# Stress axis : x y z
#
# Youngs Moduli (GPa) = 81.32099 141.85944 67.30362
#
# Poissons Ratio (x) = 0.45054 -0.14632
# Poissons Ratio (y) = 0.25827 0.16181
# Poissons Ratio (z) = -0.17680 0.34105
#
# Static dielectric constant tensor:
#      x y z
#    x 4.089330 0.000000 -0.178040 
#    y 0.000000 4.236380 0.000000 
#    z -0.178040 0.000000 3.972170 
# 
# 
# High freq. dielectric constant tensor:
#      x y z
#    x 1.904840 0.000000 -0.016440 
#    y 0.000000 1.911310 0.000000 
#    z -0.016440 0.000000 1.889550 
# 
# From -- ./inp_files/119215.got.cif
#   From: 2010.06.25/outbox.cif.g09.slc.cpg/sg12_60_cif.got.tgz:119215.got - 2010.06.28 00:19:55.
