data_PCOD8112940
_publ_section_title
;
Structure prediction by ZEFSAII (Michael W. Deem and Ramdas Pophale) SiO2 
 PCOD8112940
Probable space group: C 2/M
;
_chemical_formula_sum "Si O2"
_cell_formula_units_Z 48
_cell_length_a 31.113129
_cell_length_b 12.764730
_cell_length_c 5.505373
_cell_angle_alpha 90.000000
_cell_angle_beta 119.711577
_cell_angle_gamma 90.000000
_cell_volume 1899.011472
_symmetry_space_group_name_H-M "C 2/M"
_symmetry_group_IT_number 12
_symmetry_cell_setting 'monoclinic'
loop_
_space_group_symop_operation_xyz
x,y,z
-x,y,-z
-x,-y,-z
x,-y,z
1/2+x,1/2+y,z
1/2-x,1/2+y,-z
1/2-x,1/2-y,-z
1/2+x,1/2-y,z
loop_
_atom_site_type_symbol
_atom_site_label
_atom_site_fract_x
_atom_site_fract_y
_atom_site_fract_z
Si Si1 0.522291 0.120269 0.308761
Si Si2 0.622402 0.780229 0.623526
Si Si3 0.133311 0.885180 0.277548
Si Si4 0.722139 0.874688 0.047346
Si Si5 0.232329 0.118789 0.324316
Si Si6 0.945117 0.883411 0.305335
O O1 0.500000 0.168626 0.500000
O O2 0.581522 0.131358 0.453188
O O3 0.506722 0.000000 0.261497
O O4 0.500000 0.174301 0.000000
O O5 0.645404 0.719901 0.458778
O O6 0.594089 0.687269 0.673415
O O7 0.665336 0.837430 0.891414
O O8 0.172516 0.877467 0.164198
O O9 0.143151 0.000000 0.433983
O O10 0.075654 0.884787 0.029125
O O11 0.745016 0.828798 0.363617
O O12 0.725389 0.000000 0.055543
O O13 0.750905 0.829854 0.886719
O O14 0.252446 0.000000 0.378916
O O15 0.000000 0.837499 0.500000
O O16 0.943832 0.000000 0.414612
#
# Coordination Sequence:
#
# PCOD8112940 Si02
#       6
#     8   8   8   8   8   8
#     4  10  24  45  68  96 133 176 220 274 334 396
#     4  12  25  37  68  98 133 172 225 275 333 398
#     4  10  24  43  66  96 132 177 226 278 335 398
#     4  10  23  42  67  99 138 177 219 273 330 397
#     4   9  21  43  67  94 136 182 220 269 333 395
#     4  10  24  45  66  93 131 175 226 281 340 397
#
# _framework density 25.276306000000002
#
# number of rings (size 3 to 8) (size 9 to 14) (size 15 to 20)
#    0.000    1.833    0.000    1.500    9.333    1.333 
#    0.000    7.500    0.000    0.000    0.000    0.000 
#    0.000    0.000    0.000    0.000    0.000    0.000 
#
# Total GULP energy -297351.940254 kJ/mol
# GULP energy per Si atom -12389.664177 kJ/mol
# Density = 2.521878 g / cm^3
# Si number density = 25.276306 Si / 1000 Ang^3
#
#
#
# Elastic Constant Matrix: (Units=GPa)
#
#
# Indices 1 2 3 4 5 6 
#
# 1 133.6560 27.6285 75.3712 0.0000 3.2172 0.0000
# 2 27.6285 47.3718 43.4417 0.0000 -14.0914 0.0000
# 3 75.3712 43.4417 179.9480 0.0000 3.7351 0.0000
# 4 0.0000 0.0000 0.0000 28.3639 0.0000 -5.6874
# 5 3.2172 -14.0914 3.7351 0.0000 55.3073 0.0000
# 6 0.0000 0.0000 0.0000 -5.6874 0.0000 35.8492
#
#
#
# Elastic Compliance Matrix: (Units=1/GPa)
#
#
# Indices 1 2 3 4 5 6 
#
# 1 0.010095 -0.003040 -0.003471 0.000000 -0.001127 0.000000
# 2 -0.003040 0.031390 -0.006483 0.000000 0.008612 0.000000
# 3 -0.003471 -0.006483 0.008618 0.000000 -0.002032 0.000000
# 4 0.000000 0.000000 0.000000 0.036415 0.000000 0.005777
# 5 -0.001127 0.008612 -0.002032 0.000000 0.020478 0.000000
# 6 0.000000 0.000000 0.000000 0.005777 0.000000 0.028811
#
#
# Mechanical properties :
#
#
# Convention : Reuss Voigt Hill
#
# Bulk Modulus (GPa) = 41.46876 72.65095 57.05985
# Shear Modulus (GPa) = 29.44064 38.20637 33.82351
#
# Velocity S-wave (km/s) = 3.41655 3.89208 3.66204
# Velocity P-wave (km/s) = 5.65734 7.00020 6.36429
#
# Compressibility (1/GPa) = 0.02411454
#
# Stress axis : x y z
#
# Youngs Moduli (GPa) = 99.06154 31.85728 116.03207
#
# Poissons Ratio (x) = 0.09684 0.40274
# Poissons Ratio (y) = 0.30114 0.75229
# Poissons Ratio (z) = 0.34383 0.20654
#
# Static dielectric constant tensor:
#      x y z
#    x 4.472650 0.000000 0.088990 
#    y 0.000000 4.800140 0.000000 
#    z 0.088990 0.000000 5.240650 
# 
# 
# High freq. dielectric constant tensor:
#      x y z
#    x 1.994950 0.000000 0.008630 
#    y 0.000000 2.039100 0.000000 
#    z 0.008630 0.000000 2.005940 
# 
# From -- ./inp_files/31596.got.cif
#   From: 2010.06.25/outbox.cif.g09.slc.cpg/sg12_16_cif.got.tgz:31596.got - 2010.06.28 00:19:55.
