data_PCOD8112369
_publ_section_title
;
Structure prediction by ZEFSAII (Michael W. Deem and Ramdas Pophale) SiO2 
 PCOD8112369
Probable space group: C 2/M
;
_chemical_formula_sum "Si O2"
_cell_formula_units_Z 40
_cell_length_a 9.389438
_cell_length_b 14.401869
_cell_length_c 31.340300
_cell_angle_alpha 90.000000
_cell_angle_beta 27.434581
_cell_angle_gamma 90.000000
_cell_volume 1952.600166
_symmetry_space_group_name_H-M "C 2/M"
_symmetry_group_IT_number 12
_symmetry_cell_setting 'monoclinic'
loop_
_space_group_symop_operation_xyz
x,y,z
-x,y,-z
-x,-y,-z
x,-y,z
1/2+x,1/2+y,z
1/2-x,1/2+y,-z
1/2-x,1/2-y,-z
1/2+x,1/2-y,z
loop_
_atom_site_type_symbol
_atom_site_label
_atom_site_fract_x
_atom_site_fract_y
_atom_site_fract_z
Si Si1 0.701063 0.178101 0.552018
Si Si2 0.164030 0.780092 0.856634
Si Si3 0.236135 0.108412 0.976240
Si Si4 0.792693 0.240798 0.732046
Si Si5 0.824104 0.601435 0.586765
O O1 0.750000 0.250000 0.500000
O O2 0.428059 0.204854 0.656277
O O3 0.558956 0.090690 0.564232
O O4 0.000000 0.150687 0.500000
O O5 0.449301 0.792027 0.812675
O O6 0.273209 0.804931 0.779575
O O7 0.913854 0.854804 0.939555
O O8 0.035377 0.673716 0.889369
O O9 0.333005 0.000000 0.955390
O O10 0.000000 0.121440 0.000000
O O11 0.015098 0.153954 0.682528
O O12 0.725451 0.500000 0.596745
O O13 0.000000 0.654124 0.500000
#
# Coordination Sequence:
#
# PCOD8112369 Si02
#       5
#     8   8   8   8   8
#     4  12  20  38  65  89 122 171 208 246 308 374
#     4  11  23  39  65  98 121 160 210 261 311 376
#     4  10  22  43  67  90 125 166 202 251 320 389
#     4  12  21  38  63  92 123 160 208 257 303 366
#     4  11  24  40  60  90 126 167 213 260 310 364
#
# _framework density 20.485505
#
# number of rings (size 3 to 8) (size 9 to 14) (size 15 to 20)
#    0.000    0.800    8.000    0.000    0.000    2.000 
#    0.000    3.000    0.000    0.000    0.000    0.000 
#    0.000    0.000    0.000    0.000    0.000    0.000 
#
# Total GULP energy -247839.425721 kJ/mol
# GULP energy per Si atom -12391.971286 kJ/mol
# Density = 2.043888 g / cm^3
# Si number density = 20.485505 Si / 1000 Ang^3
#
#
#
# Elastic Constant Matrix: (Units=GPa)
#
#
# Indices 1 2 3 4 5 6 
#
# 1 136.7647 27.1836 40.8556 -0.0198 -2.4298 0.0228
# 2 27.1836 79.1155 29.6059 -0.0387 5.2542 0.0190
# 3 40.8556 29.6059 103.5587 0.0202 12.7356 0.0508
# 4 -0.0198 -0.0387 0.0202 17.7941 -0.0021 1.7024
# 5 -2.4298 5.2542 12.7356 -0.0021 52.4970 -0.0224
# 6 0.0228 0.0190 0.0508 1.7024 -0.0224 16.9856
#
#
#
# Elastic Compliance Matrix: (Units=1/GPa)
#
#
# Indices 1 2 3 4 5 6 
#
# 1 0.008617 -0.001921 -0.003013 0.000009 0.001322 0.000000
# 2 -0.001921 0.014593 -0.003322 0.000034 -0.000743 -0.000008
# 3 -0.003013 -0.003322 0.012133 -0.000022 -0.002750 -0.000030
# 4 0.000009 0.000034 -0.000022 0.056743 0.000002 -0.005687
# 5 0.001322 -0.000743 -0.002750 0.000002 0.019852 0.000033
# 6 0.000000 -0.000008 -0.000030 -0.005687 0.000033 0.059443
#
#
# Mechanical properties :
#
#
# Convention : Reuss Voigt Hill
#
# Bulk Modulus (GPa) = 53.10748 57.19210 55.14979
# Shear Modulus (GPa) = 25.75062 32.24160 28.99611
#
# Velocity S-wave (km/s) = 3.54929 3.97151 3.76632
# Velocity P-wave (km/s) = 6.54044 7.00068 6.77447
#
# Compressibility (1/GPa) = 0.01882974
#
# Stress axis : x y z
#
# Youngs Moduli (GPa) = 116.04649 68.52825 82.41891
#
# Poissons Ratio (x) = 0.13165 0.24833
# Poissons Ratio (y) = 0.22294 0.27383
# Poissons Ratio (z) = 0.34965 0.22768
#
# Static dielectric constant tensor:
#      x y z
#    x 3.993080 -0.000050 0.102350 
#    y -0.000050 3.458040 -0.000800 
#    z 0.102350 -0.000800 3.975940 
# 
# 
# High freq. dielectric constant tensor:
#      x y z
#    x 1.816920 0.000000 0.010110 
#    y 0.000000 1.765730 0.000000 
#    z 0.010110 0.000000 1.815080 
# 
# From -- ./inp_files/194533.got.cif
#   From: 2010.06.25/outbox.cif.g09.slc.cpg/sg12_98_cif.got.tgz:194533.got - 2010.06.28 00:19:55.
