data_PCOD8112788
_publ_section_title
;
Structure prediction by ZEFSAII (Michael W. Deem and Ramdas Pophale) SiO2 
 PCOD8112788
Probable space group: C 2/M
;
_chemical_formula_sum "Si O2"
_cell_formula_units_Z 56
_cell_length_a 17.267387
_cell_length_b 32.331320
_cell_length_c 5.041735
_cell_angle_alpha 90.000000
_cell_angle_beta 63.206381
_cell_angle_gamma 90.000000
_cell_volume 2512.490825
_symmetry_space_group_name_H-M "C 2/M"
_symmetry_group_IT_number 12
_symmetry_cell_setting 'monoclinic'
loop_
_space_group_symop_operation_xyz
x,y,z
-x,y,-z
-x,-y,-z
x,-y,z
1/2+x,1/2+y,z
1/2-x,1/2+y,-z
1/2-x,1/2-y,-z
1/2+x,1/2-y,z
loop_
_atom_site_type_symbol
_atom_site_label
_atom_site_fract_x
_atom_site_fract_y
_atom_site_fract_z
Si Si1 0.710529 0.119341 0.221938
Si Si2 0.444608 0.128113 0.847329
Si Si3 0.667762 0.335869 0.335217
Si Si4 0.444932 0.738869 0.349414
Si Si5 0.843759 0.686017 0.317434
Si Si6 0.680062 0.546680 0.842068
Si Si7 0.906699 0.921871 0.508542
O O1 0.648556 0.105204 0.069407
O O2 0.646609 0.148193 0.491027
O O3 0.742409 0.079297 0.338724
O O4 0.793343 0.147926 0.005676
O O5 0.500000 0.130135 0.500000
O O6 0.500000 0.106432 0.000000
O O7 0.415818 0.174907 0.982151
O O8 0.592706 0.301788 0.442808
O O9 0.744454 0.314351 0.380453
O O10 0.625304 0.376497 0.531815
O O11 0.500000 0.760059 0.500000
O O12 0.365833 0.769381 0.401372
O O13 0.500000 0.727517 0.000000
O O14 0.714993 0.500000 0.769681
O O15 0.600447 0.552320 0.755239
O O16 0.654448 0.555992 0.183888
O O17 0.000000 0.920695 0.500000
#
# Coordination Sequence:
#
# PCOD8112788 Si02
#       7
#     8   8   8   8   8   8   8
#     4  10  23  41  71  95 128 176 222 258 331 397
#     4  11  22  37  66  99 130 162 216 274 326 381
#     4  10  24  45  64  92 131 179 221 263 322 390
#     4  12  30  42  63  95 132 169 220 281 328 369
#     4  11  23  42  68  92 128 173 223 266 323 387
#     4  11  24  43  66  99 133 168 215 268 320 388
#     4  11  23  41  68  96 131 174 216 261 320 388
#
# _framework density 22.288637999999999
#
# number of rings (size 3 to 8) (size 9 to 14) (size 15 to 20)
#    0.000    1.143    2.857    2.143    8.000    3.429 
#    0.000    0.000    0.000    0.857    0.000    0.000 
#    0.000    0.000    0.000    0.000    0.000    0.000 
#
# Total GULP energy -346866.083518 kJ/mol
# GULP energy per Si atom -12388.074411 kJ/mol
# Density = 2.223791 g / cm^3
# Si number density = 22.288638 Si / 1000 Ang^3
#
#
#
# Elastic Constant Matrix: (Units=GPa)
#
#
# Indices 1 2 3 4 5 6 
#
# 1 122.6002 49.7843 36.9211 0.0000 10.1041 0.0000
# 2 49.7843 148.6355 44.5118 0.0000 0.8138 0.0000
# 3 36.9211 44.5118 89.6682 0.0000 9.4066 0.0000
# 4 0.0000 0.0000 0.0000 18.0987 0.0000 5.9994
# 5 10.1041 0.8138 9.4066 0.0000 31.4508 0.0000
# 6 0.0000 0.0000 0.0000 5.9994 0.0000 19.7005
#
#
#
# Elastic Compliance Matrix: (Units=1/GPa)
#
#
# Indices 1 2 3 4 5 6 
#
# 1 0.010217 -0.002614 -0.002656 0.000000 -0.002421 0.000000
# 2 -0.002614 0.008602 -0.003364 0.000000 0.001623 0.000000
# 3 -0.002656 -0.003364 0.014265 0.000000 -0.003326 0.000000
# 4 0.000000 0.000000 0.000000 0.061457 0.000000 -0.018715
# 5 -0.002421 0.001623 -0.003326 0.000000 0.033526 0.000000
# 6 0.000000 0.000000 0.000000 -0.018715 0.000000 0.056459
#
#
# Mechanical properties :
#
#
# Convention : Reuss Voigt Hill
#
# Bulk Modulus (GPa) = 63.22361 69.25980 66.24170
# Shear Modulus (GPa) = 24.14707 29.16247 26.65477
#
# Velocity S-wave (km/s) = 3.29505 3.62111 3.46192
# Velocity P-wave (km/s) = 6.55010 6.97314 6.76493
#
# Compressibility (1/GPa) = 0.01581688
#
# Stress axis : x y z
#
# Youngs Moduli (GPa) = 97.87494 116.25416 70.10384
#
# Poissons Ratio (x) = 0.30384 0.18617
# Poissons Ratio (y) = 0.25581 0.23584
# Poissons Ratio (z) = 0.25991 0.39109
#
# Static dielectric constant tensor:
#      x y z
#    x 4.419750 0.000000 0.121880 
#    y 0.000000 3.751630 0.000000 
#    z 0.121880 0.000000 4.037130 
# 
# 
# High freq. dielectric constant tensor:
#      x y z
#    x 1.898800 0.000000 0.006460 
#    y 0.000000 1.838950 0.000000 
#    z 0.006460 0.000000 1.878570 
# 
# From -- ./inp_files/18248.got.cif
#   From: 2010.06.25/outbox.cif.g09.slc.cpg/sg12_10_cif.got.tgz:18248.got - 2010.06.28 00:19:55.
