data_PCOD8112659
_publ_section_title
;
Structure prediction by ZEFSAII (Michael W. Deem and Ramdas Pophale) SiO2 
 PCOD8112659
Probable space group: C 2/M
;
_chemical_formula_sum "Si O2"
_cell_formula_units_Z 64
_cell_length_a 24.036681
_cell_length_b 21.230794
_cell_length_c 18.325925
_cell_angle_alpha 90.000000
_cell_angle_beta 160.842355
_cell_angle_gamma 90.000000
_cell_volume 3069.046410
_symmetry_space_group_name_H-M "C 2/M"
_symmetry_group_IT_number 12
_symmetry_cell_setting 'monoclinic'
loop_
_space_group_symop_operation_xyz
x,y,z
-x,y,-z
-x,-y,-z
x,-y,z
1/2+x,1/2+y,z
1/2-x,1/2+y,-z
1/2-x,1/2-y,-z
1/2+x,1/2-y,z
loop_
_atom_site_type_symbol
_atom_site_label
_atom_site_fract_x
_atom_site_fract_y
_atom_site_fract_z
Si Si1 0.814398 0.163228 0.778255
Si Si2 0.464412 0.069429 0.534867
Si Si3 0.707708 0.808297 0.498710
Si Si4 0.158454 0.344747 0.994584
Si Si5 0.645514 0.572663 0.396218
Si Si6 0.721094 0.383234 0.007291
Si Si7 0.310793 0.779899 0.235880
Si Si8 0.482827 0.071982 0.897461
O O1 0.680645 0.107200 0.604061
O O2 0.767359 0.211108 0.654049
O O3 0.814880 0.198482 0.855835
O O4 0.000000 0.133777 0.000000
O O5 0.500000 0.101588 0.500000
O O6 0.392157 0.000000 0.432592
O O7 0.635890 0.065887 0.794226
O O8 0.750000 0.750000 0.500000
O O9 0.506490 0.815660 0.248082
O O10 0.803711 0.874464 0.600263
O O11 0.104006 0.393471 0.989773
O O12 0.272340 0.375007 0.071743
O O13 0.274955 0.292433 0.175641
O O14 0.644992 0.500000 0.364628
O O15 0.462009 0.589677 0.200142
O O16 0.784872 0.578185 0.632409
O O17 0.771330 0.319830 0.113877
O O18 0.500000 0.787463 0.500000
O O19 0.544136 0.000000 0.973177
O O20 0.500000 0.101096 0.000000
#
# Coordination Sequence:
#
# PCOD8112659 Si02
#       8
#     8   8   8   8   8   8   8   8
#     4  12  23  41  63  90 128 168 215 268 316 384
#     4  11  23  41  64  90 130 178 212 258 324 386
#     4  11  23  42  62  93 129 169 219 272 327 382
#     4  11  24  38  66  95 118 168 213 266 326 386
#     4  10  23  40  65  96 129 173 216 265 327 393
#     4  12  21  43  62  94 132 166 214 265 322 385
#     4  12  24  43  64  91 132 169 213 265 330 387
#     4   9  21  44  66  89 128 165 207 267 326 382
#
# _framework density 20.853383999999998
#
# number of rings (size 3 to 8) (size 9 to 14) (size 15 to 20)
#    0.000    1.000    3.750    3.000    0.000    6.250 
#    0.000    0.000    0.000    2.625    0.000    0.000 
#    0.000    0.000    0.000    0.000    0.000    0.000 
#
# Total GULP energy -396736.594956 kJ/mol
# GULP energy per Si atom -12398.018592 kJ/mol
# Density = 2.080592 g / cm^3
# Si number density = 20.853384 Si / 1000 Ang^3
#
#
#
# Elastic Constant Matrix: (Units=GPa)
#
#
# Indices 1 2 3 4 5 6 
#
# 1 133.4659 45.4942 39.8915 0.0000 -8.6544 0.0000
# 2 45.4942 102.2682 34.6981 0.0000 0.1152 0.0000
# 3 39.8915 34.6981 84.6640 0.0000 7.7317 0.0000
# 4 0.0000 0.0000 0.0000 30.5367 0.0000 0.0592
# 5 -8.6544 0.1152 7.7317 0.0000 35.5168 0.0000
# 6 0.0000 0.0000 0.0000 0.0592 0.0000 22.2168
#
#
#
# Elastic Compliance Matrix: (Units=1/GPa)
#
#
# Indices 1 2 3 4 5 6 
#
# 1 0.009867 -0.003155 -0.003649 0.000000 0.003209 0.000000
# 2 -0.003155 0.012401 -0.003593 0.000000 -0.000027 0.000000
# 3 -0.003649 -0.003593 0.015389 0.000000 -0.004228 0.000000
# 4 0.000000 0.000000 0.000000 0.032748 0.000000 -0.000087
# 5 0.003209 -0.000027 -0.004228 0.000000 0.029858 0.000000
# 6 0.000000 0.000000 0.000000 -0.000087 0.000000 0.045011
#
#
# Mechanical properties :
#
#
# Convention : Reuss Voigt Hill
#
# Bulk Modulus (GPa) = 59.30275 62.28509 60.79392
# Shear Modulus (GPa) = 29.12246 31.00837 30.06541
#
# Velocity S-wave (km/s) = 3.74108 3.86031 3.80116
# Velocity P-wave (km/s) = 6.86735 7.05707 6.96286
#
# Compressibility (1/GPa) = 0.01686262
#
# Stress axis : x y z
#
# Youngs Moduli (GPa) = 101.35184 80.63980 64.97940
#
# Poissons Ratio (x) = 0.25440 0.23711
# Poissons Ratio (y) = 0.31974 0.23350
# Poissons Ratio (z) = 0.36983 0.28977
#
# Static dielectric constant tensor:
#      x y z
#    x 3.915700 0.000000 -0.042220 
#    y 0.000000 3.776680 0.000000 
#    z -0.042220 0.000000 3.835470 
# 
# 
# High freq. dielectric constant tensor:
#      x y z
#    x 1.822790 0.000000 0.001210 
#    y 0.000000 1.810660 0.000000 
#    z 0.001210 0.000000 1.822540 
# 
# From -- ./inp_files/290964.got.cif
#   From: 2010.06.25/outbox.cif.g09.slc.cpg/sg12_146_cif.got.tgz:290964.got - 2010.06.28 00:19:55.
