data_PCOD8112778
_publ_section_title
;
Structure prediction by ZEFSAII (Michael W. Deem and Ramdas Pophale) SiO2 
 PCOD8112778
Probable space group: C 2/M
;
_chemical_formula_sum "Si O2"
_cell_formula_units_Z 40
_cell_length_a 9.189491
_cell_length_b 22.456707
_cell_length_c 14.335955
_cell_angle_alpha 90.000000
_cell_angle_beta 33.414816
_cell_angle_gamma 90.000000
_cell_volume 1629.208084
_symmetry_space_group_name_H-M "C 2/M"
_symmetry_group_IT_number 12
_symmetry_cell_setting 'monoclinic'
loop_
_space_group_symop_operation_xyz
x,y,z
-x,y,-z
-x,-y,-z
x,-y,z
1/2+x,1/2+y,z
1/2-x,1/2+y,-z
1/2-x,1/2-y,-z
1/2+x,1/2-y,z
loop_
_atom_site_type_symbol
_atom_site_label
_atom_site_fract_x
_atom_site_fract_y
_atom_site_fract_z
Si Si1 0.375253 0.434306 0.441792
Si Si2 0.977668 0.567930 0.118930
Si Si3 0.211735 0.768534 0.123288
Si Si4 0.790829 0.867261 0.316840
Si Si5 0.589346 0.138266 0.232968
O O1 0.266292 0.500000 0.525580
O O2 0.675601 0.428217 0.315637
O O3 0.358565 0.427381 0.337852
O O4 0.202118 0.383521 0.583086
O O5 0.081546 0.500000 0.070455
O O6 0.149595 0.610720 0.096854
O O7 0.000000 0.590524 0.000000
O O8 0.998447 0.819965 0.245896
O O9 0.105500 0.709597 0.232190
O O10 0.500000 0.791382 0.000000
O O11 0.250000 0.750000 0.000000
O O12 0.500000 0.843336 0.500000
O O13 0.800906 0.881991 0.200003
#
# Coordination Sequence:
#
# PCOD8112778 Si02
#       5
#     8   8   8   8   8
#     4  10  23  44  72 106 146 190 237 294 362 437
#     4  10  23  41  67 105 146 189 240 298 365 431
#     4  12  27  47  71 104 147 191 241 301 363 426
#     4  10  25  45  70 107 144 186 242 292 359 431
#     4  11  24  42  71  99 138 187 241 291 357 426
#
# _framework density 24.551805999999999
#
# number of rings (size 3 to 8) (size 9 to 14) (size 15 to 20)
#    0.000    1.400    2.000    1.200    5.600   10.800 
#    0.000    0.000    0.000    6.000    0.000    0.000 
#    0.000    0.000    0.000    0.000    0.000    0.000 
#
# Total GULP energy -247840.964027 kJ/mol
# GULP energy per Si atom -12392.048201 kJ/mol
# Density = 2.449593 g / cm^3
# Si number density = 24.551806 Si / 1000 Ang^3
#
#
#
# Elastic Constant Matrix: (Units=GPa)
#
#
# Indices 1 2 3 4 5 6 
#
# 1 179.2943 48.1870 32.7326 0.0072 5.3208 -0.0014
# 2 48.1870 95.9941 44.6947 0.0003 -19.2404 -0.0001
# 3 32.7326 44.6947 58.1684 0.0263 -24.6521 -0.0103
# 4 0.0072 0.0003 0.0263 35.2989 -0.0167 3.9840
# 5 5.3208 -19.2404 -24.6521 -0.0167 54.8940 0.0061
# 6 -0.0014 -0.0001 -0.0103 3.9840 0.0061 34.9438
#
#
#
# Elastic Compliance Matrix: (Units=1/GPa)
#
#
# Indices 1 2 3 4 5 6 
#
# 1 0.006950 -0.002612 -0.003184 0.000000 -0.003019 0.000000
# 2 -0.002612 0.017202 -0.011221 0.000010 0.001243 -0.000005
# 3 -0.003184 -0.011221 0.032197 -0.000019 0.010835 0.000010
# 4 0.000000 0.000010 -0.000019 0.028699 0.000004 -0.003272
# 5 -0.003019 0.001243 0.010835 0.000004 0.023811 -0.000002
# 6 0.000000 -0.000005 0.000010 -0.003272 -0.000002 0.028990
#
#
# Mechanical properties :
#
#
# Convention : Reuss Voigt Hill
#
# Bulk Modulus (GPa) = 44.81042 64.96505 54.88774
# Shear Modulus (GPa) = 27.88314 38.88350 33.38332
#
# Velocity S-wave (km/s) = 3.37365 3.98393 3.69142
# Velocity P-wave (km/s) = 5.78501 6.90508 6.36971
#
# Compressibility (1/GPa) = 0.02231624
#
# Stress axis : x y z
#
# Youngs Moduli (GPa) = 143.88252 58.13322 31.05921
#
# Poissons Ratio (x) = 0.15182 0.09888
# Poissons Ratio (y) = 0.37575 0.34851
# Poissons Ratio (z) = 0.45808 0.65231
#
# Static dielectric constant tensor:
#      x y z
#    x 4.892710 0.000030 0.223990 
#    y 0.000030 4.039310 -0.000020 
#    z 0.223990 -0.000020 4.371890 
# 
# 
# High freq. dielectric constant tensor:
#      x y z
#    x 2.001360 0.000000 0.009050 
#    y 0.000000 1.964880 0.000000 
#    z 0.009050 0.000000 1.973090 
# 
# From -- ./inp_files/198201.got.cif
#   From: 2010.06.25/outbox.cif.g09.slc.cpg/sg12_100_cif.got.tgz:198201.got - 2010.06.28 00:19:55.
