data_PCOD8112237
_publ_section_title
;
Structure prediction by ZEFSAII (Michael W. Deem and Ramdas Pophale) SiO2 
 PCOD8112237
Probable space group: C 2/M
;
_chemical_formula_sum "Si O2"
_cell_formula_units_Z 56
_cell_length_a 11.062084
_cell_length_b 14.678333
_cell_length_c 17.003123
_cell_angle_alpha 90.000000
_cell_angle_beta 74.468162
_cell_angle_gamma 90.000000
_cell_volume 2660.026129
_symmetry_space_group_name_H-M "C 2/M"
_symmetry_group_IT_number 12
_symmetry_cell_setting 'monoclinic'
loop_
_space_group_symop_operation_xyz
x,y,z
-x,y,-z
-x,-y,-z
x,-y,z
1/2+x,1/2+y,z
1/2-x,1/2+y,-z
1/2-x,1/2-y,-z
1/2+x,1/2-y,z
loop_
_atom_site_type_symbol
_atom_site_label
_atom_site_fract_x
_atom_site_fract_y
_atom_site_fract_z
Si Si1 0.205698 0.102853 0.326944
Si Si2 0.193248 0.396289 0.307964
Si Si3 0.905502 0.709869 0.086241
Si Si4 0.898990 0.899396 0.150054
Si Si5 0.355738 0.756485 0.549107
Si Si6 0.478389 0.895696 0.227488
Si Si7 0.825161 0.897513 0.840796
O O1 0.142164 0.161100 0.405959
O O2 0.356421 0.110485 0.304258
O O3 0.160763 0.141600 0.250067
O O4 0.159076 0.000000 0.348503
O O5 0.164081 0.500000 0.337466
O O6 0.330759 0.386101 0.245632
O O7 0.189351 0.337277 0.386707
O O8 0.094659 0.362366 0.259513
O O9 0.868595 0.817133 0.096395
O O10 0.775415 0.658868 0.091310
O O11 0.967626 0.673001 0.156000
O O12 0.000000 0.689426 0.000000
O O13 0.046653 0.894645 0.135809
O O14 0.862519 0.000000 0.121399
O O15 0.500000 0.776648 0.500000
O O16 0.250000 0.750000 0.500000
O O17 0.497962 0.000000 0.194393
O O18 0.772022 0.000000 0.841009
#
# Coordination Sequence:
#
# PCOD8112237 Si02
#       7
#     8   8   8   8   8   8   8
#     4   9  19  38  63  85 116 158 203 252 300 366
#     4  10  22  42  67  87 117 166 211 254 308 377
#     4  11  23  36  63  94 131 163 203 258 325 372
#     4  10  23  41  62  88 121 165 215 255 301 369
#     4  12  27  40  59  95 130 159 198 259 326 386
#     4   9  19  38  65  94 118 158 217 263 304 367
#     4   9  20  40  64  90 117 160 212 258 303 360
#
# _framework density 21.052423999999998
#
# number of rings (size 3 to 8) (size 9 to 14) (size 15 to 20)
#    0.000    2.000    0.000    3.857    6.000    3.143 
#    0.000    0.000    0.000    0.000    0.000    0.000 
#    0.000    0.000    0.000    0.000    0.000    0.000 
#
# Total GULP energy -347167.014386 kJ/mol
# GULP energy per Si atom -12398.821942 kJ/mol
# Density = 2.100451 g / cm^3
# Si number density = 21.052424 Si / 1000 Ang^3
#
#
#
# Elastic Constant Matrix: (Units=GPa)
#
#
# Indices 1 2 3 4 5 6 
#
# 1 79.5626 23.7626 18.3714 0.0000 -11.1539 0.0000
# 2 23.7626 101.0588 36.3486 0.0000 -6.3050 0.0000
# 3 18.3714 36.3486 74.4152 0.0000 -17.0478 0.0000
# 4 0.0000 0.0000 0.0000 18.1998 0.0000 -10.2623
# 5 -11.1539 -6.3050 -17.0478 0.0000 26.1717 0.0000
# 6 0.0000 0.0000 0.0000 -10.2623 0.0000 23.2056
#
#
#
# Elastic Compliance Matrix: (Units=1/GPa)
#
#
# Indices 1 2 3 4 5 6 
#
# 1 0.014286 -0.002650 -0.001156 0.000000 0.004697 0.000000
# 2 -0.002650 0.012522 -0.005912 0.000000 -0.001964 0.000000
# 3 -0.001156 -0.005912 0.019009 0.000000 0.010465 0.000000
# 4 0.000000 0.000000 0.000000 0.073199 0.000000 0.032371
# 5 0.004697 -0.001964 0.010465 0.000000 0.046554 0.000000
# 6 0.000000 0.000000 0.000000 0.032371 0.000000 0.057409
#
#
# Mechanical properties :
#
#
# Convention : Reuss Voigt Hill
#
# Bulk Modulus (GPa) = 37.90843 45.77796 41.84320
# Shear Modulus (GPa) = 19.90373 25.28569 22.59471
#
# Velocity S-wave (km/s) = 3.07813 3.46942 3.27962
# Velocity P-wave (km/s) = 5.53886 6.15152 5.85321
#
# Compressibility (1/GPa) = 0.02637935
#
# Stress axis : x y z
#
# Youngs Moduli (GPa) = 70.00032 79.85711 52.60695
#
# Poissons Ratio (x) = 0.21163 0.06083
# Poissons Ratio (y) = 0.18551 0.31103
# Poissons Ratio (z) = 0.08095 0.47214
#
# Static dielectric constant tensor:
#      x y z
#    x 3.840700 0.000000 -0.139500 
#    y 0.000000 4.136230 0.000000 
#    z -0.139500 0.000000 3.524670 
# 
# 
# High freq. dielectric constant tensor:
#      x y z
#    x 1.827270 0.000000 -0.012630 
#    y 0.000000 1.841410 0.000000 
#    z -0.012630 0.000000 1.800180 
# 
# From -- ./inp_files/262834.got.cif
#   From: 2010.06.25/outbox.cif.g09.slc.cpg/sg12_132_cif.got.tgz:262834.got - 2010.06.28 00:19:55.
