data_PCOD8112589
_publ_section_title
;
Structure prediction by ZEFSAII (Michael W. Deem and Ramdas Pophale) SiO2 
 PCOD8112589
Probable space group: C 2/M
;
_chemical_formula_sum "Si O2"
_cell_formula_units_Z 48
_cell_length_a 12.530102
_cell_length_b 27.408638
_cell_length_c 5.732228
_cell_angle_alpha 90.000000
_cell_angle_beta 106.906711
_cell_angle_gamma 90.000000
_cell_volume 1883.551034
_symmetry_space_group_name_H-M "C 2/M"
_symmetry_group_IT_number 12
_symmetry_cell_setting 'monoclinic'
loop_
_space_group_symop_operation_xyz
x,y,z
-x,y,-z
-x,-y,-z
x,-y,z
1/2+x,1/2+y,z
1/2-x,1/2+y,-z
1/2-x,1/2-y,-z
1/2+x,1/2-y,z
loop_
_atom_site_type_symbol
_atom_site_label
_atom_site_fract_x
_atom_site_fract_y
_atom_site_fract_z
Si Si1 0.385270 0.626750 0.027730
Si Si2 0.824699 0.617503 0.429765
Si Si3 0.723941 0.553512 0.744619
Si Si4 0.571623 0.947013 0.836346
Si Si5 0.375847 0.737923 0.971327
Si Si6 0.370637 0.773260 0.466264
O O1 0.289725 0.619879 0.780623
O O2 0.500000 0.606732 0.000000
O O3 0.369256 0.594033 0.250933
O O4 0.391376 0.684012 0.087356
O O5 0.808549 0.577422 0.617456
O O6 0.929822 0.595085 0.358059
O O7 0.858795 0.670957 0.540482
O O8 0.675764 0.500000 0.633518
O O9 0.798940 0.544359 0.018974
O O10 0.521403 0.000000 0.727069
O O11 0.500000 0.924828 0.000000
O O12 0.316555 0.766343 0.161492
O O13 0.500000 0.760365 0.000000
O O14 0.321936 0.742233 0.666854
O O15 0.500000 0.758492 0.500000
#
# Coordination Sequence:
#
# PCOD8112589 Si02
#       6
#     8   8   8   8   8   8
#     4  10  24  45  67  88 124 172 224 276 335 389
#     4  11  24  37  63  97 128 173 217 271 326 399
#     4  10  23  42  63  95 129 163 218 277 332 394
#     4   9  20  38  61  89 129 176 216 264 326 396
#     4   9  21  42  65  96 133 176 221 274 328 397
#     4  10  23  39  65  99 140 175 215 269 331 400
#
# _framework density 25.483781
#
# number of rings (size 3 to 8) (size 9 to 14) (size 15 to 20)
#    0.000    2.167    0.000    0.500    9.333    3.667 
#    0.000    3.333    0.000    0.000    0.000    0.000 
#    0.000    0.000    0.000    0.000    0.000    0.000 
#
# Total GULP energy -297318.583693 kJ/mol
# GULP energy per Si atom -12388.274321 kJ/mol
# Density = 2.542578 g / cm^3
# Si number density = 25.483781 Si / 1000 Ang^3
#
#
#
# Elastic Constant Matrix: (Units=GPa)
#
#
# Indices 1 2 3 4 5 6 
#
# 1 76.6313 35.6475 58.9836 0.0000 -40.0605 0.0000
# 2 35.6475 192.5235 58.4955 0.0000 -49.3513 0.0000
# 3 58.9836 58.4955 128.5195 0.0000 -40.0620 0.0000
# 4 0.0000 0.0000 0.0000 47.4879 0.0000 -10.5149
# 5 -40.0605 -49.3513 -40.0620 0.0000 58.6679 0.0000
# 6 0.0000 0.0000 0.0000 -10.5149 0.0000 39.2942
#
#
#
# Elastic Compliance Matrix: (Units=1/GPa)
#
#
# Indices 1 2 3 4 5 6 
#
# 1 0.025539 0.001023 -0.008235 0.000000 0.012676 0.000000
# 2 0.001023 0.006941 -0.002021 0.000000 0.005157 0.000000
# 3 -0.008235 -0.002021 0.012955 0.000000 0.001523 0.000000
# 4 0.000000 0.000000 0.000000 0.022384 0.000000 0.005990
# 5 0.012676 0.005157 0.001523 0.000000 0.031078 0.000000
# 6 0.000000 0.000000 0.000000 0.005990 0.000000 0.027052
#
#
# Mechanical properties :
#
#
# Convention : Reuss Voigt Hill
#
# Bulk Modulus (GPa) = 37.08141 78.21418 57.64779
# Shear Modulus (GPa) = 32.59330 45.39317 38.99324
#
# Velocity S-wave (km/s) = 3.58017 4.22507 3.91592
# Velocity P-wave (km/s) = 5.62785 7.38648 6.56631
#
# Compressibility (1/GPa) = 0.02696769
#
# Stress axis : x y z
#
# Youngs Moduli (GPa) = 39.15592 144.07670 77.18970
#
# Poissons Ratio (x) = -0.14734 0.63568
# Poissons Ratio (y) = -0.04004 0.15599
# Poissons Ratio (z) = 0.32246 0.29117
#
# Static dielectric constant tensor:
#      x y z
#    x 4.974740 0.000000 -0.018320 
#    y 0.000000 4.821560 0.000000 
#    z -0.018320 0.000000 4.910600 
# 
# 
# High freq. dielectric constant tensor:
#      x y z
#    x 2.050280 0.000000 -0.004340 
#    y 0.000000 2.005650 0.000000 
#    z -0.004340 0.000000 2.021750 
# 
# From -- ./inp_files/12356.got.cif
#   From: 2010.06.25/outbox.cif.g09.slc.cpg/sg12_7_cif.got.tgz:12356.got - 2010.06.28 00:19:55.
