data_PCOD8112850
_publ_section_title
;
Structure prediction by ZEFSAII (Michael W. Deem and Ramdas Pophale) SiO2 
 PCOD8112850
Probable space group: C 2/M
;
_chemical_formula_sum "Si O2"
_cell_formula_units_Z 56
_cell_length_a 15.279319
_cell_length_b 8.568572
_cell_length_c 21.589538
_cell_angle_alpha 90.000000
_cell_angle_beta 99.680891
_cell_angle_gamma 90.000000
_cell_volume 2786.293207
_symmetry_space_group_name_H-M "C 2/M"
_symmetry_group_IT_number 12
_symmetry_cell_setting 'monoclinic'
loop_
_space_group_symop_operation_xyz
x,y,z
-x,y,-z
-x,-y,-z
x,-y,z
1/2+x,1/2+y,z
1/2-x,1/2+y,-z
1/2-x,1/2-y,-z
1/2+x,1/2-y,z
loop_
_atom_site_type_symbol
_atom_site_label
_atom_site_fract_x
_atom_site_fract_y
_atom_site_fract_z
Si Si1 0.666017 0.817537 0.151796
Si Si2 0.372692 0.178920 0.377514
Si Si3 0.488619 0.814666 0.067851
Si Si4 0.804963 0.818941 0.712916
Si Si5 0.652773 0.682478 0.496409
Si Si6 0.706639 0.816148 0.933185
Si Si7 0.932992 0.678653 0.630611
O O1 0.569705 0.752108 0.119465
O O2 0.678327 0.784714 0.225207
O O3 0.743064 0.734828 0.122406
O O4 0.672770 0.000000 0.139354
O O5 0.289315 0.232470 0.326619
O O6 0.380865 0.288582 0.438233
O O7 0.461316 0.197507 0.346850
O O8 0.360162 0.000000 0.398012
O O9 0.394990 0.755524 0.084372
O O10 0.490571 0.000000 0.066393
O O11 0.500000 0.747278 0.000000
O O12 0.882473 0.788019 0.672874
O O13 0.805125 0.000000 0.731356
O O14 0.652135 0.500000 0.481263
O O15 0.750000 0.750000 0.500000
O O16 0.587941 0.770575 0.441758
O O17 0.708667 0.000000 0.939299
O O18 0.750000 0.750000 0.000000
O O19 0.903134 0.500000 0.637315
#
# Coordination Sequence:
#
# PCOD8112850 Si02
#       7
#     8   8   8   8   8   8   8
#     4  11  23  41  63  88 121 160 204 249 299 361
#     4  10  23  42  64  89 124 165 206 252 310 371
#     4   9  18  36  61  87 118 158 194 233 295 365
#     4  11  24  43  63  87 123 165 206 252 304 363
#     4  12  23  37  62  94 126 161 204 257 313 363
#     4  11  21  37  62  91 121 154 196 243 298 360
#     4  11  23  41  65  92 122 162 208 254 307 368
#
# _framework density 20.098388
#
# number of rings (size 3 to 8) (size 9 to 14) (size 15 to 20)
#    0.000    1.286    2.857    3.429    0.000    4.571 
#    0.000    9.286    0.000    0.000    0.000    0.000 
#    0.000    0.000    0.000    0.000    0.000    0.000 
#
# Total GULP energy -347327.006401 kJ/mol
# GULP energy per Si atom -12404.535943 kJ/mol
# Density = 2.005264 g / cm^3
# Si number density = 20.098388 Si / 1000 Ang^3
#
#
#
# Elastic Constant Matrix: (Units=GPa)
#
#
# Indices 1 2 3 4 5 6 
#
# 1 164.8980 27.8501 61.4644 0.0000 -5.5954 0.0000
# 2 27.8501 51.9597 10.3123 0.0000 -2.4057 0.0000
# 3 61.4644 10.3123 111.8195 0.0000 10.5634 0.0000
# 4 0.0000 0.0000 0.0000 35.8788 0.0000 -3.2896
# 5 -5.5954 -2.4057 10.5634 0.0000 12.7346 0.0000
# 6 0.0000 0.0000 0.0000 -3.2896 0.0000 28.0237
#
#
#
# Elastic Compliance Matrix: (Units=1/GPa)
#
#
# Indices 1 2 3 4 5 6 
#
# 1 0.008858 -0.003345 -0.005282 0.000000 0.007641 0.000000
# 2 -0.003345 0.021249 -0.000392 0.000000 0.002869 0.000000
# 3 -0.005282 -0.000392 0.013138 0.000000 -0.013293 0.000000
# 4 0.000000 0.000000 0.000000 0.028175 0.000000 0.003307
# 5 0.007641 0.002869 -0.013293 0.000000 0.093453 0.000000
# 6 0.000000 0.000000 0.000000 0.003307 0.000000 0.036072
#
#
# Mechanical properties :
#
#
# Convention : Reuss Voigt Hill
#
# Bulk Modulus (GPa) = 39.67223 58.65896 49.16560
# Shear Modulus (GPa) = 21.98899 30.59745 26.29322
#
# Velocity S-wave (km/s) = 3.31126 3.90601 3.62086
# Velocity P-wave (km/s) = 5.86524 7.04214 6.48047
#
# Compressibility (1/GPa) = 0.02520655
#
# Stress axis : x y z
#
# Youngs Moduli (GPa) = 112.89813 47.06001 76.11301
#
# Poissons Ratio (x) = 0.15744 0.40204
# Poissons Ratio (y) = 0.37770 0.02982
# Poissons Ratio (z) = 0.59634 0.01844
#
# Static dielectric constant tensor:
#      x y z
#    x 3.986290 0.000000 0.050170 
#    y 0.000000 3.592140 0.000000 
#    z 0.050170 0.000000 3.616420 
# 
# 
# High freq. dielectric constant tensor:
#      x y z
#    x 1.803450 0.000000 0.000420 
#    y 0.000000 1.777440 0.000000 
#    z 0.000420 0.000000 1.777480 
# 
# From -- ./inp_files/308960.got.cif
#   From: 2010.06.25/outbox.cif.g09.slc.cpg/sg12_155_cif.got.tgz:308960.got - 2010.06.28 00:19:55.
