data_PCOD8112577
_publ_section_title
;
Structure prediction by ZEFSAII (Michael W. Deem and Ramdas Pophale) SiO2 
 PCOD8112577
Probable space group: C 2/M
;
_chemical_formula_sum "Si O2"
_cell_formula_units_Z 56
_cell_length_a 16.840814
_cell_length_b 22.195519
_cell_length_c 8.650597
_cell_angle_alpha 90.000000
_cell_angle_beta 59.755085
_cell_angle_gamma 90.000000
_cell_volume 2793.366949
_symmetry_space_group_name_H-M "C 2/M"
_symmetry_group_IT_number 12
_symmetry_cell_setting 'monoclinic'
loop_
_space_group_symop_operation_xyz
x,y,z
-x,y,-z
-x,-y,-z
x,-y,z
1/2+x,1/2+y,z
1/2-x,1/2+y,-z
1/2-x,1/2-y,-z
1/2+x,1/2-y,z
loop_
_atom_site_type_symbol
_atom_site_label
_atom_site_fract_x
_atom_site_fract_y
_atom_site_fract_z
Si Si1 0.067275 0.874278 0.606920
Si Si2 0.379112 0.204237 0.265218
Si Si3 0.588078 0.808566 0.126504
Si Si4 0.759866 0.378536 0.891124
Si Si5 0.111966 0.818584 0.234689
Si Si6 0.969801 0.000000 0.272449
Si Si7 0.278797 0.327617 0.384418
Si Si8 0.342276 0.500000 0.096874
O O1 0.099609 0.837118 0.425201
O O2 0.039502 0.943227 0.603564
O O3 0.147659 0.879936 0.654083
O O4 0.979405 0.839892 0.767886
O O5 0.477919 0.188213 0.241387
O O6 0.339729 0.268303 0.360032
O O7 0.305824 0.159450 0.415763
O O8 0.378916 0.200074 0.081556
O O9 0.634432 0.870152 0.150178
O O10 0.623981 0.752711 0.195695
O O11 0.752628 0.330522 0.759969
O O12 0.727981 0.444117 0.865230
O O13 0.698916 0.355224 0.091452
O O14 0.889816 0.000000 0.218768
O O15 0.073240 0.000000 0.104472
#
# Coordination Sequence:
#
# PCOD8112577 Si02
#       8
#     8   8   8   8   8   4   8   4
#     4  11  23  37  60  89 136 165 210 251 316 379
#     4  10  23  39  62  89 128 168 206 257 325 387
#     4  11  23  41  62  92 131 167 209 259 325 376
#     4  12  24  39  65  89 129 164 217 267 310 376
#     4  11  23  36  57  96 130 168 204 255 320 385
#     4  11  22  42  63  89 133 177 211 261 316 387
#     4  11  22  37  60  93 124 163 212 257 319 382
#     4  11  24  41  64  94 123 173 225 261 317 373
#
# _framework density 20.04749
#
# number of rings (size 3 to 8) (size 9 to 14) (size 15 to 20)
#    0.000    1.000    5.714    1.286    4.000    2.857 
#    0.000    0.000    0.000    4.286    0.000    0.000 
#    0.000    0.000    0.000    0.000    0.000    0.000 
#
# Total GULP energy -346875.560268 kJ/mol
# GULP energy per Si atom -12388.412867 kJ/mol
# Density = 2.000186 g / cm^3
# Si number density = 20.047490 Si / 1000 Ang^3
#
#
#
# Elastic Constant Matrix: (Units=GPa)
#
#
# Indices 1 2 3 4 5 6 
#
# 1 136.8349 47.2541 48.2068 0.0000 -16.9417 0.0000
# 2 47.2541 81.3973 16.8657 0.0000 -6.8872 0.0000
# 3 48.2068 16.8657 72.7271 0.0000 -8.9489 0.0000
# 4 0.0000 0.0000 0.0000 13.7654 0.0000 -3.9071
# 5 -16.9417 -6.8872 -8.9489 0.0000 29.7362 0.0000
# 6 0.0000 0.0000 0.0000 -3.9071 0.0000 29.6565
#
#
#
# Elastic Compliance Matrix: (Units=1/GPa)
#
#
# Indices 1 2 3 4 5 6 
#
# 1 0.011713 -0.005228 -0.006106 0.000000 0.003625 0.000000
# 2 -0.005228 0.015375 -0.000029 0.000000 0.000573 0.000000
# 3 -0.006106 -0.000029 0.018043 0.000000 0.001945 0.000000
# 4 0.000000 0.000000 0.000000 0.075468 0.000000 0.009943
# 5 0.003625 0.000573 0.001945 0.000000 0.036412 0.000000
# 6 0.000000 0.000000 0.000000 0.009943 0.000000 0.035029
#
#
# Mechanical properties :
#
#
# Convention : Reuss Voigt Hill
#
# Bulk Modulus (GPa) = 44.63265 57.29026 50.96145
# Shear Modulus (GPa) = 22.49850 26.54046 24.51948
#
# Velocity S-wave (km/s) = 3.35365 3.64246 3.50104
# Velocity P-wave (km/s) = 6.10801 6.80657 6.46673
#
# Compressibility (1/GPa) = 0.02240512
#
# Stress axis : x y z
#
# Youngs Moduli (GPa) = 85.37202 65.03959 55.42236
#
# Poissons Ratio (x) = 0.34004 0.33839
# Poissons Ratio (y) = 0.44635 0.00163
# Poissons Ratio (z) = 0.52125 0.00192
#
# Static dielectric constant tensor:
#      x y z
#    x 3.907710 0.000000 -0.240430 
#    y 0.000000 3.469160 0.000000 
#    z -0.240430 0.000000 3.599380 
# 
# 
# High freq. dielectric constant tensor:
#      x y z
#    x 1.795370 0.000000 -0.001230 
#    y 0.000000 1.751100 0.000000 
#    z -0.001230 0.000000 1.785400 
# 
# From -- ./inp_files/65803.got.cif
#   From: 2010.06.25/outbox.cif.g09.slc.cpg/sg12_33_cif.got.tgz:65803.got - 2010.06.28 00:19:55.
