data_PCOD8112337
_publ_section_title
;
Structure prediction by ZEFSAII (Michael W. Deem and Ramdas Pophale) SiO2 
 PCOD8112337
Probable space group: C 2/M
;
_chemical_formula_sum "Si O2"
_cell_formula_units_Z 48
_cell_length_a 31.564368
_cell_length_b 16.599543
_cell_length_c 9.457451
_cell_angle_alpha 90.000000
_cell_angle_beta 28.182425
_cell_angle_gamma 90.000000
_cell_volume 2340.276983
_symmetry_space_group_name_H-M "C 2/M"
_symmetry_group_IT_number 12
_symmetry_cell_setting 'monoclinic'
loop_
_space_group_symop_operation_xyz
x,y,z
-x,y,-z
-x,-y,-z
x,-y,z
1/2+x,1/2+y,z
1/2-x,1/2+y,-z
1/2-x,1/2-y,-z
1/2+x,1/2-y,z
loop_
_atom_site_type_symbol
_atom_site_label
_atom_site_fract_x
_atom_site_fract_y
_atom_site_fract_z
Si Si1 0.596573 0.634417 0.650372
Si Si2 0.333573 0.209323 0.680349
Si Si3 0.235915 0.405676 0.644215
Si Si4 0.111301 0.000000 0.084447
Si Si5 0.605341 0.186279 0.204266
Si Si6 0.722515 0.659780 0.762956
Si Si7 0.940988 0.000000 0.444513
O O1 0.601266 0.725685 0.584130
O O2 0.676175 0.615279 0.523542
O O3 0.605307 0.577835 0.487565
O O4 0.500000 0.616254 0.000000
O O5 0.384222 0.165542 0.659432
O O6 0.299701 0.150119 0.655630
O O7 0.250000 0.250000 0.000000
O O8 0.237567 0.500000 0.592932
O O9 0.231691 0.340766 0.527353
O O10 0.145561 0.389915 0.001317
O O11 0.065713 0.000000 0.369365
O O12 0.049978 0.000000 0.121040
O O13 0.166989 0.920116 0.915257
O O14 0.500000 0.199863 0.500000
O O15 0.659433 0.264434 0.987052
#
# Coordination Sequence:
#
# PCOD8112337 Si02
#       7
#     8   8   8   4   8   8   4
#     4  12  24  37  64  97 141 173 220 272 341 412
#     4  10  22  43  64  94 126 177 227 269 334 392
#     4  12  25  44  66  97 138 180 222 275 341 404
#     4  11  24  36  66  98 139 178 219 276 346 401
#     4  11  26  44  71  96 130 177 231 286 328 396
#     4  11  23  43  66  98 135 172 225 275 341 402
#     4  11  23  38  56 100 142 174 210 269 344 421
#
# _framework density 20.510390999999998
#
# number of rings (size 3 to 8) (size 9 to 14) (size 15 to 20)
#    0.000    0.833    5.000    3.750    7.000    0.333 
#    0.000    0.000    0.000    1.000    0.000    0.000 
#    0.000    0.000    0.000    0.000    0.000    0.000 
#
# Total GULP energy -297363.287818 kJ/mol
# GULP energy per Si atom -12390.136992 kJ/mol
# Density = 2.046371 g / cm^3
# Si number density = 20.510391 Si / 1000 Ang^3
#
#
#
# Elastic Constant Matrix: (Units=GPa)
#
#
# Indices 1 2 3 4 5 6 
#
# 1 153.6834 3.8931 36.0741 0.0000 4.3608 0.0000
# 2 3.8931 40.2899 8.3019 0.0000 1.3271 0.0000
# 3 36.0741 8.3019 76.9593 0.0000 0.6536 0.0000
# 4 0.0000 0.0000 0.0000 38.4446 0.0000 8.0172
# 5 4.3608 1.3271 0.6536 0.0000 25.6753 0.0000
# 6 0.0000 0.0000 0.0000 8.0172 0.0000 37.4261
#
#
#
# Elastic Compliance Matrix: (Units=1/GPa)
#
#
# Indices 1 2 3 4 5 6 
#
# 1 0.007346 0.000037 -0.003437 0.000000 -0.001162 0.000000
# 2 0.000037 0.025424 -0.002749 0.000000 -0.001250 0.000000
# 3 -0.003437 -0.002749 0.014899 0.000000 0.000347 0.000000
# 4 0.000000 0.000000 0.000000 0.027228 0.000000 -0.005833
# 5 -0.001162 -0.001250 0.000347 0.000000 0.039201 0.000000
# 6 0.000000 0.000000 0.000000 -0.005833 0.000000 0.027969
#
#
# Mechanical properties :
#
#
# Convention : Reuss Voigt Hill
#
# Bulk Modulus (GPa) = 28.27328 40.83010 34.55169
# Shear Modulus (GPa) = 30.09225 35.15342 32.62284
#
# Velocity S-wave (km/s) = 3.83452 4.14446 3.99250
# Velocity P-wave (km/s) = 5.78096 6.54617 6.17543
#
# Compressibility (1/GPa) = 0.03536908
#
# Stress axis : x y z
#
# Youngs Moduli (GPa) = 136.13260 39.33256 67.11979
#
# Poissons Ratio (x) = -0.00145 0.23072
# Poissons Ratio (y) = -0.00500 0.18453
# Poissons Ratio (z) = 0.46794 0.10813
#
# Static dielectric constant tensor:
#      x y z
#    x 3.504310 0.000000 0.577070 
#    y 0.000000 3.470920 0.000000 
#    z 0.577070 0.000000 4.258760 
# 
# 
# High freq. dielectric constant tensor:
#      x y z
#    x 1.824490 0.000000 0.015170 
#    y 0.000000 1.783680 0.000000 
#    z 0.015170 0.000000 1.797700 
# 
# From -- ./inp_files/112761.got.cif
#   From: 2010.06.25/outbox.cif.g09.slc.cpg/sg12_57_cif.got.tgz:112761.got - 2010.06.28 00:19:55.
