data_PCOD8112149
_publ_section_title
;
Structure prediction by ZEFSAII (Michael W. Deem and Ramdas Pophale) SiO2 
 PCOD8112149
Probable space group: C 2/M
;
_chemical_formula_sum "Si O2"
_cell_formula_units_Z 64
_cell_length_a 24.797944
_cell_length_b 8.711775
_cell_length_c 28.477538
_cell_angle_alpha 90.000000
_cell_angle_beta 149.426878
_cell_angle_gamma 90.000000
_cell_volume 3129.199177
_symmetry_space_group_name_H-M "C 2/M"
_symmetry_group_IT_number 12
_symmetry_cell_setting 'monoclinic'
loop_
_space_group_symop_operation_xyz
x,y,z
-x,y,-z
-x,-y,-z
x,-y,z
1/2+x,1/2+y,z
1/2-x,1/2+y,-z
1/2-x,1/2-y,-z
1/2+x,1/2-y,z
loop_
_atom_site_type_symbol
_atom_site_label
_atom_site_fract_x
_atom_site_fract_y
_atom_site_fract_z
Si Si1 0.894304 0.323244 0.208671
Si Si2 0.302002 0.180317 0.710848
Si Si3 0.839897 0.820224 0.997891
Si Si4 0.106883 0.671970 0.052003
Si Si5 0.983529 0.676919 0.178017
Si Si6 0.420850 0.819376 0.482445
Si Si7 0.059565 0.179982 0.658151
Si Si8 0.762784 0.821782 0.774870
O O1 0.888497 0.500000 0.220604
O O2 0.781067 0.269523 0.102733
O O3 0.980230 0.299334 0.231684
O O4 0.932105 0.222750 0.280872
O O5 0.402771 0.234879 0.755614
O O6 0.199637 0.276261 0.619296
O O7 0.324963 0.222061 0.782488
O O8 0.281230 0.000000 0.689475
O O9 0.914665 0.735380 0.016027
O O10 0.853820 0.000000 0.003762
O O11 0.883598 0.767534 0.081048
O O12 0.153746 0.500000 0.085568
O O13 0.191255 0.784935 0.139322
O O14 0.000000 0.677095 0.000000
O O15 0.966838 0.500000 0.152040
O O16 0.500000 0.766931 0.500000
O O17 0.447998 0.730119 0.551486
O O18 0.428438 0.000000 0.496732
O O19 0.140712 0.273524 0.685906
O O20 0.079124 0.000000 0.667565
O O21 0.772990 0.000000 0.770227
#
# Coordination Sequence:
#
# PCOD8112149 Si02
#       8
#     8   8   8   8   8   8   8   8
#     4  10  22  42  64  89 124 165 208 256 305 356
#     4  11  23  40  63  92 124 161 205 252 304 364
#     4  11  22  36  60  90 121 161 210 257 302 358
#     4  11  23  37  54  81 120 163 205 250 304 363
#     4  10  23  42  63  88 124 166 207 254 306 359
#     4  11  23  40  65  94 125 160 198 247 307 368
#     4  12  24  39  64  94 122 156 200 251 302 362
#     4  12  23  37  58  86 122 161 200 246 305 365
#
# _framework density 20.452518000000001
#
# number of rings (size 3 to 8) (size 9 to 14) (size 15 to 20)
#    0.000    1.000    2.500    4.875    0.000    6.500 
#    0.000    0.625    0.000    0.000    0.000    0.000 
#    0.000    0.000    0.000    0.000    0.000    0.000 
#
# Total GULP energy -396905.684673 kJ/mol
# GULP energy per Si atom -12403.302646 kJ/mol
# Density = 2.040597 g / cm^3
# Si number density = 20.452518 Si / 1000 Ang^3
#
#
#
# Elastic Constant Matrix: (Units=GPa)
#
#
# Indices 1 2 3 4 5 6 
#
# 1 103.6402 32.3976 28.7970 0.0000 -0.6631 0.0000
# 2 32.3976 83.3277 29.7438 0.0004 -6.7278 0.0005
# 3 28.7970 29.7438 85.8983 -0.0002 -9.2426 0.0000
# 4 0.0000 0.0004 -0.0002 32.3436 0.0000 -7.6361
# 5 -0.6631 -6.7278 -9.2426 0.0000 25.3189 0.0000
# 6 0.0000 0.0005 0.0000 -7.6361 0.0000 28.2620
#
#
#
# Elastic Compliance Matrix: (Units=1/GPa)
#
#
# Indices 1 2 3 4 5 6 
#
# 1 0.011549 -0.003628 -0.002797 0.000000 -0.001682 0.000000
# 2 -0.003628 0.014929 -0.003681 0.000000 0.002528 0.000000
# 3 -0.002797 -0.003681 0.014303 0.000000 0.004170 0.000000
# 4 0.000000 0.000000 0.000000 0.033025 0.000000 0.008923
# 5 -0.001682 0.002528 0.004170 0.000000 0.041646 0.000000
# 6 0.000000 0.000000 0.000000 0.008923 0.000000 0.037794
#
#
# Mechanical properties :
#
#
# Convention : Reuss Voigt Hill
#
# Bulk Modulus (GPa) = 48.61541 50.52699 49.57120
# Shear Modulus (GPa) = 27.72941 29.31345 28.52143
#
# Velocity S-wave (km/s) = 3.68611 3.78993 3.73838
# Velocity P-wave (km/s) = 6.47596 6.62643 6.55162
#
# Compressibility (1/GPa) = 0.02056961
#
# Stress axis : x y z
#
# Youngs Moduli (GPa) = 86.58682 66.98157 69.91737
#
# Poissons Ratio (x) = 0.24300 0.19553
# Poissons Ratio (y) = 0.31412 0.25739
# Poissons Ratio (z) = 0.24215 0.24658
#
# Static dielectric constant tensor:
#      x y z
#    x 3.799580 0.000000 -0.122080 
#    y 0.000000 3.657680 0.000000 
#    z -0.122080 0.000000 3.874960 
# 
# 
# High freq. dielectric constant tensor:
#      x y z
#    x 1.797570 0.000000 -0.008580 
#    y 0.000000 1.803020 0.000000 
#    z -0.008580 0.000000 1.795660 
# 
# From -- ./inp_files/382544.got.cif
#   From: 2010.06.25/outbox.cif.g09.slc.cpg/sg12_192_cif.got.tgz:382544.got - 2010.06.28 00:19:55.
