data_PCOD8112951
_publ_section_title
;
Structure prediction by ZEFSAII (Michael W. Deem and Ramdas Pophale) SiO2 
 PCOD8112951
Probable space group: C 2/M
;
_chemical_formula_sum "Si O2"
_cell_formula_units_Z 40
_cell_length_a 11.056880
_cell_length_b 14.248221
_cell_length_c 13.367551
_cell_angle_alpha 90.000000
_cell_angle_beta 67.704995
_cell_angle_gamma 90.000000
_cell_volume 1948.501753
_symmetry_space_group_name_H-M "C 2/M"
_symmetry_group_IT_number 12
_symmetry_cell_setting 'monoclinic'
loop_
_space_group_symop_operation_xyz
x,y,z
-x,y,-z
-x,-y,-z
x,-y,z
1/2+x,1/2+y,z
1/2-x,1/2+y,-z
1/2-x,1/2-y,-z
1/2+x,1/2-y,z
loop_
_atom_site_type_symbol
_atom_site_label
_atom_site_fract_x
_atom_site_fract_y
_atom_site_fract_z
Si Si1 0.909731 0.604107 0.345292
Si Si2 0.872644 0.000000 0.781021
Si Si3 0.188432 0.810174 0.291699
Si Si4 0.000000 0.703752 0.500000
Si Si5 0.183669 0.634426 0.168406
Si Si6 0.360029 0.000000 0.994054
Si Si7 0.589123 0.500000 0.873672
O O1 0.847212 0.500000 0.359902
O O2 0.832040 0.672992 0.294313
O O3 0.904685 0.641057 0.460537
O O4 0.061386 0.596488 0.268711
O O5 0.878433 0.908063 0.712150
O O6 0.001289 0.000000 0.805252
O O7 0.740687 0.000000 0.885146
O O8 0.094958 0.765463 0.402985
O O9 0.197879 0.746126 0.187052
O O10 0.160883 0.597028 0.062052
O O11 0.320273 0.591501 0.161755
O O12 0.500000 0.000000 0.000000
O O13 0.500000 0.500000 0.000000
#
# Coordination Sequence:
#
# PCOD8112951 Si02
#       7
#     8   4   8   4   8   4   4
#     4  11  20  44  68  96 129 172 224 277 326 393
#     4  12  25  42  66  94 136 183 214 272 331 391
#     4  11  25  44  66  98 135 173 224 274 331 393
#     4  10  25  41  64 100 130 172 226 270 344 394
#     4  10  23  42  68  97 132 175 216 270 331 387
#     4  11  21  44  69 100 129 169 223 271 318 392
#     4  11  22  46  65  94 139 167 219 271 330 400
#
# _framework density 20.528593999999998
#
# number of rings (size 3 to 8) (size 9 to 14) (size 15 to 20)
#    0.000    1.200    5.000    2.100    5.600    1.200 
#    0.000    0.000    0.000    0.000    0.000    0.000 
#    0.000    0.000    0.000    0.000    0.000    0.000 
#
# Total GULP energy -247886.247631 kJ/mol
# GULP energy per Si atom -12394.312382 kJ/mol
# Density = 2.048187 g / cm^3
# Si number density = 20.528594 Si / 1000 Ang^3
#
#
#
# Elastic Constant Matrix: (Units=GPa)
#
#
# Indices 1 2 3 4 5 6 
#
# 1 139.6434 35.1800 21.2902 0.0000 12.7476 0.0000
# 2 35.1800 135.9865 25.9655 0.0000 7.0443 0.0000
# 3 21.2902 25.9655 64.9189 0.0000 -3.6734 0.0000
# 4 0.0000 0.0000 0.0000 -28.0661 0.0000 -61.9613
# 5 12.7476 7.0443 -3.6734 0.0000 42.3695 0.0000
# 6 0.0000 0.0000 0.0000 -61.9613 0.0000 -57.3944
#
#
#
# Elastic Compliance Matrix: (Units=1/GPa)
#
#
# Indices 1 2 3 4 5 6 
#
# 1 0.008100 -0.001559 -0.002167 0.000000 -0.002366 0.000000
# 2 -0.001559 0.008372 -0.002904 0.000000 -0.001175 0.000000
# 3 -0.002167 -0.002904 0.017425 0.000000 0.002645 0.000000
# 4 0.000000 0.000000 0.000000 0.025756 0.000000 -0.027806
# 5 -0.002366 -0.001175 0.002645 0.000000 0.024738 0.000000
# 6 0.000000 0.000000 0.000000 -0.027806 0.000000 0.012595
#
#
# Mechanical properties :
#
#
# Convention : Reuss Voigt Hill
#
# Bulk Modulus (GPa) = 48.45285 56.15779 52.30532
# Shear Modulus (GPa) = 42.68888 8.58934 25.63911
#
# Velocity S-wave (km/s) = 4.56508 2.04772 3.53788
# Velocity P-wave (km/s) = 7.17220 5.74510 6.49795
#
# Compressibility (1/GPa) = 0.02063862
#
# Stress axis : x y z
#
# Youngs Moduli (GPa) = 123.45355 119.44059 57.38717
#
# Poissons Ratio (x) = 0.18624 0.12434
# Poissons Ratio (y) = 0.19250 0.16664
# Poissons Ratio (z) = 0.26748 0.34683
#
# Static dielectric constant tensor:
#      x y z
#    x 3.813080 0.000000 0.131080 
#    y 0.000000 3.094680 0.000000 
#    z 0.131080 0.000000 3.726740 
# 
# 
# High freq. dielectric constant tensor:
#      x y z
#    x 1.816580 0.000000 0.006140 
#    y 0.000000 1.806530 0.000000 
#    z 0.006140 0.000000 1.795660 
# 
# From -- ./inp_files/129643.got.cif
#   From: 2010.06.25/outbox.cif.g09.slc.cpg/sg12_65_cif.got.tgz:129643.got - 2010.06.28 00:19:55.
