data_PCOD8112957
_publ_section_title
;
Structure prediction by ZEFSAII (Michael W. Deem and Ramdas Pophale) SiO2 
 PCOD8112957
Probable space group: C 2/M
;
_chemical_formula_sum "Si O2"
_cell_formula_units_Z 56
_cell_length_a 17.326675
_cell_length_b 25.806632
_cell_length_c 9.972904
_cell_angle_alpha 90.000000
_cell_angle_beta 142.674205
_cell_angle_gamma 90.000000
_cell_volume 2703.890178
_symmetry_space_group_name_H-M "C 2/M"
_symmetry_group_IT_number 12
_symmetry_cell_setting 'monoclinic'
loop_
_space_group_symop_operation_xyz
x,y,z
-x,y,-z
-x,-y,-z
x,-y,z
1/2+x,1/2+y,z
1/2-x,1/2+y,-z
1/2-x,1/2-y,-z
1/2+x,1/2-y,z
loop_
_atom_site_type_symbol
_atom_site_label
_atom_site_fract_x
_atom_site_fract_y
_atom_site_fract_z
Si Si1 0.057204 0.227834 0.213514
Si Si2 0.698232 0.500000 0.327096
Si Si3 0.119774 0.904719 0.754461
Si Si4 0.295241 0.812681 0.423356
Si Si5 0.547284 0.500000 0.844241
Si Si6 0.345089 0.941993 0.890243
Si Si7 0.697811 0.301236 0.002835
Si Si8 0.887975 0.413924 0.663998
O O1 0.152595 0.182991 0.289365
O O2 0.136321 0.263155 0.421689
O O3 0.946973 0.204009 0.150380
O O4 0.000000 0.256197 0.000000
O O5 0.600729 0.500000 0.317710
O O6 0.785918 0.449867 0.451483
O O7 0.630534 0.500000 0.091641
O O8 0.075860 0.946734 0.804165
O O9 0.194530 0.853847 0.911120
O O10 0.000000 0.886623 0.500000
O O11 0.217889 0.934311 0.796088
O O12 0.383860 0.860125 0.582197
O O13 0.290977 0.808552 0.257273
O O14 0.468508 0.934753 0.155085
O O15 0.346641 0.000000 0.832427
O O16 0.353096 0.904738 0.772304
O O17 0.750000 0.250000 0.000000
#
# Coordination Sequence:
#
# PCOD8112957 Si02
#       8
#     8   4   8   8   4   8   8   8
#     4   9  22  43  66  93 125 169 221 279 333 394
#     4  11  22  40  69  95 136 178 222 277 343 396
#     4  12  27  44  69  97 138 180 221 281 348 409
#     4  10  23  42  69  93 130 168 225 281 333 394
#     4  11  25  43  65 104 138 174 234 277 341 418
#     4  11  23  43  65 100 136 172 226 274 335 419
#     4  11  27  45  65  97 136 178 229 276 341 415
#     4  11  22  40  69  97 127 174 223 279 335 398
#
# _framework density 20.710899999999999
#
# number of rings (size 3 to 8) (size 9 to 14) (size 15 to 20)
#    0.000    1.286    2.143    2.357   10.000    1.143 
#    0.000    2.857    0.000    0.000    0.000    0.000 
#    0.000    0.000    0.000    0.000    0.000    0.000 
#
# Total GULP energy -347138.500046 kJ/mol
# GULP energy per Si atom -12397.803573 kJ/mol
# Density = 2.066376 g / cm^3
# Si number density = 20.710900 Si / 1000 Ang^3
#
#
#
# Elastic Constant Matrix: (Units=GPa)
#
#
# Indices 1 2 3 4 5 6 
#
# 1 70.4387 12.1174 26.9455 0.0000 -0.8374 0.0000
# 2 12.1174 99.9034 32.4438 0.0000 -15.2112 0.0000
# 3 26.9455 32.4438 121.4857 0.0000 -7.5087 0.0000
# 4 0.0000 0.0000 0.0000 42.2754 0.0000 -10.8624
# 5 -0.8374 -15.2112 -7.5087 0.0000 32.4020 0.0000
# 6 0.0000 0.0000 0.0000 -10.8624 0.0000 25.7186
#
#
#
# Elastic Compliance Matrix: (Units=1/GPa)
#
#
# Indices 1 2 3 4 5 6 
#
# 1 0.015596 -0.000957 -0.003253 0.000000 -0.000800 0.000000
# 2 -0.000957 0.011717 -0.002616 0.000000 0.004870 0.000000
# 3 -0.003253 -0.002616 0.009710 0.000000 0.000938 0.000000
# 4 0.000000 0.000000 0.000000 0.026534 0.000000 0.011207
# 5 -0.000800 0.004870 0.000938 0.000000 0.033345 0.000000
# 6 0.000000 0.000000 0.000000 0.011207 0.000000 0.043616
#
#
# Mechanical properties :
#
#
# Convention : Reuss Voigt Hill
#
# Bulk Modulus (GPa) = 42.78892 48.31570 45.55231
# Shear Modulus (GPa) = 30.87202 34.76729 32.81965
#
# Velocity S-wave (km/s) = 3.86504 4.10163 3.98509
# Velocity P-wave (km/s) = 6.37362 6.76834 6.57394
#
# Compressibility (1/GPa) = 0.02337054
#
# Stress axis : x y z
#
# Youngs Moduli (GPa) = 64.11777 85.34850 102.99186
#
# Poissons Ratio (x) = 0.08168 0.33504
# Poissons Ratio (y) = 0.06137 0.26941
# Poissons Ratio (z) = 0.20858 0.22325
#
# Static dielectric constant tensor:
#      x y z
#    x 3.806730 0.000000 0.102370 
#    y 0.000000 3.886120 0.000000 
#    z 0.102370 0.000000 4.012720 
# 
# 
# High freq. dielectric constant tensor:
#      x y z
#    x 1.809490 0.000000 0.006790 
#    y 0.000000 1.801030 0.000000 
#    z 0.006790 0.000000 1.834440 
# 
# From -- ./inp_files/80138.got.cif
#   From: 2010.06.25/outbox.cif.g09.slc.cpg/sg12_41_cif.got.tgz:80138.got - 2010.06.28 00:19:55.
