data_PCOD8112620
_publ_section_title
;
Structure prediction by ZEFSAII (Michael W. Deem and Ramdas Pophale) SiO2 
 PCOD8112620
Probable space group: C 2/M
;
_chemical_formula_sum "Si O2"
_cell_formula_units_Z 56
_cell_length_a 29.050484
_cell_length_b 17.805018
_cell_length_c 8.975278
_cell_angle_alpha 90.000000
_cell_angle_beta 144.520856
_cell_angle_gamma 90.000000
_cell_volume 2694.486561
_symmetry_space_group_name_H-M "C 2/M"
_symmetry_group_IT_number 12
_symmetry_cell_setting 'monoclinic'
loop_
_space_group_symop_operation_xyz
x,y,z
-x,y,-z
-x,-y,-z
x,-y,z
1/2+x,1/2+y,z
1/2-x,1/2+y,-z
1/2-x,1/2-y,-z
1/2+x,1/2-y,z
loop_
_atom_site_type_symbol
_atom_site_label
_atom_site_fract_x
_atom_site_fract_y
_atom_site_fract_z
Si Si1 0.752248 0.415047 0.194366
Si Si2 0.920326 0.134546 0.349380
Si Si3 0.932130 0.191170 0.700176
Si Si4 0.890723 0.417775 0.340464
Si Si5 0.502952 0.840637 0.834052
Si Si6 0.722617 0.760922 0.592921
Si Si7 0.115182 0.712051 0.895024
O O1 0.765819 0.500000 0.295619
O O2 0.803855 0.404833 0.181395
O O3 0.784782 0.350550 0.392764
O O4 0.659331 0.407359 0.911867
O O5 0.921445 0.133688 0.534386
O O6 0.926952 0.214447 0.281462
O O7 0.000000 0.091738 0.500000
O O8 0.852432 0.207201 0.581516
O O9 0.948547 0.268640 0.658904
O O10 0.000000 0.166947 0.000000
O O11 0.895127 0.500000 0.280133
O O12 0.910971 0.358732 0.268629
O O13 0.961662 0.411586 0.648246
O O14 0.588447 0.812984 0.993452
O O15 0.500000 0.858382 0.000000
O O16 0.750000 0.750000 0.500000
O O17 0.791441 0.725838 0.876575
#
# Coordination Sequence:
#
# PCOD8112620 Si02
#       7
#     8   8   8   8   8   8   8
#     4  10  23  40  61  89 122 157 204 251 297 360
#     4  11  20  37  63  89 116 156 200 255 302 351
#     4  11  21  35  59  94 124 151 194 258 298 354
#     4  11  22  39  59  83 121 165 201 245 300 354
#     4  11  21  35  55  85 124 156 194 250 294 353
#     4  11  22  38  65  90 118 160 199 246 307 355
#     4  11  21  37  59  90 119 150 208 252 291 359
#
# _framework density 20.783180999999999
#
# number of rings (size 3 to 8) (size 9 to 14) (size 15 to 20)
#    0.000    1.143    4.286    3.000    2.000    4.000 
#    0.000    0.714    0.000    1.714    0.000    0.000 
#    0.000    0.000    0.000    0.000    0.000    0.000 
#
# Total GULP energy -346876.803780 kJ/mol
# GULP energy per Si atom -12388.457278 kJ/mol
# Density = 2.073588 g / cm^3
# Si number density = 20.783181 Si / 1000 Ang^3
#
#
#
# Elastic Constant Matrix: (Units=GPa)
#
#
# Indices 1 2 3 4 5 6 
#
# 1 117.2627 22.6677 23.7374 0.0000 5.2193 0.0000
# 2 22.6677 68.4723 9.1557 0.0000 -8.5935 0.0000
# 3 23.7374 9.1557 71.4694 0.0000 7.2529 0.0000
# 4 0.0000 0.0000 0.0000 18.8521 0.0000 -0.3339
# 5 5.2193 -8.5935 7.2529 0.0000 45.4298 0.0000
# 6 0.0000 0.0000 0.0000 -0.3339 0.0000 13.1074
#
#
#
# Elastic Compliance Matrix: (Units=1/GPa)
#
#
# Indices 1 2 3 4 5 6 
#
# 1 0.009715 -0.003010 -0.002714 0.000000 -0.001252 0.000000
# 2 -0.003010 0.016254 -0.001453 0.000000 0.003652 0.000000
# 3 -0.002714 -0.001453 0.015324 0.000000 -0.002410 0.000000
# 4 0.000000 0.000000 0.000000 0.053068 0.000000 0.001352
# 5 -0.001252 0.003652 -0.002410 0.000000 0.023231 0.000000
# 6 0.000000 0.000000 0.000000 0.001352 0.000000 0.076327
#
#
# Mechanical properties :
#
#
# Convention : Reuss Voigt Hill
#
# Bulk Modulus (GPa) = 37.12220 40.92509 39.02365
# Shear Modulus (GPa) = 23.01457 28.92077 25.96767
#
# Velocity S-wave (km/s) = 3.33132 3.73439 3.53860
# Velocity P-wave (km/s) = 5.71816 6.19100 5.95927
#
# Compressibility (1/GPa) = 0.02693806
#
# Stress axis : x y z
#
# Youngs Moduli (GPa) = 102.93462 61.52440 65.25688
#
# Poissons Ratio (x) = 0.18521 0.17710
# Poissons Ratio (y) = 0.30987 0.09482
# Poissons Ratio (z) = 0.27936 0.08940
#
# Static dielectric constant tensor:
#      x y z
#    x 3.989740 0.000000 0.407890 
#    y 0.000000 3.679670 0.000000 
#    z 0.407890 0.000000 4.097760 
# 
# 
# High freq. dielectric constant tensor:
#      x y z
#    x 1.828390 0.000000 0.017180 
#    y 0.000000 1.778350 0.000000 
#    z 0.017180 0.000000 1.817350 
# 
# From -- ./inp_files/105925.got.cif
#   From: 2010.06.25/outbox.cif.g09.slc.cpg/sg12_53_cif.got.tgz:105925.got - 2010.06.28 00:19:55.
