data_PCOD8112329
_publ_section_title
;
Structure prediction by ZEFSAII (Michael W. Deem and Ramdas Pophale) SiO2 
 PCOD8112329
Probable space group: C 2/M
;
_chemical_formula_sum "Si O2"
_cell_formula_units_Z 48
_cell_length_a 14.900480
_cell_length_b 28.034023
_cell_length_c 11.431138
_cell_angle_alpha 90.000000
_cell_angle_beta 151.196916
_cell_angle_gamma 90.000000
_cell_volume 2300.608426
_symmetry_space_group_name_H-M "C 2/M"
_symmetry_group_IT_number 12
_symmetry_cell_setting 'monoclinic'
loop_
_space_group_symop_operation_xyz
x,y,z
-x,y,-z
-x,-y,-z
x,-y,z
1/2+x,1/2+y,z
1/2-x,1/2+y,-z
1/2-x,1/2-y,-z
1/2+x,1/2-y,z
loop_
_atom_site_type_symbol
_atom_site_label
_atom_site_fract_x
_atom_site_fract_y
_atom_site_fract_z
Si Si1 0.280993 0.197521 0.490021
Si Si2 0.121849 0.308517 0.027209
Si Si3 0.971390 0.868246 0.105288
Si Si4 0.288884 0.911672 0.804437
Si Si5 0.448333 0.445076 0.262841
Si Si6 0.712248 0.789034 0.760745
O O1 0.250000 0.250000 0.500000
O O2 0.205799 0.203816 0.273659
O O3 0.149918 0.153690 0.380315
O O4 0.492730 0.182943 0.764436
O O5 0.234448 0.355948 0.188401
O O6 0.259504 0.264423 0.156493
O O7 0.000000 0.293549 0.000000
O O8 0.911803 0.917038 0.100486
O O9 0.810489 0.829293 0.951000
O O10 0.000000 0.879723 0.000000
O O11 0.230151 0.940394 0.854325
O O12 0.140223 0.925378 0.536529
O O13 0.500000 0.923027 0.000000
O O14 0.474860 0.500000 0.260733
O O15 0.500000 0.801126 0.500000
#
# Coordination Sequence:
#
# PCOD8112329 Si02
#       6
#     8   8   8   8   8   8
#     4  11  20  37  60  83 125 168 206 245 303 370
#     4  11  20  35  58  89 123 167 200 241 310 384
#     4  10  22  43  62  88 128 169 212 265 306 373
#     4  10  23  40  67  99 131 158 205 267 332 386
#     4  11  25  44  68  94 122 166 220 271 324 378
#     4  11  24  34  54  91 127 165 203 248 306 374
#
# _framework density 20.864045999999998
#
# number of rings (size 3 to 8) (size 9 to 14) (size 15 to 20)
#    0.000    1.333    3.333    3.500    4.667    2.333 
#    0.000    0.000    0.000    0.500    0.000    0.000 
#    0.000    0.000    0.000    0.000    0.000    0.000 
#
# Total GULP energy -297327.990832 kJ/mol
# GULP energy per Si atom -12388.666285 kJ/mol
# Density = 2.081656 g / cm^3
# Si number density = 20.864046 Si / 1000 Ang^3
#
#
#
# Elastic Constant Matrix: (Units=GPa)
#
#
# Indices 1 2 3 4 5 6 
#
# 1 57.0307 41.2522 34.8039 0.0000 2.8495 0.0000
# 2 41.2522 178.3632 62.8966 0.0000 -4.9152 0.0000
# 3 34.8039 62.8966 112.4297 -0.0001 5.1144 -0.0001
# 4 0.0000 0.0000 -0.0001 33.4613 0.0000 -2.2015
# 5 2.8495 -4.9152 5.1144 0.0000 30.7566 0.0000
# 6 0.0000 0.0000 -0.0001 -2.2015 0.0000 26.6181
#
#
#
# Elastic Compliance Matrix: (Units=1/GPa)
#
#
# Indices 1 2 3 4 5 6 
#
# 1 0.023395 -0.003663 -0.005107 0.000000 -0.001904 0.000000
# 2 -0.003663 0.007656 -0.003245 0.000000 0.002102 0.000000
# 3 -0.005107 -0.003245 0.012386 0.000000 -0.002105 0.000000
# 4 0.000000 0.000000 0.000000 0.030049 0.000000 0.002485
# 5 -0.001904 0.002102 -0.002105 0.000000 0.033376 0.000000
# 6 0.000000 0.000000 0.000000 0.002485 0.000000 0.037774
#
#
# Mechanical properties :
#
#
# Convention : Reuss Voigt Hill
#
# Bulk Modulus (GPa) = 51.52182 69.52543 60.52363
# Shear Modulus (GPa) = 28.54968 32.09194 30.32081
#
# Velocity S-wave (km/s) = 3.70316 3.92617 3.81630
# Velocity P-wave (km/s) = 6.55989 7.34497 6.96350
#
# Compressibility (1/GPa) = 0.01940925
#
# Stress axis : x y z
#
# Youngs Moduli (GPa) = 42.74372 130.62091 80.73476
#
# Poissons Ratio (x) = 0.47841 0.41229
# Poissons Ratio (y) = 0.15655 0.26196
# Poissons Ratio (z) = 0.21828 0.42383
#
# Static dielectric constant tensor:
#      x y z
#    x 3.190700 0.000000 0.091280 
#    y 0.000000 3.894670 0.000000 
#    z 0.091280 0.000000 3.815090 
# 
# 
# High freq. dielectric constant tensor:
#      x y z
#    x 1.808220 0.000000 -0.004240 
#    y 0.000000 1.806610 0.000000 
#    z -0.004240 0.000000 1.822250 
# 
# From -- ./inp_files/149848.got.cif
#   From: 2010.06.25/outbox.cif.g09.slc.cpg/sg12_75_cif.got.tgz:149848.got - 2010.06.28 00:19:55.
