data_PCOD8112040
_publ_section_title
;
Structure prediction by ZEFSAII (Michael W. Deem and Ramdas Pophale) SiO2 
 PCOD8112040
Probable space group: C 2/M
;
_chemical_formula_sum "Si O2"
_cell_formula_units_Z 44
_cell_length_a 13.392487
_cell_length_b 18.053508
_cell_length_c 11.403944
_cell_angle_alpha 90.000000
_cell_angle_beta 49.718920
_cell_angle_gamma 90.000000
_cell_volume 2103.464590
_symmetry_space_group_name_H-M "C 2/M"
_symmetry_group_IT_number 12
_symmetry_cell_setting 'monoclinic'
loop_
_space_group_symop_operation_xyz
x,y,z
-x,y,-z
-x,-y,-z
x,-y,z
1/2+x,1/2+y,z
1/2-x,1/2+y,-z
1/2-x,1/2-y,-z
1/2+x,1/2-y,z
loop_
_atom_site_type_symbol
_atom_site_label
_atom_site_fract_x
_atom_site_fract_y
_atom_site_fract_z
Si Si1 0.629151 0.169384 0.329067
Si Si2 0.478950 0.413152 0.654753
Si Si3 0.518064 0.082765 0.735548
Si Si4 0.734904 0.335342 0.548185
Si Si5 0.000000 0.637242 0.000000
Si Si6 0.233412 0.199284 0.128949
O O1 0.500000 0.156483 0.500000
O O2 0.612110 0.119207 0.225003
O O3 0.749381 0.149724 0.323607
O O4 0.641052 0.254585 0.285860
O O5 0.500000 0.403402 0.500000
O O6 0.480219 0.500000 0.687062
O O7 0.595272 0.368826 0.627138
O O8 0.344547 0.379198 0.813726
O O9 0.652554 0.123506 0.607997
O O10 0.501606 0.083755 0.887186
O O11 0.528434 0.000000 0.680417
O O12 0.750000 0.250000 0.500000
O O13 0.125775 0.690057 0.917372
O O14 0.250000 0.250000 0.000000
#
# Coordination Sequence:
#
# PCOD8112040 Si02
#       6
#     8   8   8   8   4   8
#     4  10  22  41  66  95 129 171 222 275 319 389
#     4  11  24  43  67  98 133 171 222 280 335 390
#     4  11  23  40  63  98 132 171 216 269 329 392
#     4  11  22  39  70  96 131 169 224 273 327 388
#     4  12  25  42  66  92 131 174 218 268 329 402
#     4  12  25  43  65  95 132 171 221 268 331 394
#
# _framework density 20.917869
#
# number of rings (size 3 to 8) (size 9 to 14) (size 15 to 20)
#    0.000    0.909    1.818    6.818    2.545    6.909 
#    0.000    0.000    0.000    1.091    0.000    0.000 
#    0.000    0.000    0.000    0.000    0.000    0.000 
#
# Total GULP energy -272631.374551 kJ/mol
# GULP energy per Si atom -12392.335207 kJ/mol
# Density = 2.087026 g / cm^3
# Si number density = 20.917869 Si / 1000 Ang^3
#
#
#
# Elastic Constant Matrix: (Units=GPa)
#
#
# Indices 1 2 3 4 5 6 
#
# 1 174.8158 67.4986 42.6174 -0.0001 -1.5608 0.0000
# 2 67.4986 158.6331 40.6470 0.0000 -15.4022 0.0000
# 3 42.6174 40.6470 61.9567 -0.0001 4.4036 0.0000
# 4 -0.0001 0.0000 -0.0001 31.5297 0.0001 -4.0634
# 5 -1.5608 -15.4022 4.4036 0.0001 31.3392 0.0000
# 6 0.0000 0.0000 0.0000 -4.0634 0.0000 21.2606
#
#
#
# Elastic Compliance Matrix: (Units=1/GPa)
#
#
# Indices 1 2 3 4 5 6 
#
# 1 0.007484 -0.002275 -0.003639 0.000000 -0.000234 0.000000
# 2 -0.002275 0.008943 -0.004654 0.000000 0.004936 0.000000
# 3 -0.003639 -0.004654 0.022092 0.000000 -0.005573 0.000000
# 4 0.000000 0.000000 0.000000 0.032517 0.000000 0.006215
# 5 -0.000234 0.004936 -0.005573 0.000000 0.035106 0.000000
# 6 0.000000 0.000000 0.000000 0.006215 0.000000 0.048223
#
#
# Mechanical properties :
#
#
# Convention : Reuss Voigt Hill
#
# Bulk Modulus (GPa) = 57.51946 77.43684 67.47815
# Shear Modulus (GPa) = 27.57945 33.13541 30.35743
#
# Velocity S-wave (km/s) = 3.63500 3.98436 3.81368
# Velocity P-wave (km/s) = 6.72125 7.63326 7.19172
#
# Compressibility (1/GPa) = 0.01738542
#
# Stress axis : x y z
#
# Youngs Moduli (GPa) = 133.62668 111.81502 45.26468
#
# Poissons Ratio (x) = 0.25434 0.16471
# Poissons Ratio (y) = 0.30395 0.21064
# Poissons Ratio (z) = 0.48623 0.52034
#
# Static dielectric constant tensor:
#      x y z
#    x 4.544390 0.000000 0.314200 
#    y 0.000000 3.816560 0.000000 
#    z 0.314200 0.000000 3.834720 
# 
# 
# High freq. dielectric constant tensor:
#      x y z
#    x 1.835720 0.000000 0.007390 
#    y 0.000000 1.821720 0.000000 
#    z 0.007390 0.000000 1.812720 
# 
# From -- ./inp_files/131568.got.cif
#   From: 2010.06.25/outbox.cif.g09.slc.cpg/sg12_66_cif.got.tgz:131568.got - 2010.06.28 00:19:55.
