data_PCOD8112674
_publ_section_title
;
Structure prediction by ZEFSAII (Michael W. Deem and Ramdas Pophale) SiO2 
 PCOD8112674
Probable space group: C 2/M
;
_chemical_formula_sum "Si O2"
_cell_formula_units_Z 44
_cell_length_a 14.803323
_cell_length_b 10.069160
_cell_length_c 15.441471
_cell_angle_alpha 90.000000
_cell_angle_beta 65.563230
_cell_angle_gamma 90.000000
_cell_volume 2095.473316
_symmetry_space_group_name_H-M "C 2/M"
_symmetry_group_IT_number 12
_symmetry_cell_setting 'monoclinic'
loop_
_space_group_symop_operation_xyz
x,y,z
-x,y,-z
-x,-y,-z
x,-y,z
1/2+x,1/2+y,z
1/2-x,1/2+y,-z
1/2-x,1/2-y,-z
1/2+x,1/2-y,z
loop_
_atom_site_type_symbol
_atom_site_label
_atom_site_fract_x
_atom_site_fract_y
_atom_site_fract_z
Si Si1 0.370265 0.755325 0.814763
Si Si2 0.408447 0.780728 0.301145
Si Si3 0.704824 0.349649 0.334269
Si Si4 0.732450 0.500000 0.875549
Si Si5 0.894282 0.000000 0.912242
Si Si6 0.606980 0.849321 0.495116
Si Si7 0.391525 0.500000 0.240917
O O1 0.482161 0.812564 0.779024
O O2 0.353968 0.709926 0.722920
O O3 0.349414 0.630340 0.884428
O O4 0.296106 0.870435 0.871834
O O5 0.324521 0.847881 0.272989
O O6 0.395452 0.838454 0.401300
O O7 0.391174 0.622922 0.306254
O O8 0.668212 0.500000 0.365114
O O9 0.683935 0.256973 0.425887
O O10 0.702238 0.500000 0.786530
O O11 0.636529 0.500000 0.975220
O O12 0.012629 0.000000 0.859204
O O13 0.500000 0.813817 0.500000
O O14 0.638272 0.000000 0.457073
#
# Coordination Sequence:
#
# PCOD8112674 Si02
#       7
#     8   8   8   4   4   8   4
#     4  11  24  42  68  96 129 170 213 262 327 386
#     4  11  24  42  63  95 133 169 217 267 315 374
#     4  12  25  42  65  93 133 172 216 266 315 376
#     4  12  23  42  73  95 127 170 214 268 327 393
#     4  10  23  46  64 100 132 164 211 273 326 385
#     4  11  25  41  66  95 131 173 222 267 309 377
#     4  10  23  40  70  97 127 170 221 263 318 396
#
# _framework density 20.997644000000001
#
# number of rings (size 3 to 8) (size 9 to 14) (size 15 to 20)
#    0.000    0.909    4.545    1.909    6.364    0.364 
#    0.000    0.000    0.000    1.091    0.000    0.000 
#    0.000    0.000    0.000    0.000    0.000    0.000 
#
# Total GULP energy -272872.234291 kJ/mol
# GULP energy per Si atom -12403.283377 kJ/mol
# Density = 2.094985 g / cm^3
# Si number density = 20.997644 Si / 1000 Ang^3
#
#
#
# Elastic Constant Matrix: (Units=GPa)
#
#
# Indices 1 2 3 4 5 6 
#
# 1 95.4183 24.6209 5.0083 0.0000 -6.5928 0.0000
# 2 24.6209 134.7973 27.5863 0.0000 -14.0123 0.0000
# 3 5.0083 27.5863 57.4789 0.0000 -4.1651 0.0000
# 4 0.0000 0.0000 0.0000 24.3724 0.0000 3.0206
# 5 -6.5928 -14.0123 -4.1651 0.0000 25.3874 0.0000
# 6 0.0000 0.0000 0.0000 3.0206 0.0000 18.7462
#
#
#
# Elastic Compliance Matrix: (Units=1/GPa)
#
#
# Indices 1 2 3 4 5 6 
#
# 1 0.011082 -0.001841 0.000053 0.000000 0.001871 0.000000
# 2 -0.001841 0.008941 -0.003854 0.000000 0.003825 0.000000
# 3 0.000053 -0.003854 0.019319 0.000000 0.001056 0.000000
# 4 0.000000 0.000000 0.000000 0.041866 0.000000 -0.006746
# 5 0.001871 0.003825 0.001056 0.000000 0.042160 0.000000
# 6 0.000000 0.000000 0.000000 -0.006746 0.000000 0.054431
#
#
# Mechanical properties :
#
#
# Convention : Reuss Voigt Hill
#
# Bulk Modulus (GPa) = 35.63795 44.68062 40.15928
# Shear Modulus (GPa) = 25.19738 29.06647 27.13193
#
# Velocity S-wave (km/s) = 3.46787 3.72462 3.59854
# Velocity P-wave (km/s) = 5.74840 6.31048 6.03598
#
# Compressibility (1/GPa) = 0.02805998
#
# Stress axis : x y z
#
# Youngs Moduli (GPa) = 90.24026 111.84518 51.76232
#
# Poissons Ratio (x) = 0.20585 -0.00276
# Poissons Ratio (y) = 0.16609 0.19947
# Poissons Ratio (z) = -0.00481 0.43100
#
# Static dielectric constant tensor:
#      x y z
#    x 4.047580 0.000000 -0.078590 
#    y 0.000000 3.918960 0.000000 
#    z -0.078590 0.000000 3.450720 
# 
# 
# High freq. dielectric constant tensor:
#      x y z
#    x 1.838690 0.000000 -0.003470 
#    y 0.000000 1.835580 0.000000 
#    z -0.003470 0.000000 1.795680 
# 
# From -- ./inp_files/267083.got.cif
#   From: 2010.06.25/outbox.cif.g09.slc.cpg/sg12_134_cif.got.tgz:267083.got - 2010.06.28 00:19:55.
