data_PCOD8112162
_publ_section_title
;
Structure prediction by ZEFSAII (Michael W. Deem and Ramdas Pophale) SiO2 
 PCOD8112162
Probable space group: C 2/M
;
_chemical_formula_sum "Si O2"
_cell_formula_units_Z 56
_cell_length_a 15.916382
_cell_length_b 8.947555
_cell_length_c 22.643206
_cell_angle_alpha 90.000000
_cell_angle_beta 122.945398
_cell_angle_gamma 90.000000
_cell_volume 2706.116843
_symmetry_space_group_name_H-M "C 2/M"
_symmetry_group_IT_number 12
_symmetry_cell_setting 'monoclinic'
loop_
_space_group_symop_operation_xyz
x,y,z
-x,y,-z
-x,-y,-z
x,-y,z
1/2+x,1/2+y,z
1/2-x,1/2+y,-z
1/2-x,1/2-y,-z
1/2+x,1/2-y,z
loop_
_atom_site_type_symbol
_atom_site_label
_atom_site_fract_x
_atom_site_fract_y
_atom_site_fract_z
Si Si1 0.738417 0.170908 0.933485
Si Si2 0.806405 0.823414 0.575479
Si Si3 0.594493 0.824432 0.074919
Si Si4 0.961918 0.176538 0.335832
Si Si5 0.953827 0.327900 0.215565
Si Si6 0.610314 0.671279 0.202054
Si Si7 0.697782 0.171446 0.653081
O O1 0.808008 0.243341 0.911210
O O2 0.625976 0.186833 0.867502
O O3 0.769558 0.000000 0.953726
O O4 0.750000 0.250000 0.000000
O O5 0.750000 0.750000 0.500000
O O6 0.752827 0.768187 0.615227
O O7 0.922300 0.773533 0.616387
O O8 0.799053 0.000000 0.567607
O O9 0.577992 0.775347 0.135606
O O10 0.611362 0.000000 0.078113
O O11 0.500000 0.774753 0.000000
O O12 0.912042 0.260008 0.260654
O O13 0.901169 0.231009 0.370683
O O14 0.949811 0.000000 0.324311
O O15 0.984378 0.500000 0.236621
O O16 0.049285 0.227901 0.235405
O O17 0.582464 0.500000 0.177281
O O18 0.726861 0.686136 0.262608
O O19 0.664932 0.000000 0.631801
#
# Coordination Sequence:
#
# PCOD8112162 Si02
#       7
#     8   8   8   8   8   8   8
#     4  11  24  40  58  84 117 157 204 257 315 376
#     4  10  23  44  66  93 132 169 209 260 316 376
#     4  11  24  40  57  83 119 157 203 258 313 375
#     4  11  23  41  65  96 129 165 213 263 311 374
#     4  11  23  39  61  90 123 160 206 257 314 375
#     4  11  22  39  63  89 122 161 206 259 313 371
#     4  10  22  42  64  92 130 167 207 260 316 374
#
# _framework density 20.693857999999999
#
# number of rings (size 3 to 8) (size 9 to 14) (size 15 to 20)
#    0.000    1.286    1.429    3.857    0.000   13.714 
#    0.000    2.857    0.000    0.000    0.000    0.000 
#    0.000    0.000    0.000    0.000    0.000    0.000 
#
# Total GULP energy -347331.186481 kJ/mol
# GULP energy per Si atom -12404.685231 kJ/mol
# Density = 2.064676 g / cm^3
# Si number density = 20.693858 Si / 1000 Ang^3
#
#
#
# Elastic Constant Matrix: (Units=GPa)
#
#
# Indices 1 2 3 4 5 6 
#
# 1 141.0939 47.0587 37.9626 0.0000 -3.2326 0.0000
# 2 47.0587 85.0199 42.5511 0.0000 5.3154 0.0000
# 3 37.9626 42.5511 104.1291 0.0000 -9.4368 0.0000
# 4 0.0000 0.0000 0.0000 36.0635 0.0000 -4.3106
# 5 -3.2326 5.3154 -9.4368 0.0000 24.0512 0.0000
# 6 0.0000 0.0000 0.0000 -4.3106 0.0000 41.1227
#
#
#
# Elastic Compliance Matrix: (Units=1/GPa)
#
#
# Indices 1 2 3 4 5 6 
#
# 1 0.008946 -0.004398 -0.001314 0.000000 0.001659 0.000000
# 2 -0.004398 0.017785 -0.006298 0.000000 -0.006993 0.000000
# 3 -0.001314 -0.006298 0.013237 0.000000 0.006409 0.000000
# 4 0.000000 0.000000 0.000000 0.028081 0.000000 0.002944
# 5 0.001659 -0.006993 0.006409 0.000000 0.045861 0.000000
# 6 0.000000 0.000000 0.000000 0.002944 0.000000 0.024626
#
#
# Mechanical properties :
#
#
# Convention : Reuss Voigt Hill
#
# Bulk Modulus (GPa) = 62.70206 65.04308 63.87257
# Shear Modulus (GPa) = 29.78463 33.75885 31.77174
#
# Velocity S-wave (km/s) = 3.79792 4.04337 3.92257
# Velocity P-wave (km/s) = 7.04258 7.30054 7.17272
#
# Compressibility (1/GPa) = 0.01594844
#
# Stress axis : x y z
#
# Youngs Moduli (GPa) = 111.78515 56.22602 75.54534
#
# Poissons Ratio (x) = 0.24725 0.09927
# Poissons Ratio (y) = 0.49158 0.47581
# Poissons Ratio (z) = 0.14689 0.35413
#
# Static dielectric constant tensor:
#      x y z
#    x 3.809770 0.000000 -0.019680 
#    y 0.000000 3.701710 0.000000 
#    z -0.019680 0.000000 3.645850 
# 
# 
# High freq. dielectric constant tensor:
#      x y z
#    x 1.822010 0.000000 -0.004400 
#    y 0.000000 1.813970 0.000000 
#    z -0.004400 0.000000 1.807310 
# 
# From -- ./inp_files/338992.got.cif
#   From: 2010.06.25/outbox.cif.g09.slc.cpg/sg12_170_cif.got.tgz:338992.got - 2010.06.28 00:19:55.
