data_PCOD8112535
_publ_section_title
;
Structure prediction by ZEFSAII (Michael W. Deem and Ramdas Pophale) SiO2 
 PCOD8112535
Probable space group: C 2/M
;
_chemical_formula_sum "Si O2"
_cell_formula_units_Z 36
_cell_length_a 15.707800
_cell_length_b 9.585983
_cell_length_c 11.442001
_cell_angle_alpha 90.000000
_cell_angle_beta 109.425519
_cell_angle_gamma 90.000000
_cell_volume 1624.800550
_symmetry_space_group_name_H-M "C 2/M"
_symmetry_group_IT_number 12
_symmetry_cell_setting 'monoclinic'
loop_
_space_group_symop_operation_xyz
x,y,z
-x,y,-z
-x,-y,-z
x,-y,z
1/2+x,1/2+y,z
1/2-x,1/2+y,-z
1/2-x,1/2-y,-z
1/2+x,1/2-y,z
loop_
_atom_site_type_symbol
_atom_site_label
_atom_site_fract_x
_atom_site_fract_y
_atom_site_fract_z
Si Si1 0.710244 0.208620 0.802834
Si Si2 0.059268 0.500000 0.299926
Si Si3 0.706552 0.000000 0.186859
Si Si4 0.041567 0.000000 0.827474
Si Si5 0.361007 0.500000 0.890574
Si Si6 0.117868 0.500000 0.920982
Si Si7 0.969634 0.754357 0.363664
O O1 0.726658 0.373171 0.809974
O O2 0.804922 0.134095 0.819614
O O3 0.670736 0.140469 0.903977
O O4 0.629913 0.182133 0.670631
O O5 0.161390 0.500000 0.294917
O O6 0.985548 0.500000 0.163062
O O7 0.045581 0.638449 0.370905
O O8 0.620742 0.000000 0.061638
O O9 0.040706 0.863742 0.746342
O O10 0.952513 0.000000 0.863366
O O11 0.123122 0.000000 0.960724
O O12 0.000000 0.824922 0.500000
#
# Coordination Sequence:
#
# PCOD8112535 Si02
#       7
#     8   4   4   4   4   4   8
#     4  10  23  38  62  92 124 166 206 256 309 367
#     4  10  23  39  61  89 122 162 205 259 316 354
#     4  12  21  35  60  96 124 154 206 260 312 368
#     4  11  24  41  67  92 131 167 203 258 315 378
#     4  10  24  43  61  98 134 160 198 259 335 369
#     4   9  21  36  57  84 128 165 197 246 314 382
#     4  11  24  45  65  89 123 173 218 251 303 376
#
# _framework density 22.156565000000001
#
# number of rings (size 3 to 8) (size 9 to 14) (size 15 to 20)
#    0.000    1.556    0.000    4.333   12.444    0.000 
#    0.000    6.667    0.000    0.000    0.000    0.000 
#    0.000    0.000    0.000    0.000    0.000    0.000 
#
# Total GULP energy -223037.281396 kJ/mol
# GULP energy per Si atom -12390.960078 kJ/mol
# Density = 2.210614 g / cm^3
# Si number density = 22.156565 Si / 1000 Ang^3
#
#
#
# Elastic Constant Matrix: (Units=GPa)
#
#
# Indices 1 2 3 4 5 6 
#
# 1 92.9170 36.3375 44.6185 0.0000 1.0611 0.0000
# 2 36.3375 156.2399 33.4550 0.0000 -6.7348 0.0000
# 3 44.6185 33.4550 130.9786 0.0000 8.8999 0.0000
# 4 0.0000 0.0000 0.0000 28.2931 0.0000 7.2250
# 5 1.0611 -6.7348 8.8999 0.0000 19.3642 0.0000
# 6 0.0000 0.0000 0.0000 7.2250 0.0000 -9.8252
#
#
#
# Elastic Compliance Matrix: (Units=1/GPa)
#
#
# Indices 1 2 3 4 5 6 
#
# 1 0.013606 -0.002277 -0.004076 0.000000 0.000336 0.000000
# 2 -0.002277 0.007356 -0.001327 0.000000 0.003293 0.000000
# 3 -0.004076 -0.001327 0.009681 0.000000 -0.004688 0.000000
# 4 0.000000 0.000000 0.000000 0.029757 0.000000 0.021881
# 5 0.000336 0.003293 -0.004688 0.000000 0.054923 0.000000
# 6 0.000000 0.000000 0.000000 0.021881 0.000000 -0.085688
#
#
# Mechanical properties :
#
#
# Convention : Reuss Voigt Hill
#
# Bulk Modulus (GPa) = 65.43392 67.66194 66.54793
# Shear Modulus (GPa) = 99.82127 25.28139 62.55133
#
# Velocity S-wave (km/s) = 6.71941 3.38158 5.31910
# Velocity P-wave (km/s) = 9.47614 6.77135 8.23555
#
# Compressibility (1/GPa) = 0.01528259
#
# Stress axis : x y z
#
# Youngs Moduli (GPa) = 73.49470 135.94127 103.29637
#
# Poissons Ratio (x) = 0.30957 0.42106
# Poissons Ratio (y) = 0.16736 0.13707
# Poissons Ratio (z) = 0.29958 0.18039
#
# Static dielectric constant tensor:
#      x y z
#    x 3.932120 0.000000 0.242410 
#    y 0.000000 4.091260 0.000000 
#    z 0.242410 0.000000 3.791860 
# 
# 
# High freq. dielectric constant tensor:
#      x y z
#    x 1.875800 0.000000 0.019380 
#    y 0.000000 1.879510 0.000000 
#    z 0.019380 0.000000 1.848050 
# 
# From -- ./inp_files/151605.got.cif
#   From: 2010.06.25/outbox.cif.g09.slc.cpg/sg12_76_cif.got.tgz:151605.got - 2010.06.28 00:19:55.
