data_PCOD8112665
_publ_section_title
;
Structure prediction by ZEFSAII (Michael W. Deem and Ramdas Pophale) SiO2 
 PCOD8112665
Probable space group: C 2/M
;
_chemical_formula_sum "Si O2"
_cell_formula_units_Z 44
_cell_length_a 17.848775
_cell_length_b 15.624267
_cell_length_c 23.313154
_cell_angle_alpha 90.000000
_cell_angle_beta 18.975894
_cell_angle_gamma 90.000000
_cell_volume 2114.073078
_symmetry_space_group_name_H-M "C 2/M"
_symmetry_group_IT_number 12
_symmetry_cell_setting 'monoclinic'
loop_
_space_group_symop_operation_xyz
x,y,z
-x,y,-z
-x,-y,-z
x,-y,z
1/2+x,1/2+y,z
1/2-x,1/2+y,-z
1/2-x,1/2-y,-z
1/2+x,1/2-y,z
loop_
_atom_site_type_symbol
_atom_site_label
_atom_site_fract_x
_atom_site_fract_y
_atom_site_fract_z
Si Si1 0.409333 0.000000 0.501434
Si Si2 0.944848 0.322199 0.419541
Si Si3 0.484397 0.231827 0.755239
Si Si4 0.630196 0.345955 0.346820
Si Si5 0.218990 0.000000 0.204572
Si Si6 0.116563 0.000000 0.147346
Si Si7 0.920640 0.658587 0.914833
O O1 0.500000 0.000000 0.500000
O O2 0.506828 0.085529 0.400530
O O3 0.134431 0.000000 0.698847
O O4 0.667738 0.309316 0.617513
O O5 0.034846 0.321529 0.289281
O O6 0.062933 0.247353 0.371517
O O7 0.562886 0.173897 0.752589
O O8 0.229050 0.261220 0.955909
O O9 0.500000 0.367970 0.500000
O O10 0.599192 0.417666 0.320742
O O11 0.901513 0.354094 0.162739
O O12 0.112688 0.000000 0.218571
O O13 0.500000 0.000000 0.000000
O O14 0.253054 0.919519 0.024689
#
# Coordination Sequence:
#
# PCOD8112665 Si02
#       7
#     4   8   8   8   4   4   8
#     4  12  28  45  70  99 140 192 240 279 333 410
#     4  11  24  44  67  98 136 180 234 284 337 405
#     4  10  23  40  66  98 127 180 229 278 346 399
#     4  12  24  41  66 102 143 173 221 286 356 414
#     4  12  25  40  68 108 139 172 221 280 360 421
#     4  12  24  43  67 100 138 177 227 282 343 418
#     4  11  22  41  68  97 135 175 221 284 350 409
#
# _framework density 20.812904
#
# number of rings (size 3 to 8) (size 9 to 14) (size 15 to 20)
#    0.000    0.727    5.455    1.909    2.545    0.727 
#    0.000    0.000    0.000    3.273    0.000    0.000 
#    0.000    0.000    0.000    0.000    0.000    0.000 
#
# Total GULP energy -272779.293612 kJ/mol
# GULP energy per Si atom -12399.058801 kJ/mol
# Density = 2.076553 g / cm^3
# Si number density = 20.812904 Si / 1000 Ang^3
#
#
#
# Elastic Constant Matrix: (Units=GPa)
#
#
# Indices 1 2 3 4 5 6 
#
# 1 143.0226 54.0739 49.1019 0.0301 17.5325 -0.0152
# 2 54.0739 146.8897 32.2636 -0.0342 16.8090 0.0101
# 3 49.1019 32.2636 78.2344 0.0904 8.3961 0.0345
# 4 0.0301 -0.0342 0.0904 21.6564 0.0383 4.7686
# 5 17.5325 16.8090 8.3961 0.0383 49.0583 -0.0168
# 6 -0.0152 0.0101 0.0345 4.7686 -0.0168 34.4537
#
#
#
# Elastic Compliance Matrix: (Units=1/GPa)
#
#
# Indices 1 2 3 4 5 6 
#
# 1 0.009808 -0.002298 -0.005009 0.000005 -0.001861 0.000008
# 2 -0.002298 0.008237 -0.001773 0.000028 -0.001698 -0.000006
# 3 -0.005009 -0.001773 0.016706 -0.000063 -0.000462 -0.000010
# 4 0.000005 0.000028 -0.000063 0.047628 -0.000040 -0.006592
# 5 -0.001861 -0.001698 -0.000462 -0.000040 0.021710 0.000016
# 6 0.000008 -0.000006 -0.000010 -0.006592 0.000016 0.029937
#
#
# Mechanical properties :
#
#
# Convention : Reuss Voigt Hill
#
# Bulk Modulus (GPa) = 60.26360 71.00282 65.63321
# Shear Modulus (GPa) = 31.70262 36.54749 34.12505
#
# Velocity S-wave (km/s) = 3.90708 4.19501 4.05360
# Velocity P-wave (km/s) = 7.02648 7.59296 7.31521
#
# Compressibility (1/GPa) = 0.01659377
#
# Stress axis : x y z
#
# Youngs Moduli (GPa) = 101.95499 121.39862 59.85727
#
# Poissons Ratio (x) = 0.27892 0.29981
# Poissons Ratio (y) = 0.23425 0.10612
# Poissons Ratio (z) = 0.51066 0.21522
#
# Static dielectric constant tensor:
#      x y z
#    x 4.002120 -0.000310 0.061990 
#    y -0.000310 3.760940 0.001000 
#    z 0.061990 0.001000 3.767490 
# 
# 
# High freq. dielectric constant tensor:
#      x y z
#    x 1.828850 -0.000010 0.005230 
#    y -0.000010 1.809660 0.000080 
#    z 0.005230 0.000080 1.816260 
# 
# From -- ./inp_files/343941.got.cif
#   From: 2010.06.25/outbox.cif.g09.slc.cpg/sg12_172_cif.got.tgz:343941.got - 2010.06.28 00:19:55.
