data_PCOD8112811
_publ_section_title
;
Structure prediction by ZEFSAII (Michael W. Deem and Ramdas Pophale) SiO2 
 PCOD8112811
Probable space group: C 2/M
;
_chemical_formula_sum "Si O2"
_cell_formula_units_Z 44
_cell_length_a 21.657910
_cell_length_b 16.722819
_cell_length_c 16.530118
_cell_angle_alpha 90.000000
_cell_angle_beta 21.687444
_cell_angle_gamma 90.000000
_cell_volume 2212.417711
_symmetry_space_group_name_H-M "C 2/M"
_symmetry_group_IT_number 12
_symmetry_cell_setting 'monoclinic'
loop_
_space_group_symop_operation_xyz
x,y,z
-x,y,-z
-x,-y,-z
x,-y,z
1/2+x,1/2+y,z
1/2-x,1/2+y,-z
1/2-x,1/2-y,-z
1/2+x,1/2-y,z
loop_
_atom_site_type_symbol
_atom_site_label
_atom_site_fract_x
_atom_site_fract_y
_atom_site_fract_z
Si Si1 0.044178 0.592039 0.777337
Si Si2 0.000000 0.670643 0.000000
Si Si3 0.748840 0.591889 0.850886
Si Si4 0.230281 0.300713 0.325274
Si Si5 0.391777 0.183900 0.820037
Si Si6 0.127852 0.909902 0.715087
O O1 0.993889 0.500000 0.826016
O O2 0.031265 0.614100 0.886149
O O3 0.235495 0.608688 0.519463
O O4 0.922563 0.646313 0.870766
O O5 0.165232 0.721301 0.820551
O O6 0.788912 0.500000 0.779174
O O7 0.817032 0.650294 0.697856
O O8 0.837562 0.612375 0.826912
O O9 0.552121 0.606528 0.104304
O O10 0.350367 0.354855 0.233788
O O11 0.061093 0.276983 0.578350
O O12 0.250000 0.250000 0.000000
O O13 0.145093 0.000000 0.726294
#
# Coordination Sequence:
#
# PCOD8112811 Si02
#       6
#     8   4   8   8   8   8
#     4  10  23  42  62  85 114 159 205 244 286 343
#     4  12  23  38  67  86 114 152 206 256 289 334
#     4  11  21  37  61  91 124 157 191 237 298 361
#     4  11  22  37  60  91 123 151 196 241 296 348
#     4  11  25  39  61  87 125 159 192 238 296 359
#     4   9  19  36  61  88 120 155 197 242 288 349
#
# _framework density 19.887744999999999
#
# number of rings (size 3 to 8) (size 9 to 14) (size 15 to 20)
#    0.000    1.455    1.818    3.000    2.545    5.818 
#    0.000    0.000    0.000    1.091    0.000    0.000 
#    0.000    0.000    0.000    0.000    0.000    0.000 
#
# Total GULP energy -272891.823253 kJ/mol
# GULP energy per Si atom -12404.173784 kJ/mol
# Density = 1.984248 g / cm^3
# Si number density = 19.887745 Si / 1000 Ang^3
#
#
#
# Elastic Constant Matrix: (Units=GPa)
#
#
# Indices 1 2 3 4 5 6 
#
# 1 95.5481 21.2793 25.3842 0.0068 15.7871 -0.0015
# 2 21.2793 74.8829 40.2141 0.0112 8.0830 -0.0019
# 3 25.3842 40.2141 92.4012 0.0147 2.8506 -0.0035
# 4 0.0068 0.0112 0.0147 27.8658 -0.0026 2.6781
# 5 15.7871 8.0830 2.8506 -0.0026 32.6689 0.0030
# 6 -0.0015 -0.0019 -0.0035 2.6781 0.0030 36.4378
#
#
#
# Elastic Compliance Matrix: (Units=1/GPa)
#
#
# Indices 1 2 3 4 5 6 
#
# 1 0.012381 -0.001567 -0.002554 -0.000002 -0.005373 0.000001
# 2 -0.001567 0.018073 -0.007340 -0.000003 -0.003074 0.000001
# 3 -0.002554 -0.007340 0.014664 -0.000004 0.001771 0.000001
# 4 -0.000002 -0.000003 -0.000004 0.036142 0.000005 -0.002656
# 5 -0.005373 -0.003074 0.001771 0.000005 0.033812 -0.000003
# 6 0.000001 0.000001 0.000001 -0.002656 -0.000003 0.027639
#
#
# Mechanical properties :
#
#
# Convention : Reuss Voigt Hill
#
# Bulk Modulus (GPa) = 45.05269 48.50972 46.78121
# Shear Modulus (GPa) = 28.89635 31.12480 30.01058
#
# Velocity S-wave (km/s) = 3.81592 3.96033 3.88880
# Velocity P-wave (km/s) = 6.48982 6.73476 6.61342
#
# Compressibility (1/GPa) = 0.02219623
#
# Stress axis : x y z
#
# Youngs Moduli (GPa) = 80.76887 55.33031 68.19482
#
# Poissons Ratio (x) = 0.08671 0.17414
# Poissons Ratio (y) = 0.12657 0.50058
# Poissons Ratio (z) = 0.20625 0.40615
#
# Static dielectric constant tensor:
#      x y z
#    x 3.588100 -0.000010 -0.067260 
#    y -0.000010 3.510790 0.000010 
#    z -0.067260 0.000010 3.759470 
# 
# 
# High freq. dielectric constant tensor:
#      x y z
#    x 1.774830 0.000000 -0.002700 
#    y 0.000000 1.769310 0.000000 
#    z -0.002700 0.000000 1.786740 
# 
# From -- ./inp_files/61075.got.cif
#   From: 2010.06.25/outbox.cif.g09.slc.cpg/sg12_31_cif.got.tgz:61075.got - 2010.06.28 00:19:55.
