data_PCOD8112656
_publ_section_title
;
Structure prediction by ZEFSAII (Michael W. Deem and Ramdas Pophale) SiO2 
 PCOD8112656
Probable space group: C 2/M
;
_chemical_formula_sum "Si O2"
_cell_formula_units_Z 32
_cell_length_a 18.378656
_cell_length_b 16.879209
_cell_length_c 4.743747
_cell_angle_alpha 90.000000
_cell_angle_beta 120.897636
_cell_angle_gamma 90.000000
_cell_volume 1262.752456
_symmetry_space_group_name_H-M "C 2/M"
_symmetry_group_IT_number 12
_symmetry_cell_setting 'monoclinic'
loop_
_space_group_symop_operation_xyz
x,y,z
-x,y,-z
-x,-y,-z
x,-y,z
1/2+x,1/2+y,z
1/2-x,1/2+y,-z
1/2-x,1/2-y,-z
1/2+x,1/2-y,z
loop_
_atom_site_type_symbol
_atom_site_label
_atom_site_fract_x
_atom_site_fract_y
_atom_site_fract_z
Si Si1 0.831183 0.000000 0.450311
Si Si2 0.711909 0.000000 0.715414
Si Si3 0.590664 0.334952 0.535968
Si Si4 0.595826 0.913691 0.119276
Si Si5 0.160489 0.748768 0.171657
O O1 0.800006 0.000000 0.710452
O O2 0.889232 0.924815 0.503946
O O3 0.742593 0.000000 0.098730
O O4 0.653763 0.923179 0.519302
O O5 0.500000 0.327593 0.500000
O O6 0.591337 0.282370 0.255279
O O7 0.662023 0.303084 0.895992
O O8 0.634989 0.840475 0.024497
O O9 0.598254 0.000000 0.958649
O O10 0.500000 0.892281 0.000000
O O11 0.250000 0.750000 0.500000
#
# Coordination Sequence:
#
# PCOD8112656 Si02
#       5
#     4   4   8   8   8
#     4  12  23  44  65  94 132 178 224 270 329 394
#     4  10  23  40  65  94 124 174 216 266 325 390
#     4  12  26  43  68  97 135 176 225 280 332 399
#     4   9  20  42  67  96 134 172 215 271 335 401
#     4  12  25  45  69 102 132 177 224 278 340 396
#
# _framework density 25.341470000000001
#
# number of rings (size 3 to 8) (size 9 to 14) (size 15 to 20)
#    0.750    0.250    0.000    7.875    0.000    2.000 
#    0.000    8.750    0.000    0.000    0.000    0.000 
#    0.000    0.000    0.000    0.000    0.000    0.000 
#
# Total GULP energy -198341.889083 kJ/mol
# GULP energy per Si atom -12396.368068 kJ/mol
# Density = 2.528379 g / cm^3
# Si number density = 25.341470 Si / 1000 Ang^3
#
#
#
# Elastic Constant Matrix: (Units=GPa)
#
#
# Indices 1 2 3 4 5 6 
#
# 1 63.9174 38.0376 -8.0283 0.0000 0.8144 0.0000
# 2 38.0376 183.5331 18.8324 0.0000 1.2675 0.0000
# 3 -8.0283 18.8324 52.3155 0.0000 -11.6345 0.0000
# 4 0.0000 0.0000 0.0000 27.4313 0.0000 9.4055
# 5 0.8144 1.2675 -11.6345 0.0000 33.4676 0.0000
# 6 0.0000 0.0000 0.0000 9.4055 0.0000 23.5626
#
#
#
# Elastic Compliance Matrix: (Units=1/GPa)
#
#
# Indices 1 2 3 4 5 6 
#
# 1 0.018852 -0.004407 0.004785 0.000000 0.001371 0.000000
# 2 -0.004407 0.006719 -0.003390 0.000000 -0.001326 0.000000
# 3 0.004785 -0.003390 0.022838 0.000000 0.007951 0.000000
# 4 0.000000 0.000000 0.000000 0.042235 0.000000 -0.016859
# 5 0.001371 -0.001326 0.007951 0.000000 0.032661 0.000000
# 6 0.000000 0.000000 0.000000 -0.016859 0.000000 0.049170
#
#
# Mechanical properties :
#
#
# Convention : Reuss Voigt Hill
#
# Bulk Modulus (GPa) = 23.59462 44.16104 33.87783
# Shear Modulus (GPa) = 25.95695 33.62059 29.78877
#
# Velocity S-wave (km/s) = 3.20392 3.64634 3.43227
# Velocity P-wave (km/s) = 4.79768 5.93228 5.39489
#
# Compressibility (1/GPa) = 0.04238255
#
# Stress axis : x y z
#
# Youngs Moduli (GPa) = 53.04606 148.83060 43.78753
#
# Poissons Ratio (x) = 0.65596 -0.20950
# Poissons Ratio (y) = 0.23380 0.14843
# Poissons Ratio (z) = -0.25380 0.50452
#
# Static dielectric constant tensor:
#      x y z
#    x 4.497950 0.000000 -0.034040 
#    y 0.000000 4.683040 0.000000 
#    z -0.034040 0.000000 4.421540 
# 
# 
# High freq. dielectric constant tensor:
#      x y z
#    x 2.018940 0.000000 0.013940 
#    y 0.000000 2.019020 0.000000 
#    z 0.013940 0.000000 1.998620 
# 
# From -- ./inp_files/20318.got.cif
#   From: 2010.06.25/outbox.cif.g09.slc.cpg/sg12_11_cif.got.tgz:20318.got - 2010.06.28 00:19:55.
