data_PCOD8112217
_publ_section_title
;
Structure prediction by ZEFSAII (Michael W. Deem and Ramdas Pophale) SiO2 
 PCOD8112217
Probable space group: C 2/M
;
_chemical_formula_sum "Si O2"
_cell_formula_units_Z 40
_cell_length_a 30.671230
_cell_length_b 8.043464
_cell_length_c 10.615550
_cell_angle_alpha 90.000000
_cell_angle_beta 43.570779
_cell_angle_gamma 90.000000
_cell_volume 1805.068421
_symmetry_space_group_name_H-M "C 2/M"
_symmetry_group_IT_number 12
_symmetry_cell_setting 'monoclinic'
loop_
_space_group_symop_operation_xyz
x,y,z
-x,y,-z
-x,-y,-z
x,-y,z
1/2+x,1/2+y,z
1/2-x,1/2+y,-z
1/2-x,1/2-y,-z
1/2+x,1/2-y,z
loop_
_atom_site_type_symbol
_atom_site_label
_atom_site_fract_x
_atom_site_fract_y
_atom_site_fract_z
Si Si1 0.484918 0.000000 0.683574
Si Si2 0.685371 0.811829 0.079806
Si Si3 0.784789 0.311670 0.267388
Si Si4 0.850204 0.810892 0.365536
Si Si5 0.937555 0.177652 0.713059
Si Si6 0.941191 0.500000 0.219975
O O1 0.500000 0.000000 0.500000
O O2 0.443327 0.833606 0.797527
O O3 0.540831 0.000000 0.668691
O O4 0.686684 0.785511 0.928482
O O5 0.674865 0.000000 0.143615
O O6 0.750000 0.750000 0.000000
O O7 0.623342 0.707381 0.251898
O O8 0.793321 0.500000 0.298059
O O9 0.823732 0.192826 0.278436
O O10 0.709767 0.269506 0.419025
O O11 0.903069 0.670849 0.277363
O O12 0.876110 0.000000 0.336417
O O13 0.000000 0.170267 0.500000
O O14 0.930078 0.000000 0.799643
O O15 0.000000 0.500000 0.000000
#
# Coordination Sequence:
#
# PCOD8112217 Si02
#       6
#     4   8   8   8   8   4
#     4  10  24  46  68  94 128 192 224 267 336 405
#     4  11  23  39  64  99 138 170 221 284 335 401
#     4   9  20  40  67  95 131 172 216 280 342 392
#     4  10  22  43  69  96 129 175 222 272 337 407
#     4  10  22  42  66  93 132 180 224 274 340 406
#     4  12  28  44  68 102 144 174 227 289 331 398
#
# _framework density 22.159825999999999
#
# number of rings (size 3 to 8) (size 9 to 14) (size 15 to 20)
#    0.000    1.800    2.000    0.600    4.200    6.000 
#    0.000    6.000    0.000    0.000    0.000    0.000 
#    0.000    0.000    0.000    0.000    0.000    0.000 
#
# Total GULP energy -247766.290449 kJ/mol
# GULP energy per Si atom -12388.314522 kJ/mol
# Density = 2.210939 g / cm^3
# Si number density = 22.159826 Si / 1000 Ang^3
#
#
#
# Elastic Constant Matrix: (Units=GPa)
#
#
# Indices 1 2 3 4 5 6 
#
# 1 114.7345 68.3643 46.6012 0.0000 -31.3252 0.0000
# 2 68.3643 214.4090 38.8068 0.0000 -29.5505 0.0000
# 3 46.6012 38.8068 81.9782 0.0000 -28.6022 0.0000
# 4 0.0000 0.0000 0.0000 23.9524 0.0000 -12.6101
# 5 -31.3252 -29.5505 -28.6022 0.0000 39.8594 0.0000
# 6 0.0000 0.0000 0.0000 -12.6101 0.0000 38.0008
#
#
#
# Elastic Compliance Matrix: (Units=1/GPa)
#
#
# Indices 1 2 3 4 5 6 
#
# 1 0.013727 -0.002800 -0.004586 0.000000 0.005421 0.000000
# 2 -0.002800 0.005905 -0.000593 0.000000 0.001753 0.000000
# 3 -0.004586 -0.000593 0.018242 0.000000 0.009047 0.000000
# 4 0.000000 0.000000 0.000000 0.050587 0.000000 0.016787
# 5 0.005421 0.001753 0.009047 0.000000 0.037140 0.000000
# 6 0.000000 0.000000 0.000000 0.016787 0.000000 0.031886
#
#
# Mechanical properties :
#
#
# Convention : Reuss Voigt Hill
#
# Bulk Modulus (GPa) = 45.62529 79.85182 62.73856
# Shear Modulus (GPa) = 27.66249 37.51915 32.59082
#
# Velocity S-wave (km/s) = 3.53699 4.11921 3.83915
# Velocity P-wave (km/s) = 6.10854 7.66398 6.93004
#
# Compressibility (1/GPa) = 0.02191767
#
# Stress axis : x y z
#
# Youngs Moduli (GPa) = 72.85002 169.33563 54.81718
#
# Poissons Ratio (x) = 0.47406 0.25142
# Poissons Ratio (y) = 0.20394 0.03248
# Poissons Ratio (z) = 0.33412 0.10034
#
# Static dielectric constant tensor:
#      x y z
#    x 3.811140 0.000000 -0.213310 
#    y 0.000000 5.448920 0.000000 
#    z -0.213310 0.000000 3.972270 
# 
# 
# High freq. dielectric constant tensor:
#      x y z
#    x 1.851140 0.000000 -0.026500 
#    y 0.000000 1.895220 0.000000 
#    z -0.026500 0.000000 1.866180 
# 
# From -- ./inp_files/179686.got.cif
#   From: 2010.06.25/outbox.cif.g09.slc.cpg/sg12_90_cif.got.tgz:179686.got - 2010.06.28 00:19:55.
