data_PCOD8112713
_publ_section_title
;
Structure prediction by ZEFSAII (Michael W. Deem and Ramdas Pophale) SiO2 
 PCOD8112713
Probable space group: C 2/M
;
_chemical_formula_sum "Si O2"
_cell_formula_units_Z 64
_cell_length_a 28.338976
_cell_length_b 8.810059
_cell_length_c 14.433919
_cell_angle_alpha 90.000000
_cell_angle_beta 120.898515
_cell_angle_gamma 90.000000
_cell_volume 3092.246527
_symmetry_space_group_name_H-M "C 2/M"
_symmetry_group_IT_number 12
_symmetry_cell_setting 'monoclinic'
loop_
_space_group_symop_operation_xyz
x,y,z
-x,y,-z
-x,-y,-z
x,-y,z
1/2+x,1/2+y,z
1/2-x,1/2+y,-z
1/2-x,1/2-y,-z
1/2+x,1/2-y,z
loop_
_atom_site_type_symbol
_atom_site_label
_atom_site_fract_x
_atom_site_fract_y
_atom_site_fract_z
Si Si1 0.821228 0.322594 0.823229
Si Si2 0.768572 0.821910 0.115488
Si Si3 0.891152 0.830386 0.032070
Si Si4 0.622511 0.822426 0.797556
Si Si5 0.915792 0.818642 0.654979
Si Si6 0.003483 0.324067 0.612177
Si Si7 0.195105 0.320207 0.404474
Si Si8 0.987830 0.170381 0.890699
O O1 0.834141 0.500000 0.839558
O O2 0.771342 0.276537 0.840503
O O3 0.808785 0.269692 0.706545
O O4 0.874724 0.231378 0.913662
O O5 0.828537 0.760945 0.208190
O O6 0.771040 0.000000 0.103732
O O7 0.750000 0.750000 0.000000
O O8 0.866748 0.716530 0.083760
O O9 0.956337 0.832127 0.111353
O O10 0.867453 0.000000 0.022979
O O11 0.562993 0.761999 0.704983
O O12 0.627841 0.000000 0.785944
O O13 0.953591 0.767578 0.607787
O O14 0.855520 0.746512 0.586958
O O15 0.942239 0.754506 0.778166
O O16 0.912454 0.000000 0.651256
O O17 0.997152 0.500000 0.633199
O O18 0.000000 0.297935 0.500000
O O19 0.196257 0.500000 0.416843
O O20 0.250000 0.250000 0.500000
O O21 0.967834 0.000000 0.895437
O O22 0.000000 0.258778 0.000000
#
# Coordination Sequence:
#
# PCOD8112713 Si02
#       8
#     8   8   8   8   8   8   8   8
#     4  10  23  41  61  89 126 163 206 259 313 370
#     4  11  22  37  59  88 123 163 207 255 312 375
#     4  11  20  33  58  88 122 161 201 248 306 368
#     4  11  22  37  58  85 122 162 204 254 309 365
#     4  11  22  40  66  95 127 163 206 258 314 371
#     4  10  23  43  65  91 126 169 214 260 310 369
#     4  11  25  46  68  92 124 165 211 262 314 369
#     4   9  18  32  53  86 124 158 197 244 299 364
#
# _framework density 20.696928
#
# number of rings (size 3 to 8) (size 9 to 14) (size 15 to 20)
#    0.000    1.500    2.500    2.625    0.000    4.250 
#    0.000    2.500    0.000    3.000    0.000    0.000 
#    0.000    0.000    0.000    0.000    0.000    0.000 
#
# Total GULP energy -396797.223889 kJ/mol
# GULP energy per Si atom -12399.913247 kJ/mol
# Density = 2.064982 g / cm^3
# Si number density = 20.696928 Si / 1000 Ang^3
#
#
#
# Elastic Constant Matrix: (Units=GPa)
#
#
# Indices 1 2 3 4 5 6 
#
# 1 103.4782 37.9751 43.1515 0.0000 17.9255 0.0000
# 2 37.9751 70.3515 36.1900 0.0000 7.7537 0.0000
# 3 43.1515 36.1900 111.8667 0.0000 15.3463 0.0000
# 4 0.0000 0.0000 0.0000 27.7568 0.0000 3.3656
# 5 17.9255 7.7537 15.3463 0.0000 35.7358 0.0000
# 6 0.0000 0.0000 0.0000 3.3656 0.0000 31.7108
#
#
#
# Elastic Compliance Matrix: (Units=1/GPa)
#
#
# Indices 1 2 3 4 5 6 
#
# 1 0.013610 -0.005364 -0.002909 0.000000 -0.004414 0.000000
# 2 -0.005364 0.019233 -0.004197 0.000000 0.000320 0.000000
# 3 -0.002909 -0.004197 0.011789 0.000000 -0.002692 0.000000
# 4 0.000000 0.000000 0.000000 0.036497 0.000000 -0.003874
# 5 -0.004414 0.000320 -0.002692 0.000000 0.031284 0.000000
# 6 0.000000 0.000000 0.000000 -0.003874 0.000000 0.031946
#
#
# Mechanical properties :
#
#
# Convention : Reuss Voigt Hill
#
# Bulk Modulus (GPa) = 50.78162 57.81440 54.29801
# Shear Modulus (GPa) = 28.43124 30.26601 29.34862
#
# Velocity S-wave (km/s) = 3.71036 3.82821 3.76974
# Velocity P-wave (km/s) = 6.55323 6.89454 6.72605
#
# Compressibility (1/GPa) = 0.01969216
#
# Stress axis : x y z
#
# Youngs Moduli (GPa) = 73.47528 51.99306 84.82762
#
# Poissons Ratio (x) = 0.27887 0.24679
# Poissons Ratio (y) = 0.39409 0.35603
# Poissons Ratio (z) = 0.21376 0.21822
#
# Static dielectric constant tensor:
#      x y z
#    x 3.874770 0.000000 0.095300 
#    y 0.000000 3.603140 0.000000 
#    z 0.095300 0.000000 3.817730 
# 
# 
# High freq. dielectric constant tensor:
#      x y z
#    x 1.821720 0.000000 0.008100 
#    y 0.000000 1.797830 0.000000 
#    z 0.008100 0.000000 1.806970 
# 
# From -- ./inp_files/250114.got.cif
#   From: 2010.06.25/outbox.cif.g09.slc.cpg/sg12_126_cif.got.tgz:250114.got - 2010.06.28 00:19:55.
