data_PCOD8112569
_publ_section_title
;
Structure prediction by ZEFSAII (Michael W. Deem and Ramdas Pophale) SiO2 
 PCOD8112569
Probable space group: C 2/M
;
_chemical_formula_sum "Si O2"
_cell_formula_units_Z 64
_cell_length_a 20.273583
_cell_length_b 27.624867
_cell_length_c 10.086603
_cell_angle_alpha 90.000000
_cell_angle_beta 148.035543
_cell_angle_gamma 90.000000
_cell_volume 2990.569466
_symmetry_space_group_name_H-M "C 2/M"
_symmetry_group_IT_number 12
_symmetry_cell_setting 'monoclinic'
loop_
_space_group_symop_operation_xyz
x,y,z
-x,y,-z
-x,-y,-z
x,-y,z
1/2+x,1/2+y,z
1/2-x,1/2+y,-z
1/2-x,1/2-y,-z
1/2+x,1/2-y,z
loop_
_atom_site_type_symbol
_atom_site_label
_atom_site_fract_x
_atom_site_fract_y
_atom_site_fract_z
Si Si1 0.394559 0.292124 0.424527
Si Si2 0.117199 0.057327 0.370531
Si Si3 0.687244 0.189327 0.673714
Si Si4 0.357966 0.095218 0.272476
Si Si5 0.023826 0.321724 0.893523
Si Si6 0.550969 0.712296 0.944804
Si Si7 0.239774 0.384966 0.159825
Si Si8 0.162464 0.942979 0.148996
O O1 0.500000 0.282242 0.500000
O O2 0.311447 0.244097 0.271396
O O3 0.443854 0.299397 0.657204
O O4 0.323951 0.339974 0.260762
O O5 0.199000 0.083113 0.621821
O O6 0.172184 0.072276 0.320298
O O7 0.127727 0.000000 0.409296
O O8 0.972552 0.074384 0.137231
O O9 0.637864 0.153580 0.704166
O O10 0.606098 0.182750 0.403783
O O11 0.830498 0.177986 0.880936
O O12 0.500000 0.074976 0.500000
O O13 0.282012 0.076045 0.270834
O O14 0.282832 0.082172 0.009778
O O15 0.090547 0.269113 0.008922
O O16 0.106224 0.363750 0.971235
O O17 0.000000 0.339751 0.000000
O O18 0.500000 0.697092 0.000000
O O19 0.165884 0.000000 0.144115
#
# Coordination Sequence:
#
# PCOD8112569 Si02
#       8
#     8   8   8   8   8   8   8   8
#     4  11  25  39  60  88 128 174 221 268 312 377
#     4   9  22  46  76 102 127 163 206 268 337 391
#     4  11  23  42  62  83 134 181 223 260 320 382
#     4  12  26  41  63  96 134 181 220 261 324 388
#     4  10  23  39  59  88 127 172 215 274 325 373
#     4  10  23  39  61  88 117 167 228 277 320 364
#     4  12  25  40  62  98 133 165 220 270 321 387
#     4   9  22  48  75 100 129 163 210 264 329 399
#
# _framework density 21.400606
#
# number of rings (size 3 to 8) (size 9 to 14) (size 15 to 20)
#    0.000    1.500    2.500    1.875    8.750    3.250 
#    0.000    1.250    0.000    1.875    0.000    0.000 
#    0.000    0.000    0.000    0.000    0.000    0.000 
#
# Total GULP energy -396761.119862 kJ/mol
# GULP energy per Si atom -12398.784996 kJ/mol
# Density = 2.135190 g / cm^3
# Si number density = 21.400606 Si / 1000 Ang^3
#
#
#
# Elastic Constant Matrix: (Units=GPa)
#
#
# Indices 1 2 3 4 5 6 
#
# 1 130.0481 21.2085 49.8941 0.0000 4.0303 0.0000
# 2 21.2085 36.2346 29.8202 0.0000 2.4086 0.0000
# 3 49.8941 29.8202 107.2970 0.0000 -7.7567 0.0000
# 4 0.0000 0.0000 0.0000 33.5106 0.0000 -2.0353
# 5 4.0303 2.4086 -7.7567 0.0000 41.5079 0.0000
# 6 0.0000 0.0000 0.0000 -2.0353 0.0000 25.2215
#
#
#
# Elastic Compliance Matrix: (Units=1/GPa)
#
#
# Indices 1 2 3 4 5 6 
#
# 1 0.009626 -0.002277 -0.003955 0.000000 -0.001542 0.000000
# 2 -0.002277 0.036984 -0.009487 0.000000 -0.003698 0.000000
# 3 -0.003955 -0.009487 0.014053 0.000000 0.003561 0.000000
# 4 0.000000 0.000000 0.000000 0.029988 0.000000 0.002420
# 5 -0.001542 -0.003698 0.003561 0.000000 0.025121 0.000000
# 6 0.000000 0.000000 0.000000 0.002420 0.000000 0.039844
#
#
# Mechanical properties :
#
#
# Convention : Reuss Voigt Hill
#
# Bulk Modulus (GPa) = 34.21705 52.82503 43.52104
# Shear Modulus (GPa) = 25.40698 31.55847 28.48273
#
# Velocity S-wave (km/s) = 3.44933 3.84429 3.65215
# Velocity P-wave (km/s) = 5.64689 6.66650 6.17776
#
# Compressibility (1/GPa) = 0.02922520
#
# Stress axis : x y z
#
# Youngs Moduli (GPa) = 103.88711 27.03858 71.15914
#
# Poissons Ratio (x) = 0.06157 0.28141
# Poissons Ratio (y) = 0.23655 0.67510
# Poissons Ratio (z) = 0.41084 0.25652
#
# Static dielectric constant tensor:
#      x y z
#    x 3.899690 0.000000 -0.043890 
#    y 0.000000 3.704730 0.000000 
#    z -0.043890 0.000000 3.691660 
# 
# 
# High freq. dielectric constant tensor:
#      x y z
#    x 1.849060 0.000000 -0.002180 
#    y 0.000000 1.823230 0.000000 
#    z -0.002180 0.000000 1.844240 
# 
# From -- ./inp_files/80746.got.cif
#   From: 2010.06.25/outbox.cif.g09.slc.cpg/sg12_41_cif.got.tgz:80746.got - 2010.06.28 00:19:55.
