data_PCOD8112398
_publ_section_title
;
Structure prediction by ZEFSAII (Michael W. Deem and Ramdas Pophale) SiO2 
 PCOD8112398
Probable space group: C 2/M
;
_chemical_formula_sum "Si O2"
_cell_formula_units_Z 48
_cell_length_a 8.796931
_cell_length_b 28.259961
_cell_length_c 8.964250
_cell_angle_alpha 90.000000
_cell_angle_beta 91.130162
_cell_angle_gamma 90.000000
_cell_volume 2228.087340
_symmetry_space_group_name_H-M "C 2/M"
_symmetry_group_IT_number 12
_symmetry_cell_setting 'monoclinic'
loop_
_space_group_symop_operation_xyz
x,y,z
-x,y,-z
-x,-y,-z
x,-y,z
1/2+x,1/2+y,z
1/2-x,1/2+y,-z
1/2-x,1/2-y,-z
1/2+x,1/2-y,z
loop_
_atom_site_type_symbol
_atom_site_label
_atom_site_fract_x
_atom_site_fract_y
_atom_site_fract_z
Si Si1 0.838260 0.445990 0.551347
Si Si2 0.841263 0.945545 0.747642
Si Si3 0.254377 0.722446 0.844421
Si Si4 0.648925 0.611751 0.763418
Si Si5 0.949570 0.789669 0.333704
Si Si6 0.166866 0.623475 0.944480
O O1 0.860871 0.500000 0.602427
O O2 0.706198 0.441658 0.425637
O O3 0.787745 0.416519 0.693162
O O4 0.000000 0.425413 0.500000
O O5 0.711037 0.920128 0.840330
O O6 0.003296 0.921649 0.777284
O O7 0.851690 0.000000 0.798763
O O8 0.180625 0.752985 0.712029
O O9 0.424688 0.712673 0.793672
O O10 0.165367 0.672868 0.855048
O O11 0.250000 0.750000 0.000000
O O12 0.612747 0.657021 0.661487
O O13 0.706034 0.628865 0.925196
O O14 0.000000 0.775358 0.500000
O O15 0.000000 0.612398 0.000000
#
# Coordination Sequence:
#
# PCOD8112398 Si02
#       6
#     8   8   8   8   8   8
#     4  10  22  43  69 101 141 185 229 283 352 422
#     4  11  24  43  69 101 139 181 231 289 350 419
#     4  12  25  47  72  98 139 188 234 287 359 428
#     4  12  24  42  70 101 139 181 234 289 350 422
#     4  12  26  46  70 106 139 180 236 298 352 421
#     4  12  26  44  66 100 135 184 237 287 352 424
#
# _framework density 21.543140999999999
#
# number of rings (size 3 to 8) (size 9 to 14) (size 15 to 20)
#    0.000    0.500    3.333    5.500    0.000    3.667 
#    0.000    0.000    0.000    0.000    0.000    0.000 
#    0.000    0.000    0.000    0.000    0.000    0.000 
#
# Total GULP energy -297800.223640 kJ/mol
# GULP energy per Si atom -12408.342652 kJ/mol
# Density = 2.149411 g / cm^3
# Si number density = 21.543141 Si / 1000 Ang^3
#
#
#
# Elastic Constant Matrix: (Units=GPa)
#
#
# Indices 1 2 3 4 5 6 
#
# 1 97.7408 46.5939 6.5522 0.0000 -16.4520 0.0000
# 2 46.5939 144.4448 30.8288 0.0000 -3.7892 0.0000
# 3 6.5522 30.8288 76.1480 0.0000 3.3453 0.0000
# 4 0.0000 0.0000 0.0000 29.9279 0.0000 -6.9021
# 5 -16.4520 -3.7892 3.3453 0.0000 46.0688 0.0000
# 6 0.0000 0.0000 0.0000 -6.9021 0.0000 32.5529
#
#
#
# Elastic Compliance Matrix: (Units=1/GPa)
#
#
# Indices 1 2 3 4 5 6 
#
# 1 0.012886 -0.004126 0.000375 0.000000 0.004235 0.000000
# 2 -0.004126 0.008932 -0.003239 0.000000 -0.000503 0.000000
# 3 0.000375 -0.003239 0.014463 0.000000 -0.001183 0.000000
# 4 0.000000 0.000000 0.000000 0.035131 0.000000 0.007449
# 5 0.004235 -0.000503 -0.001183 0.000000 0.023264 0.000000
# 6 0.000000 0.000000 0.000000 0.007449 0.000000 0.032299
#
#
# Mechanical properties :
#
#
# Convention : Reuss Voigt Hill
#
# Bulk Modulus (GPa) = 44.83798 54.03147 49.43473
# Shear Modulus (GPa) = 33.69573 37.33386 35.51479
#
# Velocity S-wave (km/s) = 3.95917 4.16743 4.06463
# Velocity P-wave (km/s) = 6.46207 6.94922 6.71006
#
# Compressibility (1/GPa) = 0.02230252
#
# Stress axis : x y z
#
# Youngs Moduli (GPa) = 77.60648 111.95775 69.14058
#
# Poissons Ratio (x) = 0.46189 -0.02596
# Poissons Ratio (y) = 0.32017 0.22395
# Poissons Ratio (z) = -0.02914 0.36263
#
# Static dielectric constant tensor:
#      x y z
#    x 3.904190 0.000000 -0.005360 
#    y 0.000000 4.018570 0.000000 
#    z -0.005360 0.000000 3.822110 
# 
# 
# High freq. dielectric constant tensor:
#      x y z
#    x 1.857190 0.000000 -0.001730 
#    y 0.000000 1.857490 0.000000 
#    z -0.001730 0.000000 1.846960 
# 
# From -- ./inp_files/42162.got.cif
#   From: 2010.06.25/outbox.cif.g09.slc.cpg/sg12_22_cif.got.tgz:42162.got - 2010.06.28 00:19:55.
