data_PCOD8112741
_publ_section_title
;
Structure prediction by ZEFSAII (Michael W. Deem and Ramdas Pophale) SiO2 
 PCOD8112741
Probable space group: C 2/M
;
_chemical_formula_sum "Si O2"
_cell_formula_units_Z 64
_cell_length_a 18.923864
_cell_length_b 16.677401
_cell_length_c 11.763862
_cell_angle_alpha 90.000000
_cell_angle_beta 121.642999
_cell_angle_gamma 90.000000
_cell_volume 3160.733007
_symmetry_space_group_name_H-M "C 2/M"
_symmetry_group_IT_number 12
_symmetry_cell_setting 'monoclinic'
loop_
_space_group_symop_operation_xyz
x,y,z
-x,y,-z
-x,-y,-z
x,-y,z
1/2+x,1/2+y,z
1/2-x,1/2+y,-z
1/2-x,1/2-y,-z
1/2+x,1/2-y,z
loop_
_atom_site_type_symbol
_atom_site_label
_atom_site_fract_x
_atom_site_fract_y
_atom_site_fract_z
Si Si1 0.882405 0.910414 0.182034
Si Si2 0.910986 0.090956 0.885948
Si Si3 0.693960 0.164239 0.184618
Si Si4 0.524057 0.189765 0.146445
Si Si5 0.146238 0.092956 0.586698
Si Si6 0.778933 0.166776 0.922486
Si Si7 0.132983 0.591722 0.916369
Si Si8 0.948128 0.842085 0.702160
O O1 0.897578 0.901173 0.328899
O O2 0.973862 0.900578 0.208088
O O3 0.848586 0.000000 0.123835
O O4 0.820221 0.839413 0.084684
O O5 0.834951 0.099612 0.908668
O O6 0.882685 0.136706 0.746799
O O7 0.923577 0.000000 0.866008
O O8 0.000000 0.128033 0.000000
O O9 0.617405 0.159541 0.207443
O O10 0.766927 0.138787 0.329830
O O11 0.707316 0.249422 0.130068
O O12 0.683941 0.097762 0.077591
O O13 0.459896 0.122524 0.135902
O O14 0.521723 0.251753 0.249412
O O15 0.500000 0.223728 0.000000
O O16 0.091829 0.144794 0.453875
O O17 0.155843 0.000000 0.555276
O O18 0.682078 0.141743 0.857817
O O19 0.127671 0.500000 0.872417
#
# Coordination Sequence:
#
# PCOD8112741 Si02
#       8
#     8   8   8   8   8   8   8   8
#     4  11  21  36  59  90 127 157 196 255 312 369
#     4  11  21  34  59  90 125 165 201 253 320 373
#     4  11  23  40  62  91 128 160 206 261 314 372
#     4  10  23  41  63  93 123 159 211 266 311 364
#     4  11  25  40  60  90 125 165 206 251 309 378
#     4  12  22  38  62  96 128 159 205 260 317 371
#     4  11  23  39  64  94 125 162 209 262 316 369
#     4  12  22  39  59  87 127 166 208 245 306 381
#
# _framework density 20.248467999999999
#
# number of rings (size 3 to 8) (size 9 to 14) (size 15 to 20)
#    0.000    0.875    3.750    5.250    1.750    4.250 
#    0.000    0.000    0.000    0.000    0.000    0.875 
#    0.000    0.000    0.000    0.000    0.000    0.000 
#
# Total GULP energy -396426.497318 kJ/mol
# GULP energy per Si atom -12388.328041 kJ/mol
# Density = 2.020238 g / cm^3
# Si number density = 20.248468 Si / 1000 Ang^3
#
#
#
# Elastic Constant Matrix: (Units=GPa)
#
#
# Indices 1 2 3 4 5 6 
#
# 1 141.8408 43.1323 20.1181 0.0000 2.6129 0.0000
# 2 43.1323 81.3683 36.9305 0.0000 6.3304 0.0000
# 3 20.1181 36.9305 70.3430 0.0000 0.0986 0.0000
# 4 0.0000 0.0000 0.0000 22.0775 0.0000 -1.5265
# 5 2.6129 6.3304 0.0986 0.0000 26.5063 0.0000
# 6 0.0000 0.0000 0.0000 -1.5265 0.0000 25.9258
#
#
#
# Elastic Compliance Matrix: (Units=1/GPa)
#
#
# Indices 1 2 3 4 5 6 
#
# 1 0.008407 -0.004441 -0.000073 0.000000 0.000232 0.000000
# 2 -0.004441 0.018877 -0.008635 0.000000 -0.004039 0.000000
# 3 -0.000073 -0.008635 0.018767 0.000000 0.002000 0.000000
# 4 0.000000 0.000000 0.000000 0.045480 0.000000 0.002678
# 5 0.000232 -0.004039 0.002000 0.000000 0.038661 0.000000
# 6 0.000000 0.000000 0.000000 0.002678 0.000000 0.038729
#
#
# Mechanical properties :
#
#
# Convention : Reuss Voigt Hill
#
# Bulk Modulus (GPa) = 50.62420 54.87931 52.75176
# Shear Modulus (GPa) = 24.77642 27.79333 26.28487
#
# Velocity S-wave (km/s) = 3.50182 3.70890 3.60685
# Velocity P-wave (km/s) = 6.43476 6.74559 6.59201
#
# Compressibility (1/GPa) = 0.01975340
#
# Stress axis : x y z
#
# Youngs Moduli (GPa) = 118.95165 52.97352 53.28366
#
# Poissons Ratio (x) = 0.23527 0.00389
# Poissons Ratio (y) = 0.52830 0.46010
# Poissons Ratio (z) = 0.00868 0.45742
#
# Static dielectric constant tensor:
#      x y z
#    x 4.091320 0.000000 -0.191880 
#    y 0.000000 3.521470 0.000000 
#    z -0.191880 0.000000 3.453450 
# 
# 
# High freq. dielectric constant tensor:
#      x y z
#    x 1.813820 0.000000 -0.011580 
#    y 0.000000 1.786630 0.000000 
#    z -0.011580 0.000000 1.751250 
# 
# From -- ./inp_files/168485.got.cif
#   From: 2010.06.25/outbox.cif.g09.slc.cpg/sg12_85_cif.got.tgz:168485.got - 2010.06.28 00:19:55.
