data_PCOD8112822
_publ_section_title
;
Structure prediction by ZEFSAII (Michael W. Deem and Ramdas Pophale) SiO2 
 PCOD8112822
Probable space group: C 2/M
;
_chemical_formula_sum "Si O2"
_cell_formula_units_Z 48
_cell_length_a 17.077991
_cell_length_b 14.214846
_cell_length_c 15.507999
_cell_angle_alpha 90.000000
_cell_angle_beta 39.969998
_cell_angle_gamma 90.000000
_cell_volume 2418.416171
_symmetry_space_group_name_H-M "C 2/M"
_symmetry_group_IT_number 12
_symmetry_cell_setting 'monoclinic'
loop_
_space_group_symop_operation_xyz
x,y,z
-x,y,-z
-x,-y,-z
x,-y,z
1/2+x,1/2+y,z
1/2-x,1/2+y,-z
1/2-x,1/2-y,-z
1/2+x,1/2-y,z
loop_
_atom_site_type_symbol
_atom_site_label
_atom_site_fract_x
_atom_site_fract_y
_atom_site_fract_z
Si Si1 0.197541 0.731282 0.138874
Si Si2 0.685878 0.896840 0.890761
Si Si3 0.435514 0.104704 0.184415
Si Si4 0.713364 0.387450 0.614333
Si Si5 0.137280 0.890991 0.875700
Si Si6 0.916532 0.276419 0.357803
O O1 0.200893 0.829895 0.186494
O O2 0.276243 0.656326 0.126025
O O3 0.057270 0.702086 0.256899
O O4 0.250000 0.750000 0.000000
O O5 0.660102 0.897569 0.811870
O O6 0.721321 0.000000 0.893845
O O7 0.567392 0.858970 0.041844
O O8 0.377828 0.173781 0.301846
O O9 0.449792 0.000000 0.211111
O O10 0.719329 0.500000 0.586906
O O11 0.679485 0.372939 0.742602
O O12 0.841210 0.331365 0.495293
O O13 0.617613 0.334114 0.629714
O O14 0.138928 0.000000 0.898292
O O15 0.000000 0.850337 0.000000
#
# Coordination Sequence:
#
# PCOD8112822 Si02
#       6
#     8   8   8   8   8   8
#     4  12  23  34  58  90 121 152 193 254 301 348
#     4   9  19  33  53  82 117 155 193 237 293 353
#     4   9  17  33  56  81 113 154 195 238 289 351
#     4  10  23  43  63  84 118 164 207 246 299 371
#     4  10  23  42  63  86 119 164 206 247 302 365
#     4  11  22  37  61  91 119 154 201 253 305 351
#
# _framework density 19.847701000000001
#
# number of rings (size 3 to 8) (size 9 to 14) (size 15 to 20)
#    0.000    1.833    1.667    3.500    2.333    3.333 
#    0.000    1.667    0.000    0.000    0.000    9.333 
#    0.000    0.000    0.000    0.000    0.000    0.000 
#
# Total GULP energy -297424.172042 kJ/mol
# GULP energy per Si atom -12392.673835 kJ/mol
# Density = 1.980253 g / cm^3
# Si number density = 19.847701 Si / 1000 Ang^3
#
#
#
# Elastic Constant Matrix: (Units=GPa)
#
#
# Indices 1 2 3 4 5 6 
#
# 1 100.1975 54.1227 53.0007 0.0000 -17.2567 0.0000
# 2 54.1227 119.4661 44.1939 0.0000 1.2458 0.0000
# 3 53.0007 44.1939 118.0110 0.0000 -7.1357 0.0000
# 4 0.0000 0.0000 0.0000 28.0614 0.0000 0.2171
# 5 -17.2567 1.2458 -7.1357 0.0000 29.4574 0.0000
# 6 0.0000 0.0000 0.0000 0.2171 0.0000 23.9672
#
#
#
# Elastic Compliance Matrix: (Units=1/GPa)
#
#
# Indices 1 2 3 4 5 6 
#
# 1 0.017602 -0.006218 -0.005011 0.000000 0.009361 0.000000
# 2 -0.006218 0.011964 -0.001967 0.000000 -0.004625 0.000000
# 3 -0.005011 -0.001967 0.011456 0.000000 -0.000077 0.000000
# 4 0.000000 0.000000 0.000000 0.035639 0.000000 -0.000323
# 5 0.009361 -0.004625 -0.000077 0.000000 0.039608 0.000000
# 6 0.000000 0.000000 0.000000 -0.000323 0.000000 0.041727
#
#
# Mechanical properties :
#
#
# Convention : Reuss Voigt Hill
#
# Bulk Modulus (GPa) = 68.35531 71.14546 69.75038
# Shear Modulus (GPa) = 26.41824 28.72103 27.56963
#
# Velocity S-wave (km/s) = 3.65231 3.80817 3.73105
# Velocity P-wave (km/s) = 7.23191 7.43369 7.33349
#
# Compressibility (1/GPa) = 0.01462944
#
# Stress axis : x y z
#
# Youngs Moduli (GPa) = 56.81270 83.58642 87.28951
#
# Poissons Ratio (x) = 0.51977 0.43736
# Poissons Ratio (y) = 0.35328 0.17172
# Poissons Ratio (z) = 0.28466 0.16443
#
# Static dielectric constant tensor:
#      x y z
#    x 3.591590 0.000000 -0.015770 
#    y 0.000000 4.004490 0.000000 
#    z -0.015770 0.000000 3.619680 
# 
# 
# High freq. dielectric constant tensor:
#      x y z
#    x 1.758280 0.000000 0.007940 
#    y 0.000000 1.791930 0.000000 
#    z 0.007940 0.000000 1.768320 
# 
# From -- ./inp_files/225108.got.cif
#   From: 2010.06.25/outbox.cif.g09.slc.cpg/sg12_113_cif.got.tgz:225108.got - 2010.06.28 00:19:55.
