data_PCOD8112428
_publ_section_title
;
Structure prediction by ZEFSAII (Michael W. Deem and Ramdas Pophale) SiO2 
 PCOD8112428
Probable space group: C 2/M
;
_chemical_formula_sum "Si O2"
_cell_formula_units_Z 60
_cell_length_a 20.116560
_cell_length_b 26.785654
_cell_length_c 11.773993
_cell_angle_alpha 90.000000
_cell_angle_beta 28.462898
_cell_angle_gamma 90.000000
_cell_volume 3023.599661
_symmetry_space_group_name_H-M "C 2/M"
_symmetry_group_IT_number 12
_symmetry_cell_setting 'monoclinic'
loop_
_space_group_symop_operation_xyz
x,y,z
-x,y,-z
-x,-y,-z
x,-y,z
1/2+x,1/2+y,z
1/2-x,1/2+y,-z
1/2-x,1/2-y,-z
1/2+x,1/2-y,z
loop_
_atom_site_type_symbol
_atom_site_label
_atom_site_fract_x
_atom_site_fract_y
_atom_site_fract_z
Si Si1 0.500000 0.660396 0.500000
Si Si2 0.975255 0.315937 0.278734
Si Si3 0.773160 0.856789 0.231802
Si Si4 0.763431 0.854942 0.497067
Si Si5 0.840913 0.556111 0.207909
Si Si6 0.217478 0.605497 0.931999
Si Si7 0.003599 0.798424 0.251101
Si Si8 0.664812 0.942686 0.247938
O O1 0.369453 0.625101 0.673109
O O2 0.475641 0.695099 0.645875
O O3 0.869585 0.323842 0.544353
O O4 0.892929 0.332797 0.287376
O O5 0.022964 0.259273 0.192928
O O6 0.112652 0.348062 0.091762
O O7 0.836457 0.863389 0.264048
O O8 0.736479 0.911608 0.240864
O O9 0.879276 0.829609 0.989707
O O10 0.756973 0.907177 0.572807
O O11 0.850855 0.815999 0.440749
O O12 0.792137 0.500000 0.308824
O O13 0.827483 0.565630 0.094361
O O14 0.000000 0.564612 0.000000
O O15 0.222780 0.576996 0.042323
O O16 0.500000 0.935823 0.500000
O O17 0.708389 0.000000 0.199662
#
# Coordination Sequence:
#
# PCOD8112428 Si02
#       8
#     4   8   8   8   8   8   8   8
#     4  12  28  38  69  90 140 176 215 266 324 390
#     4  10  25  41  70  94 128 178 221 270 321 381
#     4  10  23  42  63  99 127 168 216 275 312 388
#     4  10  22  44  64  98 130 166 219 270 323 387
#     4  11  22  40  71 102 129 166 218 279 334 385
#     4  12  23  46  61 100 136 173 218 272 324 390
#     4  12  24  44  65  97 136 175 219 265 327 391
#     4  11  22  41  70  95 126 174 222 269 323 385
#
# _framework density 19.843896999999998
#
# number of rings (size 3 to 8) (size 9 to 14) (size 15 to 20)
#    0.800    0.267    5.333    1.200    1.867    2.133 
#    2.400    3.333    0.000    1.600    0.000    0.000 
#    0.000    0.000    0.000    0.000    0.000    0.000 
#
# Total GULP energy -372019.182187 kJ/mol
# GULP energy per Si atom -12400.639406 kJ/mol
# Density = 1.979873 g / cm^3
# Si number density = 19.843897 Si / 1000 Ang^3
#
#
#
# Elastic Constant Matrix: (Units=GPa)
#
#
# Indices 1 2 3 4 5 6 
#
# 1 91.6574 27.0373 6.8822 -0.0021 14.1246 -0.0270
# 2 27.0373 132.7336 24.1936 -0.0046 4.4086 -0.0818
# 3 6.8822 24.1936 68.5253 -0.0048 3.3544 -0.0641
# 4 -0.0021 -0.0046 -0.0048 21.9133 -0.0023 3.6806
# 5 14.1246 4.4086 3.3544 -0.0023 38.2339 -0.0277
# 6 -0.0270 -0.0818 -0.0641 3.6806 -0.0277 -178.7921
#
#
#
# Elastic Compliance Matrix: (Units=1/GPa)
#
#
# Indices 1 2 3 4 5 6 
#
# 1 0.012264 -0.002320 -0.000205 0.000000 -0.004245 0.000000
# 2 -0.002320 0.008509 -0.002777 0.000001 0.000120 -0.000003
# 3 -0.000205 -0.002777 0.015642 0.000003 -0.000976 -0.000004
# 4 0.000000 0.000001 0.000003 0.045477 0.000003 0.000936
# 5 -0.004245 0.000120 -0.000976 0.000003 0.027795 -0.000003
# 6 0.000000 -0.000003 -0.000004 0.000936 -0.000003 -0.005574
#
#
# Mechanical properties :
#
#
# Convention : Reuss Voigt Hill
#
# Bulk Modulus (GPa) = 38.74257 45.46030 42.10143
# Shear Modulus (GPa) = 40.54493 -8.07545 16.23474
#
# Velocity S-wave (km/s) = 4.52507 -2.01949 2.86339
# Velocity P-wave (km/s) = 6.84600 4.18580 5.67401
#
# Compressibility (1/GPa) = 0.02581140
#
# Stress axis : x y z
#
# Youngs Moduli (GPa) = 81.53899 117.52812 63.93071
#
# Poissons Ratio (x) = 0.27264 0.01310
# Poissons Ratio (y) = 0.18915 0.17753
# Poissons Ratio (z) = 0.01671 0.32637
#
# Static dielectric constant tensor:
#      x y z
#    x 3.770310 0.000000 0.030290 
#    y 0.000000 3.576880 0.000010 
#    z 0.030290 0.000010 3.519340 
# 
# 
# High freq. dielectric constant tensor:
#      x y z
#    x 1.781470 0.000000 0.005080 
#    y 0.000000 1.773040 0.000000 
#    z 0.005080 0.000000 1.770410 
# 
# From -- ./inp_files/170375.got.cif
#   From: 2010.06.25/outbox.cif.g09.slc.cpg/sg12_86_cif.got.tgz:170375.got - 2010.06.28 00:19:55.
