data_PCOD8112314
_publ_section_title
;
Structure prediction by ZEFSAII (Michael W. Deem and Ramdas Pophale) SiO2 
 PCOD8112314
Probable space group: C 2/M
;
_chemical_formula_sum "Si O2"
_cell_formula_units_Z 32
_cell_length_a 23.679871
_cell_length_b 15.092112
_cell_length_c 10.597564
_cell_angle_alpha 90.000000
_cell_angle_beta 24.753631
_cell_angle_gamma 90.000000
_cell_volume 1585.828770
_symmetry_space_group_name_H-M "C 2/M"
_symmetry_group_IT_number 12
_symmetry_cell_setting 'monoclinic'
loop_
_space_group_symop_operation_xyz
x,y,z
-x,y,-z
-x,-y,-z
x,-y,z
1/2+x,1/2+y,z
1/2-x,1/2+y,-z
1/2-x,1/2-y,-z
1/2+x,1/2-y,z
loop_
_atom_site_type_symbol
_atom_site_label
_atom_site_fract_x
_atom_site_fract_y
_atom_site_fract_z
Si Si1 0.413638 0.000000 0.360590
Si Si2 0.906845 0.842873 0.311084
Si Si3 0.796286 0.500000 0.321702
Si Si4 0.840769 0.687746 0.605004
Si Si5 0.542132 0.681552 0.283964
O O1 0.347193 0.000000 0.359693
O O2 0.362274 0.084884 0.539082
O O3 0.575565 0.000000 0.030237
O O4 0.842060 0.745638 0.471241
O O5 0.996707 0.873466 0.250650
O O6 0.788871 0.912389 0.530296
O O7 0.000000 0.836927 0.000000
O O8 0.960163 0.724943 0.451549
O O9 0.699993 0.701190 0.961617
O O10 0.500000 0.631573 0.500000
#
# Coordination Sequence:
#
# PCOD8112314 Si02
#       5
#     4   8   4   8   8
#     4  11  24  38  65  93 134 162 218 260 325 372
#     4  10  23  38  68  91 131 161 216 257 319 370
#     4  11  23  40  60  98 130 170 205 270 316 387
#     4  10  23  41  66  93 128 168 213 259 317 374
#     4  10  22  42  70  90 129 171 214 258 319 378
#
# _framework density 20.178723000000002
#
# number of rings (size 3 to 8) (size 9 to 14) (size 15 to 20)
#    1.500    0.250    0.000    4.125    3.500    3.000 
#    0.000    3.125    0.000    0.000    0.000    0.000 
#    0.000    0.000    0.000    0.000    0.000    0.000 
#
# Total GULP energy -198284.897255 kJ/mol
# GULP energy per Si atom -12392.806078 kJ/mol
# Density = 2.013280 g / cm^3
# Si number density = 20.178723 Si / 1000 Ang^3
#
#
#
# Elastic Constant Matrix: (Units=GPa)
#
#
# Indices 1 2 3 4 5 6 
#
# 1 86.2340 22.7154 61.6782 0.0000 26.4442 0.0000
# 2 22.7154 104.4680 60.1097 0.0000 -6.3380 0.0000
# 3 61.6782 60.1097 199.7456 0.0000 3.4717 0.0000
# 4 0.0000 0.0000 0.0000 19.3322 0.0000 -6.6822
# 5 26.4442 -6.3380 3.4717 0.0000 33.2644 0.0000
# 6 0.0000 0.0000 0.0000 -6.6822 0.0000 17.0935
#
#
#
# Elastic Compliance Matrix: (Units=1/GPa)
#
#
# Indices 1 2 3 4 5 6 
#
# 1 0.021428 -0.002477 -0.005577 0.000000 -0.016924 0.000000
# 2 -0.002477 0.012087 -0.002952 0.000000 0.004580 0.000000
# 3 -0.005577 -0.002952 0.007563 0.000000 0.003082 0.000000
# 4 0.000000 0.000000 0.000000 0.059809 0.000000 0.023380
# 5 -0.016924 0.004580 0.003082 0.000000 0.044067 0.000000
# 6 0.000000 0.000000 0.000000 0.023380 0.000000 0.067642
#
#
# Mechanical properties :
#
#
# Convention : Reuss Voigt Hill
#
# Bulk Modulus (GPa) = 52.44958 75.49491 63.97225
# Shear Modulus (GPa) = 20.74999 30.33432 25.54215
#
# Velocity S-wave (km/s) = 3.21021 3.88142 3.56166
# Velocity P-wave (km/s) = 6.30789 7.58826 6.97750
#
# Compressibility (1/GPa) = 0.01906593
#
# Stress axis : x y z
#
# Youngs Moduli (GPa) = 46.66876 82.73014 132.21773
#
# Poissons Ratio (x) = 0.20493 0.73737
# Poissons Ratio (y) = 0.11560 0.39034
# Poissons Ratio (z) = 0.26027 0.24424
#
# Static dielectric constant tensor:
#      x y z
#    x 3.661140 0.000000 -0.046120 
#    y 0.000000 3.387150 0.000000 
#    z -0.046120 0.000000 3.762580 
# 
# 
# High freq. dielectric constant tensor:
#      x y z
#    x 1.784460 0.000000 -0.004110 
#    y 0.000000 1.763950 0.000000 
#    z -0.004110 0.000000 1.807200 
# 
# From -- ./inp_files/183361.got.cif
#   From: 2010.06.25/outbox.cif.g09.slc.cpg/sg12_92_cif.got.tgz:183361.got - 2010.06.28 00:19:55.
