data_PCOD8112726
_publ_section_title
;
Structure prediction by ZEFSAII (Michael W. Deem and Ramdas Pophale) SiO2 
 PCOD8112726
Probable space group: C 2/M
;
_chemical_formula_sum "Si O2"
_cell_formula_units_Z 56
_cell_length_a 22.282679
_cell_length_b 14.961442
_cell_length_c 9.480620
_cell_angle_alpha 90.000000
_cell_angle_beta 126.379431
_cell_angle_gamma 90.000000
_cell_volume 2544.667724
_symmetry_space_group_name_H-M "C 2/M"
_symmetry_group_IT_number 12
_symmetry_cell_setting 'monoclinic'
loop_
_space_group_symop_operation_xyz
x,y,z
-x,y,-z
-x,-y,-z
x,-y,z
1/2+x,1/2+y,z
1/2-x,1/2+y,-z
1/2-x,1/2-y,-z
1/2+x,1/2-y,z
loop_
_atom_site_type_symbol
_atom_site_label
_atom_site_fract_x
_atom_site_fract_y
_atom_site_fract_z
Si Si1 0.758833 0.842852 0.282690
Si Si2 0.223990 0.854881 0.287296
Si Si3 0.055875 0.603196 0.705950
Si Si4 0.393208 0.397515 0.652978
Si Si5 0.726409 0.898930 0.939708
Si Si6 0.977823 0.728385 0.807720
Si Si7 0.650464 0.905307 0.342912
O O1 0.750970 0.746251 0.341435
O O2 0.835644 0.886498 0.443215
O O3 0.686711 0.896756 0.237962
O O4 0.755475 0.837463 0.108632
O O5 0.143832 0.871288 0.247844
O O6 0.219836 0.882432 0.118022
O O7 0.283216 0.914985 0.451866
O O8 0.045639 0.500000 0.742174
O O9 0.140844 0.621230 0.775879
O O10 0.000000 0.624010 0.500000
O O11 0.040582 0.674983 0.808220
O O12 0.422063 0.500000 0.695815
O O13 0.463200 0.329439 0.730216
O O14 0.734754 0.000000 0.004459
O O15 0.901338 0.675040 0.683636
O O16 0.000000 0.730398 0.000000
O O17 0.606149 0.000000 0.284399
#
# Coordination Sequence:
#
# PCOD8112726 Si02
#       7
#     8   8   8   8   8   8   8
#     4  11  20  37  59  91 121 155 197 252 310 360
#     4  11  20  38  62  92 122 158 194 245 312 368
#     4  10  23  41  62  91 128 166 198 235 299 372
#     4  11  23  42  64  88 119 159 207 255 301 353
#     4  11  22  36  59  94 125 155 195 247 308 367
#     4  12  24  40  61  88 123 161 210 251 292 351
#     4  11  20  36  61  88 122 157 191 245 308 364
#
# _framework density 22.006803000000001
#
# number of rings (size 3 to 8) (size 9 to 14) (size 15 to 20)
#    0.000    1.000    2.857    6.857    0.000    3.714 
#    0.000    0.000    0.000    0.429    0.000    0.000 
#    0.000    0.000    0.000    0.000    0.000    0.000 
#
# Total GULP energy -347198.634122 kJ/mol
# GULP energy per Si atom -12399.951219 kJ/mol
# Density = 2.195671 g / cm^3
# Si number density = 22.006803 Si / 1000 Ang^3
#
#
#
# Elastic Constant Matrix: (Units=GPa)
#
#
# Indices 1 2 3 4 5 6 
#
# 1 49.3754 13.2541 22.0951 0.0000 -7.9900 0.0000
# 2 13.2541 142.2334 18.0391 0.0000 4.4532 0.0000
# 3 22.0951 18.0391 97.0521 0.0000 -23.1182 0.0000
# 4 0.0000 0.0000 0.0000 18.1119 0.0000 -3.5864
# 5 -7.9900 4.4532 -23.1182 0.0000 22.0789 0.0000
# 6 0.0000 0.0000 0.0000 -3.5864 0.0000 13.5628
#
#
#
# Elastic Compliance Matrix: (Units=1/GPa)
#
#
# Indices 1 2 3 4 5 6 
#
# 1 0.023223 -0.001831 -0.003806 0.000000 0.004788 0.000000
# 2 -0.001831 0.007593 -0.002021 0.000000 -0.004310 0.000000
# 3 -0.003806 -0.002021 0.015075 0.000000 0.014815 0.000000
# 4 0.000000 0.000000 0.000000 0.058263 0.000000 0.015407
# 5 0.004788 -0.004310 0.014815 0.000000 0.063406 0.000000
# 6 0.000000 0.000000 0.000000 0.015407 0.000000 0.077805
#
#
# Mechanical properties :
#
#
# Convention : Reuss Voigt Hill
#
# Bulk Modulus (GPa) = 32.70816 43.93749 38.32283
# Shear Modulus (GPa) = 18.45888 26.43556 22.44722
#
# Velocity S-wave (km/s) = 2.89931 3.46966 3.19723
# Velocity P-wave (km/s) = 5.10911 6.00501 5.57509
#
# Compressibility (1/GPa) = 0.03057341
#
# Stress axis : x y z
#
# Youngs Moduli (GPa) = 43.06163 131.70687 66.33582
#
# Poissons Ratio (x) = 0.24118 0.25247
# Poissons Ratio (y) = 0.07885 0.13407
# Poissons Ratio (z) = 0.16389 0.26619
#
# Static dielectric constant tensor:
#      x y z
#    x 3.859330 0.000000 -0.032890 
#    y 0.000000 4.126980 0.000000 
#    z -0.032890 0.000000 3.747060 
# 
# 
# High freq. dielectric constant tensor:
#      x y z
#    x 1.833180 0.000000 -0.009810 
#    y 0.000000 1.879370 0.000000 
#    z -0.009810 0.000000 1.859810 
# 
# From -- ./inp_files/96511.got.cif
#   From: 2010.06.25/outbox.cif.g09.slc.cpg/sg12_49_cif.got.tgz:96511.got - 2010.06.28 00:19:55.
