data_PCOD8112695
_publ_section_title
;
Structure prediction by ZEFSAII (Michael W. Deem and Ramdas Pophale) SiO2 
 PCOD8112695
Probable space group: C 2/M
;
_chemical_formula_sum "Si O2"
_cell_formula_units_Z 56
_cell_length_a 15.012537
_cell_length_b 8.645640
_cell_length_c 24.185316
_cell_angle_alpha 90.000000
_cell_angle_beta 62.637719
_cell_angle_gamma 90.000000
_cell_volume 2787.877913
_symmetry_space_group_name_H-M "C 2/M"
_symmetry_group_IT_number 12
_symmetry_cell_setting 'monoclinic'
loop_
_space_group_symop_operation_xyz
x,y,z
-x,y,-z
-x,-y,-z
x,-y,z
1/2+x,1/2+y,z
1/2-x,1/2+y,-z
1/2-x,1/2-y,-z
1/2+x,1/2-y,z
loop_
_atom_site_type_symbol
_atom_site_label
_atom_site_fract_x
_atom_site_fract_y
_atom_site_fract_z
Si Si1 0.830466 0.680004 0.227899
Si Si2 0.725302 0.180361 0.566132
Si Si3 0.068598 0.817906 0.907217
Si Si4 0.391319 0.323745 0.682910
Si Si5 0.917359 0.824449 0.309406
Si Si6 0.089646 0.678815 0.433669
Si Si7 0.150154 0.183050 0.999836
O O1 0.834814 0.500000 0.213211
O O2 0.880105 0.769870 0.163818
O O3 0.716807 0.738879 0.267484
O O4 0.890128 0.713231 0.266987
O O5 0.750000 0.250000 0.500000
O O6 0.631352 0.268052 0.619332
O O7 0.818423 0.208180 0.579881
O O8 0.700649 0.000000 0.567396
O O9 0.952642 0.758892 0.940779
O O10 0.063783 0.000000 0.913042
O O11 0.135920 0.759420 0.940124
O O12 0.383418 0.500000 0.663388
O O13 0.463299 0.314845 0.715604
O O14 0.438284 0.215313 0.621579
O O15 0.883111 0.000000 0.306157
O O16 0.120046 0.500000 0.432560
O O17 0.000000 0.722717 0.500000
O O18 0.161048 0.000000 0.999997
O O19 0.250000 0.250000 0.000000
#
# Coordination Sequence:
#
# PCOD8112695 Si02
#       7
#     8   8   8   8   8   8   8
#     4  11  23  40  61  89 123 161 205 255 302 359
#     4  12  24  39  59  85 117 152 195 249 307 366
#     4   9  20  39  60  86 123 167 204 245 301 362
#     4  10  23  41  60  84 117 155 196 247 306 364
#     4  11  23  41  63  87 117 158 200 247 310 368
#     4  11  23  38  59  87 115 148 195 247 304 368
#     4   9  19  37  62  91 125 162 205 251 299 353
#
# _framework density 20.086963000000001
#
# number of rings (size 3 to 8) (size 9 to 14) (size 15 to 20)
#    0.000    1.571    1.429    4.286    0.000    7.429 
#    0.000    5.714    0.000    0.000    0.000    0.000 
#    0.000    0.000    0.000    0.000    0.000    0.000 
#
# Total GULP energy -347196.601350 kJ/mol
# GULP energy per Si atom -12399.878620 kJ/mol
# Density = 2.004124 g / cm^3
# Si number density = 20.086963 Si / 1000 Ang^3
#
#
#
# Elastic Constant Matrix: (Units=GPa)
#
#
# Indices 1 2 3 4 5 6 
#
# 1 141.4870 22.1649 52.0848 0.0000 -5.0938 0.0000
# 2 22.1649 40.9829 8.6726 0.0000 -7.6609 0.0000
# 3 52.0848 8.6726 128.5426 0.0000 -5.9095 0.0000
# 4 0.0000 0.0000 0.0000 32.4378 0.0000 1.2645
# 5 -5.0938 -7.6609 -5.9095 0.0000 23.5198 0.0000
# 6 0.0000 0.0000 0.0000 1.2645 0.0000 32.9901
#
#
#
# Elastic Compliance Matrix: (Units=1/GPa)
#
#
# Indices 1 2 3 4 5 6 
#
# 1 0.008948 -0.004179 -0.003356 0.000000 -0.000267 0.000000
# 2 -0.004179 0.028178 0.000175 0.000000 0.008317 0.000000
# 3 -0.003356 0.000175 0.009203 0.000000 0.001642 0.000000
# 4 0.000000 0.000000 0.000000 0.030874 0.000000 -0.001183
# 5 -0.000267 0.008317 0.001642 0.000000 0.045581 0.000000
# 6 0.000000 0.000000 0.000000 -0.001183 0.000000 0.030358
#
#
# Mechanical properties :
#
#
# Convention : Reuss Voigt Hill
#
# Bulk Modulus (GPa) = 31.63708 52.98412 42.31060
# Shear Modulus (GPa) = 28.02678 32.99553 30.51116
#
# Velocity S-wave (km/s) = 3.73939 4.05734 3.90160
# Velocity P-wave (km/s) = 5.86756 6.95586 6.43476
#
# Compressibility (1/GPa) = 0.03160848
#
# Stress axis : x y z
#
# Youngs Moduli (GPa) = 111.75232 35.48813 108.65863
#
# Poissons Ratio (x) = 0.14831 0.36467
# Poissons Ratio (y) = 0.46703 -0.01897
# Poissons Ratio (z) = 0.37505 -0.00620
#
# Static dielectric constant tensor:
#      x y z
#    x 3.726550 0.000000 -0.127750 
#    y 0.000000 3.546740 0.000000 
#    z -0.127750 0.000000 3.618630 
# 
# 
# High freq. dielectric constant tensor:
#      x y z
#    x 1.795390 0.000000 -0.001200 
#    y 0.000000 1.780150 0.000000 
#    z -0.001200 0.000000 1.780240 
# 
# From -- ./inp_files/338437.got.cif
#   From: 2010.06.25/outbox.cif.g09.slc.cpg/sg12_170_cif.got.tgz:338437.got - 2010.06.28 00:19:55.
