data_PCOD8112151
_publ_section_title
;
Structure prediction by ZEFSAII (Michael W. Deem and Ramdas Pophale) SiO2 
 PCOD8112151
Probable space group: C 2/M
;
_chemical_formula_sum "Si O2"
_cell_formula_units_Z 56
_cell_length_a 10.953149
_cell_length_b 17.719484
_cell_length_c 17.841573
_cell_angle_alpha 90.000000
_cell_angle_beta 130.144549
_cell_angle_gamma 90.000000
_cell_volume 2647.009170
_symmetry_space_group_name_H-M "C 2/M"
_symmetry_group_IT_number 12
_symmetry_cell_setting 'monoclinic'
loop_
_space_group_symop_operation_xyz
x,y,z
-x,y,-z
-x,-y,-z
x,-y,z
1/2+x,1/2+y,z
1/2-x,1/2+y,-z
1/2-x,1/2-y,-z
1/2+x,1/2-y,z
loop_
_atom_site_type_symbol
_atom_site_label
_atom_site_fract_x
_atom_site_fract_y
_atom_site_fract_z
Si Si1 0.574529 0.410957 0.451638
Si Si2 0.005992 0.170761 0.915268
Si Si3 0.329427 0.663096 0.248285
Si Si4 0.234766 0.587125 0.057533
Si Si5 0.927859 0.410640 0.549903
Si Si6 0.476947 0.832125 0.135079
Si Si7 0.147968 0.334897 0.756291
O O1 0.500000 0.377374 0.500000
O O2 0.585830 0.500000 0.463681
O O3 0.457828 0.390727 0.337440
O O4 0.750831 0.378423 0.500594
O O5 0.072633 0.246396 0.902518
O O6 0.833668 0.150732 0.812911
O O7 0.125099 0.101365 0.947770
O O8 0.000000 0.188966 0.000000
O O9 0.287828 0.635611 0.149249
O O10 0.163991 0.660857 0.228374
O O11 0.399950 0.747478 0.274075
O O12 0.219481 0.500000 0.072785
O O13 0.068848 0.614908 0.954235
O O14 0.918853 0.500000 0.541544
O O15 0.000000 0.378305 0.500000
O O16 0.047590 0.387296 0.662240
O O17 0.383781 0.860249 0.171197
#
# Coordination Sequence:
#
# PCOD8112151 Si02
#       7
#     8   8   8   8   8   8   8
#     4  10  22  42  64  89 125 167 211 265 323 377
#     4  11  22  41  65  90 128 170 209 257 314 372
#     4  11  24  39  65  95 124 164 212 263 315 375
#     4  12  25  40  62  93 131 169 210 257 313 380
#     4  10  24  43  64  92 128 169 211 265 327 383
#     4  11  22  42  64  91 128 169 208 259 311 373
#     4  11  23  40  67  92 124 166 211 260 317 372
#
# _framework density 21.155954000000001
#
# number of rings (size 3 to 8) (size 9 to 14) (size 15 to 20)
#    0.000    1.143    2.857    3.857    2.000    4.286 
#    0.000    0.000    0.000    0.000    0.000    0.000 
#    0.000    0.000    0.000    0.000    0.000    0.000 
#
# Total GULP energy -347242.171393 kJ/mol
# GULP energy per Si atom -12401.506121 kJ/mol
# Density = 2.110780 g / cm^3
# Si number density = 21.155954 Si / 1000 Ang^3
#
#
#
# Elastic Constant Matrix: (Units=GPa)
#
#
# Indices 1 2 3 4 5 6 
#
# 1 94.3579 6.4601 34.7972 0.0000 2.9612 0.0000
# 2 6.4601 22.4972 -8.6144 0.0000 8.6317 0.0000
# 3 34.7972 -8.6144 109.0813 0.0000 9.0605 0.0000
# 4 0.0000 0.0000 0.0000 35.8526 0.0000 1.4054
# 5 2.9612 8.6317 9.0605 0.0000 40.1664 0.0000
# 6 0.0000 0.0000 0.0000 1.4054 0.0000 18.6005
#
#
#
# Elastic Compliance Matrix: (Units=1/GPa)
#
#
# Indices 1 2 3 4 5 6 
#
# 1 0.012667 -0.005940 -0.004625 0.000000 0.001386 0.000000
# 2 -0.005940 0.053806 0.007203 0.000000 -0.012750 0.000000
# 3 -0.004625 0.007203 0.011528 0.000000 -0.003807 0.000000
# 4 0.000000 0.000000 0.000000 0.027975 0.000000 -0.002114
# 5 0.001386 -0.012750 -0.003807 0.000000 0.028393 0.000000
# 6 0.000000 0.000000 0.000000 -0.002114 0.000000 0.053922
#
#
# Mechanical properties :
#
#
# Convention : Reuss Voigt Hill
#
# Bulk Modulus (GPa) = 14.02987 32.35803 23.19395
# Shear Modulus (GPa) = 22.85484 31.81015 27.33250
#
# Velocity S-wave (km/s) = 3.29036 3.88184 3.59827
# Velocity P-wave (km/s) = 4.59144 5.95145 5.31513
#
# Compressibility (1/GPa) = 0.07127652
#
# Stress axis : x y z
#
# Youngs Moduli (GPa) = 78.94724 18.58544 86.74594
#
# Poissons Ratio (x) = 0.11040 0.40119
# Poissons Ratio (y) = 0.46894 -0.62483
# Poissons Ratio (z) = 0.36512 -0.13387
#
# Static dielectric constant tensor:
#      x y z
#    x 4.302440 0.000000 0.121290 
#    y 0.000000 3.503080 0.000000 
#    z 0.121290 0.000000 3.723300 
# 
# 
# High freq. dielectric constant tensor:
#      x y z
#    x 1.848770 0.000000 0.004450 
#    y 0.000000 1.804820 0.000000 
#    z 0.004450 0.000000 1.834350 
# 
# From -- ./inp_files/264310.got.cif
#   From: 2010.06.25/outbox.cif.g09.slc.cpg/sg12_133_cif.got.tgz:264310.got - 2010.06.28 00:19:55.
