data_PCOD8112118
_publ_section_title
;
Structure prediction by ZEFSAII (Michael W. Deem and Ramdas Pophale) SiO2 
 PCOD8112118
Probable space group: C 2/M
;
_chemical_formula_sum "Si O2"
_cell_formula_units_Z 56
_cell_length_a 26.880059
_cell_length_b 17.744940
_cell_length_c 8.992399
_cell_angle_alpha 90.000000
_cell_angle_beta 38.861058
_cell_angle_gamma 90.000000
_cell_volume 2691.214709
_symmetry_space_group_name_H-M "C 2/M"
_symmetry_group_IT_number 12
_symmetry_cell_setting 'monoclinic'
loop_
_space_group_symop_operation_xyz
x,y,z
-x,y,-z
-x,-y,-z
x,-y,z
1/2+x,1/2+y,z
1/2-x,1/2+y,-z
1/2-x,1/2-y,-z
1/2+x,1/2-y,z
loop_
_atom_site_type_symbol
_atom_site_label
_atom_site_fract_x
_atom_site_fract_y
_atom_site_fract_z
Si Si1 0.304888 0.131877 0.971939
Si Si2 0.970228 0.500000 0.232977
Si Si3 0.156794 0.087820 0.499048
Si Si4 0.140539 0.641486 0.473542
Si Si5 0.229104 0.832110 0.611560
Si Si6 0.116024 0.218837 0.116856
Si Si7 0.438834 0.292566 0.428947
Si Si8 0.580162 0.000000 0.225009
O O1 0.299831 0.143744 0.806412
O O2 0.332942 0.204835 0.997142
O O3 0.372461 0.073214 0.846587
O O4 0.220174 0.103122 0.222194
O O5 0.920562 0.573219 0.394733
O O6 0.055899 0.500000 0.110531
O O7 0.000000 0.500000 0.000000
O O8 0.194709 0.113508 0.565843
O O9 0.077789 0.135109 0.638616
O O10 0.134164 0.000000 0.560308
O O11 0.189883 0.632993 0.510906
O O12 0.095262 0.720756 0.578212
O O13 0.250000 0.750000 0.500000
O O14 0.166269 0.834978 0.893029
O O15 0.104130 0.190344 0.313254
O O16 0.030707 0.226201 0.237444
O O17 0.500000 0.000000 0.500000
#
# Coordination Sequence:
#
# PCOD8112118 Si02
#       8
#     8   4   8   8   8   8   8   4
#     4  11  21  39  70  95 127 172 216 270 317 394
#     4  12  28  38  60 102 147 174 203 264 330 403
#     4  12  26  44  65  96 130 176 222 267 328 394
#     4  11  23  41  63  96 133 172 214 263 322 392
#     4  12  24  42  61  94 130 167 210 264 334 392
#     4  10  22  41  70  96 124 161 222 278 324 385
#     4  10  22  44  69  97 123 171 227 271 323 380
#     4  12  22  40  60 100 139 174 207 250 336 391
#
# _framework density 20.808447000000001
#
# number of rings (size 3 to 8) (size 9 to 14) (size 15 to 20)
#    0.000    0.857    5.000    1.714    5.000    4.000 
#    0.000    3.571    0.000    0.000    0.000    0.000 
#    0.000    0.000    0.000    0.000    0.000    0.000 
#
# Total GULP energy -347147.217119 kJ/mol
# GULP energy per Si atom -12398.114897 kJ/mol
# Density = 2.076109 g / cm^3
# Si number density = 20.808447 Si / 1000 Ang^3
#
#
#
# Elastic Constant Matrix: (Units=GPa)
#
#
# Indices 1 2 3 4 5 6 
#
# 1 113.4350 33.0733 -2.5072 0.0000 13.0733 0.0000
# 2 33.0733 117.0601 5.9710 0.0000 10.1650 0.0000
# 3 -2.5072 5.9710 53.7651 0.0000 6.3547 0.0000
# 4 0.0000 0.0000 0.0000 21.7343 0.0000 2.3815
# 5 13.0733 10.1650 6.3547 0.0000 19.2624 0.0000
# 6 0.0000 0.0000 0.0000 2.3815 0.0000 30.7477
#
#
#
# Elastic Compliance Matrix: (Units=1/GPa)
#
#
# Indices 1 2 3 4 5 6 
#
# 1 0.010271 -0.002442 0.001479 0.000000 -0.006171 0.000000
# 2 -0.002442 0.009544 -0.000806 0.000000 -0.003114 0.000000
# 3 0.001479 -0.000806 0.019590 0.000000 -0.007042 0.000000
# 4 0.000000 0.000000 0.000000 0.046404 0.000000 -0.003594
# 5 -0.006171 -0.003114 -0.007042 0.000000 0.060069 0.000000
# 6 0.000000 0.000000 0.000000 -0.003594 0.000000 0.032801
#
#
# Mechanical properties :
#
#
# Convention : Reuss Voigt Hill
#
# Bulk Modulus (GPa) = 27.87868 39.70382 33.79125
# Shear Modulus (GPa) = 25.75035 30.86374 28.30704
#
# Velocity S-wave (km/s) = 3.52162 3.85545 3.69231
# Velocity P-wave (km/s) = 5.47381 6.24030 5.86958
#
# Compressibility (1/GPa) = 0.03586970
#
# Stress axis : x y z
#
# Youngs Moduli (GPa) = 97.35780 104.77866 51.04589
#
# Poissons Ratio (x) = 0.25583 -0.07552
# Poissons Ratio (y) = 0.23771 0.04113
# Poissons Ratio (z) = -0.14404 0.08443
#
# Static dielectric constant tensor:
#      x y z
#    x 3.714620 0.000000 0.238310 
#    y 0.000000 3.629750 0.000000 
#    z 0.238310 0.000000 3.746840 
# 
# 
# High freq. dielectric constant tensor:
#      x y z
#    x 1.835620 0.000000 0.004880 
#    y 0.000000 1.802720 0.000000 
#    z 0.004880 0.000000 1.812160 
# 
# From -- ./inp_files/105998.got.cif
#   From: 2010.06.25/outbox.cif.g09.slc.cpg/sg12_53_cif.got.tgz:105998.got - 2010.06.28 00:19:55.
