data_PCOD8112207
_publ_section_title
;
Structure prediction by ZEFSAII (Michael W. Deem and Ramdas Pophale) SiO2 
 PCOD8112207
Probable space group: C 2/M
;
_chemical_formula_sum "Si O2"
_cell_formula_units_Z 40
_cell_length_a 16.953309
_cell_length_b 11.731898
_cell_length_c 11.276813
_cell_angle_alpha 90.000000
_cell_angle_beta 62.913505
_cell_angle_gamma 90.000000
_cell_volume 1996.895507
_symmetry_space_group_name_H-M "C 2/M"
_symmetry_group_IT_number 12
_symmetry_cell_setting 'monoclinic'
loop_
_space_group_symop_operation_xyz
x,y,z
-x,y,-z
-x,-y,-z
x,-y,z
1/2+x,1/2+y,z
1/2-x,1/2+y,-z
1/2-x,1/2-y,-z
1/2+x,1/2-y,z
loop_
_atom_site_type_symbol
_atom_site_label
_atom_site_fract_x
_atom_site_fract_y
_atom_site_fract_z
Si Si1 0.730019 0.808022 0.336141
Si Si2 0.373239 0.500000 0.188033
Si Si3 0.508759 0.134210 0.125536
Si Si4 0.660993 0.264444 0.133122
Si Si5 0.925605 0.000000 0.879741
Si Si6 0.342440 0.871280 0.379250
O O1 0.814816 0.888792 0.256635
O O2 0.676596 0.773123 0.256816
O O3 0.660748 0.865648 0.475283
O O4 0.759939 0.691580 0.377051
O O5 0.466101 0.500000 0.199030
O O6 0.394217 0.500000 0.035693
O O7 0.601089 0.168634 0.116279
O O8 0.432743 0.181964 0.264802
O O9 0.505203 0.000000 0.117929
O O10 0.500000 0.189337 0.000000
O O11 0.615182 0.388849 0.157169
O O12 0.750000 0.250000 0.000000
O O13 0.334398 0.000000 0.341256
#
# Coordination Sequence:
#
# PCOD8112207 Si02
#       6
#     8   4   8   8   4   8
#     4  11  23  40  67  93 130 165 219 266 309 386
#     4  11  22  44  65  93 131 177 217 253 323 394
#     4  10  23  41  64  93 127 162 209 265 323 385
#     4  12  25  39  64  95 130 165 217 271 320 371
#     4  11  26  40  65  94 135 176 211 264 327 384
#     4  10  22  42  66  91 124 174 208 255 327 385
#
# _framework density 20.031094
#
# number of rings (size 3 to 8) (size 9 to 14) (size 15 to 20)
#    0.000    1.200    3.000    2.400    7.000    0.800 
#    0.000    2.000    0.000    3.600    0.000    0.000 
#    0.000    0.000    0.000    0.000    0.000    0.000 
#
# Total GULP energy -247954.992909 kJ/mol
# GULP energy per Si atom -12397.749645 kJ/mol
# Density = 1.998550 g / cm^3
# Si number density = 20.031094 Si / 1000 Ang^3
#
#
#
# Elastic Constant Matrix: (Units=GPa)
#
#
# Indices 1 2 3 4 5 6 
#
# 1 141.4618 43.3300 78.9250 0.0000 9.7984 0.0000
# 2 43.3300 75.0443 36.6521 0.0000 4.8553 0.0000
# 3 78.9250 36.6521 158.3201 0.0000 0.7768 0.0000
# 4 0.0000 0.0000 0.0000 19.4712 0.0000 8.8628
# 5 9.7984 4.8553 0.7768 0.0000 40.0388 0.0000
# 6 0.0000 0.0000 0.0000 8.8628 0.0000 25.3952
#
#
#
# Elastic Compliance Matrix: (Units=1/GPa)
#
#
# Indices 1 2 3 4 5 6 
#
# 1 0.010964 -0.003979 -0.004534 0.000000 -0.002113 0.000000
# 2 -0.003979 0.016593 -0.001853 0.000000 -0.001002 0.000000
# 3 -0.004534 -0.001853 0.009000 0.000000 0.001160 0.000000
# 4 0.000000 0.000000 0.000000 0.061057 0.000000 -0.021309
# 5 -0.002113 -0.001002 0.001160 0.000000 0.025592 0.000000
# 6 0.000000 0.000000 0.000000 -0.021309 0.000000 0.046814
#
#
# Mechanical properties :
#
#
# Convention : Reuss Voigt Hill
#
# Bulk Modulus (GPa) = 63.19346 76.96005 70.07676
# Shear Modulus (GPa) = 25.50676 31.37565 28.44120
#
# Velocity S-wave (km/s) = 3.57229 3.96200 3.77218
# Velocity P-wave (km/s) = 6.97360 7.70932 7.35067
#
# Compressibility (1/GPa) = 0.01582442
#
# Stress axis : x y z
#
# Youngs Moduli (GPa) = 91.20823 60.26704 111.11315
#
# Poissons Ratio (x) = 0.23982 0.50380
# Poissons Ratio (y) = 0.36295 0.20586
# Poissons Ratio (z) = 0.41354 0.11165
#
# Static dielectric constant tensor:
#      x y z
#    x 3.814520 0.000000 -0.293430 
#    y 0.000000 3.714210 0.000000 
#    z -0.293430 0.000000 4.304820 
# 
# 
# High freq. dielectric constant tensor:
#      x y z
#    x 1.775860 0.000000 -0.006040 
#    y 0.000000 1.793110 0.000000 
#    z -0.006040 0.000000 1.794570 
# 
# From -- ./inp_files/140849.got.cif
#   From: 2010.06.25/outbox.cif.g09.slc.cpg/sg12_71_cif.got.tgz:140849.got - 2010.06.28 00:19:55.
