data_PCOD8112290
_publ_section_title
;
Structure prediction by ZEFSAII (Michael W. Deem and Ramdas Pophale) SiO2 
 PCOD8112290
Probable space group: C 2/M
;
_chemical_formula_sum "Si O2"
_cell_formula_units_Z 44
_cell_length_a 9.095503
_cell_length_b 19.783212
_cell_length_c 11.192564
_cell_angle_alpha 90.000000
_cell_angle_beta 100.632664
_cell_angle_gamma 90.000000
_cell_volume 1979.391307
_symmetry_space_group_name_H-M "C 2/M"
_symmetry_group_IT_number 12
_symmetry_cell_setting 'monoclinic'
loop_
_space_group_symop_operation_xyz
x,y,z
-x,y,-z
-x,-y,-z
x,-y,z
1/2+x,1/2+y,z
1/2-x,1/2+y,-z
1/2-x,1/2-y,-z
1/2+x,1/2-y,z
loop_
_atom_site_type_symbol
_atom_site_label
_atom_site_fract_x
_atom_site_fract_y
_atom_site_fract_z
Si Si1 0.000000 0.118258 0.000000
Si Si2 0.348326 0.317412 0.190685
Si Si3 0.779084 0.423407 0.183931
Si Si4 0.999712 0.311381 0.136689
Si Si5 0.121892 0.074775 0.617688
Si Si6 0.662919 0.080384 0.543485
O O1 0.112800 0.076425 0.101537
O O2 0.884047 0.162319 0.059921
O O3 0.173285 0.319522 0.197358
O O4 0.420812 0.242976 0.213785
O O5 0.427555 0.372312 0.288398
O O6 0.839330 0.500000 0.190395
O O7 0.767028 0.396553 0.319020
O O8 0.905307 0.380524 0.133137
O O9 0.000000 0.286408 0.000000
O O10 0.256221 0.108140 0.562472
O O11 0.000000 0.063016 0.500000
O O12 0.157162 0.000000 0.680006
O O13 0.500000 0.111046 0.500000
O O14 0.666807 0.000000 0.538405
#
# Coordination Sequence:
#
# PCOD8112290 Si02
#       6
#     4   8   8   8   8   8
#     4  12  23  42  64  94 135 172 220 276 335 406
#     4  12  25  43  70  94 130 180 228 269 335 403
#     4  11  24  41  67 102 134 172 222 277 337 401
#     4  12  24  46  66  94 135 181 222 275 340 398
#     4  10  22  42  68  99 134 171 215 272 334 394
#     4   9  18  37  62  89 126 167 207 258 324 388
#
# _framework density 22.229056
#
# number of rings (size 3 to 8) (size 9 to 14) (size 15 to 20)
#    0.000    1.091    2.727    4.091    0.000    5.455 
#    0.000    4.545    0.000    0.000    0.000    0.000 
#    0.000    0.000    0.000    0.000    0.000    0.000 
#
# Total GULP energy -272602.698724 kJ/mol
# GULP energy per Si atom -12391.031760 kJ/mol
# Density = 2.217846 g / cm^3
# Si number density = 22.229056 Si / 1000 Ang^3
#
#
#
# Elastic Constant Matrix: (Units=GPa)
#
#
# Indices 1 2 3 4 5 6 
#
# 1 133.1664 49.2178 28.5767 0.0000 -0.4089 0.0000
# 2 49.2178 114.5917 45.8143 0.0000 -10.6062 0.0000
# 3 28.5767 45.8143 107.9148 0.0000 3.1556 0.0000
# 4 0.0000 0.0000 0.0000 29.8638 0.0000 -10.5156
# 5 -0.4089 -10.6062 3.1556 0.0000 34.9325 0.0000
# 6 0.0000 0.0000 0.0000 -10.5156 0.0000 27.1007
#
#
#
# Elastic Compliance Matrix: (Units=1/GPa)
#
#
# Indices 1 2 3 4 5 6 
#
# 1 0.009026 -0.003634 -0.000820 0.000000 -0.000924 0.000000
# 2 -0.003634 0.012447 -0.004443 0.000000 0.004138 0.000000
# 3 -0.000820 -0.004443 0.011440 0.000000 -0.002392 0.000000
# 4 0.000000 0.000000 0.000000 0.038784 0.000000 0.015049
# 5 -0.000924 0.004138 -0.002392 0.000000 0.030088 0.000000
# 6 0.000000 0.000000 0.000000 0.015049 0.000000 0.042739
#
#
# Mechanical properties :
#
#
# Convention : Reuss Voigt Hill
#
# Bulk Modulus (GPa) = 66.14638 66.98782 66.56710
# Shear Modulus (GPa) = 29.87616 33.85035 31.86325
#
# Velocity S-wave (km/s) = 3.67006 3.90654 3.79014
# Velocity P-wave (km/s) = 6.91234 7.10976 7.01174
#
# Compressibility (1/GPa) = 0.01511799
#
# Stress axis : x y z
#
# Youngs Moduli (GPa) = 110.79402 80.34207 87.41360
#
# Poissons Ratio (x) = 0.29198 0.07170
# Poissons Ratio (y) = 0.40264 0.38836
# Poissons Ratio (z) = 0.09088 0.35694
#
# Static dielectric constant tensor:
#      x y z
#    x 3.830060 0.000000 0.007170 
#    y 0.000000 3.719370 0.000000 
#    z 0.007170 0.000000 3.897440 
# 
# 
# High freq. dielectric constant tensor:
#      x y z
#    x 1.890330 0.000000 -0.005900 
#    y 0.000000 1.852380 0.000000 
#    z -0.005900 0.000000 1.871370 
# 
# From -- ./inp_files/120807.got.cif
#   From: 2010.06.25/outbox.cif.g09.slc.cpg/sg12_61_cif.got.tgz:120807.got - 2010.06.28 00:19:55.
