data_PCOD8112424
_publ_section_title
;
Structure prediction by ZEFSAII (Michael W. Deem and Ramdas Pophale) SiO2 
 PCOD8112424
Probable space group: C 2/M
;
_chemical_formula_sum "Si O2"
_cell_formula_units_Z 36
_cell_length_a 9.264808
_cell_length_b 13.313796
_cell_length_c 22.207615
_cell_angle_alpha 90.000000
_cell_angle_beta 142.857052
_cell_angle_gamma 90.000000
_cell_volume 1654.007337
_symmetry_space_group_name_H-M "C 2/M"
_symmetry_group_IT_number 12
_symmetry_cell_setting 'monoclinic'
loop_
_space_group_symop_operation_xyz
x,y,z
-x,y,-z
-x,-y,-z
x,-y,z
1/2+x,1/2+y,z
1/2-x,1/2+y,-z
1/2-x,1/2-y,-z
1/2+x,1/2-y,z
loop_
_atom_site_type_symbol
_atom_site_label
_atom_site_fract_x
_atom_site_fract_y
_atom_site_fract_z
Si Si1 0.567516 0.713167 0.297382
Si Si2 0.781558 0.000000 0.511590
Si Si3 0.241287 0.000000 0.351951
Si Si4 0.624760 0.384491 0.980512
Si Si5 0.500000 0.666636 0.500000
Si Si6 0.945804 0.276890 0.833884
O O1 0.625255 0.602773 0.290312
O O2 0.788205 0.760819 0.407249
O O3 0.337143 0.704990 0.262846
O O4 0.484709 0.779744 0.213204
O O5 0.500193 0.000000 0.406626
O O6 0.796634 0.000000 0.588526
O O7 0.904340 0.901462 0.523335
O O8 0.575504 0.500000 0.952467
O O9 0.517513 0.328743 0.887392
O O10 0.500000 0.345279 0.000000
O O11 0.909332 0.363965 0.082737
#
# Coordination Sequence:
#
# PCOD8112424 Si02
#       6
#     8   4   4   8   4   8
#     4  12  25  42  65  97 136 174 216 264 320 384
#     4  10  22  44  64  90 120 180 224 262 312 368
#     4  11  24  38  64  93 128 166 222 271 318 359
#     4  10  22  45  70  95 130 169 215 272 330 394
#     4  11  24  45  66  92 136 181 216 257 310 390
#     4  11  24  43  66 102 128 173 214 271 324 392
#
# _framework density 21.765322000000001
#
# number of rings (size 3 to 8) (size 9 to 14) (size 15 to 20)
#    0.000    1.111    2.222    4.000    3.111    2.667 
#    8.000    1.111    0.000    0.000    0.000    0.000 
#    0.000    0.000    0.000    0.000    0.000    0.000 
#
# Total GULP energy -223156.773847 kJ/mol
# GULP energy per Si atom -12397.598547 kJ/mol
# Density = 2.171578 g / cm^3
# Si number density = 21.765322 Si / 1000 Ang^3
#
#
#
# Elastic Constant Matrix: (Units=GPa)
#
#
# Indices 1 2 3 4 5 6 
#
# 1 90.3754 4.6427 16.9087 0.0000 16.8584 0.0000
# 2 4.6427 65.4246 17.2956 -0.0001 17.7606 0.0000
# 3 16.9087 17.2956 102.3437 -0.0001 21.8100 -0.0001
# 4 0.0000 -0.0001 -0.0001 18.3740 0.0000 -1.4801
# 5 16.8584 17.7606 21.8100 0.0000 38.1758 0.0000
# 6 0.0000 0.0000 -0.0001 -1.4801 0.0000 26.7598
#
#
#
# Elastic Compliance Matrix: (Units=1/GPa)
#
#
# Indices 1 2 3 4 5 6 
#
# 1 0.012182 0.000813 -0.001051 0.000000 -0.005158 0.000000
# 2 0.000813 0.017724 -0.001476 0.000000 -0.007762 0.000000
# 3 -0.001051 -0.001476 0.011328 0.000000 -0.005321 0.000000
# 4 0.000000 0.000000 0.000000 0.054668 0.000000 0.003024
# 5 -0.005158 -0.007762 -0.005321 0.000000 0.035123 0.000000
# 6 0.000000 0.000000 0.000000 0.003024 0.000000 0.037537
#
#
# Mechanical properties :
#
#
# Convention : Reuss Voigt Hill
#
# Bulk Modulus (GPa) = 26.44946 37.31530 31.88238
# Shear Modulus (GPa) = 27.08684 31.28169 29.18427
#
# Velocity S-wave (km/s) = 3.53157 3.79519 3.66575
# Velocity P-wave (km/s) = 5.36729 6.03210 5.70938
#
# Compressibility (1/GPa) = 0.03780796
#
# Stress axis : x y z
#
# Youngs Moduli (GPa) = 82.08921 56.41974 88.27719
#
# Poissons Ratio (x) = -0.04590 0.09278
# Poissons Ratio (y) = -0.06678 0.13026
# Poissons Ratio (z) = 0.08628 0.08325
#
# Static dielectric constant tensor:
#      x y z
#    x 4.049980 0.000000 0.104880 
#    y 0.000000 3.872650 0.000000 
#    z 0.104880 0.000000 3.741710 
# 
# 
# High freq. dielectric constant tensor:
#      x y z
#    x 1.866720 0.000000 0.005340 
#    y 0.000000 1.851870 0.000000 
#    z 0.005340 0.000000 1.857900 
# 
# From -- ./inp_files/300244.got.cif
#   From: 2010.06.25/outbox.cif.g09.slc.cpg/sg12_151_cif.got.tgz:300244.got - 2010.06.28 00:19:55.
