data_PCOD8112814
_publ_section_title
;
Structure prediction by ZEFSAII (Michael W. Deem and Ramdas Pophale) SiO2 
 PCOD8112814
Probable space group: C 2/M
;
_chemical_formula_sum "Si O2"
_cell_formula_units_Z 48
_cell_length_a 29.725778
_cell_length_b 8.813578
_cell_length_c 17.285599
_cell_angle_alpha 90.000000
_cell_angle_beta 30.104683
_cell_angle_gamma 90.000000
_cell_volume 2271.492884
_symmetry_space_group_name_H-M "C 2/M"
_symmetry_group_IT_number 12
_symmetry_cell_setting 'monoclinic'
loop_
_space_group_symop_operation_xyz
x,y,z
-x,y,-z
-x,-y,-z
x,-y,z
1/2+x,1/2+y,z
1/2-x,1/2+y,-z
1/2-x,1/2-y,-z
1/2+x,1/2-y,z
loop_
_atom_site_type_symbol
_atom_site_label
_atom_site_fract_x
_atom_site_fract_y
_atom_site_fract_z
Si Si1 0.143099 0.823575 0.351937
Si Si2 0.330067 0.826611 0.151164
Si Si3 0.010094 0.177299 0.834110
Si Si4 0.825077 0.323755 0.335395
Si Si5 0.338867 0.824939 0.835673
Si Si6 0.984025 0.673410 0.336156
O O1 0.246065 0.795122 0.221118
O O2 0.126563 0.765480 0.290200
O O3 0.079698 0.727508 0.501010
O O4 0.117491 0.000000 0.395908
O O5 0.300999 0.790963 0.282119
O O6 0.363432 0.000000 0.093648
O O7 0.408851 0.717785 0.006320
O O8 0.034229 0.225548 0.711475
O O9 0.076834 0.257141 0.794645
O O10 0.024855 0.000000 0.819674
O O11 0.826514 0.500000 0.352130
O O12 0.750000 0.250000 0.500000
O O13 0.412900 0.810605 0.792181
O O14 0.321106 0.000000 0.840318
O O15 0.250000 0.750000 0.000000
O O16 0.961096 0.500000 0.350024
#
# Coordination Sequence:
#
# PCOD8112814 Si02
#       6
#     8   8   8   8   8   8
#     4  11  23  40  64  93 124 158 201 252 305 364
#     4  10  23  42  62  88 122 160 201 247 301 360
#     4  12  25  40  62  92 123 158 204 253 304 363
#     4  11  23  41  65  91 124 163 204 251 302 359
#     4  11  24  41  62  90 123 161 205 252 305 364
#     4  11  24  42  63  88 122 162 204 251 303 361
#
# _framework density 21.131477
#
# number of rings (size 3 to 8) (size 9 to 14) (size 15 to 20)
#    0.000    1.000    0.000    6.500    0.000   14.667 
#    0.000    0.000    0.000    0.000    0.000    0.000 
#    0.000    0.000    0.000    0.000    0.000    0.000 
#
# Total GULP energy -297812.862908 kJ/mol
# GULP energy per Si atom -12408.869288 kJ/mol
# Density = 2.108338 g / cm^3
# Si number density = 21.131477 Si / 1000 Ang^3
#
#
#
# Elastic Constant Matrix: (Units=GPa)
#
#
# Indices 1 2 3 4 5 6 
#
# 1 62.1061 28.7364 -11.1213 -0.0003 3.3538 -0.0002
# 2 28.7364 100.2506 26.5328 -0.0025 0.6794 0.0007
# 3 -11.1213 26.5328 77.8571 -0.0018 6.0207 0.0006
# 4 -0.0003 -0.0025 -0.0018 45.1035 0.0006 0.9579
# 5 3.3538 0.6794 6.0207 0.0006 34.7321 0.0001
# 6 -0.0002 0.0007 0.0006 0.9579 0.0001 35.1714
#
#
#
# Elastic Compliance Matrix: (Units=1/GPa)
#
#
# Indices 1 2 3 4 5 6 
#
# 1 0.020716 -0.007430 0.005711 0.000000 -0.002845 0.000000
# 2 -0.007430 0.013636 -0.005821 0.000000 0.001460 0.000000
# 3 0.005711 -0.005821 0.015890 0.000000 -0.003192 0.000000
# 4 0.000000 0.000000 0.000000 0.022184 0.000000 -0.000604
# 5 -0.002845 0.001460 -0.003192 0.000000 0.029591 0.000000
# 6 0.000000 0.000000 0.000000 -0.000604 0.000000 0.028449
#
#
# Mechanical properties :
#
#
# Convention : Reuss Voigt Hill
#
# Bulk Modulus (GPa) = 28.44019 36.50108 32.47063
# Shear Modulus (GPa) = 31.79306 36.07245 33.93275
#
# Velocity S-wave (km/s) = 3.88304 4.13613 4.01158
# Velocity P-wave (km/s) = 5.79585 6.33410 6.07095
#
# Compressibility (1/GPa) = 0.03516151
#
# Stress axis : x y z
#
# Youngs Moduli (GPa) = 48.27217 73.33722 62.93080
#
# Poissons Ratio (x) = 0.54493 -0.35942
# Poissons Ratio (y) = 0.35868 0.36633
# Poissons Ratio (z) = -0.27570 0.42691
#
# Static dielectric constant tensor:
#      x y z
#    x 3.991760 0.000000 -0.153170 
#    y 0.000000 3.986550 0.000000 
#    z -0.153170 0.000000 3.701380 
# 
# 
# High freq. dielectric constant tensor:
#      x y z
#    x 1.842630 0.000000 0.001010 
#    y 0.000000 1.838550 0.000000 
#    z 0.001010 0.000000 1.839850 
# 
# From -- ./inp_files/274629.got.cif
#   From: 2010.06.25/outbox.cif.g09.slc.cpg/sg12_138_cif.got.tgz:274629.got - 2010.06.28 00:19:55.
