data_PCOD8112603
_publ_section_title
;
Structure prediction by ZEFSAII (Michael W. Deem and Ramdas Pophale) SiO2 
 PCOD8112603
Probable space group: C 2/M
;
_chemical_formula_sum "Si O2"
_cell_formula_units_Z 56
_cell_length_a 24.859158
_cell_length_b 8.804077
_cell_length_c 14.902761
_cell_angle_alpha 90.000000
_cell_angle_beta 74.353309
_cell_angle_gamma 90.000000
_cell_volume 3140.780671
_symmetry_space_group_name_H-M "C 2/M"
_symmetry_group_IT_number 12
_symmetry_cell_setting 'monoclinic'
loop_
_space_group_symop_operation_xyz
x,y,z
-x,y,-z
-x,-y,-z
x,-y,z
1/2+x,1/2+y,z
1/2-x,1/2+y,-z
1/2-x,1/2-y,-z
1/2+x,1/2-y,z
loop_
_atom_site_type_symbol
_atom_site_label
_atom_site_fract_x
_atom_site_fract_y
_atom_site_fract_z
Si Si1 0.580315 0.324147 0.896358
Si Si2 0.848177 0.678520 0.280517
Si Si3 0.955127 0.325296 0.713534
Si Si4 0.743183 0.177918 0.406022
Si Si5 0.617474 0.174160 0.422557
Si Si6 0.544446 0.324278 0.106756
Si Si7 0.569953 0.322370 0.613203
O O1 0.596772 0.500000 0.880624
O O2 0.627070 0.223472 0.827256
O O3 0.521427 0.295180 0.874523
O O4 0.576721 0.274800 0.001937
O O5 0.841868 0.500000 0.290243
O O6 0.787395 0.752644 0.316903
O O7 0.887484 0.733683 0.342853
O O8 0.974466 0.500000 0.705426
O O9 0.904576 0.297699 0.667729
O O10 0.932979 0.277303 0.821705
O O11 0.006771 0.220612 0.663251
O O12 0.750000 0.250000 0.500000
O O13 0.682458 0.216956 0.394271
O O14 0.753564 0.000000 0.410283
O O15 0.582750 0.280977 0.504804
O O16 0.608051 0.000000 0.456811
O O17 0.555957 0.500000 0.122016
O O18 0.578227 0.500000 0.626113
#
# Coordination Sequence:
#
# PCOD8112603 Si02
#       7
#     8   8   8   8   8   8   8
#     4   9  18  34  55  81 111 143 179 221 273 325
#     4  12  23  35  55  83 114 144 179 228 278 324
#     4  11  22  36  55  81 114 148 180 222 272 327
#     4  11  22  38  59  80 106 145 187 229 273 320
#     4  10  23  40  56  77 110 148 185 224 273 325
#     4   9  18  33  55  81 111 144 179 221 268 324
#     4  12  23  35  54  80 111 148 186 223 267 325
#
# _framework density 17.829961000000001
#
# number of rings (size 3 to 8) (size 9 to 14) (size 15 to 20)
#    0.000    1.429    2.857    4.714    0.000    4.000 
#    0.000    1.429    0.000    0.857    0.000    0.000 
#    0.000    0.000    0.000    0.000    0.000    0.000 
#
# Total GULP energy -347326.824122 kJ/mol
# GULP energy per Si atom -12404.529433 kJ/mol
# Density = 1.778938 g / cm^3
# Si number density = 17.829961 Si / 1000 Ang^3
#
#
#
# Elastic Constant Matrix: (Units=GPa)
#
#
# Indices 1 2 3 4 5 6 
#
# 1 82.8927 36.4771 50.5460 0.0000 7.9701 0.0000
# 2 36.4771 91.2085 50.7334 0.0000 1.3958 0.0000
# 3 50.5460 50.7334 128.0772 0.0000 1.4458 0.0000
# 4 0.0000 0.0000 0.0000 34.9220 0.0000 -0.5643
# 5 7.9701 1.3958 1.4458 0.0000 23.0467 0.0000
# 6 0.0000 0.0000 0.0000 -0.5643 0.0000 22.5104
#
#
#
# Elastic Compliance Matrix: (Units=1/GPa)
#
#
# Indices 1 2 3 4 5 6 
#
# 1 0.017581 -0.004004 -0.005290 0.000000 -0.005505 0.000000
# 2 -0.004004 0.014980 -0.004362 0.000000 0.000751 0.000000
# 3 -0.005290 -0.004362 0.011608 0.000000 0.001365 0.000000
# 4 0.000000 0.000000 0.000000 0.028647 0.000000 0.000718
# 5 -0.005505 0.000751 0.001365 0.000000 0.045163 0.000000
# 6 0.000000 0.000000 0.000000 0.000718 0.000000 0.044442
#
#
# Mechanical properties :
#
#
# Convention : Reuss Voigt Hill
#
# Bulk Modulus (GPa) = 59.32523 64.18794 61.75659
# Shear Modulus (GPa) = 25.59476 27.05730 26.32603
#
# Velocity S-wave (km/s) = 3.79290 3.89976 3.84670
# Velocity P-wave (km/s) = 7.24751 7.50704 7.37842
#
# Compressibility (1/GPa) = 0.01685623
#
# Stress axis : x y z
#
# Youngs Moduli (GPa) = 56.87956 66.75483 86.14778
#
# Poissons Ratio (x) = 0.26731 0.45572
# Poissons Ratio (y) = 0.22777 0.37578
# Poissons Ratio (z) = 0.30089 0.29119
#
# Static dielectric constant tensor:
#      x y z
#    x 3.273070 0.000000 -0.055570 
#    y 0.000000 3.346200 0.000000 
#    z -0.055570 0.000000 3.625170 
# 
# 
# High freq. dielectric constant tensor:
#      x y z
#    x 1.667590 0.000000 -0.002200 
#    y 0.000000 1.697170 0.000000 
#    z -0.002200 0.000000 1.695230 
# 
# From -- ./inp_files/237422.got.cif
#   From: 2010.06.25/outbox.cif.g09.slc.cpg/sg12_119_cif.got.tgz:237422.got - 2010.06.28 00:19:55.
