data_PCOD8112806
_publ_section_title
;
Structure prediction by ZEFSAII (Michael W. Deem and Ramdas Pophale) SiO2 
 PCOD8112806
Probable space group: C 2/M
;
_chemical_formula_sum "Si O2"
_cell_formula_units_Z 64
_cell_length_a 17.449098
_cell_length_b 18.254907
_cell_length_c 15.576646
_cell_angle_alpha 90.000000
_cell_angle_beta 141.462439
_cell_angle_gamma 90.000000
_cell_volume 3091.247722
_symmetry_space_group_name_H-M "C 2/M"
_symmetry_group_IT_number 12
_symmetry_cell_setting 'monoclinic'
loop_
_space_group_symop_operation_xyz
x,y,z
-x,y,-z
-x,-y,-z
x,-y,z
1/2+x,1/2+y,z
1/2-x,1/2+y,-z
1/2-x,1/2-y,-z
1/2+x,1/2-y,z
loop_
_atom_site_type_symbol
_atom_site_label
_atom_site_fract_x
_atom_site_fract_y
_atom_site_fract_z
Si Si1 0.433025 0.858729 0.645625
Si Si2 0.635882 0.416624 0.102285
Si Si3 0.236890 0.086228 0.592502
Si Si4 0.313017 0.311271 0.116258
Si Si5 0.721831 0.166532 0.637020
Si Si6 0.911152 0.809237 0.662081
Si Si7 0.139424 0.814858 0.641454
Si Si8 0.193464 0.582967 0.904182
O O1 0.374588 0.901948 0.675388
O O2 0.369749 0.884097 0.500938
O O3 0.393732 0.773386 0.613193
O O4 0.578612 0.869975 0.767713
O O5 0.629371 0.500000 0.127606
O O6 0.742831 0.378058 0.248628
O O7 0.684784 0.409656 0.048024
O O8 0.500000 0.381594 0.000000
O O9 0.140338 0.130560 0.449126
O O10 0.227357 0.120946 0.679899
O O11 0.205022 0.000000 0.566753
O O12 0.447342 0.325237 0.196726
O O13 0.322517 0.297746 0.226605
O O14 0.250000 0.250000 0.000000
O O15 0.232839 0.384829 0.031039
O O16 0.847155 0.184351 0.697330
O O17 0.653493 0.240340 0.602446
O O18 0.000000 0.840979 0.500000
O O19 0.149004 0.500000 0.875313
#
# Coordination Sequence:
#
# PCOD8112806 Si02
#       8
#     8   8   8   8   8   8   8   8
#     4  11  21  43  66  94 132 170 219 265 325 396
#     4  10  23  42  61  92 132 166 212 269 329 390
#     4  11  23  41  66  98 133 174 218 273 328 389
#     4  12  24  41  68  96 129 172 223 266 326 390
#     4  11  22  37  70  93 125 168 218 270 327 383
#     4  11  21  43  66  93 128 171 220 267 323 388
#     4  12  24  42  65  99 131 166 219 277 324 379
#     4  11  25  43  64  93 133 175 212 267 331 396
#
# _framework density 20.703614000000002
#
# number of rings (size 3 to 8) (size 9 to 14) (size 15 to 20)
#    0.000    0.875    5.000    2.625    1.750    3.750 
#    0.000    3.125    0.000    1.500    0.000    0.000 
#    0.000    0.000    0.000    0.000    0.000    0.000 
#
# Total GULP energy -396650.358976 kJ/mol
# GULP energy per Si atom -12395.323718 kJ/mol
# Density = 2.065649 g / cm^3
# Si number density = 20.703614 Si / 1000 Ang^3
#
#
#
# Elastic Constant Matrix: (Units=GPa)
#
#
# Indices 1 2 3 4 5 6 
#
# 1 100.7283 30.7684 40.8246 0.0000 1.6449 0.0000
# 2 30.7684 86.8191 27.2472 0.0001 -10.9541 0.0001
# 3 40.8246 27.2472 99.9582 0.0001 -4.1782 0.0001
# 4 0.0000 0.0001 0.0001 28.4396 0.0001 -2.3010
# 5 1.6449 -10.9541 -4.1782 0.0001 39.1514 0.0001
# 6 0.0000 0.0001 0.0001 -2.3010 0.0001 24.3633
#
#
#
# Elastic Compliance Matrix: (Units=1/GPa)
#
#
# Indices 1 2 3 4 5 6 
#
# 1 0.012769 -0.003401 -0.004370 0.000000 -0.001954 0.000000
# 2 -0.003401 0.013906 -0.002243 0.000000 0.003794 0.000000
# 3 -0.004370 -0.002243 0.012437 0.000000 0.000883 0.000000
# 4 0.000000 0.000000 0.000000 0.035433 0.000000 0.003346
# 5 -0.001954 0.003794 0.000883 0.000000 0.026780 0.000000
# 6 0.000000 0.000000 0.000000 0.003346 0.000000 0.041361
#
#
# Mechanical properties :
#
#
# Convention : Reuss Voigt Hill
#
# Bulk Modulus (GPa) = 52.39600 53.90957 53.15279
# Shear Modulus (GPa) = 29.57243 30.96855 30.27049
#
# Velocity S-wave (km/s) = 3.78348 3.87176 3.82787
# Velocity P-wave (km/s) = 6.66700 6.78842 6.72798
#
# Compressibility (1/GPa) = 0.01908543
#
# Stress axis : x y z
#
# Youngs Moduli (GPa) = 78.31167 71.91103 80.40299
#
# Poissons Ratio (x) = 0.24454 0.35136
# Poissons Ratio (y) = 0.26630 0.18036
# Poissons Ratio (z) = 0.34222 0.16131
#
# Static dielectric constant tensor:
#      x y z
#    x 3.969760 0.000000 0.045290 
#    y 0.000000 3.714140 0.000000 
#    z 0.045290 0.000000 3.694520 
# 
# 
# High freq. dielectric constant tensor:
#      x y z
#    x 1.819070 0.000000 0.006540 
#    y 0.000000 1.801710 0.000000 
#    z 0.006540 0.000000 1.806390 
# 
# From -- ./inp_files/226908.got.cif
#   From: 2010.06.25/outbox.cif.g09.slc.cpg/sg12_114_cif.got.tgz:226908.got - 2010.06.28 00:19:55.
