data_PCOD8112702
_publ_section_title
;
Structure prediction by ZEFSAII (Michael W. Deem and Ramdas Pophale) SiO2 
 PCOD8112702
Probable space group: C 2/M
;
_chemical_formula_sum "Si O2"
_cell_formula_units_Z 40
_cell_length_a 12.822280
_cell_length_b 29.565900
_cell_length_c 5.152903
_cell_angle_alpha 90.000000
_cell_angle_beta 101.861632
_cell_angle_gamma 90.000000
_cell_volume 1911.764222
_symmetry_space_group_name_H-M "C 2/M"
_symmetry_group_IT_number 12
_symmetry_cell_setting 'monoclinic'
loop_
_space_group_symop_operation_xyz
x,y,z
-x,y,-z
-x,-y,-z
x,-y,z
1/2+x,1/2+y,z
1/2-x,1/2+y,-z
1/2-x,1/2-y,-z
1/2+x,1/2-y,z
loop_
_atom_site_type_symbol
_atom_site_label
_atom_site_fract_x
_atom_site_fract_y
_atom_site_fract_z
Si Si1 0.222550 0.871565 0.218564
Si Si2 0.172363 0.281059 0.793514
Si Si3 0.500000 0.660198 0.000000
Si Si4 0.072314 0.500000 0.282095
Si Si5 0.000000 0.777780 0.500000
Si Si6 0.330332 0.904761 0.757317
Si Si7 0.500000 0.160476 0.000000
O O1 0.253872 0.819518 0.290485
O O2 0.099927 0.873417 0.071947
O O3 0.237273 0.893978 0.505968
O O4 0.291774 0.896974 0.033707
O O5 0.108666 0.252380 0.541991
O O6 0.250000 0.250000 0.000000
O O7 0.082085 0.305956 0.910913
O O8 0.509448 0.691931 0.757186
O O9 0.145440 0.456224 0.297108
O O10 0.000000 0.500000 0.500000
O O11 0.000000 0.500000 0.000000
O O12 0.434818 0.872737 0.768963
#
# Coordination Sequence:
#
# PCOD8112702 Si02
#       7
#     8   8   4   4   4   8   4
#     4  11  25  43  64  93 132 177 222 269 334 380
#     4  11  23  39  60  91 128 183 222 283 318 381
#     4  12  25  42  66  89 125 177 232 283 310 383
#     4  12  24  42  76 109 136 163 210 260 342 423
#     4  12  24  40  60  90 126 172 238 282 326 368
#     4  11  24  44  69  98 136 168 204 271 342 408
#     4  10  23  41  60  94 137 175 214 271 328 395
#
# _framework density 20.923082999999998
#
# number of rings (size 3 to 8) (size 9 to 14) (size 15 to 20)
#    0.000    0.800    3.000    4.200    5.600    2.400 
#    0.000    0.000    0.000    3.600    0.000    0.000 
#    0.000    0.000    0.000    0.000    0.000    0.000 
#
# Total GULP energy -247956.325122 kJ/mol
# GULP energy per Si atom -12397.816256 kJ/mol
# Density = 2.087546 g / cm^3
# Si number density = 20.923083 Si / 1000 Ang^3
#
#
#
# Elastic Constant Matrix: (Units=GPa)
#
#
# Indices 1 2 3 4 5 6 
#
# 1 88.1671 35.6345 29.0079 0.0000 28.6040 0.0000
# 2 35.6345 113.7699 37.3494 0.0000 14.0745 0.0000
# 3 29.0079 37.3494 133.1531 0.0000 18.3615 0.0000
# 4 0.0000 0.0000 0.0000 32.3550 0.0000 4.7720
# 5 28.6040 14.0745 18.3615 0.0000 45.1593 0.0000
# 6 0.0000 0.0000 0.0000 4.7720 0.0000 19.8431
#
#
#
# Elastic Compliance Matrix: (Units=1/GPa)
#
#
# Indices 1 2 3 4 5 6 
#
# 1 0.015943 -0.003513 -0.001320 0.000000 -0.008467 0.000000
# 2 -0.003513 0.010633 -0.002190 0.000000 -0.000199 0.000000
# 3 -0.001320 -0.002190 0.008690 0.000000 -0.002014 0.000000
# 4 0.000000 0.000000 0.000000 0.032044 0.000000 -0.007706
# 5 -0.008467 -0.000199 -0.002014 0.000000 0.028388 0.000000
# 6 0.000000 0.000000 0.000000 -0.007706 0.000000 0.052249
#
#
# Mechanical properties :
#
#
# Convention : Reuss Voigt Hill
#
# Bulk Modulus (GPa) = 47.12509 59.89707 53.51108
# Shear Modulus (GPa) = 29.57422 35.01137 32.29280
#
# Velocity S-wave (km/s) = 3.76370 4.09508 3.93288
# Velocity P-wave (km/s) = 6.43888 7.14486 6.80103
#
# Compressibility (1/GPa) = 0.02122012
#
# Stress axis : x y z
#
# Youngs Moduli (GPa) = 62.72298 94.04286 115.07640
#
# Poissons Ratio (x) = 0.33035 0.15195
# Poissons Ratio (y) = 0.22033 0.25202
# Poissons Ratio (z) = 0.08282 0.20596
#
# Static dielectric constant tensor:
#      x y z
#    x 4.066120 0.000000 0.331840 
#    y 0.000000 3.712630 0.000000 
#    z 0.331840 0.000000 3.817080 
# 
# 
# High freq. dielectric constant tensor:
#      x y z
#    x 1.818160 0.000000 0.015150 
#    y 0.000000 1.807890 0.000000 
#    z 0.015150 0.000000 1.831830 
# 
# From -- ./inp_files/8580.got.cif
#   From: 2010.06.25/outbox.cif.g09.slc.cpg/sg12_5_cif.got.tgz:8580.got - 2010.06.28 00:19:55.
