data_PCOD8112134
_publ_section_title
;
Structure prediction by ZEFSAII (Michael W. Deem and Ramdas Pophale) SiO2 
 PCOD8112134
Probable space group: C 2/M
;
_chemical_formula_sum "Si O2"
_cell_formula_units_Z 56
_cell_length_a 28.853620
_cell_length_b 9.154809
_cell_length_c 11.492432
_cell_angle_alpha 90.000000
_cell_angle_beta 111.064131
_cell_angle_gamma 90.000000
_cell_volume 2832.868178
_symmetry_space_group_name_H-M "C 2/M"
_symmetry_group_IT_number 12
_symmetry_cell_setting 'monoclinic'
loop_
_space_group_symop_operation_xyz
x,y,z
-x,y,-z
-x,-y,-z
x,-y,z
1/2+x,1/2+y,z
1/2-x,1/2+y,-z
1/2-x,1/2-y,-z
1/2+x,1/2-y,z
loop_
_atom_site_type_symbol
_atom_site_label
_atom_site_fract_x
_atom_site_fract_y
_atom_site_fract_z
Si Si1 0.924118 0.668085 0.377100
Si Si2 0.644609 0.169062 0.168305
Si Si3 0.831668 0.170967 0.346339
Si Si4 0.477939 0.831817 0.664738
Si Si5 0.045992 0.827711 0.121552
Si Si6 0.802194 0.670340 0.541073
Si Si7 0.238104 0.670163 0.107194
O O1 0.907035 0.500000 0.360313
O O2 0.877219 0.772204 0.308042
O O3 0.946521 0.709353 0.522710
O O4 0.964181 0.695749 0.311791
O O5 0.595259 0.263225 0.106481
O O6 0.667266 0.196901 0.314990
O O7 0.684848 0.220204 0.108768
O O8 0.631041 0.000000 0.138908
O O9 0.835153 0.260398 0.469104
O O10 0.779743 0.209044 0.239317
O O11 0.837006 0.000000 0.375874
O O12 0.461013 0.731792 0.755090
O O13 0.468738 0.000000 0.690993
O O14 0.051504 0.000000 0.133791
O O15 0.000000 0.779816 0.000000
O O16 0.792698 0.500000 0.509824
O O17 0.750000 0.750000 0.500000
O O18 0.238358 0.500000 0.080813
O O19 0.250000 0.750000 0.000000
#
# Coordination Sequence:
#
# PCOD8112134 Si02
#       7
#     8   8   8   8   8   8   8
#     4   9  19  36  59  88 117 149 191 238 290 349
#     4  10  22  42  63  85 117 154 195 242 290 347
#     4  11  22  37  56  86 123 154 190 238 292 348
#     4   9  19  38  61  84 115 152 193 240 290 347
#     4  11  25  41  58  85 119 152 196 248 296 345
#     4  11  21  36  60  89 121 153 191 240 291 348
#     4  10  23  42  59  81 115 153 194 238 283 341
#
# _framework density 19.767951
#
# number of rings (size 3 to 8) (size 9 to 14) (size 15 to 20)
#    0.000    1.857    1.429    3.000    0.000    9.714 
#    0.000    7.143    0.000    0.000    0.000    0.000 
#    0.000    0.000    0.000    0.000    0.000    0.000 
#
# Total GULP energy -347294.831608 kJ/mol
# GULP energy per Si atom -12403.386843 kJ/mol
# Density = 1.972296 g / cm^3
# Si number density = 19.767951 Si / 1000 Ang^3
#
#
#
# Elastic Constant Matrix: (Units=GPa)
#
#
# Indices 1 2 3 4 5 6 
#
# 1 153.4621 64.3786 50.8972 0.0000 4.1967 0.0000
# 2 64.3786 86.0550 49.8169 0.0000 5.7982 0.0000
# 3 50.8972 49.8169 68.3945 0.0000 -11.2244 0.0000
# 4 0.0000 0.0000 0.0000 32.8548 0.0000 0.0290
# 5 4.1967 5.7982 -11.2244 0.0000 33.2559 0.0000
# 6 0.0000 0.0000 0.0000 0.0290 0.0000 41.3562
#
#
#
# Elastic Compliance Matrix: (Units=1/GPa)
#
#
# Indices 1 2 3 4 5 6 
#
# 1 0.010026 -0.005001 -0.004111 0.000000 -0.001781 0.000000
# 2 -0.005001 0.025455 -0.016349 0.000000 -0.009325 0.000000
# 3 -0.004111 -0.016349 0.031909 0.000000 0.014139 0.000000
# 4 0.000000 0.000000 0.000000 0.030437 0.000000 -0.000021
# 5 -0.001781 -0.009325 0.014139 0.000000 0.036693 0.000000
# 6 0.000000 0.000000 0.000000 -0.000021 0.000000 0.024180
#
#
# Mechanical properties :
#
#
# Convention : Reuss Voigt Hill
#
# Bulk Modulus (GPa) = 60.72530 70.89967 65.81248
# Shear Modulus (GPa) = 23.24369 31.01463 27.12916
#
# Velocity S-wave (km/s) = 3.43275 3.96528 3.70859
# Velocity P-wave (km/s) = 6.81891 7.54376 7.19047
#
# Compressibility (1/GPa) = 0.01646760
#
# Stress axis : x y z
#
# Youngs Moduli (GPa) = 99.73696 39.28551 31.33887
#
# Poissons Ratio (x) = 0.19647 0.12883
# Poissons Ratio (y) = 0.49878 0.51237
# Poissons Ratio (z) = 0.41002 0.64229
#
# Static dielectric constant tensor:
#      x y z
#    x 3.182250 0.000000 -0.408430 
#    y 0.000000 3.528390 0.000000 
#    z -0.408430 0.000000 3.203000 
# 
# 
# High freq. dielectric constant tensor:
#      x y z
#    x 1.791980 0.000000 -0.000450 
#    y 0.000000 1.767380 0.000000 
#    z -0.000450 0.000000 1.758670 
# 
# From -- ./inp_files/181029.got.cif
#   From: 2010.06.25/outbox.cif.g09.slc.cpg/sg12_91_cif.got.tgz:181029.got - 2010.06.28 00:19:55.
