data_PCOD8112911
_publ_section_title
;
Structure prediction by ZEFSAII (Michael W. Deem and Ramdas Pophale) SiO2 
 PCOD8112911
Probable space group: C 2/M
;
_chemical_formula_sum "Si O2"
_cell_formula_units_Z 52
_cell_length_a 9.676227
_cell_length_b 28.254925
_cell_length_c 15.377201
_cell_angle_alpha 90.000000
_cell_angle_beta 34.590065
_cell_angle_gamma 90.000000
_cell_volume 2386.696312
_symmetry_space_group_name_H-M "C 2/M"
_symmetry_group_IT_number 12
_symmetry_cell_setting 'monoclinic'
loop_
_space_group_symop_operation_xyz
x,y,z
-x,y,-z
-x,-y,-z
x,-y,z
1/2+x,1/2+y,z
1/2-x,1/2+y,-z
1/2-x,1/2-y,-z
1/2+x,1/2-y,z
loop_
_atom_site_type_symbol
_atom_site_label
_atom_site_fract_x
_atom_site_fract_y
_atom_site_fract_z
Si Si1 0.559157 0.945183 0.227938
Si Si2 0.138948 0.446424 0.848562
Si Si3 0.697324 0.695058 0.772356
Si Si4 0.146867 0.088088 0.564406
Si Si5 0.000000 0.365622 0.500000
Si Si6 0.000000 0.874749 0.000000
Si Si7 0.500000 0.337863 0.500000
Si Si8 0.108499 0.263710 0.661763
O O1 0.445653 0.924478 0.198385
O O2 0.346584 0.941685 0.408783
O O3 0.774914 0.909099 0.135329
O O4 0.647935 0.000000 0.178762
O O5 0.047970 0.500000 0.894148
O O6 0.429155 0.445601 0.707617
O O7 0.000000 0.420033 0.000000
O O8 0.929222 0.665087 0.619981
O O9 0.490499 0.660553 0.920930
O O10 0.589825 0.722735 0.744879
O O11 0.826854 0.725464 0.782493
O O12 0.266110 0.104364 0.592821
O O13 0.025131 0.130791 0.573529
O O14 0.255607 0.306071 0.632755
O O15 0.250000 0.250000 0.500000
#
# Coordination Sequence:
#
# PCOD8112911 Si02
#       8
#     8   8   8   8   4   4   4   8
#     4  11  23  45  71  96 137 191 233 276 346 419
#     4  10  23  42  65  98 137 177 229 289 342 405
#     4  12  25  43  69  95 141 178 227 286 342 418
#     4  12  23  40  69 104 133 181 237 281 333 414
#     4  12  23  40  65 104 135 177 228 282 341 397
#     4  12  27  46  64 104 144 176 230 294 353 398
#     4  12  19  36  67  96 131 175 229 266 328 411
#     4  12  21  41  67  98 124 180 230 276 344 406
#
# _framework density 21.787438999999999
#
# number of rings (size 3 to 8) (size 9 to 14) (size 15 to 20)
#    0.000    0.462    7.692    0.692    2.154    1.846 
#    0.000    1.538    1.692    0.000    0.000    0.000 
#    0.000    0.000    0.000    0.000    0.000    0.000 
#
# Total GULP energy -322234.337805 kJ/mol
# GULP energy per Si atom -12393.628377 kJ/mol
# Density = 2.173785 g / cm^3
# Si number density = 21.787439 Si / 1000 Ang^3
#
#
#
# Elastic Constant Matrix: (Units=GPa)
#
#
# Indices 1 2 3 4 5 6 
#
# 1 129.7976 41.5691 29.8187 0.0000 3.1023 0.0000
# 2 41.5691 88.4052 36.4540 0.0000 7.5427 0.0000
# 3 29.8187 36.4540 125.5919 0.0000 6.1615 0.0000
# 4 0.0000 0.0000 0.0000 -2.4244 0.0000 -20.0095
# 5 3.1023 7.5427 6.1615 0.0000 22.3294 0.0000
# 6 0.0000 0.0000 0.0000 -20.0095 0.0000 22.0980
#
#
#
# Elastic Compliance Matrix: (Units=1/GPa)
#
#
# Indices 1 2 3 4 5 6 
#
# 1 0.009194 -0.003913 -0.001064 0.000000 0.000338 0.000000
# 2 -0.003913 0.014768 -0.003182 0.000000 -0.003567 0.000000
# 3 -0.001064 -0.003182 0.009203 0.000000 -0.001317 0.000000
# 4 0.000000 0.000000 0.000000 -0.048679 0.000000 -0.044078
# 5 0.000338 -0.003567 -0.001317 0.000000 0.046305 0.000000
# 6 0.000000 0.000000 0.000000 -0.044078 0.000000 0.005341
#
#
# Mechanical properties :
#
#
# Convention : Reuss Voigt Hill
#
# Bulk Modulus (GPa) = 59.35956 62.16427 60.76192
# Shear Modulus (GPa) = 86.10792 24.13077 55.11934
#
# Velocity S-wave (km/s) = 6.29346 3.33160 5.03524
# Velocity P-wave (km/s) = 8.95065 6.58738 7.85836
#
# Compressibility (1/GPa) = 0.01684649
#
# Stress axis : x y z
#
# Youngs Moduli (GPa) = 108.76844 67.71278 108.65838
#
# Poissons Ratio (x) = 0.26498 0.11556
# Poissons Ratio (y) = 0.42565 0.34581
# Poissons Ratio (z) = 0.11568 0.21550
#
# Static dielectric constant tensor:
#      x y z
#    x 4.100100 0.000000 0.120760 
#    y 0.000000 3.974160 0.000000 
#    z 0.120760 0.000000 3.851040 
# 
# 
# High freq. dielectric constant tensor:
#      x y z
#    x 1.861350 0.000000 0.006280 
#    y 0.000000 1.852840 0.000000 
#    z 0.006280 0.000000 1.844050 
# 
# From -- ./inp_files/201212.got.cif
#   From: 2010.06.25/outbox.cif.g09.slc.cpg/sg12_101_cif.got.tgz:201212.got - 2010.06.28 00:19:55.
