data_PCOD8112392
_publ_section_title
;
Structure prediction by ZEFSAII (Michael W. Deem and Ramdas Pophale) SiO2 
 PCOD8112392
Probable space group: C 2/M
;
_chemical_formula_sum "Si O2"
_cell_formula_units_Z 56
_cell_length_a 11.935357
_cell_length_b 32.650772
_cell_length_c 14.161237
_cell_angle_alpha 90.000000
_cell_angle_beta 29.686738
_cell_angle_gamma 90.000000
_cell_volume 2733.135765
_symmetry_space_group_name_H-M "C 2/M"
_symmetry_group_IT_number 12
_symmetry_cell_setting 'monoclinic'
loop_
_space_group_symop_operation_xyz
x,y,z
-x,y,-z
-x,-y,-z
x,-y,z
1/2+x,1/2+y,z
1/2-x,1/2+y,-z
1/2-x,1/2-y,-z
1/2+x,1/2-y,z
loop_
_atom_site_type_symbol
_atom_site_label
_atom_site_fract_x
_atom_site_fract_y
_atom_site_fract_z
Si Si1 0.179624 0.894664 0.951191
Si Si2 0.915863 0.167312 0.465097
Si Si3 0.265267 0.545351 0.725553
Si Si4 0.575332 0.047916 0.672369
Si Si5 0.507790 0.410297 0.283564
Si Si6 0.744921 0.771109 0.864462
Si Si7 0.100682 0.309492 0.161218
O O1 0.369089 0.926904 0.779501
O O2 0.288732 0.850312 0.880197
O O3 0.070258 0.910000 0.128639
O O4 0.000000 0.893165 0.000000
O O5 0.664740 0.184507 0.659491
O O6 0.000000 0.145060 0.500000
O O7 0.928402 0.135001 0.371271
O O8 0.086844 0.205010 0.327362
O O9 0.500000 0.542731 0.500000
O O10 0.196760 0.500000 0.811700
O O11 0.091581 0.561057 0.771852
O O12 0.278432 0.575166 0.807288
O O13 0.803340 0.058013 0.448042
O O14 0.527756 0.000000 0.696909
O O15 0.858217 0.726893 0.795121
O O16 0.500000 0.764573 0.000000
O O17 0.724678 0.797626 0.973903
#
# Coordination Sequence:
#
# PCOD8112392 Si02
#       7
#     8   8   8   8   8   8   8
#     4  12  27  45  63  91 129 180 228 267 315 389
#     4  12  22  39  68 104 130 165 213 272 330 394
#     4   8  16  34  62  95 126 157 196 253 330 389
#     4  10  22  43  68  96 130 167 213 276 331 386
#     4  11  22  39  66  97 131 169 210 266 334 387
#     4  11  23  42  67  96 130 172 213 268 326 384
#     4  11  24  44  64  91 136 171 218 266 323 385
#
# _framework density 20.489286
#
# number of rings (size 3 to 8) (size 9 to 14) (size 15 to 20)
#    0.000    1.286    4.286    3.429    0.000    2.571 
#    0.000    2.143    0.000    0.000    0.000    0.000 
#    0.000    0.000    0.000    0.000    0.000    0.000 
#
# Total GULP energy -347226.917741 kJ/mol
# GULP energy per Si atom -12400.961348 kJ/mol
# Density = 2.044265 g / cm^3
# Si number density = 20.489286 Si / 1000 Ang^3
#
#
#
# Elastic Constant Matrix: (Units=GPa)
#
#
# Indices 1 2 3 4 5 6 
#
# 1 103.0367 32.9658 25.1025 0.0008 -17.6323 -0.0003
# 2 32.9658 95.0919 12.1752 0.0010 -15.4103 -0.0004
# 3 25.1025 12.1752 44.0106 0.0027 -11.8189 -0.0010
# 4 0.0008 0.0010 0.0027 231.6646 -0.0003 -85.0099
# 5 -17.6323 -15.4103 -11.8189 -0.0003 38.1844 0.0001
# 6 -0.0003 -0.0004 -0.0010 -85.0099 0.0001 61.7727
#
#
#
# Elastic Compliance Matrix: (Units=1/GPa)
#
#
# Indices 1 2 3 4 5 6 
#
# 1 0.012551 -0.003190 -0.005525 0.000000 0.002798 0.000000
# 2 -0.003190 0.012238 -0.000693 0.000000 0.003251 0.000000
# 3 -0.005525 -0.000693 0.027598 0.000000 0.005712 0.000000
# 4 0.000000 0.000000 0.000000 0.008720 0.000000 0.012001
# 5 0.002798 0.003251 0.005712 0.000000 0.030561 0.000000
# 6 0.000000 0.000000 0.000000 0.012001 0.000000 0.032703
#
#
# Mechanical properties :
#
#
# Convention : Reuss Voigt Hill
#
# Bulk Modulus (GPa) = 29.78705 42.51403 36.15054
# Shear Modulus (GPa) = 32.38831 77.78406 55.08619
#
# Velocity S-wave (km/s) = 3.98017 6.16812 5.19073
# Velocity P-wave (km/s) = 5.97426 8.45707 7.32167
#
# Compressibility (1/GPa) = 0.03357163
#
# Stress axis : x y z
#
# Youngs Moduli (GPa) = 79.67667 81.71479 36.23399
#
# Poissons Ratio (x) = 0.26069 0.20018
# Poissons Ratio (y) = 0.25419 0.02510
# Poissons Ratio (z) = 0.44019 0.05661
#
# Static dielectric constant tensor:
#      x y z
#    x 3.777450 0.000000 -0.067940 
#    y 0.000000 3.797000 0.000000 
#    z -0.067940 0.000000 3.655210 
# 
# 
# High freq. dielectric constant tensor:
#      x y z
#    x 1.788820 0.000000 -0.006280 
#    y 0.000000 1.811370 0.000000 
#    z -0.006280 0.000000 1.804280 
# 
# From -- ./inp_files/209976.got.cif
#   From: 2010.06.25/outbox.cif.g09.slc.cpg/sg12_105_cif.got.tgz:209976.got - 2010.06.28 00:19:55.
