data_PCOD8112372
_publ_section_title
;
Structure prediction by ZEFSAII (Michael W. Deem and Ramdas Pophale) SiO2 
 PCOD8112372
Probable space group: C 2/M
;
_chemical_formula_sum "Si O2"
_cell_formula_units_Z 64
_cell_length_a 18.544560
_cell_length_b 29.001118
_cell_length_c 9.641215
_cell_angle_alpha 90.000000
_cell_angle_beta 140.896048
_cell_angle_gamma 90.000000
_cell_volume 3270.439137
_symmetry_space_group_name_H-M "C 2/M"
_symmetry_group_IT_number 12
_symmetry_cell_setting 'monoclinic'
loop_
_space_group_symop_operation_xyz
x,y,z
-x,y,-z
-x,-y,-z
x,-y,z
1/2+x,1/2+y,z
1/2-x,1/2+y,-z
1/2-x,1/2-y,-z
1/2+x,1/2-y,z
loop_
_atom_site_type_symbol
_atom_site_label
_atom_site_fract_x
_atom_site_fract_y
_atom_site_fract_z
Si Si1 0.508802 0.180326 0.857706
Si Si2 0.214763 0.447193 0.657486
Si Si3 0.386554 0.629444 0.243644
Si Si4 0.790122 0.550713 0.036960
Si Si5 0.278193 0.218605 0.412108
Si Si6 0.754247 0.283161 0.880085
Si Si7 0.495956 0.072861 0.151302
Si Si8 0.384748 0.635279 0.914705
O O1 0.393957 0.190112 0.602788
O O2 0.531847 0.126468 0.893152
O O3 0.500000 0.200124 0.000000
O O4 0.613658 0.204734 0.940891
O O5 0.259503 0.500000 0.709217
O O6 0.167782 0.437720 0.743282
O O7 0.115690 0.438594 0.399887
O O8 0.315577 0.411171 0.774544
O O9 0.500000 0.620856 0.500000
O O10 0.322163 0.672550 0.211374
O O11 0.307569 0.585557 0.154946
O O12 0.412697 0.637134 0.120156
O O13 0.734300 0.500000 0.951439
O O14 0.896282 0.549569 0.090956
O O15 0.250000 0.250000 0.500000
O O16 0.300018 0.255794 0.327103
O O17 0.180684 0.181727 0.228507
O O18 0.750000 0.250000 0.000000
O O19 0.500000 0.053421 0.000000
O O20 0.500000 0.633222 0.000000
#
# Coordination Sequence:
#
# PCOD8112372 Si02
#       8
#     8   8   8   8   8   8   8   8
#     4  11  24  43  64  95 131 168 208 261 315 370
#     4  10  22  43  67  93 127 168 210 256 317 379
#     4  11  26  45  65  94 129 165 210 267 316 376
#     4  10  22  43  67  93 127 168 209 256 316 381
#     4  12  26  41  69  92 127 174 213 259 313 374
#     4  12  26  43  63  96 128 166 215 261 314 370
#     4  11  22  38  65  98 133 164 206 258 318 372
#     4  11  26  45  65  95 127 165 215 263 316 376
#
# _framework density 19.569239
#
# number of rings (size 3 to 8) (size 9 to 14) (size 15 to 20)
#    0.000    1.000    5.000    0.750    5.250    3.500 
#    2.250    0.000    0.000    0.000    0.000    0.000 
#    0.000    0.000    0.000    0.000    0.000    0.000 
#
# Total GULP energy -396843.239482 kJ/mol
# GULP energy per Si atom -12401.351234 kJ/mol
# Density = 1.952470 g / cm^3
# Si number density = 19.569239 Si / 1000 Ang^3
#
#
#
# Elastic Constant Matrix: (Units=GPa)
#
#
# Indices 1 2 3 4 5 6 
#
# 1 127.0022 52.1158 66.3409 0.0000 -4.9985 0.0000
# 2 52.1158 123.2312 55.7030 0.0000 -5.9044 0.0000
# 3 66.3409 55.7030 151.2234 0.0000 -5.9411 0.0000
# 4 0.0000 0.0000 0.0000 13.7696 0.0000 -13.6099
# 5 -4.9985 -5.9044 -5.9411 0.0000 31.9217 0.0000
# 6 0.0000 0.0000 0.0000 -13.6099 0.0000 17.6515
#
#
#
# Elastic Compliance Matrix: (Units=1/GPa)
#
#
# Indices 1 2 3 4 5 6 
#
# 1 0.011065 -0.002964 -0.003743 0.000000 0.000488 0.000000
# 2 -0.002964 0.010571 -0.002554 0.000000 0.001016 0.000000
# 3 -0.003743 -0.002554 0.009221 0.000000 0.000658 0.000000
# 4 0.000000 0.000000 0.000000 0.305256 0.000000 0.235362
# 5 0.000488 0.001016 0.000658 0.000000 0.031713 0.000000
# 6 0.000000 0.000000 0.000000 0.235362 0.000000 0.238124
#
#
# Mechanical properties :
#
#
# Convention : Reuss Voigt Hill
#
# Bulk Modulus (GPa) = 81.06584 83.30848 82.18716
# Shear Modulus (GPa) = 7.95438 27.82169 17.88804
#
# Velocity S-wave (km/s) = 2.01831 3.77464 3.02667
# Velocity P-wave (km/s) = 6.85175 7.85244 7.36910
#
# Compressibility (1/GPa) = 0.01233565
#
# Stress axis : x y z
#
# Youngs Moduli (GPa) = 90.37843 94.59505 108.44484
#
# Poissons Ratio (x) = 0.28038 0.40591
# Poissons Ratio (y) = 0.26789 0.27694
# Poissons Ratio (z) = 0.33829 0.24157
#
# Static dielectric constant tensor:
#      x y z
#    x 3.684790 0.000000 -0.189940 
#    y 0.000000 3.837650 0.000000 
#    z -0.189940 0.000000 3.568620 
# 
# 
# High freq. dielectric constant tensor:
#      x y z
#    x 1.766880 0.000000 -0.009820 
#    y 0.000000 1.784970 0.000000 
#    z -0.009820 0.000000 1.765420 
# 
# From -- ./inp_files/80771.got.cif
#   From: 2010.06.25/outbox.cif.g09.slc.cpg/sg12_41_cif.got.tgz:80771.got - 2010.06.28 00:19:55.
