data_PCOD8112214
_publ_section_title
;
Structure prediction by ZEFSAII (Michael W. Deem and Ramdas Pophale) SiO2 
 PCOD8112214
Probable space group: C 2/M
;
_chemical_formula_sum "Si O2"
_cell_formula_units_Z 56
_cell_length_a 18.020333
_cell_length_b 18.370465
_cell_length_c 14.201847
_cell_angle_alpha 90.000000
_cell_angle_beta 33.424234
_cell_angle_gamma 90.000000
_cell_volume 2589.693538
_symmetry_space_group_name_H-M "C 2/M"
_symmetry_group_IT_number 12
_symmetry_cell_setting 'monoclinic'
loop_
_space_group_symop_operation_xyz
x,y,z
-x,y,-z
-x,-y,-z
x,-y,z
1/2+x,1/2+y,z
1/2-x,1/2+y,-z
1/2-x,1/2-y,-z
1/2+x,1/2-y,z
loop_
_atom_site_type_symbol
_atom_site_label
_atom_site_fract_x
_atom_site_fract_y
_atom_site_fract_z
Si Si1 0.239585 0.839137 0.382452
Si Si2 0.438487 0.084312 0.463935
Si Si3 0.275279 0.917050 0.153524
Si Si4 0.036603 0.914598 0.267544
Si Si5 0.076361 0.808808 0.065184
Si Si6 0.987111 0.653704 0.799786
Si Si7 0.206801 0.185608 0.734960
O O1 0.291490 0.868851 0.228438
O O2 0.357098 0.849972 0.334161
O O3 0.210625 0.753510 0.397041
O O4 0.107450 0.879005 0.559261
O O5 0.500000 0.100439 0.500000
O O6 0.525004 0.128000 0.295070
O O7 0.285260 0.111948 0.628389
O O8 0.438360 0.000000 0.437242
O O9 0.132614 0.901066 0.254832
O O10 0.281083 0.000000 0.180078
O O11 0.400522 0.901687 0.953516
O O12 0.104264 0.876117 0.105500
O O13 0.019546 0.000000 0.264228
O O14 0.075088 0.734207 0.125756
O O15 0.935763 0.820944 0.163065
O O16 0.191988 0.805010 0.863527
#
# Coordination Sequence:
#
# PCOD8112214 Si02
#       7
#     8   8   8   8   8   8   8
#     4  11  22  42  67  96 128 161 212 265 317 382
#     4  11  26  43  62  92 131 171 215 261 308 371
#     4  11  24  40  63  96 132 167 205 259 323 381
#     4  11  25  40  61  94 133 169 206 257 318 378
#     4  10  22  42  67  94 125 163 214 264 312 378
#     4  11  23  43  68  93 125 167 215 264 314 374
#     4  10  22  42  66  93 125 165 212 266 317 366
#
# _framework density 21.624179999999999
#
# number of rings (size 3 to 8) (size 9 to 14) (size 15 to 20)
#    0.000    1.286    1.429    3.429    2.000   11.429 
#    0.000    1.429    0.000    0.000    0.000    0.000 
#    0.000    0.000    0.000    0.000    0.000    0.000 
#
# Total GULP energy -347346.917208 kJ/mol
# GULP energy per Si atom -12405.247043 kJ/mol
# Density = 2.157496 g / cm^3
# Si number density = 21.624180 Si / 1000 Ang^3
#
#
#
# Elastic Constant Matrix: (Units=GPa)
#
#
# Indices 1 2 3 4 5 6 
#
# 1 58.6029 43.1874 16.5595 -0.0006 23.4229 0.0000
# 2 43.1874 76.5937 13.5710 -0.0005 13.1045 0.0001
# 3 16.5595 13.5710 62.2857 -0.0006 13.5667 0.0001
# 4 -0.0006 -0.0005 -0.0006 19.8574 0.0006 -2.5002
# 5 23.4229 13.1045 13.5667 0.0006 38.1143 -0.0001
# 6 0.0000 0.0001 0.0001 -2.5002 -0.0001 35.7613
#
#
#
# Elastic Compliance Matrix: (Units=1/GPa)
#
#
# Indices 1 2 3 4 5 6 
#
# 1 0.037289 -0.017857 -0.002568 0.000001 -0.015862 0.000000
# 2 -0.017857 0.022694 -0.000962 0.000000 0.003514 0.000000
# 3 -0.002568 -0.000962 0.017921 0.000001 -0.004470 0.000000
# 4 0.000001 0.000000 0.000001 0.050806 -0.000002 0.003552
# 5 -0.015862 0.003514 -0.004470 -0.000002 0.036368 0.000000
# 6 0.000000 0.000000 0.000000 0.003552 0.000000 0.028212
#
#
# Mechanical properties :
#
#
# Convention : Reuss Voigt Hill
#
# Bulk Modulus (GPa) = 28.46613 38.23534 33.35074
# Shear Modulus (GPa) = 20.17972 27.02422 23.60197
#
# Velocity S-wave (km/s) = 3.05815 3.53898 3.30731
# Velocity P-wave (km/s) = 5.06580 5.86679 5.48095
#
# Compressibility (1/GPa) = 0.03512947
#
# Stress axis : x y z
#
# Youngs Moduli (GPa) = 26.81761 44.06507 55.80000
#
# Poissons Ratio (x) = 0.78685 0.14330
# Poissons Ratio (y) = 0.47887 0.05371
# Poissons Ratio (z) = 0.06887 0.04241
#
# Static dielectric constant tensor:
#      x y z
#    x 3.973980 0.000000 0.192820 
#    y 0.000000 4.010130 0.000000 
#    z 0.192820 0.000000 3.939520 
# 
# 
# High freq. dielectric constant tensor:
#      x y z
#    x 1.852310 0.000000 0.010630 
#    y 0.000000 1.854940 0.000000 
#    z 0.010630 0.000000 1.857660 
# 
# From -- ./inp_files/234641.got.cif
#   From: 2010.06.25/outbox.cif.g09.slc.cpg/sg12_118_cif.got.tgz:234641.got - 2010.06.28 00:19:55.
