data_PCOD8112881
_publ_section_title
;
Structure prediction by ZEFSAII (Michael W. Deem and Ramdas Pophale) SiO2 
 PCOD8112881
Probable space group: C 2/M
;
_chemical_formula_sum "Si O2"
_cell_formula_units_Z 56
_cell_length_a 12.927991
_cell_length_b 24.358235
_cell_length_c 9.665471
_cell_angle_alpha 90.000000
_cell_angle_beta 116.958228
_cell_angle_gamma 90.000000
_cell_volume 2712.950983
_symmetry_space_group_name_H-M "C 2/M"
_symmetry_group_IT_number 12
_symmetry_cell_setting 'monoclinic'
loop_
_space_group_symop_operation_xyz
x,y,z
-x,y,-z
-x,-y,-z
x,-y,z
1/2+x,1/2+y,z
1/2-x,1/2+y,-z
1/2-x,1/2-y,-z
1/2+x,1/2-y,z
loop_
_atom_site_type_symbol
_atom_site_label
_atom_site_fract_x
_atom_site_fract_y
_atom_site_fract_z
Si Si1 0.032110 0.330437 0.168029
Si Si2 0.325361 0.562832 0.142096
Si Si3 0.593474 0.295332 0.161396
Si Si4 0.457082 0.629606 0.618303
Si Si5 0.707965 0.860270 0.840964
Si Si6 0.373083 0.059542 0.425787
Si Si7 0.776552 0.412817 0.637289
O O1 0.072765 0.268543 0.169960
O O2 0.145307 0.358424 0.300696
O O3 0.918710 0.337277 0.195839
O O4 0.000000 0.356748 0.000000
O O5 0.339680 0.500000 0.094282
O O6 0.449983 0.587738 0.258614
O O7 0.242399 0.559061 0.226241
O O8 0.265691 0.604048 0.997786
O O9 0.577289 0.321945 0.300601
O O10 0.716801 0.307655 0.161879
O O11 0.500000 0.320983 0.000000
O O12 0.500000 0.656741 0.500000
O O13 0.344406 0.595884 0.512173
O O14 0.709111 0.899471 0.707705
O O15 0.500000 0.086009 0.500000
O O16 0.341342 0.048963 0.566855
O O17 0.372318 0.000000 0.350915
#
# Coordination Sequence:
#
# PCOD8112881 Si02
#       7
#     8   8   8   8   8   8   8
#     4  11  25  43  69  97 129 174 221 267 333 387
#     4  11  24  42  68  96 129 177 222 266 323 386
#     4  11  24  44  68  96 127 178 214 270 334 384
#     4  10  23  42  64  95 136 163 216 270 321 393
#     4  12  23  44  69  97 135 165 225 277 313 394
#     4  11  23  39  63  96 134 174 210 261 329 382
#     4  11  22  43  64  94 135 171 212 272 320 392
#
# _framework density 20.641729999999999
#
# number of rings (size 3 to 8) (size 9 to 14) (size 15 to 20)
#    0.000    1.000    5.714    0.857    0.000    8.286 
#    2.571    1.429    0.000    0.000    0.000    0.000 
#    0.000    0.000    0.000    0.000    0.000    0.000 
#
# Total GULP energy -346989.067085 kJ/mol
# GULP energy per Si atom -12392.466682 kJ/mol
# Density = 2.059475 g / cm^3
# Si number density = 20.641730 Si / 1000 Ang^3
#
#
#
# Elastic Constant Matrix: (Units=GPa)
#
#
# Indices 1 2 3 4 5 6 
#
# 1 121.8865 41.9979 31.6937 0.0000 -2.2271 0.0000
# 2 41.9979 96.0206 41.2075 0.0000 6.3461 0.0000
# 3 31.6937 41.2075 86.4264 0.0000 -6.6302 0.0000
# 4 0.0000 0.0000 0.0000 7.9227 0.0000 -37.4190
# 5 -2.2271 6.3461 -6.6302 0.0000 35.7911 0.0000
# 6 0.0000 0.0000 0.0000 -37.4190 0.0000 -153.2450
#
#
#
# Elastic Compliance Matrix: (Units=1/GPa)
#
#
# Indices 1 2 3 4 5 6 
#
# 1 0.009949 -0.003617 -0.001854 0.000000 0.000917 0.000000
# 2 -0.003617 0.014863 -0.006066 0.000000 -0.003984 0.000000
# 3 -0.001854 -0.006066 0.015435 0.000000 0.003820 0.000000
# 4 0.000000 0.000000 0.000000 0.058618 0.000000 -0.014313
# 5 0.000917 -0.003984 0.003820 0.000000 0.029411 0.000000
# 6 0.000000 0.000000 0.000000 -0.014313 0.000000 -0.003031
#
#
# Mechanical properties :
#
#
# Convention : Reuss Voigt Hill
#
# Bulk Modulus (GPa) = 58.22417 59.34797 58.78607
# Shear Modulus (GPa) = 32.45830 -9.27729 11.59051
#
# Velocity S-wave (km/s) = 3.96973 -2.12231 2.37219
# Velocity P-wave (km/s) = 7.01997 4.77580 6.00367
#
# Compressibility (1/GPa) = 0.01717500
#
# Stress axis : x y z
#
# Youngs Moduli (GPa) = 100.50909 67.28208 64.78573
#
# Poissons Ratio (x) = 0.24334 0.12010
# Poissons Ratio (y) = 0.36352 0.39298
# Poissons Ratio (z) = 0.18632 0.40812
#
# Static dielectric constant tensor:
#      x y z
#    x 4.121660 0.000000 -0.188160 
#    y 0.000000 3.445870 0.000000 
#    z -0.188160 0.000000 4.150420 
# 
# 
# High freq. dielectric constant tensor:
#      x y z
#    x 1.823590 0.000000 -0.003390 
#    y 0.000000 1.793400 0.000000 
#    z -0.003390 0.000000 1.819370 
# 
# From -- ./inp_files/65987.got.cif
#   From: 2010.06.25/outbox.cif.g09.slc.cpg/sg12_33_cif.got.tgz:65987.got - 2010.06.28 00:19:55.
