data_PCOD8112486
_publ_section_title
;
Structure prediction by ZEFSAII (Michael W. Deem and Ramdas Pophale) SiO2 
 PCOD8112486
Probable space group: C 2/M
;
_chemical_formula_sum "Si O2"
_cell_formula_units_Z 56
_cell_length_a 8.936680
_cell_length_b 30.650506
_cell_length_c 11.624967
_cell_angle_alpha 90.000000
_cell_angle_beta 56.014544
_cell_angle_gamma 90.000000
_cell_volume 2640.305234
_symmetry_space_group_name_H-M "C 2/M"
_symmetry_group_IT_number 12
_symmetry_cell_setting 'monoclinic'
loop_
_space_group_symop_operation_xyz
x,y,z
-x,y,-z
-x,-y,-z
x,-y,z
1/2+x,1/2+y,z
1/2-x,1/2+y,-z
1/2-x,1/2-y,-z
1/2+x,1/2-y,z
loop_
_atom_site_type_symbol
_atom_site_label
_atom_site_fract_x
_atom_site_fract_y
_atom_site_fract_z
Si Si1 0.307590 0.448687 0.625713
Si Si2 0.032808 0.610277 0.620077
Si Si3 0.227909 0.717744 0.113301
Si Si4 0.709764 0.951914 0.920406
Si Si5 0.711169 0.620242 0.926475
Si Si6 0.865335 0.240692 0.292001
Si Si7 0.175824 0.816236 0.481378
O O1 0.500000 0.430828 0.500000
O O2 0.292963 0.500000 0.618152
O O3 0.143650 0.430549 0.620347
O O4 0.291169 0.434702 0.765588
O O5 0.149533 0.653053 0.600186
O O6 0.000000 0.604646 0.500000
O O7 0.833221 0.611760 0.761457
O O8 0.244482 0.669466 0.053007
O O9 0.370125 0.725433 0.156259
O O10 0.034074 0.728470 0.250485
O O11 0.250000 0.750000 0.000000
O O12 0.792788 0.000000 0.917698
O O13 0.500000 0.958760 0.000000
O O14 0.742014 0.914799 0.998394
O O15 0.500000 0.614670 0.000000
O O16 0.860191 0.196603 0.370065
O O17 0.698259 0.271954 0.396294
O O18 0.000000 0.839707 0.500000
#
# Coordination Sequence:
#
# PCOD8112486 Si02
#       7
#     8   8   8   8   8   8   8
#     4  10  23  46  74 106 139 176 226 284 347 415
#     4  12  26  43  68 102 140 179 232 290 347 409
#     4  12  25  44  63  93 138 181 230 286 348 408
#     4  10  22  46  77 102 135 183 231 279 338 422
#     4  12  27  45  66 102 143 184 230 288 347 414
#     4  11  23  42  65  94 126 174 228 282 343 401
#     4  11  23  42  70  93 125 173 228 289 336 405
#
# _framework density 21.209669000000002
#
# number of rings (size 3 to 8) (size 9 to 14) (size 15 to 20)
#    0.000    0.857    4.286    2.571    2.000    2.857 
#    2.571    0.000    0.000    0.000    0.000    0.000 
#    0.000    0.000    0.000    0.000    0.000    0.000 
#
# Total GULP energy -347155.730937 kJ/mol
# GULP energy per Si atom -12398.418962 kJ/mol
# Density = 2.116139 g / cm^3
# Si number density = 21.209669 Si / 1000 Ang^3
#
#
#
# Elastic Constant Matrix: (Units=GPa)
#
#
# Indices 1 2 3 4 5 6 
#
# 1 107.3405 53.6080 65.9523 0.0000 -2.5823 0.0000
# 2 53.6080 113.6972 58.1320 0.0000 19.1739 0.0000
# 3 65.9523 58.1320 141.6913 0.0000 16.1592 0.0000
# 4 0.0000 0.0000 0.0000 34.2361 0.0000 1.3860
# 5 -2.5823 19.1739 16.1592 0.0000 43.0396 0.0000
# 6 0.0000 0.0000 0.0000 1.3860 0.0000 32.8977
#
#
#
# Elastic Compliance Matrix: (Units=1/GPa)
#
#
# Indices 1 2 3 4 5 6 
#
# 1 0.015634 -0.005384 -0.005693 0.000000 0.005474 0.000000
# 2 -0.005384 0.013478 -0.002405 0.000000 -0.005425 0.000000
# 3 -0.005693 -0.002405 0.011085 0.000000 -0.003432 0.000000
# 4 0.000000 0.000000 0.000000 0.029259 0.000000 -0.001233
# 5 0.005474 -0.005425 -0.003432 0.000000 0.027268 0.000000
# 6 0.000000 0.000000 0.000000 -0.001233 0.000000 0.030449
#
#
# Mechanical properties :
#
#
# Convention : Reuss Voigt Hill
#
# Bulk Modulus (GPa) = 75.55892 79.79040 77.67466
# Shear Modulus (GPa) = 31.53590 34.37047 32.95318
#
# Velocity S-wave (km/s) = 3.86017 4.02992 3.94596
# Velocity P-wave (km/s) = 7.45453 7.70423 7.58041
#
# Compressibility (1/GPa) = 0.01323471
#
# Stress axis : x y z
#
# Youngs Moduli (GPa) = 63.96126 74.19285 90.20870
#
# Poissons Ratio (x) = 0.39947 0.51352
# Poissons Ratio (y) = 0.34438 0.21695
# Poissons Ratio (z) = 0.36410 0.17843
#
# Static dielectric constant tensor:
#      x y z
#    x 4.184460 0.000000 -0.526050 
#    y 0.000000 3.927620 0.000000 
#    z -0.526050 0.000000 4.316250 
# 
# 
# High freq. dielectric constant tensor:
#      x y z
#    x 1.827220 0.000000 -0.013150 
#    y 0.000000 1.834400 0.000000 
#    z -0.013150 0.000000 1.848460 
# 
# From -- ./inp_files/125615.got.cif
#   From: 2010.06.25/outbox.cif.g09.slc.cpg/sg12_63_cif.got.tgz:125615.got - 2010.06.28 00:19:55.
