data_PCOD8112133
_publ_section_title
;
Structure prediction by ZEFSAII (Michael W. Deem and Ramdas Pophale) SiO2 
 PCOD8112133
Probable space group: C 2/M
;
_chemical_formula_sum "Si O2"
_cell_formula_units_Z 56
_cell_length_a 9.649581
_cell_length_b 26.413543
_cell_length_c 14.395374
_cell_angle_alpha 90.000000
_cell_angle_beta 62.350914
_cell_angle_gamma 90.000000
_cell_volume 3250.100973
_symmetry_space_group_name_H-M "C 2/M"
_symmetry_group_IT_number 12
_symmetry_cell_setting 'monoclinic'
loop_
_space_group_symop_operation_xyz
x,y,z
-x,y,-z
-x,-y,-z
x,-y,z
1/2+x,1/2+y,z
1/2-x,1/2+y,-z
1/2-x,1/2-y,-z
1/2+x,1/2-y,z
loop_
_atom_site_type_symbol
_atom_site_label
_atom_site_fract_x
_atom_site_fract_y
_atom_site_fract_z
Si Si1 0.870549 0.690952 0.328967
Si Si2 0.716371 0.209349 0.147226
Si Si3 0.649328 0.360154 0.252338
Si Si4 0.348112 0.302194 0.296267
Si Si5 0.951730 0.942295 0.409175
Si Si6 0.185780 0.317265 0.955513
Si Si7 0.165104 0.627197 0.475541
O O1 0.777262 0.655730 0.287323
O O2 0.797920 0.747164 0.349951
O O3 0.848595 0.666274 0.435627
O O4 0.049789 0.696864 0.243567
O O5 0.849482 0.196612 0.182462
O O6 0.731982 0.267824 0.114025
O O7 0.733954 0.175982 0.048190
O O8 0.514208 0.317887 0.287486
O O9 0.574301 0.413712 0.304039
O O10 0.740439 0.364394 0.124951
O O11 0.217890 0.341356 0.369645
O O12 0.779371 0.919256 0.458479
O O13 0.000000 0.937120 0.500000
O O14 0.947408 0.000000 0.376515
O O15 0.000000 0.313651 0.000000
O O16 0.000000 0.602431 0.500000
#
# Coordination Sequence:
#
# PCOD8112133 Si02
#       7
#     8   8   8   8   8   8   8
#     4  12  19  36  49  79 119 152 183 222 258 330
#     4  11  21  32  50  75 114 157 190 221 258 308
#     4  11  22  35  56  81 109 148 188 226 279 327
#     4  11  21  34  49  78 120 156 185 217 264 325
#     4  10  22  42  63  82 106 138 184 240 291 339
#     4  11  21  33  52  78 111 154 199 227 260 316
#     4  11  23  35  56  84 111 146 185 220 280 340
#
# _framework density 17.230233999999999
#
# number of rings (size 3 to 8) (size 9 to 14) (size 15 to 20)
#    0.000    1.000    7.143    0.429    2.000    0.286 
#    0.000    0.000    0.000    0.429    0.000    8.000 
#    0.000    0.000    0.000    0.000    0.000    0.000 
#
# Total GULP energy -347112.761047 kJ/mol
# GULP energy per Si atom -12396.884323 kJ/mol
# Density = 1.719102 g / cm^3
# Si number density = 17.230234 Si / 1000 Ang^3
#
#
#
# Elastic Constant Matrix: (Units=GPa)
#
#
# Indices 1 2 3 4 5 6 
#
# 1 78.0975 38.4499 25.1159 0.0000 4.8304 0.0000
# 2 38.4499 97.8542 43.9775 0.0000 -0.6648 0.0000
# 3 25.1159 43.9775 97.5070 0.0000 8.6085 0.0000
# 4 0.0000 0.0000 0.0000 20.9952 0.0000 -4.7570
# 5 4.8304 -0.6648 8.6085 0.0000 35.4967 0.0000
# 6 0.0000 0.0000 0.0000 -4.7570 0.0000 19.8015
#
#
#
# Elastic Compliance Matrix: (Units=1/GPa)
#
#
# Indices 1 2 3 4 5 6 
#
# 1 0.016210 -0.005750 -0.001408 0.000000 -0.001972 0.000000
# 2 -0.005750 0.014956 -0.005475 0.000000 0.002390 0.000000
# 3 -0.001408 -0.005475 0.013366 0.000000 -0.003152 0.000000
# 4 0.000000 0.000000 0.000000 0.050372 0.000000 0.012101
# 5 -0.001972 0.002390 -0.003152 0.000000 0.029249 0.000000
# 6 0.000000 0.000000 0.000000 0.012101 0.000000 0.053408
#
#
# Mechanical properties :
#
#
# Convention : Reuss Voigt Hill
#
# Bulk Modulus (GPa) = 51.90641 54.28278 53.09460
# Shear Modulus (GPa) = 23.89491 26.31970 25.10730
#
# Velocity S-wave (km/s) = 3.72802 3.91260 3.82143
# Velocity P-wave (km/s) = 6.98007 7.21000 7.09597
#
# Compressibility (1/GPa) = 0.01926544
#
# Stress axis : x y z
#
# Youngs Moduli (GPa) = 61.68933 66.86467 74.81647
#
# Poissons Ratio (x) = 0.38448 0.10533
# Poissons Ratio (y) = 0.35472 0.40963
# Poissons Ratio (z) = 0.08685 0.36609
#
# Static dielectric constant tensor:
#      x y z
#    x 3.394500 0.000000 0.015300 
#    y 0.000000 2.935670 0.000000 
#    z 0.015300 0.000000 3.505930 
# 
# 
# High freq. dielectric constant tensor:
#      x y z
#    x 1.685660 0.000000 0.000550 
#    y 0.000000 1.614650 0.000000 
#    z 0.000550 0.000000 1.676240 
# 
# From -- ./inp_files/199418.got.cif
#   From: 2010.06.25/outbox.cif.g09.slc.cpg/sg12_100_cif.got.tgz:199418.got - 2010.06.28 00:19:55.
