data_PCOD8112624
_publ_section_title
;
Structure prediction by ZEFSAII (Michael W. Deem and Ramdas Pophale) SiO2 
 PCOD8112624
Probable space group: C 2/M
;
_chemical_formula_sum "Si O2"
_cell_formula_units_Z 56
_cell_length_a 26.293943
_cell_length_b 14.269217
_cell_length_c 9.140169
_cell_angle_alpha 90.000000
_cell_angle_beta 60.744282
_cell_angle_gamma 90.000000
_cell_volume 2991.915050
_symmetry_space_group_name_H-M "C 2/M"
_symmetry_group_IT_number 12
_symmetry_cell_setting 'monoclinic'
loop_
_space_group_symop_operation_xyz
x,y,z
-x,y,-z
-x,-y,-z
x,-y,z
1/2+x,1/2+y,z
1/2-x,1/2+y,-z
1/2-x,1/2-y,-z
1/2+x,1/2-y,z
loop_
_atom_site_type_symbol
_atom_site_label
_atom_site_fract_x
_atom_site_fract_y
_atom_site_fract_z
Si Si1 0.588838 0.500000 0.303702
Si Si2 0.599527 0.702616 0.206026
Si Si3 0.123582 0.743813 0.491233
Si Si4 0.034123 0.000000 0.678556
Si Si5 0.722858 0.393768 0.376900
Si Si6 0.785999 0.746878 0.096388
Si Si7 0.274761 0.105714 0.624579
Si Si8 0.516963 0.697419 0.812009
O O1 0.620118 0.594375 0.202180
O O2 0.585777 0.500000 0.485273
O O3 0.524715 0.500000 0.328756
O O4 0.596910 0.753928 0.365851
O O5 0.536667 0.712245 0.221849
O O6 0.645512 0.752182 0.034286
O O7 0.163424 0.835087 0.461006
O O8 0.160966 0.650088 0.459048
O O9 0.070895 0.739462 0.681594
O O10 0.038654 0.089856 0.777168
O O11 0.709323 0.500000 0.345135
O O12 0.770156 0.348937 0.201055
O O13 0.751346 0.391437 0.494572
O O14 0.770643 0.837392 0.213606
O O15 0.750000 0.750000 0.000000
O O16 0.278698 0.000000 0.678383
O O17 0.500000 0.726217 0.000000
#
# Coordination Sequence:
#
# PCOD8112624 Si02
#       8
#     4   8   8   4   8   8   8   8
#     4   9  18  32  54  76 116 166 182 225 283 347
#     4  11  22  36  56  86 121 159 191 237 289 347
#     4  11  21  39  61  85 117 158 197 233 292 354
#     4   9  17  36  50  74 120 152 198 222 277 348
#     4  10  23  40  62  87 119 158 193 240 298 351
#     4  11  21  37  60  92 118 151 197 244 288 349
#     4  10  23  42  62  86 118 155 197 248 295 341
#     4  11  24  35  56  86 118 156 193 243 290 343
#
# _framework density 18.717108
#
# number of rings (size 3 to 8) (size 9 to 14) (size 15 to 20)
#    0.000    1.571    4.286    2.357    7.000    0.571 
#    0.000    0.000    0.000    3.000    0.000    0.000 
#    0.000    0.000    0.000    0.000    0.000    0.000 
#
# Total GULP energy -347216.001804 kJ/mol
# GULP energy per Si atom -12400.571493 kJ/mol
# Density = 1.867451 g / cm^3
# Si number density = 18.717108 Si / 1000 Ang^3
#
#
#
# Elastic Constant Matrix: (Units=GPa)
#
#
# Indices 1 2 3 4 5 6 
#
# 1 70.2744 22.2929 30.8106 0.0000 -1.7152 0.0000
# 2 22.2929 87.1359 30.9868 0.0000 4.2519 0.0000
# 3 30.8106 30.9868 129.4776 0.0000 -6.9986 0.0000
# 4 0.0000 0.0000 0.0000 19.0398 0.0000 2.7238
# 5 -1.7152 4.2519 -6.9986 0.0000 34.5850 0.0000
# 6 0.0000 0.0000 0.0000 2.7238 0.0000 24.0155
#
#
#
# Elastic Compliance Matrix: (Units=1/GPa)
#
#
# Indices 1 2 3 4 5 6 
#
# 1 0.016636 -0.003156 -0.003173 0.000000 0.000571 0.000000
# 2 -0.003156 0.013306 -0.002558 0.000000 -0.002310 0.000000
# 3 -0.003173 -0.002558 0.009200 0.000000 0.002019 0.000000
# 4 0.000000 0.000000 0.000000 0.053388 0.000000 -0.006055
# 5 0.000571 -0.002310 0.002019 0.000000 0.029635 0.000000
# 6 0.000000 0.000000 0.000000 -0.006055 0.000000 0.042327
#
#
# Mechanical properties :
#
#
# Convention : Reuss Voigt Hill
#
# Bulk Modulus (GPa) = 46.79820 50.56317 48.68069
# Shear Modulus (GPa) = 26.40087 29.04790 27.72439
#
# Velocity S-wave (km/s) = 3.75976 3.94375 3.85285
# Velocity P-wave (km/s) = 6.62608 6.91452 6.77184
#
# Compressibility (1/GPa) = 0.02136834
#
# Stress axis : x y z
#
# Youngs Moduli (GPa) = 60.11084 75.15283 108.69928
#
# Poissons Ratio (x) = 0.23717 0.34486
# Poissons Ratio (y) = 0.18970 0.27809
# Poissons Ratio (z) = 0.19071 0.19227
#
# Static dielectric constant tensor:
#      x y z
#    x 3.387630 0.000000 0.080000 
#    y 0.000000 3.561830 0.000000 
#    z 0.080000 0.000000 3.428890 
# 
# 
# High freq. dielectric constant tensor:
#      x y z
#    x 1.731030 0.000000 0.005590 
#    y 0.000000 1.702650 0.000000 
#    z 0.005590 0.000000 1.733170 
# 
# From -- ./inp_files/104470.got.cif
#   From: 2010.06.25/outbox.cif.g09.slc.cpg/sg12_53_cif.got.tgz:104470.got - 2010.06.28 00:19:55.
