data_PCOD8112083
_publ_section_title
;
Structure prediction by ZEFSAII (Michael W. Deem and Ramdas Pophale) SiO2 
 PCOD8112083
Probable space group: C 2/M
;
_chemical_formula_sum "Si O2"
_cell_formula_units_Z 56
_cell_length_a 9.544161
_cell_length_b 26.395902
_cell_length_c 18.100635
_cell_angle_alpha 90.000000
_cell_angle_beta 142.315136
_cell_angle_gamma 90.000000
_cell_volume 2787.630823
_symmetry_space_group_name_H-M "C 2/M"
_symmetry_group_IT_number 12
_symmetry_cell_setting 'monoclinic'
loop_
_space_group_symop_operation_xyz
x,y,z
-x,y,-z
-x,-y,-z
x,-y,z
1/2+x,1/2+y,z
1/2-x,1/2+y,-z
1/2-x,1/2-y,-z
1/2+x,1/2-y,z
loop_
_atom_site_type_symbol
_atom_site_label
_atom_site_fract_x
_atom_site_fract_y
_atom_site_fract_z
Si Si1 0.364135 0.651295 0.759771
Si Si2 0.653491 0.148803 0.250021
Si Si3 0.164958 0.302396 0.000477
Si Si4 0.458160 0.201452 0.654384
Si Si5 0.383894 0.316838 0.609535
Si Si6 0.408868 0.942518 0.381659
Si Si7 0.764662 0.557590 0.618367
O O1 0.281456 0.674621 0.647484
O O2 0.308797 0.591344 0.734420
O O3 0.213915 0.678431 0.760586
O O4 0.628567 0.662929 0.884046
O O5 0.458044 0.161523 0.109715
O O6 0.652970 0.192993 0.311843
O O7 0.610502 0.094222 0.270231
O O8 0.899113 0.146929 0.312861
O O9 0.250000 0.250000 0.000000
O O10 0.000000 0.288517 0.000000
O O11 0.473311 0.259689 0.639723
O O12 0.308243 0.170998 0.531445
O O13 0.500000 0.925709 0.500000
O O14 0.617784 0.936013 0.411991
O O15 0.318134 0.000000 0.345739
O O16 0.500000 0.573552 0.500000
O O17 0.787274 0.500000 0.656948
#
# Coordination Sequence:
#
# PCOD8112083 Si02
#       7
#     8   8   8   8   8   8   8
#     4  12  24  40  63  91 130 169 213 262 319 378
#     4  12  24  40  63  91 130 169 213 262 319 378
#     4  12  28  46  67  90 127 179 228 265 309 378
#     4  11  22  37  60  94 123 167 203 260 326 388
#     4  11  22  37  60  90 131 161 207 258 322 394
#     4  10  22  41  67  99 131 167 213 266 327 389
#     4  10  22  41  67  99 131 167 213 266 327 389
#
# _framework density 20.088743000000001
#
# number of rings (size 3 to 8) (size 9 to 14) (size 15 to 20)
#    0.000    0.857    2.857    5.143    4.000    2.286 
#    0.000    0.714    0.000    2.571    0.000    0.000 
#    0.000    0.000    0.000    0.000    0.000    0.000 
#
# Total GULP energy -347309.098926 kJ/mol
# GULP energy per Si atom -12403.896390 kJ/mol
# Density = 2.004302 g / cm^3
# Si number density = 20.088743 Si / 1000 Ang^3
#
#
#
# Elastic Constant Matrix: (Units=GPa)
#
#
# Indices 1 2 3 4 5 6 
#
# 1 96.5431 40.4543 40.0659 -0.0012 0.5085 0.0000
# 2 40.4543 97.4307 41.5642 -0.0002 2.5917 0.0001
# 3 40.0659 41.5642 102.8585 -0.0187 -0.8455 -0.0042
# 4 -0.0012 -0.0002 -0.0187 27.8768 -0.0040 -0.1492
# 5 0.5085 2.5917 -0.8455 -0.0040 34.5091 -0.0004
# 6 0.0000 0.0001 -0.0042 -0.1492 -0.0004 32.8232
#
#
#
# Elastic Compliance Matrix: (Units=1/GPa)
#
#
# Indices 1 2 3 4 5 6 
#
# 1 0.013580 -0.004087 -0.003638 -0.000002 0.000018 0.000000
# 2 -0.004087 0.013670 -0.003941 -0.000003 -0.001063 -0.000001
# 3 -0.003638 -0.003941 0.012737 0.000008 0.000662 0.000002
# 4 -0.000002 -0.000003 0.000008 0.035873 0.000005 0.000163
# 5 0.000018 -0.001063 0.000662 0.000005 0.029074 0.000000
# 6 0.000000 -0.000001 0.000002 0.000163 0.000000 0.030467
#
#
# Mechanical properties :
#
#
# Convention : Reuss Voigt Hill
#
# Bulk Modulus (GPa) = 60.03976 60.11125 60.07550
# Shear Modulus (GPa) = 30.43485 30.69166 30.56325
#
# Velocity S-wave (km/s) = 3.89655 3.91295 3.90476
# Velocity P-wave (km/s) = 7.08493 7.09949 7.09221
#
# Compressibility (1/GPa) = 0.01665563
#
# Stress axis : x y z
#
# Youngs Moduli (GPa) = 73.63507 73.15227 78.51087
#
# Poissons Ratio (x) = 0.29899 0.28564
# Poissons Ratio (y) = 0.30096 0.30938
# Poissons Ratio (z) = 0.26790 0.28827
#
# Static dielectric constant tensor:
#      x y z
#    x 3.794260 0.000000 -0.037270 
#    y 0.000000 3.698090 0.000000 
#    z -0.037270 0.000000 3.498680 
# 
# 
# High freq. dielectric constant tensor:
#      x y z
#    x 1.805520 0.000000 -0.000320 
#    y 0.000000 1.783270 0.000000 
#    z -0.000320 0.000000 1.760100 
# 
# From -- ./inp_files/260149.got.cif
#   From: 2010.06.25/outbox.cif.g09.slc.cpg/sg12_131_cif.got.tgz:260149.got - 2010.06.28 00:19:55.
