data_PCOD8112352
_publ_section_title
;
Structure prediction by ZEFSAII (Michael W. Deem and Ramdas Pophale) SiO2 
 PCOD8112352
Probable space group: C 2/M
;
_chemical_formula_sum "Si O2"
_cell_formula_units_Z 48
_cell_length_a 13.794555
_cell_length_b 26.443826
_cell_length_c 10.796834
_cell_angle_alpha 90.000000
_cell_angle_beta 146.795443
_cell_angle_gamma 90.000000
_cell_volume 2156.827747
_symmetry_space_group_name_H-M "C 2/M"
_symmetry_group_IT_number 12
_symmetry_cell_setting 'monoclinic'
loop_
_space_group_symop_operation_xyz
x,y,z
-x,y,-z
-x,-y,-z
x,-y,z
1/2+x,1/2+y,z
1/2-x,1/2+y,-z
1/2-x,1/2-y,-z
1/2+x,1/2-y,z
loop_
_atom_site_type_symbol
_atom_site_label
_atom_site_fract_x
_atom_site_fract_y
_atom_site_fract_z
Si Si1 0.108398 0.234510 0.000105
Si Si2 0.623536 0.410216 0.838986
Si Si3 0.291115 0.131439 0.259319
Si Si4 0.722173 0.558234 0.401483
Si Si5 0.920065 0.801879 0.286393
Si Si6 0.031794 0.556944 0.902782
O O1 0.220317 0.188600 0.179962
O O2 0.219208 0.282364 0.069918
O O3 0.995919 0.216856 0.756806
O O4 0.000000 0.256129 0.000000
O O5 0.448704 0.440613 0.691194
O O6 0.567576 0.362097 0.697315
O O7 0.745502 0.394488 0.082816
O O8 0.759204 0.443606 0.904112
O O9 0.500000 0.131493 0.500000
O O10 0.192144 0.097675 0.257747
O O11 0.744862 0.500000 0.377883
O O12 0.898448 0.579724 0.657618
O O13 0.000000 0.779780 0.500000
O O14 0.963189 0.500000 0.843389
O O15 0.000000 0.585361 0.000000
#
# Coordination Sequence:
#
# PCOD8112352 Si02
#       6
#     8   8   8   8   8   8
#     4  10  22  43  65  94 133 171 219 280 337 393
#     4  11  23  41  63  93 133 168 216 274 325 394
#     4  11  21  40  66  93 131 171 211 275 337 393
#     4  11  24  41  67 100 130 174 224 271 338 400
#     4  10  23  41  63  96 129 170 225 269 330 404
#     4  10  23  41  60  90 129 172 222 272 327 394
#
# _framework density 22.254906999999999
#
# number of rings (size 3 to 8) (size 9 to 14) (size 15 to 20)
#    0.000    1.500    1.667    3.500    2.333    3.667 
#    0.000    2.500    0.000    0.000    0.000    0.000 
#    0.000    0.000    0.000    0.000    0.000    0.000 
#
# Total GULP energy -297386.629128 kJ/mol
# GULP energy per Si atom -12391.109547 kJ/mol
# Density = 2.220425 g / cm^3
# Si number density = 22.254907 Si / 1000 Ang^3
#
#
#
# Elastic Constant Matrix: (Units=GPa)
#
#
# Indices 1 2 3 4 5 6 
#
# 1 119.9244 1.8993 16.5013 0.0000 -2.3339 0.0000
# 2 1.8993 54.0186 -13.1765 0.0000 -6.9355 0.0000
# 3 16.5013 -13.1765 57.8830 0.0000 -8.2232 0.0000
# 4 0.0000 0.0000 0.0000 14.6630 0.0000 4.5329
# 5 -2.3339 -6.9355 -8.2232 0.0000 45.5966 0.0000
# 6 0.0000 0.0000 0.0000 4.5329 0.0000 32.4386
#
#
#
# Elastic Compliance Matrix: (Units=1/GPa)
#
#
# Indices 1 2 3 4 5 6 
#
# 1 0.008728 -0.001002 -0.002745 0.000000 -0.000201 0.000000
# 2 -0.001002 0.020410 0.005507 0.000000 0.004046 0.000000
# 3 -0.002745 0.005507 0.019922 0.000000 0.004290 0.000000
# 4 0.000000 0.000000 0.000000 0.071278 0.000000 -0.009960
# 5 -0.000201 0.004046 0.004290 0.000000 0.023310 0.000000
# 6 0.000000 0.000000 0.000000 -0.009960 0.000000 0.032219
#
#
# Mechanical properties :
#
#
# Convention : Reuss Voigt Hill
#
# Bulk Modulus (GPa) = 19.01889 26.91936 22.96913
# Shear Modulus (GPa) = 26.33310 33.64641 29.98976
#
# Velocity S-wave (km/s) = 3.44357 3.89249 3.67489
# Velocity P-wave (km/s) = 4.93714 5.68543 5.32445
#
# Compressibility (1/GPa) = 0.05257930
#
# Stress axis : x y z
#
# Youngs Moduli (GPa) = 114.57050 48.99529 50.19638
#
# Poissons Ratio (x) = 0.04910 0.13778
# Poissons Ratio (y) = 0.11482 -0.27642
# Poissons Ratio (z) = 0.31449 -0.26980
#
# Static dielectric constant tensor:
#      x y z
#    x 4.144230 0.000000 -0.244180 
#    y 0.000000 3.763840 0.000000 
#    z -0.244180 0.000000 3.970680 
# 
# 
# High freq. dielectric constant tensor:
#      x y z
#    x 1.885660 0.000000 -0.013820 
#    y 0.000000 1.862180 0.000000 
#    z -0.013820 0.000000 1.869910 
# 
# From -- ./inp_files/149865.got.cif
#   From: 2010.06.25/outbox.cif.g09.slc.cpg/sg12_75_cif.got.tgz:149865.got - 2010.06.28 00:19:55.
