data_PCOD8112032
_publ_section_title
;
Structure prediction by ZEFSAII (Michael W. Deem and Ramdas Pophale) SiO2 
 PCOD8112032
Probable space group: C 2/M
;
_chemical_formula_sum "Si O2"
_cell_formula_units_Z 40
_cell_length_a 23.773139
_cell_length_b 8.688396
_cell_length_c 9.552189
_cell_angle_alpha 90.000000
_cell_angle_beta 76.461522
_cell_angle_gamma 90.000000
_cell_volume 1918.184754
_symmetry_space_group_name_H-M "C 2/M"
_symmetry_group_IT_number 12
_symmetry_cell_setting 'monoclinic'
loop_
_space_group_symop_operation_xyz
x,y,z
-x,y,-z
-x,-y,-z
x,-y,z
1/2+x,1/2+y,z
1/2-x,1/2+y,-z
1/2-x,1/2-y,-z
1/2+x,1/2-y,z
loop_
_atom_site_type_symbol
_atom_site_label
_atom_site_fract_x
_atom_site_fract_y
_atom_site_fract_z
Si Si1 0.081179 0.179395 0.079885
Si Si2 0.766122 0.818258 0.343451
Si Si3 0.389919 0.818912 0.221417
Si Si4 0.017213 0.818165 0.645388
Si Si5 0.704866 0.319323 0.132445
O O1 0.141077 0.220226 0.118823
O O2 0.032020 0.231791 0.216459
O O3 0.076078 0.000000 0.046209
O O4 0.074582 0.271148 0.938398
O O5 0.750000 0.750000 0.500000
O O6 0.827189 0.758293 0.250566
O O7 0.714212 0.763752 0.274347
O O8 0.768788 0.000000 0.348965
O O9 0.423453 0.762419 0.340700
O O10 0.381934 0.000000 0.232725
O O11 0.000000 0.760640 0.500000
O O12 0.027258 0.000000 0.638304
O O13 0.715110 0.500000 0.142406
O O14 0.750000 0.250000 0.000000
#
# Coordination Sequence:
#
# PCOD8112032 Si02
#       5
#     8   8   8   8   8
#     4  10  22  41  66  94 127 171 217 261 317 384
#     4  12  26  44  66  95 132 172 213 265 322 387
#     4  12  25  42  65  95 128 169 216 266 322 382
#     4  10  23  43  67  94 125 168 215 266 326 386
#     4  11  22  39  65  98 131 169 214 263 317 383
#
# _framework density 20.853048999999999
#
# number of rings (size 3 to 8) (size 9 to 14) (size 15 to 20)
#    0.000    1.000    2.000    4.800    2.800    4.400 
#    0.000    0.000    0.000    0.000    0.000    0.000 
#    0.000    0.000    0.000    0.000    0.000    0.000 
#
# Total GULP energy -248119.709886 kJ/mol
# GULP energy per Si atom -12405.985494 kJ/mol
# Density = 2.080559 g / cm^3
# Si number density = 20.853049 Si / 1000 Ang^3
#
#
#
# Elastic Constant Matrix: (Units=GPa)
#
#
# Indices 1 2 3 4 5 6 
#
# 1 82.1560 34.7612 23.1362 0.0000 17.8727 0.0000
# 2 34.7612 111.1431 38.7497 0.0000 14.2760 0.0000
# 3 23.1362 38.7497 125.3283 0.0000 22.3798 0.0000
# 4 0.0000 0.0000 0.0000 37.1155 0.0000 5.9712
# 5 17.8727 14.2760 22.3798 0.0000 40.9643 0.0000
# 6 0.0000 0.0000 0.0000 5.9712 0.0000 33.3602
#
#
#
# Elastic Compliance Matrix: (Units=1/GPa)
#
#
# Indices 1 2 3 4 5 6 
#
# 1 0.015050 -0.003832 -0.000731 0.000000 -0.004832 0.000000
# 2 -0.003832 0.011211 -0.002615 0.000000 -0.000807 0.000000
# 3 -0.000731 -0.002615 0.009644 0.000000 -0.004038 0.000000
# 4 0.000000 0.000000 0.000000 0.027742 0.000000 -0.004966
# 5 -0.004832 -0.000807 -0.004038 0.000000 0.029007 0.000000
# 6 0.000000 0.000000 0.000000 -0.004966 0.000000 0.030865
#
#
# Mechanical properties :
#
#
# Convention : Reuss Voigt Hill
#
# Bulk Modulus (GPa) = 46.40368 56.88016 51.64192
# Shear Modulus (GPa) = 34.46936 37.08669 35.77802
#
# Velocity S-wave (km/s) = 4.07008 4.22178 4.14662
# Velocity P-wave (km/s) = 6.66246 7.14845 6.90973
#
# Compressibility (1/GPa) = 0.02155002
#
# Stress axis : x y z
#
# Youngs Moduli (GPa) = 66.44459 89.19728 103.69589
#
# Poissons Ratio (x) = 0.34177 0.07578
# Poissons Ratio (y) = 0.25459 0.27116
# Poissons Ratio (z) = 0.04856 0.23324
#
# Static dielectric constant tensor:
#      x y z
#    x 3.790020 0.000000 0.086440 
#    y 0.000000 3.687230 0.000000 
#    z 0.086440 0.000000 3.956160 
# 
# 
# High freq. dielectric constant tensor:
#      x y z
#    x 1.829450 0.000000 0.009610 
#    y 0.000000 1.813770 0.000000 
#    z 0.009610 0.000000 1.829170 
# 
# From -- ./inp_files/92710.got.cif
#   From: 2010.06.25/outbox.cif.g09.slc.cpg/sg12_47_cif.got.tgz:92710.got - 2010.06.28 00:19:55.
