data_PCOD8112051
_publ_section_title
;
Structure prediction by ZEFSAII (Michael W. Deem and Ramdas Pophale) SiO2 
 PCOD8112051
Probable space group: C 2/M
;
_chemical_formula_sum "Si O2"
_cell_formula_units_Z 60
_cell_length_a 11.156344
_cell_length_b 23.141064
_cell_length_c 16.739476
_cell_angle_alpha 90.000000
_cell_angle_beta 137.537377
_cell_angle_gamma 90.000000
_cell_volume 2917.568366
_symmetry_space_group_name_H-M "C 2/M"
_symmetry_group_IT_number 12
_symmetry_cell_setting 'monoclinic'
loop_
_space_group_symop_operation_xyz
x,y,z
-x,y,-z
-x,-y,-z
x,-y,z
1/2+x,1/2+y,z
1/2-x,1/2+y,-z
1/2-x,1/2-y,-z
1/2+x,1/2-y,z
loop_
_atom_site_type_symbol
_atom_site_label
_atom_site_fract_x
_atom_site_fract_y
_atom_site_fract_z
Si Si1 0.000000 0.641107 0.000000
Si Si2 0.807811 0.933114 0.870825
Si Si3 0.683214 0.659981 0.258807
Si Si4 0.783402 0.160576 0.541157
Si Si5 0.699820 0.563576 0.571513
Si Si6 0.673286 0.285961 0.890493
Si Si7 0.964908 0.261915 0.330420
Si Si8 0.992469 0.567416 0.836184
O O1 0.174617 0.680801 0.083598
O O2 0.004254 0.602018 0.080272
O O3 0.762844 0.892901 0.772440
O O4 0.669251 0.919397 0.872782
O O5 0.796305 0.000000 0.837623
O O6 0.000000 0.917997 0.000000
O O7 0.737689 0.646442 0.376087
O O8 0.472096 0.669284 0.147187
O O9 0.785014 0.719783 0.287100
O O10 0.796453 0.099036 0.507408
O O11 0.610955 0.190419 0.420310
O O12 0.958412 0.198997 0.606315
O O13 0.500000 0.560288 0.500000
O O14 0.774380 0.500000 0.587289
O O15 0.822889 0.589477 0.702184
O O16 0.576245 0.240558 0.784114
O O17 0.750000 0.250000 0.000000
O O18 0.976751 0.500000 0.850037
#
# Coordination Sequence:
#
# PCOD8112051 Si02
#       8
#     4   8   8   8   8   8   8   8
#     4  12  25  42  66  92 124 168 217 268 322 378
#     4  10  22  41  66  98 133 172 211 264 333 392
#     4  11  23  40  66  94 128 165 216 262 319 385
#     4  10  23  41  65  94 126 169 215 257 317 384
#     4  10  23  41  65  93 127 168 210 263 323 380
#     4  11  26  41  60  93 124 168 215 262 321 379
#     4  10  23  41  60  92 127 169 206 262 312 378
#     4  10  23  43  67  96 127 165 213 263 325 386
#
# _framework density 20.565069999999999
#
# number of rings (size 3 to 8) (size 9 to 14) (size 15 to 20)
#    0.000    1.600    0.000    3.000    9.333    3.733 
#    0.000    0.667    0.000    4.000    0.000    0.000 
#    0.000    0.000    0.000    0.000    0.000    0.000 
#
# Total GULP energy -372022.793145 kJ/mol
# GULP energy per Si atom -12400.759771 kJ/mol
# Density = 2.051826 g / cm^3
# Si number density = 20.565070 Si / 1000 Ang^3
#
#
#
# Elastic Constant Matrix: (Units=GPa)
#
#
# Indices 1 2 3 4 5 6 
#
# 1 129.5462 64.8451 65.9993 0.0007 -6.2230 0.0000
# 2 64.8451 97.0709 60.6778 0.0007 -23.4274 0.0002
# 3 65.9993 60.6778 146.5490 -0.0014 -10.9576 -0.0012
# 4 0.0007 0.0007 -0.0014 32.9552 -0.0002 -4.6219
# 5 -6.2230 -23.4274 -10.9576 -0.0002 47.3946 -0.0003
# 6 0.0000 0.0002 -0.0012 -4.6219 -0.0003 45.9269
#
#
#
# Elastic Compliance Matrix: (Units=1/GPa)
#
#
# Indices 1 2 3 4 5 6 
#
# 1 0.012739 -0.007331 -0.002898 0.000000 -0.002621 0.000000
# 2 -0.007331 0.019775 -0.004301 0.000000 0.007818 0.000000
# 3 -0.002898 -0.004301 0.009893 0.000001 -0.000219 0.000000
# 4 0.000000 0.000000 0.000001 0.030779 0.000000 0.003097
# 5 -0.002621 0.007818 -0.000219 0.000000 0.024569 0.000000
# 6 0.000000 0.000000 0.000000 0.003097 0.000000 0.022085
#
#
# Mechanical properties :
#
#
# Convention : Reuss Voigt Hill
#
# Bulk Modulus (GPa) = 74.92671 84.02336 79.47504
# Shear Modulus (GPa) = 32.60516 37.36493 34.98504
#
# Velocity S-wave (km/s) = 3.98611 4.26715 4.12902
# Velocity P-wave (km/s) = 7.59595 8.07614 7.83972
#
# Compressibility (1/GPa) = 0.01334637
#
# Stress axis : x y z
#
# Youngs Moduli (GPa) = 78.49658 50.56967 101.07947
#
# Poissons Ratio (x) = 0.37075 0.29290
# Poissons Ratio (y) = 0.57549 0.43477
# Poissons Ratio (z) = 0.22746 0.21752
#
# Static dielectric constant tensor:
#      x y z
#    x 3.676130 0.000000 0.226360 
#    y 0.000000 3.832020 0.000000 
#    z 0.226360 0.000000 3.954140 
# 
# 
# High freq. dielectric constant tensor:
#      x y z
#    x 1.805750 0.000000 0.008010 
#    y 0.000000 1.801080 0.000000 
#    z 0.008010 0.000000 1.824010 
# 
# From -- ./inp_files/265702.got.cif
#   From: 2010.06.25/outbox.cif.g09.slc.cpg/sg12_133_cif.got.tgz:265702.got - 2010.06.28 00:19:55.
