data_PCOD8112566
_publ_section_title
;
Structure prediction by ZEFSAII (Michael W. Deem and Ramdas Pophale) SiO2 
 PCOD8112566
Probable space group: C 2/M
;
_chemical_formula_sum "Si O2"
_cell_formula_units_Z 44
_cell_length_a 9.694084
_cell_length_b 20.822207
_cell_length_c 13.388163
_cell_angle_alpha 90.000000
_cell_angle_beta 113.965626
_cell_angle_gamma 90.000000
_cell_volume 2469.452079
_symmetry_space_group_name_H-M "C 2/M"
_symmetry_group_IT_number 12
_symmetry_cell_setting 'monoclinic'
loop_
_space_group_symop_operation_xyz
x,y,z
-x,y,-z
-x,-y,-z
x,-y,z
1/2+x,1/2+y,z
1/2-x,1/2+y,-z
1/2-x,1/2-y,-z
1/2+x,1/2-y,z
loop_
_atom_site_type_symbol
_atom_site_label
_atom_site_fract_x
_atom_site_fract_y
_atom_site_fract_z
Si Si1 0.651166 0.429640 0.592067
Si Si2 0.315251 0.621615 0.185486
Si Si3 0.173699 0.500000 0.034548
Si Si4 0.091183 0.119749 0.128748
Si Si5 0.832437 0.252930 0.921569
Si Si6 0.295127 0.000000 0.191697
Si Si7 0.415015 0.000000 0.582402
O O1 0.500000 0.397883 0.500000
O O2 0.601352 0.500000 0.616486
O O3 0.691885 0.388880 0.699472
O O4 0.801300 0.437975 0.563938
O O5 0.241264 0.564033 0.101894
O O6 0.481384 0.631272 0.189934
O O7 0.226240 0.687983 0.158861
O O8 0.196277 0.500000 0.923956
O O9 0.000000 0.500000 0.000000
O O10 0.185801 0.185305 0.141887
O O11 0.203072 0.063371 0.195835
O O12 0.000000 0.102405 0.000000
O O13 0.750000 0.250000 0.000000
O O14 0.000000 0.268186 0.000000
O O15 0.458293 0.000000 0.293228
O O16 0.500000 0.000000 0.500000
#
# Coordination Sequence:
#
# PCOD8112566 Si02
#       7
#     8   8   4   8   8   4   4
#     4   9  21  40  62  87 117 161 204 243 312 360
#     4  12  21  37  61  84 125 155 208 244 292 381
#     4  12  21  32  53  90 117 154 183 251 309 343
#     4  11  22  36  55  91 117 168 197 234 314 356
#     4  11  21  38  55  84 124 166 202 236 297 375
#     4  12  22  34  59  88 128 139 201 261 294 360
#     4  10  23  39  58  94 121 156 198 246 316 361
#
# _framework density 17.817717999999999
#
# number of rings (size 3 to 8) (size 9 to 14) (size 15 to 20)
#    0.545    0.545    6.364    2.455    2.545    1.455 
#    0.000    0.000    0.000    2.182    0.000    0.000 
#    0.000    0.000    0.000    0.000    0.000    0.000 
#
# Total GULP energy -272584.473430 kJ/mol
# GULP energy per Si atom -12390.203338 kJ/mol
# Density = 1.777716 g / cm^3
# Si number density = 17.817718 Si / 1000 Ang^3
#
#
#
# Elastic Constant Matrix: (Units=GPa)
#
#
# Indices 1 2 3 4 5 6 
#
# 1 143.7054 52.1307 48.5244 0.0000 -3.6608 0.0000
# 2 52.1307 131.4887 45.3164 0.0000 7.4632 0.0000
# 3 48.5244 45.3164 102.3493 0.0000 0.5476 0.0000
# 4 0.0000 0.0000 0.0000 32.6188 0.0000 -1.6141
# 5 -3.6608 7.4632 0.5476 0.0000 34.7618 0.0000
# 6 0.0000 0.0000 0.0000 -1.6141 0.0000 31.2899
#
#
#
# Elastic Compliance Matrix: (Units=1/GPa)
#
#
# Indices 1 2 3 4 5 6 
#
# 1 0.008988 -0.002573 -0.003131 0.000000 0.001548 0.000000
# 2 -0.002573 0.009833 -0.003122 0.000000 -0.002333 0.000000
# 3 -0.003131 -0.003122 0.012636 0.000000 0.000141 0.000000
# 4 0.000000 0.000000 0.000000 0.030736 0.000000 0.001585
# 5 0.001548 -0.002333 0.000141 0.000000 0.029429 0.000000
# 6 0.000000 0.000000 0.000000 0.001585 0.000000 0.032041
#
#
# Mechanical properties :
#
#
# Convention : Reuss Voigt Hill
#
# Bulk Modulus (GPa) = 72.42137 74.38737 73.40437
# Shear Modulus (GPa) = 34.26623 35.17224 34.71924
#
# Velocity S-wave (km/s) = 4.39014 4.44780 4.41906
# Velocity P-wave (km/s) = 8.15056 8.25935 8.20514
#
# Compressibility (1/GPa) = 0.01380808
#
# Stress axis : x y z
#
# Youngs Moduli (GPa) = 111.25360 101.69399 79.13766
#
# Poissons Ratio (x) = 0.26161 0.24776
# Poissons Ratio (y) = 0.28620 0.24705
# Poissons Ratio (z) = 0.34831 0.31746
#
# Static dielectric constant tensor:
#      x y z
#    x 3.454920 0.000000 0.045830 
#    y 0.000000 3.453800 0.000000 
#    z 0.045830 0.000000 3.114860 
# 
# 
# High freq. dielectric constant tensor:
#      x y z
#    x 1.708240 0.000000 0.003980 
#    y 0.000000 1.679530 0.000000 
#    z 0.003980 0.000000 1.668310 
# 
# From -- ./inp_files/197302.got.cif
#   From: 2010.06.25/outbox.cif.g09.slc.cpg/sg12_99_cif.got.tgz:197302.got - 2010.06.28 00:19:55.
