data_PCOD8112001
_publ_section_title
;
Structure prediction by ZEFSAII (Michael W. Deem and Ramdas Pophale) SiO2 
 PCOD8112001
Probable space group: C 2/M
;
_chemical_formula_sum "Si O2"
_cell_formula_units_Z 64
_cell_length_a 29.264659
_cell_length_b 15.189266
_cell_length_c 8.825993
_cell_angle_alpha 90.000000
_cell_angle_beta 52.901697
_cell_angle_gamma 90.000000
_cell_volume 3129.175755
_symmetry_space_group_name_H-M "C 2/M"
_symmetry_group_IT_number 12
_symmetry_cell_setting 'monoclinic'
loop_
_space_group_symop_operation_xyz
x,y,z
-x,y,-z
-x,-y,-z
x,-y,z
1/2+x,1/2+y,z
1/2-x,1/2+y,-z
1/2-x,1/2-y,-z
1/2+x,1/2-y,z
loop_
_atom_site_type_symbol
_atom_site_label
_atom_site_fract_x
_atom_site_fract_y
_atom_site_fract_z
Si Si1 0.939541 0.754675 0.548766
Si Si2 0.560459 0.254675 0.806930
Si Si3 0.740913 0.156716 0.093815
Si Si4 0.866554 0.098653 0.189265
Si Si5 0.872740 0.400153 0.178519
Si Si6 0.259087 0.843284 0.557466
Si Si7 0.627260 0.099847 0.169481
Si Si8 0.633446 0.598653 0.155480
O O1 0.946834 0.746505 0.356332
O O2 0.917262 0.661880 0.655476
O O3 0.895303 0.832519 0.674008
O O4 0.000000 0.779236 0.500000
O O5 0.604697 0.332519 0.755219
O O6 0.582738 0.161880 0.824523
O O7 0.500000 0.279236 0.000000
O O8 0.723706 0.170510 0.302588
O O9 0.690353 0.104928 0.112921
O O10 0.750000 0.250000 0.000000
O O11 0.798239 0.099979 0.961457
O O12 0.798239 0.099979 0.345588
O O13 0.887798 0.000000 0.185482
O O14 0.883076 0.123989 0.983847
O O15 0.895130 0.500000 0.148706
O O16 0.809647 0.395072 0.374332
O O17 0.869588 0.369695 0.010824
O O18 0.250000 0.750000 0.500000
O O19 0.604870 0.000000 0.229227
O O20 0.612202 0.500000 0.236673
#
# Coordination Sequence:
#
# PCOD8112001 Si02
#       8
#     8   8   8   8   8   8   8   8
#     4  12  26  44  67  91 122 164 210 263 315 373
#     4  12  26  44  67  91 122 164 210 263 315 373
#     4  11  21  36  63  96 131 169 207 252 310 370
#     4  10  22  41  65  93 128 167 208 256 309 368
#     4  11  24  42  65  94 129 167 209 258 311 372
#     4  11  21  36  63  96 131 169 207 252 310 370
#     4  11  24  42  65  94 129 167 209 258 311 372
#     4  10  22  41  65  93 128 167 208 256 309 368
#
# _framework density 20.452670999999999
#
# number of rings (size 3 to 8) (size 9 to 14) (size 15 to 20)
#    0.000    1.000    2.500    4.500    0.000    5.500 
#    0.000    0.000    0.000    0.000    0.000    0.000 
#    0.000    0.000    0.000    0.000    0.000    0.000 
#
# Total GULP energy -396991.562464 kJ/mol
# GULP energy per Si atom -12405.986327 kJ/mol
# Density = 2.040612 g / cm^3
# Si number density = 20.452671 Si / 1000 Ang^3
#
#
#
# Elastic Constant Matrix: (Units=GPa)
#
#
# Indices 1 2 3 4 5 6 
#
# 1 101.9660 26.0516 38.4499 0.0000 21.8543 0.0000
# 2 26.0516 106.1496 33.3942 0.0000 15.7227 0.0000
# 3 38.4499 33.3942 122.7968 0.0000 22.7503 0.0000
# 4 0.0000 0.0000 0.0000 17.3845 0.0000 5.5305
# 5 21.8543 15.7227 22.7503 0.0000 38.7796 0.0000
# 6 0.0000 0.0000 0.0000 5.5305 0.0000 14.8017
#
#
#
# Elastic Compliance Matrix: (Units=1/GPa)
#
#
# Indices 1 2 3 4 5 6 
#
# 1 0.012159 -0.001485 -0.002519 0.000000 -0.004773 0.000000
# 2 -0.001485 0.010770 -0.002031 0.000000 -0.002339 0.000000
# 3 -0.002519 -0.002031 0.010175 0.000000 -0.003726 0.000000
# 4 0.000000 0.000000 0.000000 0.065282 0.000000 -0.024392
# 5 -0.004773 -0.002339 -0.003726 0.000000 0.031610 0.000000
# 6 0.000000 0.000000 0.000000 -0.024392 0.000000 0.076674
#
#
# Mechanical properties :
#
#
# Convention : Reuss Voigt Hill
#
# Bulk Modulus (GPa) = 47.53996 58.52265 53.03130
# Shear Modulus (GPa) = 22.14815 29.72761 25.93788
#
# Velocity S-wave (km/s) = 3.29431 3.81659 3.56503
# Velocity P-wave (km/s) = 6.14527 6.93525 6.55217
#
# Compressibility (1/GPa) = 0.02103494
#
# Stress axis : x y z
#
# Youngs Moduli (GPa) = 82.24061 92.84770 98.28024
#
# Poissons Ratio (x) = 0.13785 0.24761
# Poissons Ratio (y) = 0.12210 0.19959
# Poissons Ratio (z) = 0.20720 0.18855
#
# Static dielectric constant tensor:
#      x y z
#    x 3.805800 0.000000 0.083350 
#    y 0.000000 3.659710 0.000000 
#    z 0.083350 0.000000 3.844730 
# 
# 
# High freq. dielectric constant tensor:
#      x y z
#    x 1.801270 0.000000 0.006670 
#    y 0.000000 1.810760 0.000000 
#    z 0.006670 0.000000 1.804390 
# 
# From -- ./inp_files/111991.got.cif
#   From: 2010.06.25/outbox.cif.g09.slc.cpg/sg12_56_cif.got.tgz:111991.got - 2010.06.28 00:19:55.
