data_PCOD8112275
_publ_section_title
;
Structure prediction by ZEFSAII (Michael W. Deem and Ramdas Pophale) SiO2 
 PCOD8112275
Probable space group: C 2/M
;
_chemical_formula_sum "Si O2"
_cell_formula_units_Z 48
_cell_length_a 10.532872
_cell_length_b 18.130778
_cell_length_c 11.036619
_cell_angle_alpha 90.000000
_cell_angle_beta 102.452764
_cell_angle_gamma 90.000000
_cell_volume 2058.069476
_symmetry_space_group_name_H-M "C 2/M"
_symmetry_group_IT_number 12
_symmetry_cell_setting 'monoclinic'
loop_
_space_group_symop_operation_xyz
x,y,z
-x,y,-z
-x,-y,-z
x,-y,z
1/2+x,1/2+y,z
1/2-x,1/2+y,-z
1/2-x,1/2-y,-z
1/2+x,1/2-y,z
loop_
_atom_site_type_symbol
_atom_site_label
_atom_site_fract_x
_atom_site_fract_y
_atom_site_fract_z
Si Si1 0.692614 0.085551 0.981249
Si Si2 0.093244 0.918513 0.179236
Si Si3 0.718915 0.815326 0.399017
Si Si4 0.955673 0.671856 0.226114
Si Si5 0.318622 0.083058 0.399768
Si Si6 0.349303 0.324913 0.189854
O O1 0.810433 0.098340 0.911494
O O2 0.558839 0.112203 0.886606
O O3 0.676537 0.000000 0.014520
O O4 0.722664 0.136303 0.104120
O O5 0.172444 0.913532 0.320042
O O6 0.976531 0.861958 0.160187
O O7 0.032299 0.000000 0.151026
O O8 0.750000 0.750000 0.500000
O O9 0.599762 0.796248 0.282235
O O10 0.685316 0.889942 0.462963
O O11 0.840337 0.831731 0.334806
O O12 0.912193 0.636077 0.343713
O O13 0.859619 0.737942 0.164886
O O14 0.373938 0.000000 0.406441
#
# Coordination Sequence:
#
# PCOD8112275 Si02
#       6
#     8   8   8   8   8   8
#     4  10  23  46  70  99 134 175 228 275 332 409
#     4   9  20  41  68  99 133 171 218 279 337 401
#     4  12  26  43  62  98 138 176 225 286 338 396
#     4  11  24  42  66  92 133 177 223 279 336 397
#     4  10  22  42  68  94 127 179 232 271 331 404
#     4  12  24  39  68  97 136 176 219 278 346 398
#
# _framework density 23.322825999999999
#
# number of rings (size 3 to 8) (size 9 to 14) (size 15 to 20)
#    0.000    1.333    1.667    4.500    2.333    7.333 
#    3.000    2.500    0.000    0.000    0.000    0.000 
#    0.000    0.000    0.000    0.000    0.000    0.000 
#
# Total GULP energy -297568.588687 kJ/mol
# GULP energy per Si atom -12398.691195 kJ/mol
# Density = 2.326974 g / cm^3
# Si number density = 23.322826 Si / 1000 Ang^3
#
#
#
# Elastic Constant Matrix: (Units=GPa)
#
#
# Indices 1 2 3 4 5 6 
#
# 1 32.3701 17.6648 11.5055 0.0000 23.9219 0.0000
# 2 17.6648 143.3407 42.9281 0.0000 12.1965 0.0000
# 3 11.5055 42.9281 113.8687 0.0000 13.8714 0.0000
# 4 0.0000 0.0000 0.0000 41.7243 0.0000 1.8141
# 5 23.9219 12.1965 13.8714 0.0000 28.0803 0.0000
# 6 0.0000 0.0000 0.0000 1.8141 0.0000 31.4406
#
#
#
# Elastic Compliance Matrix: (Units=1/GPa)
#
#
# Indices 1 2 3 4 5 6 
#
# 1 0.086543 -0.005098 0.002010 0.000000 -0.072506 0.000000
# 2 -0.005098 0.008280 -0.002870 0.000000 0.002164 0.000000
# 3 0.002010 -0.002870 0.010340 0.000000 -0.005574 0.000000
# 4 0.000000 0.000000 0.000000 0.024027 0.000000 -0.001386
# 5 -0.072506 0.002164 -0.005574 0.000000 0.099194 0.000000
# 6 0.000000 0.000000 0.000000 -0.001386 0.000000 0.031886
#
#
# Mechanical properties :
#
#
# Convention : Reuss Voigt Hill
#
# Bulk Modulus (GPa) = 10.72421 48.19738 29.46080
# Shear Modulus (GPa) = 16.48705 34.74777 25.61741
#
# Velocity S-wave (km/s) = 2.66165 3.86406 3.31778
# Velocity P-wave (km/s) = 3.74887 6.37324 5.22839
#
# Compressibility (1/GPa) = 0.09324693
#
# Stress axis : x y z
#
# Youngs Moduli (GPa) = 11.55494 120.77269 96.71243
#
# Poissons Ratio (x) = 0.61569 -0.19439
# Poissons Ratio (y) = 0.05891 0.27757
# Poissons Ratio (z) = -0.02323 0.34663
#
# Static dielectric constant tensor:
#      x y z
#    x 4.008130 0.000000 0.139450 
#    y 0.000000 4.251830 0.000000 
#    z 0.139450 0.000000 4.413300 
# 
# 
# High freq. dielectric constant tensor:
#      x y z
#    x 1.909250 0.000000 0.005260 
#    y 0.000000 1.927800 0.000000 
#    z 0.005260 0.000000 1.929570 
# 
# From -- ./inp_files/131736.got.cif
#   From: 2010.06.25/outbox.cif.g09.slc.cpg/sg12_66_cif.got.tgz:131736.got - 2010.06.28 00:19:55.
