data_PCOD8112165
_publ_section_title
;
Structure prediction by ZEFSAII (Michael W. Deem and Ramdas Pophale) SiO2 
 PCOD8112165
Probable space group: C 2/M
;
_chemical_formula_sum "Si O2"
_cell_formula_units_Z 40
_cell_length_a 8.437246
_cell_length_b 18.024989
_cell_length_c 24.157992
_cell_angle_alpha 90.000000
_cell_angle_beta 148.556262
_cell_angle_gamma 90.000000
_cell_volume 1916.571254
_symmetry_space_group_name_H-M "C 2/M"
_symmetry_group_IT_number 12
_symmetry_cell_setting 'monoclinic'
loop_
_space_group_symop_operation_xyz
x,y,z
-x,y,-z
-x,-y,-z
x,-y,z
1/2+x,1/2+y,z
1/2-x,1/2+y,-z
1/2-x,1/2-y,-z
1/2+x,1/2-y,z
loop_
_atom_site_type_symbol
_atom_site_label
_atom_site_fract_x
_atom_site_fract_y
_atom_site_fract_z
Si Si1 0.683412 0.196488 0.929891
Si Si2 0.177929 0.914700 0.799078
Si Si3 0.331532 0.584827 0.582431
Si Si4 0.351391 0.698971 0.398436
Si Si5 0.771545 0.801679 0.735605
O O1 0.503957 0.124849 0.898518
O O2 0.492648 0.239808 0.826754
O O3 0.750000 0.250000 0.000000
O O4 0.000000 0.167096 0.000000
O O5 0.053046 0.905573 0.700166
O O6 0.952499 0.876683 0.775951
O O7 0.214327 0.000000 0.827370
O O8 0.303820 0.500000 0.554732
O O9 0.468625 0.628530 0.571446
O O10 0.000000 0.615508 0.500000
O O11 0.500000 0.724965 0.500000
O O12 0.374598 0.768304 0.363866
O O13 0.997013 0.678145 0.301913
#
# Coordination Sequence:
#
# PCOD8112165 Si02
#       5
#     8   8   8   8   8
#     4  12  23  43  71  93 125 173 220 279 336 389
#     4  11  24  44  68  98 136 174 218 275 338 396
#     4  10  22  42  64  94 141 182 214 267 334 393
#     4  12  23  37  66  98 133 173 228 266 320 397
#     4  12  23  42  63  98 134 169 222 273 328 390
#
# _framework density 20.870604
#
# number of rings (size 3 to 8) (size 9 to 14) (size 15 to 20)
#    0.000    0.600    6.000    1.800    0.000    3.200 
#    0.000    2.000    0.000    0.000    0.000    0.000 
#    0.000    0.000    0.000    0.000    0.000    0.000 
#
# Total GULP energy -248124.209948 kJ/mol
# GULP energy per Si atom -12406.210497 kJ/mol
# Density = 2.082310 g / cm^3
# Si number density = 20.870604 Si / 1000 Ang^3
#
#
#
# Elastic Constant Matrix: (Units=GPa)
#
#
# Indices 1 2 3 4 5 6 
#
# 1 146.6946 66.0254 39.9712 0.0014 36.5762 0.0071
# 2 66.0254 140.8395 39.8879 -0.0241 15.4446 -0.0073
# 3 39.9712 39.8879 80.6924 -0.0044 17.9039 0.0068
# 4 0.0014 -0.0241 -0.0044 31.4335 -0.0098 6.3521
# 5 36.5762 15.4446 17.9039 -0.0098 45.4566 -0.0002
# 6 0.0071 -0.0073 0.0068 6.3521 -0.0002 38.8885
#
#
#
# Elastic Compliance Matrix: (Units=1/GPa)
#
#
# Indices 1 2 3 4 5 6 
#
# 1 0.010662 -0.003717 -0.001995 -0.000005 -0.006530 -0.000001
# 2 -0.003717 0.009624 -0.003128 0.000007 0.000953 0.000002
# 3 -0.001995 -0.003128 0.015708 -0.000001 -0.003519 -0.000003
# 4 -0.000005 0.000007 -0.000001 0.032899 0.000009 -0.005374
# 5 -0.006530 0.000953 -0.003519 0.000009 0.028316 0.000001
# 6 -0.000001 0.000002 -0.000003 -0.005374 0.000001 0.026592
#
#
# Mechanical properties :
#
#
# Convention : Reuss Voigt Hill
#
# Bulk Modulus (GPa) = 54.60195 73.33284 63.96739
# Shear Modulus (GPa) = 33.87886 37.97851 35.92868
#
# Velocity S-wave (km/s) = 4.03337 4.27044 4.15359
# Velocity P-wave (km/s) = 6.92168 7.71548 7.32934
#
# Compressibility (1/GPa) = 0.01831436
#
# Stress axis : x y z
#
# Youngs Moduli (GPa) = 93.79386 103.90553 63.66288
#
# Poissons Ratio (x) = 0.38622 0.12701
# Poissons Ratio (y) = 0.34864 0.19911
# Poissons Ratio (z) = 0.18712 0.32497
#
# Static dielectric constant tensor:
#      x y z
#    x 4.159500 0.000010 0.332910 
#    y 0.000010 3.730320 0.000000 
#    z 0.332910 0.000000 4.090400 
# 
# 
# High freq. dielectric constant tensor:
#      x y z
#    x 1.829740 0.000000 0.011710 
#    y 0.000000 1.806420 0.000000 
#    z 0.011710 0.000000 1.824780 
# 
# From -- ./inp_files/118957.got.cif
#   From: 2010.06.25/outbox.cif.g09.slc.cpg/sg12_60_cif.got.tgz:118957.got - 2010.06.28 00:19:55.
