data_PCOD8112358
_publ_section_title
;
Structure prediction by ZEFSAII (Michael W. Deem and Ramdas Pophale) SiO2 
 PCOD8112358
Probable space group: C 2/M
;
_chemical_formula_sum "Si O2"
_cell_formula_units_Z 56
_cell_length_a 13.087787
_cell_length_b 21.249026
_cell_length_c 9.381278
_cell_angle_alpha 90.000000
_cell_angle_beta 88.519735
_cell_angle_gamma 90.000000
_cell_volume 2608.088331
_symmetry_space_group_name_H-M "C 2/M"
_symmetry_group_IT_number 12
_symmetry_cell_setting 'monoclinic'
loop_
_space_group_symop_operation_xyz
x,y,z
-x,y,-z
-x,-y,-z
x,-y,z
1/2+x,1/2+y,z
1/2-x,1/2+y,-z
1/2-x,1/2-y,-z
1/2+x,1/2-y,z
loop_
_atom_site_type_symbol
_atom_site_label
_atom_site_fract_x
_atom_site_fract_y
_atom_site_fract_z
Si Si1 0.264971 0.824193 0.027323
Si Si2 0.607906 0.839167 0.241303
Si Si3 0.873920 0.668055 0.309279
Si Si4 0.394366 0.596228 0.582421
Si Si5 0.882655 0.759963 0.542097
Si Si6 0.105221 0.928799 0.080970
Si Si7 0.183266 0.569024 0.470526
O O1 0.293982 0.837978 0.187148
O O2 0.169535 0.871564 0.007346
O O3 0.250000 0.750000 0.000000
O O4 0.355602 0.845851 0.921109
O O5 0.486771 0.829207 0.241895
O O6 0.651355 0.775869 0.313399
O O7 0.655902 0.898350 0.322231
O O8 0.830063 0.727409 0.405199
O O9 0.874053 0.605203 0.401892
O O10 0.500000 0.580234 0.500000
O O11 0.358913 0.667780 0.562133
O O12 0.408327 0.580266 0.748236
O O13 0.303784 0.560468 0.503980
O O14 0.000000 0.746099 0.500000
O O15 0.151096 0.000000 0.056141
O O16 0.000000 0.924212 0.000000
O O17 0.135379 0.500000 0.463222
#
# Coordination Sequence:
#
# PCOD8112358 Si02
#       7
#     8   8   8   8   8   8   8
#     4  12  26  41  70 102 137 179 223 280 335 405
#     4  10  23  40  64  98 130 171 216 266 328 397
#     4  10  22  43  66  95 136 173 213 270 337 398
#     4  11  23  40  69  99 125 168 224 281 336 397
#     4   8  18  37  63  93 129 163 205 266 330 392
#     4  11  27  49  67  92 139 186 225 278 345 411
#     4  11  24  41  66  96 129 170 223 275 330 397
#
# _framework density 21.471665000000002
#
# number of rings (size 3 to 8) (size 9 to 14) (size 15 to 20)
#    0.000    1.571    1.429    3.000    4.000    7.429 
#    0.000    0.000    0.000    2.571    0.000    0.000 
#    0.000    0.000    0.000    0.000    0.000    0.000 
#
# Total GULP energy -346980.222591 kJ/mol
# GULP energy per Si atom -12392.150807 kJ/mol
# Density = 2.142280 g / cm^3
# Si number density = 21.471665 Si / 1000 Ang^3
#
#
#
# Elastic Constant Matrix: (Units=GPa)
#
#
# Indices 1 2 3 4 5 6 
#
# 1 53.4984 24.6403 6.9277 0.0000 1.3191 0.0000
# 2 24.6403 170.6022 35.1901 0.0000 -7.2255 0.0000
# 3 6.9277 35.1901 84.4078 0.0000 0.1770 0.0000
# 4 0.0000 0.0000 0.0000 7.2271 0.0000 0.5401
# 5 1.3191 -7.2255 0.1770 0.0000 37.1314 0.0000
# 6 0.0000 0.0000 0.0000 0.5401 0.0000 26.8157
#
#
#
# Elastic Compliance Matrix: (Units=1/GPa)
#
#
# Indices 1 2 3 4 5 6 
#
# 1 0.020101 -0.002863 -0.000453 0.000000 -0.001269 0.000000
# 2 -0.002863 0.006881 -0.002637 0.000000 0.001453 0.000000
# 3 -0.000453 -0.002637 0.012985 0.000000 -0.000559 0.000000
# 4 0.000000 0.000000 0.000000 0.138577 0.000000 -0.002791
# 5 -0.001269 0.001453 -0.000559 0.000000 0.027262 0.000000
# 6 0.000000 0.000000 0.000000 -0.002791 0.000000 0.037348
#
#
# Mechanical properties :
#
#
# Convention : Reuss Voigt Hill
#
# Bulk Modulus (GPa) = 35.63836 49.11387 42.37611
# Shear Modulus (GPa) = 18.90985 30.35154 24.63069
#
# Velocity S-wave (km/s) = 2.97086 3.76382 3.39060
# Velocity P-wave (km/s) = 5.32934 6.46621 5.92511
#
# Compressibility (1/GPa) = 0.02805965
#
# Stress axis : x y z
#
# Youngs Moduli (GPa) = 49.74878 145.33703 77.01294
#
# Poissons Ratio (x) = 0.41617 0.03491
# Poissons Ratio (y) = 0.14245 0.20305
# Poissons Ratio (z) = 0.02255 0.38319
#
# Static dielectric constant tensor:
#      x y z
#    x 3.969430 0.000000 0.100210 
#    y 0.000000 4.122440 0.000000 
#    z 0.100210 0.000000 3.960100 
# 
# 
# High freq. dielectric constant tensor:
#      x y z
#    x 1.853230 0.000000 0.002120 
#    y 0.000000 1.850220 0.000000 
#    z 0.002120 0.000000 1.844530 
# 
# From -- ./inp_files/64090.got.cif
#   From: 2010.06.25/outbox.cif.g09.slc.cpg/sg12_33_cif.got.tgz:64090.got - 2010.06.28 00:19:55.
