data_PCOD8112986
_publ_section_title
;
Structure prediction by ZEFSAII (Michael W. Deem and Ramdas Pophale) SiO2 
 PCOD8112986
Probable space group: C 2/M
;
_chemical_formula_sum "Si O2"
_cell_formula_units_Z 64
_cell_length_a 18.479040
_cell_length_b 12.964215
_cell_length_c 24.941644
_cell_angle_alpha 90.000000
_cell_angle_beta 28.664037
_cell_angle_gamma 90.000000
_cell_volume 2866.129683
_symmetry_space_group_name_H-M "C 2/M"
_symmetry_group_IT_number 12
_symmetry_cell_setting 'monoclinic'
loop_
_space_group_symop_operation_xyz
x,y,z
-x,y,-z
-x,-y,-z
x,-y,z
1/2+x,1/2+y,z
1/2-x,1/2+y,-z
1/2-x,1/2-y,-z
1/2+x,1/2-y,z
loop_
_atom_site_type_symbol
_atom_site_label
_atom_site_fract_x
_atom_site_fract_y
_atom_site_fract_z
Si Si1 0.845484 0.116019 0.953358
Si Si2 0.898033 0.789079 0.374758
Si Si3 0.179657 0.380298 0.437266
Si Si4 0.452157 0.797715 0.818436
Si Si5 0.241366 0.123399 0.341939
Si Si6 0.997912 0.122053 0.416362
Si Si7 0.647873 0.876820 0.338505
Si Si8 0.562709 0.622597 0.904946
O O1 0.873802 0.188158 0.883630
O O2 0.955684 0.159608 0.927065
O O3 0.885711 0.000000 0.909903
O O4 0.675428 0.116905 0.087572
O O5 0.750000 0.750000 0.500000
O O6 0.832038 0.864323 0.371422
O O7 0.997983 0.704627 0.277165
O O8 0.000243 0.846219 0.352400
O O9 0.146361 0.500000 0.454060
O O10 0.197965 0.335399 0.365145
O O11 0.021624 0.334278 0.566348
O O12 0.594675 0.825268 0.763129
O O13 0.149402 0.161926 0.348537
O O14 0.152035 0.161005 0.454009
O O15 0.256713 0.000000 0.331589
O O16 0.997042 0.000000 0.421008
O O17 0.767055 0.837460 0.216891
O O18 0.651218 0.000000 0.337389
O O19 0.557921 0.500000 0.912549
O O20 0.500000 0.673925 0.000000
#
# Coordination Sequence:
#
# PCOD8112986 Si02
#       8
#     8   8   8   8   8   8   8   8
#     4  10  23  43  64  86 117 162 215 260 307 370
#     4  12  23  36  51  92 132 154 194 250 318 376
#     4   9  18  33  53  76 112 156 195 231 282 357
#     4  11  23  41  64  93 122 163 208 263 318 369
#     4   9  18  39  66  90 121 167 215 256 306 374
#     4   9  19  38  63  89 124 168 211 253 308 377
#     4   8  15  31  52  78 105 142 190 228 275 348
#     4   9  17  32  53  78 109 147 194 243 291 348
#
# _framework density 22.329764000000001
#
# number of rings (size 3 to 8) (size 9 to 14) (size 15 to 20)
#    0.000    2.375    1.250    3.000    0.000    3.000 
#    9.000    1.250    0.000    0.000    0.000    6.125 
#    0.000    0.000    0.000    0.000    0.000    0.000 
#
# Total GULP energy -396680.741421 kJ/mol
# GULP energy per Si atom -12396.273169 kJ/mol
# Density = 2.227894 g / cm^3
# Si number density = 22.329764 Si / 1000 Ang^3
#
#
#
# Elastic Constant Matrix: (Units=GPa)
#
#
# Indices 1 2 3 4 5 6 
#
# 1 108.0340 22.5102 31.3809 -0.0035 -3.1560 0.0018
# 2 22.5102 26.0499 22.0613 -0.0063 -1.0264 0.0004
# 3 31.3809 22.0613 134.6495 -0.0170 0.2260 0.0025
# 4 -0.0035 -0.0063 -0.0170 25.6826 0.0007 -2.9919
# 5 -3.1560 -1.0264 0.2260 0.0007 37.7316 0.0001
# 6 0.0018 0.0004 0.0025 -2.9919 0.0001 28.8450
#
#
#
# Elastic Compliance Matrix: (Units=1/GPa)
#
#
# Indices 1 2 3 4 5 6 
#
# 1 0.011478 -0.008851 -0.001226 -0.000001 0.000727 -0.000001
# 2 -0.008851 0.051458 -0.006369 0.000007 0.000698 0.000001
# 3 -0.001226 -0.006369 0.008757 0.000004 -0.000328 0.000000
# 4 -0.000001 0.000007 0.000004 0.039413 -0.000001 0.004088
# 5 0.000727 0.000698 -0.000328 -0.000001 0.026585 0.000000
# 6 -0.000001 0.000001 0.000000 0.004088 0.000000 0.035092
#
#
# Mechanical properties :
#
#
# Convention : Reuss Voigt Hill
#
# Bulk Modulus (GPa) = 25.77379 46.73758 36.25568
# Shear Modulus (GPa) = 22.87187 31.30390 27.08788
#
# Velocity S-wave (km/s) = 3.20391 3.74825 3.48671
# Velocity P-wave (km/s) = 5.02534 6.30147 5.69924
#
# Compressibility (1/GPa) = 0.03879910
#
# Stress axis : x y z
#
# Youngs Moduli (GPa) = 87.12317 19.43329 114.20047
#
# Poissons Ratio (x) = 0.17201 0.14001
# Poissons Ratio (y) = 0.77117 0.72738
# Poissons Ratio (z) = 0.10681 0.12378
#
# Static dielectric constant tensor:
#      x y z
#    x 4.222980 0.000000 0.003530 
#    y 0.000000 3.929700 0.000020 
#    z 0.003530 0.000020 4.260280 
# 
# 
# High freq. dielectric constant tensor:
#      x y z
#    x 1.868130 0.000000 -0.009120 
#    y 0.000000 1.881600 0.000000 
#    z -0.009120 0.000000 1.876090 
# 
# From -- ./inp_files/344046.got.cif
#   From: 2010.06.25/outbox.cif.g09.slc.cpg/sg12_173_cif.got.tgz:344046.got - 2010.06.28 00:19:55.
