data_PCOD8112890
_publ_section_title
;
Structure prediction by ZEFSAII (Michael W. Deem and Ramdas Pophale) SiO2 
 PCOD8112890
Probable space group: C 2/M
;
_chemical_formula_sum "Si O2"
_cell_formula_units_Z 40
_cell_length_a 9.826249
_cell_length_b 9.550484
_cell_length_c 20.376045
_cell_angle_alpha 90.000000
_cell_angle_beta 95.559692
_cell_angle_gamma 90.000000
_cell_volume 1903.203425
_symmetry_space_group_name_H-M "C 2/M"
_symmetry_group_IT_number 12
_symmetry_cell_setting 'monoclinic'
loop_
_space_group_symop_operation_xyz
x,y,z
-x,y,-z
-x,-y,-z
x,-y,z
1/2+x,1/2+y,z
1/2-x,1/2+y,-z
1/2-x,1/2-y,-z
1/2+x,1/2-y,z
loop_
_atom_site_type_symbol
_atom_site_label
_atom_site_fract_x
_atom_site_fract_y
_atom_site_fract_z
Si Si1 0.985303 0.838878 0.363622
Si Si2 0.337604 0.725882 0.865782
Si Si3 0.581030 0.656573 0.786359
Si Si4 0.276745 0.163375 0.435969
Si Si5 0.344353 0.500000 0.972216
Si Si6 0.387800 0.000000 0.938762
O O1 0.956367 0.791765 0.288018
O O2 0.906879 0.733033 0.407463
O O3 0.146581 0.822786 0.382564
O O4 0.939705 0.000000 0.374828
O O5 0.444345 0.651664 0.823126
O O6 0.195070 0.742079 0.821184
O O7 0.306051 0.635984 0.928776
O O8 0.406133 0.868909 0.892338
O O9 0.641918 0.500000 0.787347
O O10 0.250000 0.250000 0.500000
O O11 0.307822 0.000000 0.453221
O O12 0.500000 0.500000 0.000000
O O13 0.262402 0.500000 0.036352
O O14 0.500000 0.000000 0.000000
#
# Coordination Sequence:
#
# PCOD8112890 Si02
#       6
#     8   8   8   8   4   4
#     4  10  23  42  65  92 129 171 212 262 315 371
#     4  12  23  43  67  91 127 168 209 262 324 376
#     4  11  23  44  65  94 128 165 213 263 316 379
#     4  11  23  41  65  98 132 171 215 259 313 370
#     4  12  24  42  66  92 126 166 207 262 323 384
#     4  12  24  40  60  98 124 156 215 262 311 388
#
# _framework density 21.017195999999998
#
# number of rings (size 3 to 8) (size 9 to 14) (size 15 to 20)
#    0.000    0.800    2.000    6.000    0.000    4.000 
#    3.600    0.000    0.000    0.000    0.000    0.000 
#    0.000    0.000    0.000    0.000    0.000    0.000 
#
# Total GULP energy -248126.907100 kJ/mol
# GULP energy per Si atom -12406.345355 kJ/mol
# Density = 2.096936 g / cm^3
# Si number density = 21.017196 Si / 1000 Ang^3
#
#
#
# Elastic Constant Matrix: (Units=GPa)
#
#
# Indices 1 2 3 4 5 6 
#
# 1 83.7475 6.4510 4.2204 0.0000 9.3122 0.0000
# 2 6.4510 108.0058 22.9644 0.0000 4.8674 0.0000
# 3 4.2204 22.9644 88.5245 0.0000 9.0841 0.0000
# 4 0.0000 0.0000 0.0000 40.2361 0.0000 -1.1463
# 5 9.3122 4.8674 9.0841 0.0000 44.4660 0.0000
# 6 0.0000 0.0000 0.0000 -1.1463 0.0000 34.9681
#
#
#
# Elastic Compliance Matrix: (Units=1/GPa)
#
#
# Indices 1 2 3 4 5 6 
#
# 1 0.012269 -0.000583 -0.000180 0.000000 -0.002469 0.000000
# 2 -0.000583 0.009841 -0.002479 0.000000 -0.000449 0.000000
# 3 -0.000180 -0.002479 0.012171 0.000000 -0.002177 0.000000
# 4 0.000000 0.000000 0.000000 0.024877 0.000000 0.000816
# 5 -0.002469 -0.000449 -0.002177 0.000000 0.023500 0.000000
# 6 0.000000 0.000000 0.000000 0.000816 0.000000 0.028624
#
#
# Mechanical properties :
#
#
# Convention : Reuss Voigt Hill
#
# Bulk Modulus (GPa) = 35.97582 38.61658 37.29620
# Shear Modulus (GPa) = 39.35989 40.37684 39.86836
#
# Velocity S-wave (km/s) = 4.33222 4.38783 4.36011
# Velocity P-wave (km/s) = 6.49451 6.63961 6.56746
#
# Compressibility (1/GPa) = 0.02779645
#
# Stress axis : x y z
#
# Youngs Moduli (GPa) = 81.50506 101.61669 82.15957
#
# Poissons Ratio (x) = 0.05926 0.01481
# Poissons Ratio (y) = 0.04754 0.20367
# Poissons Ratio (z) = 0.01470 0.25191
#
# Static dielectric constant tensor:
#      x y z
#    x 3.785120 0.000000 -0.012970 
#    y 0.000000 3.818390 0.000000 
#    z -0.012970 0.000000 4.153050 
# 
# 
# High freq. dielectric constant tensor:
#      x y z
#    x 1.827460 0.000000 0.007800 
#    y 0.000000 1.830410 0.000000 
#    z 0.007800 0.000000 1.837370 
# 
# From -- ./inp_files/261091.got.cif
#   From: 2010.06.25/outbox.cif.g09.slc.cpg/sg12_131_cif.got.tgz:261091.got - 2010.06.28 00:19:55.
