data_PCOD8112973
_publ_section_title
;
Structure prediction by ZEFSAII (Michael W. Deem and Ramdas Pophale) SiO2 
 PCOD8112973
Probable space group: C 2/M
;
_chemical_formula_sum "Si O2"
_cell_formula_units_Z 64
_cell_length_a 28.066649
_cell_length_b 9.050182
_cell_length_c 23.571195
_cell_angle_alpha 90.000000
_cell_angle_beta 146.664495
_cell_angle_gamma 90.000000
_cell_volume 3290.253018
_symmetry_space_group_name_H-M "C 2/M"
_symmetry_group_IT_number 12
_symmetry_cell_setting 'monoclinic'
loop_
_space_group_symop_operation_xyz
x,y,z
-x,y,-z
-x,-y,-z
x,-y,z
1/2+x,1/2+y,z
1/2-x,1/2+y,-z
1/2-x,1/2-y,-z
1/2+x,1/2-y,z
loop_
_atom_site_type_symbol
_atom_site_label
_atom_site_fract_x
_atom_site_fract_y
_atom_site_fract_z
Si Si1 0.661098 0.671756 0.926441
Si Si2 0.180608 0.173425 0.177692
Si Si3 0.167595 0.670916 0.392385
Si Si4 0.858808 0.831889 0.353139
Si Si5 0.001418 0.674288 0.709385
Si Si6 0.098381 0.671852 0.203400
Si Si7 0.579815 0.329643 0.965058
Si Si8 0.490585 0.668694 0.583247
O O1 0.668136 0.500000 0.918062
O O2 0.586213 0.741247 0.813948
O O3 0.642816 0.696298 0.974645
O O4 0.750000 0.750000 0.000000
O O5 0.279501 0.220988 0.270372
O O6 0.134687 0.246890 0.185137
O O7 0.176876 0.000000 0.182911
O O8 0.130189 0.222267 0.071154
O O9 0.178558 0.500000 0.417235
O O10 0.250000 0.750000 0.500000
O O11 0.162750 0.700545 0.320233
O O12 0.079713 0.729559 0.334015
O O13 0.918623 0.805841 0.358084
O O14 0.911688 0.797521 0.462633
O O15 0.824460 0.000000 0.320323
O O16 0.016636 0.500000 0.730444
O O17 0.982478 0.715797 0.625782
O O18 0.090866 0.500000 0.182082
O O19 0.004157 0.729842 0.126533
O O20 0.550780 0.500000 0.940731
O O21 0.484905 0.500000 0.599741
#
# Coordination Sequence:
#
# PCOD8112973 Si02
#       8
#     8   8   8   8   8   8   8   8
#     4  11  24  42  65  93 125 165 207 252 310 367
#     4  11  24  39  60  90 122 155 198 248 302 358
#     4  10  24  42  62  90 124 161 204 252 304 363
#     4   9  20  40  61  87 121 157 201 248 298 358
#     4  11  23  41  63  93 127 161 206 255 305 367
#     4  11  23  42  64  89 119 156 201 249 299 358
#     4  10  23  43  63  87 121 158 197 247 304 361
#     4   9  20  39  62  87 120 160 200 246 301 358
#
# _framework density 19.451391000000001
#
# number of rings (size 3 to 8) (size 9 to 14) (size 15 to 20)
#    0.000    1.750    1.250    2.625    3.500    6.000 
#    0.000    1.250    0.000    0.000    0.000    0.000 
#    0.000    0.000    0.000    0.000    0.000    0.000 
#
# Total GULP energy -396954.695564 kJ/mol
# GULP energy per Si atom -12404.834236 kJ/mol
# Density = 1.940712 g / cm^3
# Si number density = 19.451391 Si / 1000 Ang^3
#
#
#
# Elastic Constant Matrix: (Units=GPa)
#
#
# Indices 1 2 3 4 5 6 
#
# 1 70.2104 40.5173 39.6272 0.0000 -8.9335 0.0000
# 2 40.5173 87.7620 55.3144 0.0000 1.5916 0.0000
# 3 39.6272 55.3144 113.3304 0.0000 7.2326 0.0000
# 4 0.0000 0.0000 0.0000 39.2971 0.0000 2.9612
# 5 -8.9335 1.5916 7.2326 0.0000 35.7156 0.0000
# 6 0.0000 0.0000 0.0000 2.9612 0.0000 37.8406
#
#
#
# Elastic Compliance Matrix: (Units=1/GPa)
#
#
# Indices 1 2 3 4 5 6 
#
# 1 0.021897 -0.007417 -0.004465 0.000000 0.006712 0.000000
# 2 -0.007417 0.018998 -0.006592 0.000000 -0.001367 0.000000
# 3 -0.004465 -0.006592 0.013834 0.000000 -0.003624 0.000000
# 4 0.000000 0.000000 0.000000 0.025598 0.000000 -0.002003
# 5 0.006712 -0.001367 -0.003624 0.000000 0.030473 0.000000
# 6 0.000000 0.000000 0.000000 -0.002003 0.000000 0.026583
#
#
# Mechanical properties :
#
#
# Convention : Reuss Voigt Hill
#
# Bulk Modulus (GPa) = 56.23843 60.24671 58.24257
# Shear Modulus (GPa) = 27.73804 31.62691 29.68248
#
# Velocity S-wave (km/s) = 3.78036 4.03668 3.91062
# Velocity P-wave (km/s) = 6.93036 7.26406 7.09917
#
# Compressibility (1/GPa) = 0.01778144
#
# Stress axis : x y z
#
# Youngs Moduli (GPa) = 45.66825 52.63642 72.28730
#
# Poissons Ratio (x) = 0.39040 0.32275
# Poissons Ratio (y) = 0.33872 0.47652
# Poissons Ratio (z) = 0.20390 0.34698
#
# Static dielectric constant tensor:
#      x y z
#    x 3.691890 0.000000 -0.023450 
#    y 0.000000 3.556570 0.000000 
#    z -0.023450 0.000000 3.627670 
# 
# 
# High freq. dielectric constant tensor:
#      x y z
#    x 1.769550 0.000000 -0.003490 
#    y 0.000000 1.760420 0.000000 
#    z -0.003490 0.000000 1.766640 
# 
# From -- ./inp_files/353329.got.cif
#   From: 2010.06.25/outbox.cif.g09.slc.cpg/sg12_177_cif.got.tgz:353329.got - 2010.06.28 00:19:55.
