data_PCOD8112609
_publ_section_title
;
Structure prediction by ZEFSAII (Michael W. Deem and Ramdas Pophale) SiO2 
 PCOD8112609
Probable space group: C 2/M
;
_chemical_formula_sum "Si O2"
_cell_formula_units_Z 56
_cell_length_a 26.530329
_cell_length_b 16.649218
_cell_length_c 6.573327
_cell_angle_alpha 90.000000
_cell_angle_beta 108.522484
_cell_angle_gamma 90.000000
_cell_volume 2753.095243
_symmetry_space_group_name_H-M "C 2/M"
_symmetry_group_IT_number 12
_symmetry_cell_setting 'monoclinic'
loop_
_space_group_symop_operation_xyz
x,y,z
-x,y,-z
-x,-y,-z
x,-y,z
1/2+x,1/2+y,z
1/2-x,1/2+y,-z
1/2-x,1/2-y,-z
1/2+x,1/2-y,z
loop_
_atom_site_type_symbol
_atom_site_label
_atom_site_fract_x
_atom_site_fract_y
_atom_site_fract_z
Si Si1 0.555823 0.412467 0.962513
Si Si2 0.416565 0.690406 0.359665
Si Si3 0.360898 0.794099 0.972828
Si Si4 0.056467 0.237619 0.182670
Si Si5 0.182008 0.908950 0.612895
Si Si6 0.726562 0.684777 0.316395
Si Si7 0.780117 0.592113 0.041640
O O1 0.584858 0.500000 0.994326
O O2 0.585388 0.345057 0.135652
O O3 0.500000 0.424281 0.000000
O O4 0.550630 0.376754 0.726660
O O5 0.452425 0.727937 0.587754
O O6 0.364550 0.650328 0.385457
O O7 0.399962 0.766058 0.202730
O O8 0.399713 0.805195 0.823269
O O9 0.316169 0.726678 0.883171
O O10 0.333114 0.878104 0.992372
O O11 0.000000 0.252257 0.000000
O O12 0.201282 0.887889 0.411210
O O13 0.160919 0.000000 0.585819
O O14 0.229837 0.897892 0.831759
O O15 0.750000 0.750000 0.500000
O O16 0.772227 0.646478 0.232654
O O17 0.789072 0.500000 0.116107
#
# Coordination Sequence:
#
# PCOD8112609 Si02
#       7
#     8   8   8   8   8   8   8
#     4   9  20  36  53  77 111 151 200 251 301 355
#     4  11  21  38  59  82 116 161 202 257 303 356
#     4  11  22  38  62  88 116 161 203 247 306 360
#     4  10  23  40  59  85 113 153 211 262 306 355
#     4  11  22  35  56  87 124 164 200 244 296 354
#     4  12  21  37  60  88 125 161 204 243 291 363
#     4  11  24  40  59  92 129 159 197 246 304 369
#
# _framework density 20.340743
#
# number of rings (size 3 to 8) (size 9 to 14) (size 15 to 20)
#    0.000    1.286    4.286    2.143    0.000    6.286 
#    0.000    3.571    0.000    0.429    0.000    1.000 
#    0.000    0.000    0.000    0.000    0.000    0.000 
#
# Total GULP energy -347026.187779 kJ/mol
# GULP energy per Si atom -12393.792421 kJ/mol
# Density = 2.029445 g / cm^3
# Si number density = 20.340743 Si / 1000 Ang^3
#
#
#
# Elastic Constant Matrix: (Units=GPa)
#
#
# Indices 1 2 3 4 5 6 
#
# 1 81.3794 30.5342 24.8112 0.0000 -14.8943 0.0000
# 2 30.5342 69.3070 27.8957 0.0000 -2.9462 0.0000
# 3 24.8112 27.8957 109.3455 0.0000 -10.2533 0.0000
# 4 0.0000 0.0000 0.0000 21.9937 0.0000 3.4097
# 5 -14.8943 -2.9462 -10.2533 0.0000 35.2379 0.0000
# 6 0.0000 0.0000 0.0000 3.4097 0.0000 3.7923
#
#
#
# Elastic Compliance Matrix: (Units=1/GPa)
#
#
# Indices 1 2 3 4 5 6 
#
# 1 0.016177 -0.006265 -0.001522 0.000000 0.005871 0.000000
# 2 -0.006265 0.018507 -0.003498 0.000000 -0.002119 0.000000
# 3 -0.001522 -0.003498 0.010584 0.000000 0.002144 0.000000
# 4 0.000000 0.000000 0.000000 0.052832 0.000000 -0.047503
# 5 0.005871 -0.002119 0.002144 0.000000 0.031307 0.000000
# 6 0.000000 0.000000 0.000000 -0.047503 0.000000 0.306404
#
#
# Mechanical properties :
#
#
# Convention : Reuss Voigt Hill
#
# Bulk Modulus (GPa) = 44.05762 47.39043 45.72403
# Shear Modulus (GPa) = 10.73081 23.99083 17.36082
#
# Velocity S-wave (km/s) = 2.29934 3.43803 2.92464
# Velocity P-wave (km/s) = 5.36247 6.25372 5.82516
#
# Compressibility (1/GPa) = 0.02269755
#
# Stress axis : x y z
#
# Youngs Moduli (GPa) = 61.81471 54.03438 94.48050
#
# Poissons Ratio (x) = 0.33853 0.14379
# Poissons Ratio (y) = 0.38727 0.33053
# Poissons Ratio (z) = 0.09408 0.18904
#
# Static dielectric constant tensor:
#      x y z
#    x 3.773500 0.000000 -0.265220 
#    y 0.000000 3.807380 0.000000 
#    z -0.265220 0.000000 3.871840 
# 
# 
# High freq. dielectric constant tensor:
#      x y z
#    x 1.795140 0.000000 -0.017170 
#    y 0.000000 1.757260 0.000000 
#    z -0.017170 0.000000 1.801890 
# 
# From -- ./inp_files/28828.got.cif
#   From: 2010.06.25/outbox.cif.g09.slc.cpg/sg12_15_cif.got.tgz:28828.got - 2010.06.28 00:19:55.
