data_PCOD8112775
_publ_section_title
;
Structure prediction by ZEFSAII (Michael W. Deem and Ramdas Pophale) SiO2 
 PCOD8112775
Probable space group: C 2/M
;
_chemical_formula_sum "Si O2"
_cell_formula_units_Z 44
_cell_length_a 10.794748
_cell_length_b 17.587309
_cell_length_c 11.732825
_cell_angle_alpha 90.000000
_cell_angle_beta 117.859467
_cell_angle_gamma 90.000000
_cell_volume 1969.310228
_symmetry_space_group_name_H-M "C 2/M"
_symmetry_group_IT_number 12
_symmetry_cell_setting 'monoclinic'
loop_
_space_group_symop_operation_xyz
x,y,z
-x,y,-z
-x,-y,-z
x,-y,z
1/2+x,1/2+y,z
1/2-x,1/2+y,-z
1/2-x,1/2-y,-z
1/2+x,1/2-y,z
loop_
_atom_site_type_symbol
_atom_site_label
_atom_site_fract_x
_atom_site_fract_y
_atom_site_fract_z
Si Si1 0.738285 0.500000 0.574389
Si Si2 0.384154 0.651026 0.369834
Si Si3 0.558789 0.000000 0.783289
Si Si4 0.179323 0.743151 0.152173
Si Si5 0.797040 0.000000 0.711202
Si Si6 0.494676 0.368678 0.167538
Si Si7 0.697812 0.860244 0.953925
O O1 0.662589 0.573170 0.591950
O O2 0.723198 0.500000 0.432146
O O3 0.898094 0.500000 0.681144
O O4 0.500000 0.691128 0.500000
O O5 0.252589 0.706996 0.295604
O O6 0.458548 0.634107 0.283375
O O7 0.645535 0.000000 0.703654
O O8 0.591591 0.926240 0.873583
O O9 0.041218 0.786874 0.136378
O O10 0.295366 0.796964 0.142322
O O11 0.139408 0.676501 0.045866
O O12 0.878873 0.926960 0.794155
O O13 0.355861 0.393417 0.038786
#
# Coordination Sequence:
#
# PCOD8112775 Si02
#       7
#     4   8   4   8   4   8   8
#     4  12  27  47  67  97 147 174 236 297 329 403
#     4  11  24  46  71  98 132 189 231 278 348 400
#     4  12  26  44  71 106 133 192 228 275 353 408
#     4  10  23  41  66 105 140 172 218 293 337 408
#     4  12  23  44  71 102 132 187 231 294 332 402
#     4  11  22  42  74 101 134 178 236 280 339 405
#     4  10  23  44  68 104 143 177 221 284 348 408
#
# _framework density 22.342848
#
# number of rings (size 3 to 8) (size 9 to 14) (size 15 to 20)
#    0.000    1.091    3.636    2.182    0.000    9.455 
#    3.273    6.364    0.000    0.000    0.000    0.000 
#    0.000    0.000    0.000    0.000    0.000    0.000 
#
# Total GULP energy -272857.634454 kJ/mol
# GULP energy per Si atom -12402.619748 kJ/mol
# Density = 2.229199 g / cm^3
# Si number density = 22.342848 Si / 1000 Ang^3
#
#
#
# Elastic Constant Matrix: (Units=GPa)
#
#
# Indices 1 2 3 4 5 6 
#
# 1 104.5202 32.0483 44.6145 0.0000 1.1107 0.0000
# 2 32.0483 96.8196 57.7714 0.0000 -5.6670 0.0000
# 3 44.6145 57.7714 145.6411 0.0000 -1.7605 0.0000
# 4 0.0000 0.0000 0.0000 27.5942 0.0000 -3.8371
# 5 1.1107 -5.6670 -1.7605 0.0000 33.9728 0.0000
# 6 0.0000 0.0000 0.0000 -3.8371 0.0000 45.1507
#
#
#
# Elastic Compliance Matrix: (Units=1/GPa)
#
#
# Indices 1 2 3 4 5 6 
#
# 1 0.011381 -0.002270 -0.002597 0.000000 -0.000885 0.000000
# 2 -0.002270 0.014118 -0.004879 0.000000 0.002176 0.000000
# 3 -0.002597 -0.004879 0.009594 0.000000 -0.000232 0.000000
# 4 0.000000 0.000000 0.000000 0.036673 0.000000 0.003117
# 5 -0.000885 0.002176 -0.000232 0.000000 0.029815 0.000000
# 6 0.000000 0.000000 0.000000 0.003117 0.000000 0.022413
#
#
# Mechanical properties :
#
#
# Convention : Reuss Voigt Hill
#
# Bulk Modulus (GPa) = 64.08909 68.42772 66.25840
# Shear Modulus (GPa) = 33.62785 35.51332 34.57058
#
# Velocity S-wave (km/s) = 3.88375 3.99114 3.93781
# Velocity P-wave (km/s) = 6.98985 7.20636 7.09893
#
# Compressibility (1/GPa) = 0.01560328
#
# Stress axis : x y z
#
# Youngs Moduli (GPa) = 87.86312 70.83042 104.23028
#
# Poissons Ratio (x) = 0.16076 0.27067
# Poissons Ratio (y) = 0.19942 0.50851
# Poissons Ratio (z) = 0.22817 0.34556
#
# Static dielectric constant tensor:
#      x y z
#    x 3.987330 0.000000 0.044780 
#    y 0.000000 4.161100 0.000000 
#    z 0.044780 0.000000 4.298710 
# 
# 
# High freq. dielectric constant tensor:
#      x y z
#    x 1.889760 0.000000 -0.000570 
#    y 0.000000 1.875150 0.000000 
#    z -0.000570 0.000000 1.890540 
# 
# From -- ./inp_files/131601.got.cif
#   From: 2010.06.25/outbox.cif.g09.slc.cpg/sg12_66_cif.got.tgz:131601.got - 2010.06.28 00:19:55.
