data_PCOD8112707
_publ_section_title
;
Structure prediction by ZEFSAII (Michael W. Deem and Ramdas Pophale) SiO2 
 PCOD8112707
Probable space group: C 2/M
;
_chemical_formula_sum "Si O2"
_cell_formula_units_Z 40
_cell_length_a 27.263915
_cell_length_b 8.687060
_cell_length_c 10.496460
_cell_angle_alpha 90.000000
_cell_angle_beta 130.544766
_cell_angle_gamma 90.000000
_cell_volume 1889.119254
_symmetry_space_group_name_H-M "C 2/M"
_symmetry_group_IT_number 12
_symmetry_cell_setting 'monoclinic'
loop_
_space_group_symop_operation_xyz
x,y,z
-x,y,-z
-x,-y,-z
x,-y,z
1/2+x,1/2+y,z
1/2-x,1/2+y,-z
1/2-x,1/2-y,-z
1/2+x,1/2-y,z
loop_
_atom_site_type_symbol
_atom_site_label
_atom_site_fract_x
_atom_site_fract_y
_atom_site_fract_z
Si Si1 0.793892 0.316814 0.685583
Si Si2 0.399820 0.675395 0.405476
Si Si3 0.064088 0.678590 0.048882
Si Si4 0.766368 0.319789 0.165483
Si Si5 0.531896 0.674971 0.745678
O O1 0.787306 0.500000 0.676711
O O2 0.750000 0.250000 0.500000
O O3 0.867537 0.262442 0.779559
O O4 0.776472 0.254178 0.795829
O O5 0.375509 0.500000 0.381065
O O6 0.340859 0.790599 0.327366
O O7 0.456012 0.713914 0.601286
O O8 0.429079 0.700099 0.316494
O O9 0.059991 0.500000 0.070300
O O10 0.063490 0.708607 0.897645
O O11 0.000000 0.760930 0.000000
O O12 0.751984 0.500000 0.136760
O O13 0.750000 0.250000 0.000000
O O14 0.539536 0.500000 0.806308
#
# Coordination Sequence:
#
# PCOD8112707 Si02
#       5
#     8   8   8   8   8
#     4  11  25  45  67  95 133 173 215 265 322 386
#     4   9  19  37  60  90 125 158 199 256 315 376
#     4  10  23  41  61  87 123 162 205 257 309 368
#     4  12  25  41  64  93 127 169 217 267 322 381
#     4   9  19  36  60  90 123 158 201 254 311 373
#
# _framework density 21.173888999999999
#
# number of rings (size 3 to 8) (size 9 to 14) (size 15 to 20)
#    0.000    1.800    0.000    4.800    2.800    6.800 
#    0.000    2.000    0.000    0.000    0.000    0.000 
#    0.000    0.000    0.000    0.000    0.000    0.000 
#
# Total GULP energy -247957.640740 kJ/mol
# GULP energy per Si atom -12397.882037 kJ/mol
# Density = 2.112570 g / cm^3
# Si number density = 21.173889 Si / 1000 Ang^3
#
#
#
# Elastic Constant Matrix: (Units=GPa)
#
#
# Indices 1 2 3 4 5 6 
#
# 1 111.4878 47.3248 68.9521 0.0000 20.3467 0.0000
# 2 47.3248 72.6594 40.0628 0.0000 8.1632 0.0000
# 3 68.9521 40.0628 142.7096 0.0000 15.7574 0.0000
# 4 0.0000 0.0000 0.0000 36.5989 0.0000 -3.3719
# 5 20.3467 8.1632 15.7574 0.0000 41.9124 0.0000
# 6 0.0000 0.0000 0.0000 -3.3719 0.0000 30.2444
#
#
#
# Elastic Compliance Matrix: (Units=1/GPa)
#
#
# Indices 1 2 3 4 5 6 
#
# 1 0.016028 -0.007030 -0.005282 0.000000 -0.004426 0.000000
# 2 -0.007030 0.019459 -0.002112 0.000000 0.000417 0.000000
# 3 -0.005282 -0.002112 0.010249 0.000000 -0.000878 0.000000
# 4 0.000000 0.000000 0.000000 0.027607 0.000000 0.003078
# 5 -0.004426 0.000417 -0.000878 0.000000 0.026257 0.000000
# 6 0.000000 0.000000 0.000000 0.003078 0.000000 0.033407
#
#
# Mechanical properties :
#
#
# Convention : Reuss Voigt Hill
#
# Bulk Modulus (GPa) = 59.21217 71.05959 65.13588
# Shear Modulus (GPa) = 29.85336 33.11895 31.48616
#
# Velocity S-wave (km/s) = 3.75896 3.95921 3.86038
# Velocity P-wave (km/s) = 6.84581 7.38467 7.12034
#
# Compressibility (1/GPa) = 0.01688842
#
# Stress axis : x y z
#
# Youngs Moduli (GPa) = 62.39001 51.38908 97.56841
#
# Poissons Ratio (x) = 0.36126 0.51536
# Poissons Ratio (y) = 0.43859 0.20609
# Poissons Ratio (z) = 0.32955 0.10855
#
# Static dielectric constant tensor:
#      x y z
#    x 4.098430 0.000000 0.403890 
#    y 0.000000 3.677420 0.000000 
#    z 0.403890 0.000000 4.151680 
# 
# 
# High freq. dielectric constant tensor:
#      x y z
#    x 1.836340 0.000000 0.012950 
#    y 0.000000 1.815980 0.000000 
#    z 0.012950 0.000000 1.844500 
# 
# From -- ./inp_files/187006.got.cif
#   From: 2010.06.25/outbox.cif.g09.slc.cpg/sg12_94_cif.got.tgz:187006.got - 2010.06.28 00:19:55.
