data_PCOD8112868
_publ_section_title
;
Structure prediction by ZEFSAII (Michael W. Deem and Ramdas Pophale) SiO2 
 PCOD8112868
Probable space group: C 2/M
;
_chemical_formula_sum "Si O2"
_cell_formula_units_Z 48
_cell_length_a 19.230913
_cell_length_b 8.668441
_cell_length_c 20.004187
_cell_angle_alpha 90.000000
_cell_angle_beta 136.128035
_cell_angle_gamma 90.000000
_cell_volume 2311.137896
_symmetry_space_group_name_H-M "C 2/M"
_symmetry_group_IT_number 12
_symmetry_cell_setting 'monoclinic'
loop_
_space_group_symop_operation_xyz
x,y,z
-x,y,-z
-x,-y,-z
x,-y,z
1/2+x,1/2+y,z
1/2-x,1/2+y,-z
1/2-x,1/2-y,-z
1/2+x,1/2-y,z
loop_
_atom_site_type_symbol
_atom_site_label
_atom_site_fract_x
_atom_site_fract_y
_atom_site_fract_z
Si Si1 0.070935 0.679378 0.609510
Si Si2 0.984099 0.681627 0.913309
Si Si3 0.640712 0.318854 0.916982
Si Si4 0.268621 0.819928 0.707282
Si Si5 0.189852 0.819273 0.397710
Si Si6 0.482022 0.821402 0.278598
O O1 0.097440 0.500000 0.618296
O O2 0.172930 0.777801 0.686189
O O3 0.013658 0.709372 0.639298
O O4 0.000000 0.738232 0.500000
O O5 0.000745 0.500000 0.919695
O O6 0.871038 0.728972 0.814996
O O7 0.064653 0.759033 0.920654
O O8 0.000000 0.740299 0.000000
O O9 0.647296 0.500000 0.928295
O O10 0.605580 0.273209 0.818188
O O11 0.750000 0.250000 0.000000
O O12 0.250818 0.717448 0.628839
O O13 0.268996 0.000000 0.689758
O O14 0.250000 0.750000 0.500000
O O15 0.084798 0.733718 0.317165
O O16 0.174880 0.000000 0.397749
O O17 0.466267 0.000000 0.250877
#
# Coordination Sequence:
#
# PCOD8112868 Si02
#       6
#     8   8   8   8   8   8
#     4  10  23  42  64  92 130 174 217 264 319 380
#     4  10  23  44  68  97 132 168 210 265 326 389
#     4  12  26  44  68  97 130 171 217 268 325 389
#     4  11  23  40  65  95 131 169 211 266 323 382
#     4  12  24  40  65  95 128 169 215 265 321 382
#     4  11  23  42  66  96 133 170 214 268 323 385
#
# _framework density 20.768989999999999
#
# number of rings (size 3 to 8) (size 9 to 14) (size 15 to 20)
#    0.000    1.000    1.667    5.000    2.333    4.000 
#    0.000    0.000    0.000    0.000    0.000    0.000 
#    0.000    0.000    0.000    0.000    0.000    0.000 
#
# Total GULP energy -297729.167353 kJ/mol
# GULP energy per Si atom -12405.381973 kJ/mol
# Density = 2.072172 g / cm^3
# Si number density = 20.768990 Si / 1000 Ang^3
#
#
#
# Elastic Constant Matrix: (Units=GPa)
#
#
# Indices 1 2 3 4 5 6 
#
# 1 83.3917 45.9575 30.7434 0.0000 2.5062 0.0000
# 2 45.9575 78.6485 44.1379 0.0000 2.8542 0.0000
# 3 30.7434 44.1379 125.2345 0.0000 -0.2277 0.0000
# 4 0.0000 0.0000 0.0000 34.2068 0.0000 3.5066
# 5 2.5062 2.8542 -0.2277 0.0000 45.3925 0.0000
# 6 0.0000 0.0000 0.0000 3.5066 0.0000 36.4353
#
#
#
# Elastic Compliance Matrix: (Units=1/GPa)
#
#
# Indices 1 2 3 4 5 6 
#
# 1 0.017770 -0.009875 -0.000883 0.000000 -0.000365 0.000000
# 2 -0.009875 0.021386 -0.005114 0.000000 -0.000825 0.000000
# 3 -0.000883 -0.005114 0.010005 0.000000 0.000420 0.000000
# 4 0.000000 0.000000 0.000000 0.029525 0.000000 -0.002842
# 5 -0.000365 -0.000825 0.000420 0.000000 0.022104 0.000000
# 6 0.000000 0.000000 0.000000 -0.002842 0.000000 0.027719
#
#
# Mechanical properties :
#
#
# Convention : Reuss Voigt Hill
#
# Bulk Modulus (GPa) = 57.41788 58.77249 58.09519
# Shear Modulus (GPa) = 30.10967 34.30264 32.20615
#
# Velocity S-wave (km/s) = 3.81168 4.06843 3.94215
# Velocity P-wave (km/s) = 6.86133 7.10135 6.98237
#
# Compressibility (1/GPa) = 0.01741618
#
# Stress axis : x y z
#
# Youngs Moduli (GPa) = 56.27375 46.76055 99.95045
#
# Poissons Ratio (x) = 0.46178 0.08821
# Poissons Ratio (y) = 0.55572 0.51119
# Poissons Ratio (z) = 0.04966 0.23915
#
# Static dielectric constant tensor:
#      x y z
#    x 3.997490 0.000000 0.167050 
#    y 0.000000 3.729170 0.000000 
#    z 0.167050 0.000000 4.102310 
# 
# 
# High freq. dielectric constant tensor:
#      x y z
#    x 1.822020 0.000000 -0.000690 
#    y 0.000000 1.814310 0.000000 
#    z -0.000690 0.000000 1.826710 
# 
# From -- ./inp_files/320312.got.cif
#   From: 2010.06.25/outbox.cif.g09.slc.cpg/sg12_161_cif.got.tgz:320312.got - 2010.06.28 00:19:55.
