data_PCOD8112790
_publ_section_title
;
Structure prediction by ZEFSAII (Michael W. Deem and Ramdas Pophale) SiO2 
 PCOD8112790
Probable space group: C 2/M
;
_chemical_formula_sum "Si O2"
_cell_formula_units_Z 40
_cell_length_a 9.158624
_cell_length_b 20.445449
_cell_length_c 10.668038
_cell_angle_alpha 90.000000
_cell_angle_beta 91.742620
_cell_angle_gamma 90.000000
_cell_volume 1996.689507
_symmetry_space_group_name_H-M "C 2/M"
_symmetry_group_IT_number 12
_symmetry_cell_setting 'monoclinic'
loop_
_space_group_symop_operation_xyz
x,y,z
-x,y,-z
-x,-y,-z
x,-y,z
1/2+x,1/2+y,z
1/2-x,1/2+y,-z
1/2-x,1/2-y,-z
1/2+x,1/2-y,z
loop_
_atom_site_type_symbol
_atom_site_label
_atom_site_fract_x
_atom_site_fract_y
_atom_site_fract_z
Si Si1 0.616915 0.193252 0.743236
Si Si2 0.214422 0.322032 0.267484
Si Si3 0.922310 0.074662 0.369472
Si Si4 0.701957 0.573888 0.225189
Si Si5 0.340943 0.866036 0.009039
O O1 0.693010 0.258114 0.693938
O O2 0.450321 0.191307 0.692782
O O3 0.697349 0.126617 0.697334
O O4 0.627636 0.195294 0.895989
O O5 0.278607 0.381962 0.348044
O O6 0.225967 0.340591 0.121481
O O7 0.000000 0.094907 0.500000
O O8 0.033455 0.086396 0.256487
O O9 0.869013 0.000000 0.373511
O O10 0.746810 0.500000 0.264945
O O11 0.726623 0.584691 0.075522
O O12 0.500000 0.901681 0.000000
#
# Coordination Sequence:
#
# PCOD8112790 Si02
#       5
#     8   8   8   8   8
#     4   9  20  34  57  90 116 152 183 229 288 339
#     4  11  19  37  58  85 117 153 189 231 285 338
#     4  10  23  42  60  80 111 151 195 242 283 328
#     4   9  19  37  57  81 116 149 185 234 285 335
#     4   8  18  33  55  87 118 150 179 227 282 341
#
# _framework density 20.033161
#
# number of rings (size 3 to 8) (size 9 to 14) (size 15 to 20)
#    1.200    1.400    0.000    1.800    0.000    2.800 
#    0.000    7.000    0.000    3.600    0.000    0.000 
#    0.000    0.000    0.000    0.000    0.000    0.000 
#
# Total GULP energy -247798.254840 kJ/mol
# GULP energy per Si atom -12389.912742 kJ/mol
# Density = 1.998756 g / cm^3
# Si number density = 20.033161 Si / 1000 Ang^3
#
#
#
# Elastic Constant Matrix: (Units=GPa)
#
#
# Indices 1 2 3 4 5 6 
#
# 1 106.7402 69.7801 17.7171 0.0000 23.8848 0.0000
# 2 69.7801 130.7932 28.0070 0.0000 22.4184 0.0000
# 3 17.7171 28.0070 27.1124 0.0000 13.1868 0.0000
# 4 0.0000 0.0000 0.0000 16.6737 0.0000 9.4332
# 5 23.8848 22.4184 13.1868 0.0000 27.7952 0.0000
# 6 0.0000 0.0000 0.0000 9.4332 0.0000 30.0605
#
#
#
# Elastic Compliance Matrix: (Units=1/GPa)
#
#
# Indices 1 2 3 4 5 6 
#
# 1 0.015756 -0.007249 0.001213 0.000000 -0.008269 0.000000
# 2 -0.007249 0.013514 -0.009036 0.000000 -0.000384 0.000000
# 3 0.001213 -0.009036 0.055102 0.000000 -0.019896 0.000000
# 4 0.000000 0.000000 0.000000 0.072921 0.000000 -0.022883
# 5 -0.008269 -0.000384 -0.019896 0.000000 0.052832 0.000000
# 6 0.000000 0.000000 0.000000 -0.022883 0.000000 0.040447
#
#
# Mechanical properties :
#
#
# Convention : Reuss Voigt Hill
#
# Bulk Modulus (GPa) = 18.44033 55.07269 36.75651
# Shear Modulus (GPa) = 16.73414 24.84867 20.79140
#
# Velocity S-wave (km/s) = 2.89333 3.52572 3.22506
# Velocity P-wave (km/s) = 4.51516 6.64264 5.67941
#
# Compressibility (1/GPa) = 0.05422897
#
# Stress axis : x y z
#
# Youngs Moduli (GPa) = 63.46740 73.99941 18.14814
#
# Poissons Ratio (x) = 0.53640 -0.02202
# Poissons Ratio (y) = 0.46005 0.16399
# Poissons Ratio (z) = -0.07701 0.66867
#
# Static dielectric constant tensor:
#      x y z
#    x 3.591420 0.000000 -0.176060 
#    y 0.000000 3.451380 0.000000 
#    z -0.176060 0.000000 3.271000 
# 
# 
# High freq. dielectric constant tensor:
#      x y z
#    x 1.781870 0.000000 -0.011430 
#    y 0.000000 1.773770 0.000000 
#    z -0.011430 0.000000 1.749620 
# 
# From -- ./inp_files/120314.got.cif
#   From: 2010.06.25/outbox.cif.g09.slc.cpg/sg12_61_cif.got.tgz:120314.got - 2010.06.28 00:19:55.
