data_PCOD8112024
_publ_section_title
;
Structure prediction by ZEFSAII (Michael W. Deem and Ramdas Pophale) SiO2 
 PCOD8112024
Probable space group: C 2/M
;
_chemical_formula_sum "Si O2"
_cell_formula_units_Z 56
_cell_length_a 24.917268
_cell_length_b 8.842635
_cell_length_c 15.158302
_cell_angle_alpha 90.000000
_cell_angle_beta 52.515662
_cell_angle_gamma 90.000000
_cell_volume 2650.271707
_symmetry_space_group_name_H-M "C 2/M"
_symmetry_group_IT_number 12
_symmetry_cell_setting 'monoclinic'
loop_
_space_group_symop_operation_xyz
x,y,z
-x,y,-z
-x,-y,-z
x,-y,z
1/2+x,1/2+y,z
1/2-x,1/2+y,-z
1/2-x,1/2-y,-z
1/2+x,1/2-y,z
loop_
_atom_site_type_symbol
_atom_site_label
_atom_site_fract_x
_atom_site_fract_y
_atom_site_fract_z
Si Si1 0.107516 0.673954 0.992187
Si Si2 0.873987 0.821401 0.717804
Si Si3 0.026644 0.821890 0.223918
Si Si4 0.385323 0.825346 0.370194
Si Si5 0.819646 0.324341 0.619147
Si Si6 0.823805 0.325247 0.248741
Si Si7 0.257602 0.676680 0.084659
O O1 0.109728 0.500000 0.019103
O O2 0.109564 0.691102 0.883113
O O3 0.174733 0.760820 0.944977
O O4 0.047430 0.749722 0.108575
O O5 0.927807 0.767178 0.737486
O O6 0.882068 0.767263 0.607682
O O7 0.805349 0.726792 0.795428
O O8 0.863541 0.000000 0.735032
O O9 0.951247 0.774614 0.321770
O O10 0.032988 0.000000 0.207607
O O11 0.333805 0.800529 0.501697
O O12 0.348251 0.766892 0.319347
O O13 0.407364 0.000000 0.338350
O O14 0.823102 0.500000 0.642429
O O15 0.742728 0.267185 0.714923
O O16 0.801273 0.500000 0.274487
O O17 0.262886 0.500000 0.069458
O O18 0.250000 0.750000 0.000000
#
# Coordination Sequence:
#
# PCOD8112024 Si02
#       7
#     8   8   8   8   8   8   8
#     4  11  22  37  62  92 125 163 202 252 309 367
#     4  11  23  39  60  89 126 163 204 254 311 371
#     4  11  25  42  62  89 124 167 209 253 306 371
#     4  10  24  45  64  87 123 166 210 256 310 371
#     4  11  23  39  65  96 123 157 205 263 316 364
#     4  10  22  41  66  93 123 161 205 254 313 373
#     4  12  22  34  57  90 126 162 203 252 309 367
#
# _framework density 21.129908
#
# number of rings (size 3 to 8) (size 9 to 14) (size 15 to 20)
#    0.000    1.143    2.857    3.429    0.000    5.143 
#    0.000    5.714    0.000    0.000    0.000    0.000 
#    0.000    0.000    0.000    0.000    0.000    0.000 
#
# Total GULP energy -346927.434121 kJ/mol
# GULP energy per Si atom -12390.265504 kJ/mol
# Density = 2.108182 g / cm^3
# Si number density = 21.129908 Si / 1000 Ang^3
#
#
#
# Elastic Constant Matrix: (Units=GPa)
#
#
# Indices 1 2 3 4 5 6 
#
# 1 84.6546 29.5539 28.9571 0.0000 12.4481 0.0000
# 2 29.5539 105.7677 26.1997 0.0001 5.1850 -0.0001
# 3 28.9571 26.1997 87.7552 0.0000 14.0064 0.0000
# 4 0.0000 0.0001 0.0000 32.9599 0.0000 -1.3467
# 5 12.4481 5.1850 14.0064 0.0000 38.3599 0.0000
# 6 0.0000 -0.0001 0.0000 -1.3467 0.0000 31.5520
#
#
#
# Elastic Compliance Matrix: (Units=1/GPa)
#
#
# Indices 1 2 3 4 5 6 
#
# 1 0.014486 -0.003061 -0.003379 0.000000 -0.003053 0.000000
# 2 -0.003061 0.010860 -0.002290 0.000000 0.000362 0.000000
# 3 -0.003379 -0.002290 0.013772 0.000000 -0.003623 0.000000
# 4 0.000000 0.000000 0.000000 0.030393 0.000000 0.001297
# 5 -0.003053 0.000362 -0.003623 0.000000 0.028334 0.000000
# 6 0.000000 0.000000 0.000000 0.001297 0.000000 0.031749
#
#
# Mechanical properties :
#
#
# Convention : Reuss Voigt Hill
#
# Bulk Modulus (GPa) = 46.17161 49.73321 47.95241
# Shear Modulus (GPa) = 32.41024 33.47213 32.94118
#
# Velocity S-wave (km/s) = 3.92070 3.98441 3.95268
# Velocity P-wave (km/s) = 6.51111 6.68994 6.60113
#
# Compressibility (1/GPa) = 0.02165833
#
# Stress axis : x y z
#
# Youngs Moduli (GPa) = 69.03155 92.08524 72.61064
#
# Poissons Ratio (x) = 0.28188 0.24534
# Poissons Ratio (y) = 0.21131 0.16626
# Poissons Ratio (z) = 0.23324 0.21085
#
# Static dielectric constant tensor:
#      x y z
#    x 3.832400 0.000000 0.424870 
#    y 0.000000 3.829190 0.000000 
#    z 0.424870 0.000000 4.142500 
# 
# 
# High freq. dielectric constant tensor:
#      x y z
#    x 1.821800 0.000000 0.023760 
#    y 0.000000 1.830820 0.000000 
#    z 0.023760 0.000000 1.844430 
# 
# From -- ./inp_files/238320.got.cif
#   From: 2010.06.25/outbox.cif.g09.slc.cpg/sg12_120_cif.got.tgz:238320.got - 2010.06.28 00:19:55.
