data_PCOD8112280
_publ_section_title
;
Structure prediction by ZEFSAII (Michael W. Deem and Ramdas Pophale) SiO2 
 PCOD8112280
Probable space group: C 2/M
;
_chemical_formula_sum "Si O2"
_cell_formula_units_Z 32
_cell_length_a 21.565304
_cell_length_b 14.416609
_cell_length_c 13.648602
_cell_angle_alpha 90.000000
_cell_angle_beta 18.914032
_cell_angle_gamma 90.000000
_cell_volume 1375.471850
_symmetry_space_group_name_H-M "C 2/M"
_symmetry_group_IT_number 12
_symmetry_cell_setting 'monoclinic'
loop_
_space_group_symop_operation_xyz
x,y,z
-x,y,-z
-x,-y,-z
x,-y,z
1/2+x,1/2+y,z
1/2-x,1/2+y,-z
1/2-x,1/2-y,-z
1/2+x,1/2-y,z
loop_
_atom_site_type_symbol
_atom_site_label
_atom_site_fract_x
_atom_site_fract_y
_atom_site_fract_z
Si Si1 0.840005 0.605326 0.965191
Si Si2 0.334540 0.798634 0.178011
Si Si3 0.444613 0.604869 0.772242
Si Si4 0.242131 0.397676 0.273347
O O1 0.815441 0.500000 0.039729
O O2 0.016588 0.612832 0.626991
O O3 0.869480 0.671502 0.013874
O O4 0.652639 0.637045 0.184403
O O5 0.347447 0.687003 0.170499
O O6 0.127161 0.832132 0.524543
O O7 0.500000 0.841299 0.000000
O O8 0.519387 0.500000 0.649880
O O9 0.284427 0.611945 0.095136
O O10 0.311768 0.500000 0.207424
#
# Coordination Sequence:
#
# PCOD8112280 Si02
#       4
#     8   8   8   8
#     4  10  22  42  68  96 125 160 205 258 315 372
#     4  12  26  41  61  93 130 169 211 252 303 370
#     4  10  22  42  68  96 125 160 205 258 315 372
#     4  10  23  42  65  93 124 160 208 264 315 365
#
# _framework density 23.264744
#
# number of rings (size 3 to 8) (size 9 to 14) (size 15 to 20)
#    0.000    1.500    0.000    3.750    0.000   17.500 
#    0.000    5.000    0.000    0.000    0.000    0.000 
#    0.000    0.000    0.000    0.000    0.000    0.000 
#
# Total GULP energy -198346.584441 kJ/mol
# GULP energy per Si atom -12396.661528 kJ/mol
# Density = 2.321179 g / cm^3
# Si number density = 23.264744 Si / 1000 Ang^3
#
#
#
# Elastic Constant Matrix: (Units=GPa)
#
#
# Indices 1 2 3 4 5 6 
#
# 1 50.2767 36.9613 65.1098 -0.0591 -21.1176 0.0327
# 2 36.9613 145.3981 50.2815 0.0271 -11.0210 -0.0041
# 3 65.1098 50.2815 131.5527 0.0275 0.7133 -0.0093
# 4 -0.0591 0.0271 0.0275 28.7536 -0.0210 1.5945
# 5 -21.1176 -11.0210 0.7133 -0.0210 48.1569 0.0056
# 6 0.0327 -0.0041 -0.0093 1.5945 0.0056 20.2743
#
#
#
# Elastic Compliance Matrix: (Units=1/GPa)
#
#
# Indices 1 2 3 4 5 6 
#
# 1 0.123811 -0.007056 -0.058872 0.000372 0.053551 -0.000272
# 2 -0.007056 0.008497 0.000251 -0.000024 -0.001153 0.000015
# 3 -0.058872 0.000251 0.036786 -0.000183 -0.026304 0.000134
# 4 0.000372 -0.000024 -0.000183 0.034932 0.000176 -0.002748
# 5 0.053551 -0.001153 -0.026304 0.000176 0.044374 -0.000125
# 6 -0.000272 0.000015 0.000134 -0.002748 -0.000125 0.049540
#
#
# Mechanical properties :
#
#
# Convention : Reuss Voigt Hill
#
# Bulk Modulus (GPa) = 26.49683 70.21472 48.35577
# Shear Modulus (GPa) = 11.31544 31.09527 21.20536
#
# Velocity S-wave (km/s) = 2.20779 3.65990 3.02235
# Velocity P-wave (km/s) = 4.23239 6.93585 5.74540
#
# Compressibility (1/GPa) = 0.03774037
#
# Stress axis : x y z
#
# Youngs Moduli (GPa) = 8.07684 117.68555 27.18425
#
# Poissons Ratio (x) = 0.83034 1.60038
# Poissons Ratio (y) = 0.05699 -0.00681
# Poissons Ratio (z) = 0.47550 -0.02949
#
# Static dielectric constant tensor:
#      x y z
#    x 3.782770 0.000000 0.203070 
#    y 0.000000 4.560310 0.000010 
#    z 0.203070 0.000010 4.077990 
# 
# 
# High freq. dielectric constant tensor:
#      x y z
#    x 1.898230 0.000000 0.020380 
#    y 0.000000 1.933230 0.000000 
#    z 0.020380 0.000000 1.924140 
# 
# From -- ./inp_files/204721.got.cif
#   From: 2010.06.25/outbox.cif.g09.slc.cpg/sg12_103_cif.got.tgz:204721.got - 2010.06.28 00:19:55.
