data_PCOD8112770
_publ_section_title
;
Structure prediction by ZEFSAII (Michael W. Deem and Ramdas Pophale) SiO2 
 PCOD8112770
Probable space group: C 2/M
;
_chemical_formula_sum "Si O2"
_cell_formula_units_Z 48
_cell_length_a 12.008634
_cell_length_b 13.993758
_cell_length_c 20.500494
_cell_angle_alpha 90.000000
_cell_angle_beta 138.639488
_cell_angle_gamma 90.000000
_cell_volume 2276.453943
_symmetry_space_group_name_H-M "C 2/M"
_symmetry_group_IT_number 12
_symmetry_cell_setting 'monoclinic'
loop_
_space_group_symop_operation_xyz
x,y,z
-x,y,-z
-x,-y,-z
x,-y,z
1/2+x,1/2+y,z
1/2-x,1/2+y,-z
1/2-x,1/2-y,-z
1/2+x,1/2-y,z
loop_
_atom_site_type_symbol
_atom_site_label
_atom_site_fract_x
_atom_site_fract_y
_atom_site_fract_z
Si Si1 0.473227 0.000000 0.587803
Si Si2 0.062000 0.853124 0.724301
Si Si3 0.187706 0.291259 0.064463
Si Si4 0.785015 0.000000 0.641702
Si Si5 0.154390 0.310908 0.402700
Si Si6 0.630029 0.112661 0.903768
Si Si7 0.764807 0.394043 0.691241
O O1 0.675758 0.000000 0.660982
O O2 0.359785 0.000000 0.474687
O O3 0.424110 0.908124 0.607042
O O4 0.221780 0.857966 0.842081
O O5 0.108498 0.891835 0.672760
O O6 0.903935 0.908118 0.686519
O O7 0.009831 0.744309 0.693187
O O8 0.272013 0.186380 0.099609
O O9 0.190482 0.357056 0.001910
O O10 0.000000 0.267812 0.000000
O O11 0.250000 0.250000 0.500000
O O12 0.268354 0.328465 0.387606
O O13 0.432682 0.133715 0.805226
O O14 0.673530 0.000000 0.910353
O O15 0.782162 0.500000 0.670709
#
# Coordination Sequence:
#
# PCOD8112770 Si02
#       7
#     4   8   8   4   8   8   8
#     4  11  26  49  69  96 138 180 228 287 345 409
#     4  12  25  43  70 107 137 183 231 284 348 416
#     4  11  23  42  67 101 139 179 229 281 343 412
#     4  11  26  47  70 100 138 177 230 283 350 419
#     4  12  26  45  70  99 136 183 230 286 348 407
#     4  10  23  41  65  96 134 182 228 282 339 404
#     4  11  23  43  70  98 137 180 234 289 339 408
#
# _framework density 21.085425000000001
#
# number of rings (size 3 to 8) (size 9 to 14) (size 15 to 20)
#    0.000    0.833    6.667    0.000    3.500    1.333 
#    0.000    1.667    0.000    0.000    0.000    0.000 
#    0.000    0.000    0.000    0.000    0.000    0.000 
#
# Total GULP energy -297428.112140 kJ/mol
# GULP energy per Si atom -12392.838006 kJ/mol
# Density = 2.103743 g / cm^3
# Si number density = 21.085425 Si / 1000 Ang^3
#
#
#
# Elastic Constant Matrix: (Units=GPa)
#
#
# Indices 1 2 3 4 5 6 
#
# 1 134.8520 51.1231 46.1897 0.0000 3.8426 0.0000
# 2 51.1231 132.0561 39.4308 0.0000 0.5807 0.0000
# 3 46.1897 39.4308 87.1323 0.0000 -8.2350 0.0000
# 4 0.0000 0.0000 0.0000 22.2785 0.0000 -13.4368
# 5 3.8426 0.5807 -8.2350 0.0000 39.4529 0.0000
# 6 0.0000 0.0000 0.0000 -13.4368 0.0000 11.7080
#
#
#
# Elastic Compliance Matrix: (Units=1/GPa)
#
#
# Indices 1 2 3 4 5 6 
#
# 1 0.009894 -0.002549 -0.004263 0.000000 -0.001816 0.000000
# 2 -0.002549 0.009449 -0.002973 0.000000 -0.000511 0.000000
# 3 -0.004263 -0.002973 0.015430 0.000000 0.003680 0.000000
# 4 0.000000 0.000000 0.000000 0.145824 0.000000 0.167357
# 5 -0.001816 -0.000511 0.003680 0.000000 0.026299 0.000000
# 6 0.000000 0.000000 0.000000 0.167357 0.000000 0.277481
#
#
# Mechanical properties :
#
#
# Convention : Reuss Voigt Hill
#
# Bulk Modulus (GPa) = 65.77855 69.72530 67.75193
# Shear Modulus (GPa) = 9.82288 29.17435 19.49861
#
# Velocity S-wave (km/s) = 2.16072 3.72375 3.04426
# Velocity P-wave (km/s) = 6.12282 7.18528 6.67522
#
# Compressibility (1/GPa) = 0.01520252
#
# Stress axis : x y z
#
# Youngs Moduli (GPa) = 101.07275 105.82572 64.80991
#
# Poissons Ratio (x) = 0.26980 0.27627
# Poissons Ratio (y) = 0.25768 0.19269
# Poissons Ratio (z) = 0.43085 0.31463
#
# Static dielectric constant tensor:
#      x y z
#    x 4.105190 0.000000 -0.269690 
#    y 0.000000 3.913620 0.000000 
#    z -0.269690 0.000000 4.071890 
# 
# 
# High freq. dielectric constant tensor:
#      x y z
#    x 1.825660 0.000000 -0.005570 
#    y 0.000000 1.835210 0.000000 
#    z -0.005570 0.000000 1.830840 
# 
# From -- ./inp_files/305723.got.cif
#   From: 2010.06.25/outbox.cif.g09.slc.cpg/sg12_153_cif.got.tgz:305723.got - 2010.06.28 00:19:55.
