data_PCOD8112851
_publ_section_title
;
Structure prediction by ZEFSAII (Michael W. Deem and Ramdas Pophale) SiO2 
 PCOD8112851
Probable space group: C 2/M
;
_chemical_formula_sum "Si O2"
_cell_formula_units_Z 48
_cell_length_a 24.060538
_cell_length_b 10.985660
_cell_length_c 11.763537
_cell_angle_alpha 90.000000
_cell_angle_beta 130.719279
_cell_angle_gamma 90.000000
_cell_volume 2356.621528
_symmetry_space_group_name_H-M "C 2/M"
_symmetry_group_IT_number 12
_symmetry_cell_setting 'monoclinic'
loop_
_space_group_symop_operation_xyz
x,y,z
-x,y,-z
-x,-y,-z
x,-y,z
1/2+x,1/2+y,z
1/2-x,1/2+y,-z
1/2-x,1/2-y,-z
1/2+x,1/2-y,z
loop_
_atom_site_type_symbol
_atom_site_label
_atom_site_fract_x
_atom_site_fract_y
_atom_site_fract_z
Si Si1 0.133634 0.645600 0.169224
Si Si2 0.415929 0.000000 0.253197
Si Si3 0.076683 0.738194 0.865560
Si Si4 0.591983 0.774651 0.361446
Si Si5 0.089875 0.500000 0.502276
Si Si6 0.204291 0.861657 0.647099
Si Si7 0.304274 0.359513 0.106008
O O1 0.125128 0.500000 0.142710
O O2 0.099637 0.686617 0.242319
O O3 0.216128 0.699048 0.268062
O O4 0.086195 0.716953 0.012010
O O5 0.390177 0.118750 0.151766
O O6 0.502852 0.000000 0.380045
O O7 0.379443 0.000000 0.328885
O O8 0.123248 0.850405 0.876452
O O9 0.991693 0.762568 0.724676
O O10 0.645426 0.666877 0.470453
O O11 0.620709 0.882903 0.479865
O O12 0.173969 0.835711 0.733354
O O13 0.223227 0.000000 0.655557
O O14 0.273165 0.500000 0.050439
O O15 0.250000 0.250000 0.000000
#
# Coordination Sequence:
#
# PCOD8112851 Si02
#       7
#     8   4   8   8   4   8   8
#     4  11  21  39  63  92 130 174 224 271 324 390
#     4   9  18  31  57  87 125 158 202 264 329 368
#     4  11  22  37  64  93 127 167 216 275 327 386
#     4  11  22  38  59  93 128 168 219 268 322 386
#     4   9  18  33  51  89 123 158 204 265 318 366
#     4  10  23  42  64  89 126 175 215 264 331 393
#     4  11  24  44  68  98 130 169 218 269 333 396
#
# _framework density 20.368141000000001
#
# number of rings (size 3 to 8) (size 9 to 14) (size 15 to 20)
#    0.000    1.500    3.333    2.000    1.167    3.333 
#    1.500    2.500    0.000    2.000    0.000    0.000 
#    0.000    0.000    0.000    0.000    0.000    0.000 
#
# Total GULP energy -297519.236855 kJ/mol
# GULP energy per Si atom -12396.634869 kJ/mol
# Density = 2.032178 g / cm^3
# Si number density = 20.368141 Si / 1000 Ang^3
#
#
#
# Elastic Constant Matrix: (Units=GPa)
#
#
# Indices 1 2 3 4 5 6 
#
# 1 89.7169 23.8572 19.3363 0.0000 -7.3475 0.0000
# 2 23.8572 59.8266 23.3267 0.0000 2.3710 0.0000
# 3 19.3363 23.3267 77.7569 0.0000 0.5192 0.0000
# 4 0.0000 0.0000 0.0000 33.9666 0.0000 -3.3088
# 5 -7.3475 2.3710 0.5192 0.0000 42.9097 0.0000
# 6 0.0000 0.0000 0.0000 -3.3088 0.0000 28.8030
#
#
#
# Elastic Compliance Matrix: (Units=1/GPa)
#
#
# Indices 1 2 3 4 5 6 
#
# 1 0.012961 -0.004535 -0.001879 0.000000 0.002493 0.000000
# 2 -0.004535 0.020557 -0.005027 0.000000 -0.001852 0.000000
# 3 -0.001879 -0.005027 0.014838 0.000000 -0.000224 0.000000
# 4 0.000000 0.000000 0.000000 0.029774 0.000000 0.003420
# 5 0.002493 -0.001852 -0.000224 0.000000 0.023837 0.000000
# 6 0.000000 0.000000 0.000000 0.003420 0.000000 0.035111
#
#
# Mechanical properties :
#
#
# Convention : Reuss Voigt Hill
#
# Bulk Modulus (GPa) = 39.25642 40.03788 39.64715
# Shear Modulus (GPa) = 29.68236 31.85455 30.76846
#
# Velocity S-wave (km/s) = 3.82159 3.95896 3.89088
# Velocity P-wave (km/s) = 6.22801 6.37162 6.30022
#
# Compressibility (1/GPa) = 0.02547354
#
# Stress axis : x y z
#
# Youngs Moduli (GPa) = 77.15341 48.64613 67.39678
#
# Poissons Ratio (x) = 0.22059 0.12667
# Poissons Ratio (y) = 0.34986 0.33880
# Poissons Ratio (z) = 0.14501 0.24454
#
# Static dielectric constant tensor:
#      x y z
#    x 3.726950 0.000000 -0.129490 
#    y 0.000000 3.625540 0.000000 
#    z -0.129490 0.000000 3.583260 
# 
# 
# High freq. dielectric constant tensor:
#      x y z
#    x 1.802400 0.000000 -0.007290 
#    y 0.000000 1.773950 0.000000 
#    z -0.007290 0.000000 1.798100 
# 
# From -- ./inp_files/174890.got.cif
#   From: 2010.06.25/outbox.cif.g09.slc.cpg/sg12_88_cif.got.tgz:174890.got - 2010.06.28 00:19:55.
