data_PCOD8112873
_publ_section_title
;
Structure prediction by ZEFSAII (Michael W. Deem and Ramdas Pophale) SiO2 
 PCOD8112873
Probable space group: C 2/M
;
_chemical_formula_sum "Si O2"
_cell_formula_units_Z 48
_cell_length_a 26.376407
_cell_length_b 12.808640
_cell_length_c 20.739894
_cell_angle_alpha 90.000000
_cell_angle_beta 19.218060
_cell_angle_gamma 90.000000
_cell_volume 2306.417474
_symmetry_space_group_name_H-M "C 2/M"
_symmetry_group_IT_number 12
_symmetry_cell_setting 'monoclinic'
loop_
_space_group_symop_operation_xyz
x,y,z
-x,y,-z
-x,-y,-z
x,-y,z
1/2+x,1/2+y,z
1/2-x,1/2+y,-z
1/2-x,1/2-y,-z
1/2+x,1/2-y,z
loop_
_atom_site_type_symbol
_atom_site_label
_atom_site_fract_x
_atom_site_fract_y
_atom_site_fract_z
Si Si1 0.340776 0.112140 0.725875
Si Si2 0.910946 0.781628 0.742402
Si Si3 0.591108 0.292609 0.947461
Si Si4 0.872182 0.305589 0.306627
Si Si5 0.905582 0.382827 0.855317
Si Si6 0.735613 0.620116 0.339518
O O1 0.500000 0.107518 0.500000
O O2 0.330761 0.205998 0.787345
O O3 0.224011 0.130004 0.807946
O O4 0.305340 0.000000 0.802032
O O5 0.964948 0.708585 0.736837
O O6 0.061065 0.841093 0.537280
O O7 0.778235 0.866086 0.915448
O O8 0.654239 0.183205 0.841519
O O9 0.500000 0.351298 0.000000
O O10 0.479016 0.279028 0.143065
O O11 0.750000 0.250000 0.500000
O O12 0.783178 0.369864 0.357692
O O13 0.989895 0.377769 0.205910
O O14 0.926362 0.500000 0.802007
O O15 0.746396 0.500000 0.305860
#
# Coordination Sequence:
#
# PCOD8112873 Si02
#       6
#     8   8   8   8   8   8
#     4  11  22  40  65  90 120 164 206 254 319 375
#     4  11  22  41  61  94 131 156 212 264 313 378
#     4  10  23  42  64  93 132 161 211 267 313 374
#     4  11  22  42  64  91 129 170 213 262 309 372
#     4  11  23  39  64  91 125 169 208 258 319 375
#     4  11  23  41  68  96 130 169 209 263 326 377
#
# _framework density 20.811498
#
# number of rings (size 3 to 8) (size 9 to 14) (size 15 to 20)
#    0.000    1.167    5.000    1.500    0.000    4.000 
#    0.000    4.167    0.000    0.000    0.000    0.000 
#    0.000    0.000    0.000    0.000    0.000    0.000 
#
# Total GULP energy -297487.068035 kJ/mol
# GULP energy per Si atom -12395.294501 kJ/mol
# Density = 2.076413 g / cm^3
# Si number density = 20.811498 Si / 1000 Ang^3
#
#
#
# Elastic Constant Matrix: (Units=GPa)
#
#
# Indices 1 2 3 4 5 6 
#
# 1 92.1195 16.3779 32.1841 0.0001 -12.1202 -0.0005
# 2 16.3779 64.6388 22.9695 -0.0035 -3.2730 0.0022
# 3 32.1841 22.9695 110.2372 -0.0025 -2.2036 0.0013
# 4 0.0001 -0.0035 -0.0025 27.3686 0.0004 -18.1494
# 5 -12.1202 -3.2730 -2.2036 0.0004 40.6915 0.0001
# 6 -0.0005 0.0022 0.0013 -18.1494 0.0001 32.8029
#
#
#
# Elastic Compliance Matrix: (Units=1/GPa)
#
#
# Indices 1 2 3 4 5 6 
#
# 1 0.012794 -0.001904 -0.003269 -0.000001 0.003481 0.000000
# 2 -0.001904 0.017046 -0.002983 0.000002 0.000642 0.000000
# 3 -0.003269 -0.002983 0.010635 0.000001 -0.000638 0.000000
# 4 -0.000001 0.000002 0.000001 0.057714 -0.000001 0.031932
# 5 0.003481 0.000642 -0.000638 -0.000001 0.025629 0.000000
# 6 0.000000 0.000000 0.000000 0.031932 0.000000 0.048153
#
#
# Mechanical properties :
#
#
# Convention : Reuss Voigt Hill
#
# Bulk Modulus (GPa) = 41.38655 45.56206 43.47430
# Shear Modulus (GPa) = 25.46658 33.20353 29.33506
#
# Velocity S-wave (km/s) = 3.50191 3.99863 3.75848
# Velocity P-wave (km/s) = 6.02335 6.57716 6.30633
#
# Compressibility (1/GPa) = 0.02416244
#
# Stress axis : x y z
#
# Youngs Moduli (GPa) = 78.16173 58.66650 94.03321
#
# Poissons Ratio (x) = 0.11169 0.30739
# Poissons Ratio (y) = 0.14880 0.28050
# Poissons Ratio (z) = 0.25551 0.17500
#
# Static dielectric constant tensor:
#      x y z
#    x 3.854910 0.000000 -0.179040 
#    y 0.000000 3.797600 0.000000 
#    z -0.179040 0.000000 3.749550 
# 
# 
# High freq. dielectric constant tensor:
#      x y z
#    x 1.826440 0.000000 -0.016360 
#    y 0.000000 1.799450 0.000000 
#    z -0.016360 0.000000 1.822110 
# 
# From -- ./inp_files/327967.got.cif
#   From: 2010.06.25/outbox.cif.g09.slc.cpg/sg12_164_cif.got.tgz:327967.got - 2010.06.28 00:19:55.
