data_PCOD8112633
_publ_section_title
;
Structure prediction by ZEFSAII (Michael W. Deem and Ramdas Pophale) SiO2 
 PCOD8112633
Probable space group: C 2/M
;
_chemical_formula_sum "Si O2"
_cell_formula_units_Z 32
_cell_length_a 7.411183
_cell_length_b 23.188530
_cell_length_c 10.287052
_cell_angle_alpha 90.000000
_cell_angle_beta 53.173327
_cell_angle_gamma 90.000000
_cell_volume 1415.100265
_symmetry_space_group_name_H-M "C 2/M"
_symmetry_group_IT_number 12
_symmetry_cell_setting 'monoclinic'
loop_
_space_group_symop_operation_xyz
x,y,z
-x,y,-z
-x,-y,-z
x,-y,z
1/2+x,1/2+y,z
1/2-x,1/2+y,-z
1/2-x,1/2-y,-z
1/2+x,1/2-y,z
loop_
_atom_site_type_symbol
_atom_site_label
_atom_site_fract_x
_atom_site_fract_y
_atom_site_fract_z
Si Si1 0.945756 0.149314 0.871896
Si Si2 0.333012 0.234050 0.689770
Si Si3 0.361158 0.565850 0.691672
Si Si4 0.040222 0.336234 0.828373
O O1 0.992832 0.094534 0.758066
O O2 0.094029 0.203209 0.755393
O O3 0.673198 0.162828 0.980193
O O4 0.000000 0.135219 0.000000
O O5 0.500000 0.245241 0.500000
O O6 0.255104 0.295968 0.780743
O O7 0.458116 0.190382 0.729668
O O8 0.500000 0.570956 0.500000
O O9 0.309005 0.500000 0.749831
O O10 0.125692 0.598809 0.768074
#
# Coordination Sequence:
#
# PCOD8112633 Si02
#       4
#     8   8   8   8
#     4  10  23  40  62  94 127 159 201 254 308 364
#     4  11  21  37  62  93 129 163 202 252 308 366
#     4  11  24  43  65  89 121 163 209 253 302 364
#     4  11  22  37  61  92 126 162 203 251 307 364
#
# _framework density 22.613237999999999
#
# number of rings (size 3 to 8) (size 9 to 14) (size 15 to 20)
#    0.000    1.250    0.000    6.000    0.000    6.500 
#    0.000    3.750    0.000   13.500    0.000    0.000 
#    0.000    0.000    0.000    0.000    0.000    0.000 
#
# Total GULP energy -198371.501791 kJ/mol
# GULP energy per Si atom -12398.218862 kJ/mol
# Density = 2.256177 g / cm^3
# Si number density = 22.613238 Si / 1000 Ang^3
#
#
#
# Elastic Constant Matrix: (Units=GPa)
#
#
# Indices 1 2 3 4 5 6 
#
# 1 83.1058 29.5475 58.4888 0.0000 -14.7090 0.0000
# 2 29.5475 177.6929 96.6983 0.0000 2.0625 0.0000
# 3 58.4888 96.6983 179.1325 0.0000 2.3418 0.0000
# 4 0.0000 0.0000 0.0000 36.7294 0.0000 -0.0515
# 5 -14.7090 2.0625 2.3418 0.0000 38.4001 0.0000
# 6 0.0000 0.0000 0.0000 -0.0515 0.0000 33.6302
#
#
#
# Elastic Compliance Matrix: (Units=1/GPa)
#
#
# Indices 1 2 3 4 5 6 
#
# 1 0.017317 0.000235 -0.005873 0.000000 0.006979 0.000000
# 2 0.000235 0.007973 -0.004380 0.000000 -0.000071 0.000000
# 3 -0.005873 -0.004380 0.009898 0.000000 -0.002618 0.000000
# 4 0.000000 0.000000 0.000000 0.027226 0.000000 0.000042
# 5 0.006979 -0.000071 -0.002618 0.000000 0.028878 0.000000
# 6 0.000000 0.000000 0.000000 0.000042 0.000000 0.029735
#
#
# Mechanical properties :
#
#
# Convention : Reuss Voigt Hill
#
# Bulk Modulus (GPa) = 65.98713 89.93339 77.96026
# Shear Modulus (GPa) = 34.21989 38.76505 36.49247
#
# Velocity S-wave (km/s) = 3.89429 4.14486 4.02153
# Velocity P-wave (km/s) = 7.03312 7.92231 7.49092
#
# Compressibility (1/GPa) = 0.01515447
#
# Stress axis : x y z
#
# Youngs Moduli (GPa) = 57.74520 125.42698 101.02720
#
# Poissons Ratio (x) = -0.02949 0.59328
# Poissons Ratio (y) = -0.01358 0.44246
# Poissons Ratio (z) = 0.33911 0.54933
#
# Static dielectric constant tensor:
#      x y z
#    x 4.667640 0.000000 -0.154160 
#    y 0.000000 4.002620 0.000000 
#    z -0.154160 0.000000 4.467250 
# 
# 
# High freq. dielectric constant tensor:
#      x y z
#    x 1.930700 0.000000 0.012140 
#    y 0.000000 1.873590 0.000000 
#    z 0.012140 0.000000 1.921750 
# 
# From -- ./inp_files/37541.got.cif
#   From: 2010.06.25/outbox.cif.g09.slc.cpg/sg12_19_cif.got.tgz:37541.got - 2010.06.28 00:19:55.
