data_PCOD8112105
_publ_section_title
;
Structure prediction by ZEFSAII (Michael W. Deem and Ramdas Pophale) SiO2 
 PCOD8112105
Probable space group: C 2/M
;
_chemical_formula_sum "Si O2"
_cell_formula_units_Z 32
_cell_length_a 9.060039
_cell_length_b 23.149863
_cell_length_c 12.015549
_cell_angle_alpha 90.000000
_cell_angle_beta 32.748459
_cell_angle_gamma 90.000000
_cell_volume 1363.266373
_symmetry_space_group_name_H-M "C 2/M"
_symmetry_group_IT_number 12
_symmetry_cell_setting 'monoclinic'
loop_
_space_group_symop_operation_xyz
x,y,z
-x,y,-z
-x,-y,-z
x,-y,z
1/2+x,1/2+y,z
1/2-x,1/2+y,-z
1/2-x,1/2-y,-z
1/2+x,1/2-y,z
loop_
_atom_site_type_symbol
_atom_site_label
_atom_site_fract_x
_atom_site_fract_y
_atom_site_fract_z
Si Si1 0.714974 0.731047 0.748398
Si Si2 0.726617 0.628345 0.607527
Si Si3 0.043847 0.329269 0.205386
Si Si4 0.787796 0.434672 0.037094
O O1 0.559214 0.677627 0.785151
O O2 0.748904 0.713766 0.857852
O O3 0.567507 0.792706 0.829130
O O4 0.000000 0.731586 0.500000
O O5 0.520434 0.574892 0.722246
O O6 0.000000 0.608243 0.500000
O O7 0.793576 0.655532 0.445668
O O8 0.162902 0.391181 0.095868
O O9 0.816959 0.500000 0.974358
O O10 0.000000 0.421988 0.000000
#
# Coordination Sequence:
#
# PCOD8112105 Si02
#       4
#     8   8   8   8
#     4   9  19  37  65 104 131 164 217 263 333 407
#     4   9  21  43  67  96 134 171 217 265 332 395
#     4  10  22  41  68  98 135 174 208 275 335 387
#     4  11  27  45  63  97 133 173 232 272 311 391
#
# _framework density 23.473036
#
# number of rings (size 3 to 8) (size 9 to 14) (size 15 to 20)
#    0.000    2.750    0.000    3.000    7.000    6.500 
#    0.000   11.250    0.000    0.750    0.000    0.000 
#    0.000    0.000    0.000    0.000    0.000    0.000 
#
# Total GULP energy -198343.776769 kJ/mol
# GULP energy per Si atom -12396.486048 kJ/mol
# Density = 2.341961 g / cm^3
# Si number density = 23.473036 Si / 1000 Ang^3
#
#
#
# Elastic Constant Matrix: (Units=GPa)
#
#
# Indices 1 2 3 4 5 6 
#
# 1 115.9690 84.8325 55.5383 0.0000 -0.5520 0.0000
# 2 84.8325 167.9552 65.0740 0.0000 1.0538 0.0000
# 3 55.5383 65.0740 51.2697 0.0000 9.4082 0.0000
# 4 0.0000 0.0000 0.0000 35.3372 0.0000 -3.2754
# 5 -0.5520 1.0538 9.4082 0.0000 37.9874 0.0000
# 6 0.0000 0.0000 0.0000 -3.2754 0.0000 29.6223
#
#
#
# Elastic Compliance Matrix: (Units=1/GPa)
#
#
# Indices 1 2 3 4 5 6 
#
# 1 0.019562 -0.002649 -0.018747 0.000000 0.005001 0.000000
# 2 -0.002649 0.012540 -0.013594 0.000000 0.002980 0.000000
# 3 -0.018747 -0.013594 0.059764 0.000000 -0.014697 0.000000
# 4 0.000000 0.000000 0.000000 0.028592 0.000000 0.003161
# 5 0.005001 0.002980 -0.014697 0.000000 0.029954 0.000000
# 6 0.000000 0.000000 0.000000 0.003161 0.000000 0.034108
#
#
# Mechanical properties :
#
#
# Convention : Reuss Voigt Hill
#
# Bulk Modulus (GPa) = 45.68997 82.89815 64.29406
# Shear Modulus (GPa) = 19.09884 29.23933 24.16909
#
# Velocity S-wave (km/s) = 2.85555 3.53321 3.21230
# Velocity P-wave (km/s) = 5.51175 7.21372 6.41939
#
# Compressibility (1/GPa) = 0.02188664
#
# Stress axis : x y z
#
# Youngs Moduli (GPa) = 51.11866 79.74353 16.73249
#
# Poissons Ratio (x) = 0.21121 0.31368
# Poissons Ratio (y) = 0.13540 0.22747
# Poissons Ratio (z) = 0.95832 1.08406
#
# Static dielectric constant tensor:
#      x y z
#    x 4.074050 0.000000 -0.109130 
#    y 0.000000 4.127400 0.000000 
#    z -0.109130 0.000000 4.344140 
# 
# 
# High freq. dielectric constant tensor:
#      x y z
#    x 1.920760 0.000000 -0.007080 
#    y 0.000000 1.912320 0.000000 
#    z -0.007080 0.000000 1.953880 
# 
# From -- ./inp_files/121569.got.cif
#   From: 2010.06.25/outbox.cif.g09.slc.cpg/sg12_61_cif.got.tgz:121569.got - 2010.06.28 00:19:55.
