data_PCOD8112694
_publ_section_title
;
Structure prediction by ZEFSAII (Michael W. Deem and Ramdas Pophale) SiO2 
 PCOD8112694
Probable space group: C 2/M
;
_chemical_formula_sum "Si O2"
_cell_formula_units_Z 24
_cell_length_a 21.664816
_cell_length_b 9.523244
_cell_length_c 11.416239
_cell_angle_alpha 90.000000
_cell_angle_beta 28.651509
_cell_angle_gamma 90.000000
_cell_volume 1129.365057
_symmetry_space_group_name_H-M "C 2/M"
_symmetry_group_IT_number 12
_symmetry_cell_setting 'monoclinic'
loop_
_space_group_symop_operation_xyz
x,y,z
-x,y,-z
-x,-y,-z
x,-y,z
1/2+x,1/2+y,z
1/2-x,1/2+y,-z
1/2-x,1/2-y,-z
1/2+x,1/2-y,z
loop_
_atom_site_type_symbol
_atom_site_label
_atom_site_fract_x
_atom_site_fract_y
_atom_site_fract_z
Si Si1 0.820016 0.304109 0.617478
Si Si2 0.346666 0.500000 0.250380
Si Si3 0.457335 0.000000 0.820758
Si Si4 0.736413 0.500000 0.346838
Si Si5 0.348760 0.000000 0.768534
O O1 0.701853 0.359710 0.734599
O O2 0.829403 0.136940 0.600636
O O3 0.794919 0.360857 0.791912
O O4 0.954506 0.362470 0.341565
O O5 0.281262 0.500000 0.485837
O O6 0.500000 0.500000 0.000000
O O7 0.334353 0.000000 0.933335
O O8 0.389123 0.000000 0.061103
O O9 0.500000 0.000000 0.500000
#
# Coordination Sequence:
#
# PCOD8112694 Si02
#       5
#     8   4   4   4   4
#     4   9  21  40  60  87 118 156 193 241 291 344
#     4  10  23  41  60  82 125 158 188 245 296 343
#     4   9  21  41  63  83 122 155 191 242 288 351
#     4  12  23  35  64  93 110 156 205 232 293 347
#     4   7  15  40  63  79 122 158 180 240 302 329
#
# _framework density 21.250879000000001
#
# number of rings (size 3 to 8) (size 9 to 14) (size 15 to 20)
#    0.000    3.333    0.000    1.000    4.667    4.000 
#    0.000    7.500    0.000    0.000    0.000    0.000 
#    0.000    0.000    0.000    0.000    0.000    0.000 
#
# Total GULP energy -148670.273583 kJ/mol
# GULP energy per Si atom -12389.189465 kJ/mol
# Density = 2.120251 g / cm^3
# Si number density = 21.250879 Si / 1000 Ang^3
#
#
#
# Elastic Constant Matrix: (Units=GPa)
#
#
# Indices 1 2 3 4 5 6 
#
# 1 127.4402 46.3433 48.7027 0.0000 -16.5686 0.0000
# 2 46.3433 194.0493 31.1820 0.0000 -14.7146 0.0000
# 3 48.7027 31.1820 125.4789 0.0000 3.4536 0.0000
# 4 0.0000 0.0000 0.0000 21.0197 0.0000 -5.7788
# 5 -16.5686 -14.7146 3.4536 0.0000 18.5353 0.0000
# 6 0.0000 0.0000 0.0000 -5.7788 0.0000 7.3228
#
#
#
# Elastic Compliance Matrix: (Units=1/GPa)
#
#
# Indices 1 2 3 4 5 6 
#
# 1 0.011232 -0.001240 -0.004323 0.000000 0.009861 0.000000
# 2 -0.001240 0.005912 -0.001092 0.000000 0.003789 0.000000
# 3 -0.004323 -0.001092 0.010101 0.000000 -0.006613 0.000000
# 4 0.000000 0.000000 0.000000 0.060756 0.000000 0.047945
# 5 0.009861 0.003789 -0.006613 0.000000 0.067006 0.000000
# 6 0.000000 0.000000 0.000000 0.047945 0.000000 0.174397
#
#
# Mechanical properties :
#
#
# Convention : Reuss Voigt Hill
#
# Bulk Modulus (GPa) = 71.76235 77.71381 74.73808
# Shear Modulus (GPa) = 14.39440 30.75826 22.57633
#
# Velocity S-wave (km/s) = 2.60543 3.80858 3.26294
# Velocity P-wave (km/s) = 6.54931 7.48261 7.03146
#
# Compressibility (1/GPa) = 0.01393488
#
# Stress axis : x y z
#
# Youngs Moduli (GPa) = 89.03326 169.13974 99.00321
#
# Poissons Ratio (x) = 0.20974 0.42796
# Poissons Ratio (y) = 0.11040 0.10813
# Poissons Ratio (z) = 0.38486 0.18473
#
# Static dielectric constant tensor:
#      x y z
#    x 5.134340 0.000000 0.384110 
#    y 0.000000 3.733410 0.000000 
#    z 0.384110 0.000000 3.644700 
# 
# 
# High freq. dielectric constant tensor:
#      x y z
#    x 1.839390 0.000000 0.006390 
#    y 0.000000 1.825410 0.000000 
#    z 0.006390 0.000000 1.810490 
# 
# From -- ./inp_files/163830.got.cif
#   From: 2010.06.25/outbox.cif.g09.slc.cpg/sg12_82_cif.got.tgz:163830.got - 2010.06.28 00:19:55.
