data_PCOD8112043
_publ_section_title
;
Structure prediction by ZEFSAII (Michael W. Deem and Ramdas Pophale) SiO2 
 PCOD8112043
Probable space group: C 2/M
;
_chemical_formula_sum "Si O2"
_cell_formula_units_Z 64
_cell_length_a 30.407935
_cell_length_b 16.476705
_cell_length_c 12.221926
_cell_angle_alpha 90.000000
_cell_angle_beta 29.050664
_cell_angle_gamma 90.000000
_cell_volume 2973.447356
_symmetry_space_group_name_H-M "C 2/M"
_symmetry_group_IT_number 12
_symmetry_cell_setting 'monoclinic'
loop_
_space_group_symop_operation_xyz
x,y,z
-x,y,-z
-x,-y,-z
x,-y,z
1/2+x,1/2+y,z
1/2-x,1/2+y,-z
1/2-x,1/2-y,-z
1/2+x,1/2-y,z
loop_
_atom_site_type_symbol
_atom_site_label
_atom_site_fract_x
_atom_site_fract_y
_atom_site_fract_z
Si Si1 0.253324 0.845653 0.013828
Si Si2 0.086092 0.905584 0.244808
Si Si3 0.371237 0.692257 0.066032
Si Si4 0.782267 0.185185 0.674316
Si Si5 0.559990 0.090420 0.475266
Si Si6 0.717985 0.406390 0.546186
Si Si7 0.900004 0.588952 0.263153
Si Si8 0.451971 0.214715 0.320658
O O1 0.170036 0.890936 0.140738
O O2 0.258613 0.863263 0.132937
O O3 0.250000 0.750000 0.000000
O O4 0.338342 0.885650 0.771518
O O5 0.094309 0.858947 0.112297
O O6 0.000000 0.872876 0.500000
O O7 0.076127 0.000000 0.238140
O O8 0.455652 0.746099 0.926268
O O9 0.286142 0.745167 0.214560
O O10 0.341876 0.636776 0.231124
O O11 0.804471 0.126710 0.525003
O O12 0.877849 0.218341 0.514051
O O13 0.500000 0.093037 0.500000
O O14 0.516531 0.156485 0.650039
O O15 0.557899 0.000000 0.531976
O O16 0.690853 0.500000 0.607995
O O17 0.825275 0.392194 0.332901
O O18 0.877412 0.500000 0.363940
O O19 0.894799 0.660216 0.360925
O O20 0.000000 0.587031 0.000000
#
# Coordination Sequence:
#
# PCOD8112043 Si02
#       8
#     8   8   8   8   8   8   8   8
#     4  12  23  42  68 102 135 178 225 279 342 404
#     4  11  25  44  69 100 137 182 231 280 338 405
#     4  12  24  43  71 100 136 178 230 283 340 404
#     4  12  25  42  67 101 133 175 230 279 340 402
#     4  11  25  43  66  99 139 176 218 276 347 414
#     4  11  26  47  68  97 141 181 227 281 343 405
#     4  10  22  41  66  96 132 172 218 275 338 402
#     4  12  24  39  68  98 131 173 221 283 328 405
#
# _framework density 21.523838000000001
#
# number of rings (size 3 to 8) (size 9 to 14) (size 15 to 20)
#    0.000    0.625    3.750    3.750    1.750    1.000 
#    0.000    5.000    0.000    0.000    0.000    0.000 
#    0.000    0.000    0.000    0.000    0.000    0.000 
#
# Total GULP energy -396840.395605 kJ/mol
# GULP energy per Si atom -12401.262363 kJ/mol
# Density = 2.147485 g / cm^3
# Si number density = 21.523838 Si / 1000 Ang^3
#
#
#
# Elastic Constant Matrix: (Units=GPa)
#
#
# Indices 1 2 3 4 5 6 
#
# 1 92.4360 41.3004 32.2071 0.0000 10.9692 0.0000
# 2 41.3004 97.1801 40.9801 0.0000 2.0711 0.0000
# 3 32.2071 40.9801 108.8871 0.0000 -2.2544 0.0000
# 4 0.0000 0.0000 0.0000 127.4915 0.0000 -59.4312
# 5 10.9692 2.0711 -2.2544 0.0000 49.9494 0.0000
# 6 0.0000 0.0000 0.0000 -59.4312 0.0000 77.2278
#
#
#
# Elastic Compliance Matrix: (Units=1/GPa)
#
#
# Indices 1 2 3 4 5 6 
#
# 1 0.014237 -0.004973 -0.002402 0.000000 -0.003029 0.000000
# 2 -0.004973 0.013994 -0.003789 0.000000 0.000341 0.000000
# 3 -0.002402 -0.003789 0.011345 0.000000 0.001197 0.000000
# 4 0.000000 0.000000 0.000000 0.012232 0.000000 0.009413
# 5 -0.003029 0.000341 0.001197 0.000000 0.020725 0.000000
# 6 0.000000 0.000000 0.000000 0.009413 0.000000 0.020192
#
#
# Mechanical properties :
#
#
# Convention : Reuss Voigt Hill
#
# Bulk Modulus (GPa) = 57.97727 58.60870 58.29299
# Shear Modulus (GPa) = 41.39019 63.20146 52.29582
#
# Velocity S-wave (km/s) = 4.38995 5.42469 4.93452
# Velocity P-wave (km/s) = 7.25881 8.15629 7.72060
#
# Compressibility (1/GPa) = 0.01724814
#
# Stress axis : x y z
#
# Youngs Moduli (GPa) = 70.24186 71.45924 88.14448
#
# Poissons Ratio (x) = 0.35536 0.21173
# Poissons Ratio (y) = 0.34930 0.33396
# Poissons Ratio (z) = 0.16873 0.27074
#
# Static dielectric constant tensor:
#      x y z
#    x 4.134970 0.000000 0.172880 
#    y 0.000000 4.212780 0.000000 
#    z 0.172880 0.000000 3.997530 
# 
# 
# High freq. dielectric constant tensor:
#      x y z
#    x 1.848980 0.000000 -0.004200 
#    y 0.000000 1.852280 0.000000 
#    z -0.004200 0.000000 1.854770 
# 
# From -- ./inp_files/190018.got.cif
#   From: 2010.06.25/outbox.cif.g09.slc.cpg/sg12_96_cif.got.tgz:190018.got - 2010.06.28 00:19:55.
