data_PCOD8112058
_publ_section_title
;
Structure prediction by ZEFSAII (Michael W. Deem and Ramdas Pophale) SiO2 
 PCOD8112058
Probable space group: C 2/M
;
_chemical_formula_sum "Si O2"
_cell_formula_units_Z 40
_cell_length_a 27.753111
_cell_length_b 11.667103
_cell_length_c 5.362411
_cell_angle_alpha 90.000000
_cell_angle_beta 75.460230
_cell_angle_gamma 90.000000
_cell_volume 1680.731428
_symmetry_space_group_name_H-M "C 2/M"
_symmetry_group_IT_number 12
_symmetry_cell_setting 'monoclinic'
loop_
_space_group_symop_operation_xyz
x,y,z
-x,y,-z
-x,-y,-z
x,-y,z
1/2+x,1/2+y,z
1/2-x,1/2+y,-z
1/2-x,1/2-y,-z
1/2+x,1/2-y,z
loop_
_atom_site_type_symbol
_atom_site_label
_atom_site_fract_x
_atom_site_fract_y
_atom_site_fract_z
Si Si1 0.816067 0.267670 0.542816
Si Si2 0.423059 0.000000 0.786812
Si Si3 0.621115 0.369680 0.241859
Si Si4 0.141396 0.500000 0.634636
Si Si5 0.970613 0.259212 0.780959
Si Si6 0.725797 0.369312 0.837625
O O1 0.871638 0.218411 0.537482
O O2 0.824841 0.386494 0.384172
O O3 0.777033 0.295926 0.825216
O O4 0.790062 0.168927 0.417798
O O5 0.387154 0.000000 0.594021
O O6 0.458399 0.890083 0.737149
O O7 0.394672 0.000000 0.084169
O O8 0.608096 0.500000 0.332917
O O9 0.578717 0.319223 0.117733
O O10 0.677353 0.358135 0.070447
O O11 0.000000 0.210411 0.500000
O O12 0.000000 0.245725 0.000000
O O13 0.743458 0.500000 0.808756
#
# Coordination Sequence:
#
# PCOD8112058 Si02
#       6
#     8   4   8   4   8   8
#     4  11  22  41  65 103 140 185 229 288 338 427
#     4  12  24  47  74 108 140 184 224 295 353 430
#     4  11  25  44  68  95 136 185 236 292 346 416
#     4  12  24  41  76 106 148 184 228 282 359 409
#     4  12  27  47  74 104 140 182 235 296 357 417
#     4  10  22  41  66  99 139 184 237 280 349 412
#
# _framework density 23.799160000000001
#
# number of rings (size 3 to 8) (size 9 to 14) (size 15 to 20)
#    0.000    0.800    3.000    4.200    2.800    0.800 
#    0.000    0.000    0.000    0.000    0.000    0.000 
#    0.000    0.000    0.000    0.000    0.000    0.000 
#
# Total GULP energy -247783.788363 kJ/mol
# GULP energy per Si atom -12389.189418 kJ/mol
# Density = 2.374499 g / cm^3
# Si number density = 23.799160 Si / 1000 Ang^3
#
#
#
# Elastic Constant Matrix: (Units=GPa)
#
#
# Indices 1 2 3 4 5 6 
#
# 1 122.0204 54.7720 10.5345 0.0000 16.6671 0.0000
# 2 54.7720 131.7689 5.8762 0.0000 1.0935 0.0000
# 3 10.5345 5.8762 74.9174 0.0000 2.3865 0.0000
# 4 0.0000 0.0000 0.0000 17.6344 0.0000 -11.2316
# 5 16.6671 1.0935 2.3865 0.0000 27.6592 0.0000
# 6 0.0000 0.0000 0.0000 -11.2316 0.0000 34.4318
#
#
#
# Elastic Compliance Matrix: (Units=1/GPa)
#
#
# Indices 1 2 3 4 5 6 
#
# 1 0.011218 -0.004564 -0.001013 0.000000 -0.006492 0.000000
# 2 -0.004564 0.009474 -0.000178 0.000000 0.002391 0.000000
# 3 -0.001013 -0.000178 0.013522 0.000000 -0.000549 0.000000
# 4 0.000000 0.000000 0.000000 0.071578 0.000000 0.023349
# 5 -0.006492 0.002391 -0.000549 0.000000 0.040019 0.000000
# 6 0.000000 0.000000 0.000000 0.023349 0.000000 0.036659
#
#
# Mechanical properties :
#
#
# Convention : Reuss Voigt Hill
#
# Bulk Modulus (GPa) = 44.04134 52.34136 48.19135
# Shear Modulus (GPa) = 24.80794 33.11334 28.96064
#
# Velocity S-wave (km/s) = 3.23210 3.73415 3.49216
# Velocity P-wave (km/s) = 5.69862 6.37436 6.04594
#
# Compressibility (1/GPa) = 0.02270594
#
# Stress axis : x y z
#
# Youngs Moduli (GPa) = 89.14063 105.54954 73.95430
#
# Poissons Ratio (x) = 0.48173 0.07489
# Poissons Ratio (y) = 0.40684 0.01313
# Poissons Ratio (z) = 0.09027 0.01874
#
# Static dielectric constant tensor:
#      x y z
#    x 4.483100 0.000000 -0.138170 
#    y 0.000000 4.493390 0.000000 
#    z -0.138170 0.000000 4.137600 
# 
# 
# High freq. dielectric constant tensor:
#      x y z
#    x 1.955460 0.000000 -0.011120 
#    y 0.000000 1.962680 0.000000 
#    z -0.011120 0.000000 1.928960 
# 
# From -- ./inp_files/30656.got.cif
#   From: 2010.06.25/outbox.cif.g09.slc.cpg/sg12_16_cif.got.tgz:30656.got - 2010.06.28 00:19:55.
