data_PCOD8112917
_publ_section_title
;
Structure prediction by ZEFSAII (Michael W. Deem and Ramdas Pophale) SiO2 
 PCOD8112917
Probable space group: C 2/M
;
_chemical_formula_sum "Si O2"
_cell_formula_units_Z 40
_cell_length_a 24.584239
_cell_length_b 8.478823
_cell_length_c 18.804104
_cell_angle_alpha 90.000000
_cell_angle_beta 150.403574
_cell_angle_gamma 90.000000
_cell_volume 1935.856363
_symmetry_space_group_name_H-M "C 2/M"
_symmetry_group_IT_number 12
_symmetry_cell_setting 'monoclinic'
loop_
_space_group_symop_operation_xyz
x,y,z
-x,y,-z
-x,-y,-z
x,-y,z
1/2+x,1/2+y,z
1/2-x,1/2+y,-z
1/2-x,1/2-y,-z
1/2+x,1/2-y,z
loop_
_atom_site_type_symbol
_atom_site_label
_atom_site_fract_x
_atom_site_fract_y
_atom_site_fract_z
Si Si1 0.239696 0.682653 0.829223
Si Si2 0.824774 0.182517 0.647173
Si Si3 0.949440 0.681880 0.133720
Si Si4 0.440046 0.680810 0.276689
Si Si5 0.339993 0.818204 0.415605
O O1 0.273369 0.500000 0.865766
O O2 0.149243 0.709294 0.787030
O O3 0.189978 0.736929 0.697535
O O4 0.347922 0.785410 0.966205
O O5 0.750000 0.250000 0.500000
O O6 0.766001 0.208085 0.655671
O O7 0.939317 0.274992 0.781267
O O8 0.847820 0.000000 0.657765
O O9 0.952642 0.500000 0.159923
O O10 0.937579 0.786707 0.190353
O O11 0.407937 0.500000 0.253666
O O12 0.560917 0.711437 0.444499
O O13 0.378532 0.000000 0.461151
#
# Coordination Sequence:
#
# PCOD8112917 Si02
#       5
#     8   8   8   8   8
#     4  11  24  43  64  91 128 167 207 255 313 374
#     4  11  22  40  66  95 124 162 209 257 308 368
#     4  12  25  42  64  92 127 166 210 260 312 368
#     4  12  24  40  65  94 126 165 210 259 309 371
#     4  10  23  42  66  93 126 166 207 253 310 374
#
# _framework density 20.662690000000001
#
# number of rings (size 3 to 8) (size 9 to 14) (size 15 to 20)
#    0.000    0.800    2.000    6.000    0.000    5.600 
#    0.000    4.000    0.000    0.000    0.000    0.000 
#    0.000    0.000    0.000    0.000    0.000    0.000 
#
# Total GULP energy -248184.946867 kJ/mol
# GULP energy per Si atom -12409.247343 kJ/mol
# Density = 2.061566 g / cm^3
# Si number density = 20.662690 Si / 1000 Ang^3
#
#
#
# Elastic Constant Matrix: (Units=GPa)
#
#
# Indices 1 2 3 4 5 6 
#
# 1 47.7385 29.0616 48.7491 0.0000 39.0752 0.0000
# 2 29.0616 69.4388 -16.6992 0.0000 -35.5977 0.0000
# 3 48.7491 -16.6992 -70.4570 0.0000 -118.8808 0.0000
# 4 0.0000 0.0000 0.0000 37.0594 0.0000 4.9368
# 5 39.0752 -35.5977 -118.8808 0.0000 -61.8500 0.0000
# 6 0.0000 0.0000 0.0000 4.9368 0.0000 29.8778
#
#
#
# Elastic Compliance Matrix: (Units=1/GPa)
#
#
# Indices 1 2 3 4 5 6 
#
# 1 0.015416 -0.003210 0.003621 0.000000 0.004626 0.000000
# 2 -0.003210 0.014367 -0.005237 0.000000 -0.000230 0.000000
# 3 0.003621 -0.005237 0.008645 0.000000 -0.011315 0.000000
# 4 0.000000 0.000000 0.000000 0.027591 0.000000 -0.004559
# 5 0.004626 -0.000230 -0.011315 0.000000 0.008635 0.000000
# 6 0.000000 0.000000 0.000000 -0.004559 0.000000 0.034223
#
#
# Mechanical properties :
#
#
# Convention : Reuss Voigt Hill
#
# Bulk Modulus (GPa) = 34.74857 18.77148 26.76002
# Shear Modulus (GPa) = 39.02551 0.05804 19.54177
#
# Velocity S-wave (km/s) = 4.35063 0.16778 3.07864
# Velocity P-wave (km/s) = 6.48774 3.02357 5.06127
#
# Compressibility (1/GPa) = 0.02877816
#
# Stress axis : x y z
#
# Youngs Moduli (GPa) = 64.86574 69.60460 115.66912
#
# Poissons Ratio (x) = 0.22340 -0.41888
# Poissons Ratio (y) = 0.20819 0.60577
# Poissons Ratio (z) = -0.23490 0.36453
#
# Static dielectric constant tensor:
#      x y z
#    x 3.868020 0.000000 0.048080 
#    y 0.000000 3.742460 0.000000 
#    z 0.048080 0.000000 3.766800 
# 
# 
# High freq. dielectric constant tensor:
#      x y z
#    x 1.816430 0.000000 0.004890 
#    y 0.000000 1.814720 0.000000 
#    z 0.004890 0.000000 1.815850 
# 
# From -- ./inp_files/151718.got.cif
#   From: 2010.06.25/outbox.cif.g09.slc.cpg/sg12_76_cif.got.tgz:151718.got - 2010.06.28 00:19:55.
