data_PCOD8112476
_publ_section_title
;
Structure prediction by ZEFSAII (Michael W. Deem and Ramdas Pophale) SiO2 
 PCOD8112476
Probable space group: C 2/M
;
_chemical_formula_sum "Si O2"
_cell_formula_units_Z 40
_cell_length_a 14.369781
_cell_length_b 23.294446
_cell_length_c 8.839108
_cell_angle_alpha 90.000000
_cell_angle_beta 39.091933
_cell_angle_gamma 90.000000
_cell_volume 1865.700363
_symmetry_space_group_name_H-M "C 2/M"
_symmetry_group_IT_number 12
_symmetry_cell_setting 'monoclinic'
loop_
_space_group_symop_operation_xyz
x,y,z
-x,y,-z
-x,-y,-z
x,-y,z
1/2+x,1/2+y,z
1/2-x,1/2+y,-z
1/2-x,1/2-y,-z
1/2+x,1/2-y,z
loop_
_atom_site_type_symbol
_atom_site_label
_atom_site_fract_x
_atom_site_fract_y
_atom_site_fract_z
Si Si1 0.643293 0.150840 0.420292
Si Si2 0.861697 0.345749 0.232529
Si Si3 0.970502 0.849736 0.364317
Si Si4 0.648223 0.739352 0.984339
Si Si5 0.628497 0.434193 0.959012
O O1 0.500000 0.159047 0.500000
O O2 0.595130 0.167618 0.649548
O O3 0.774380 0.192933 0.216510
O O4 0.715003 0.087500 0.307062
O O5 0.698420 0.372225 0.436483
O O6 0.876270 0.293059 0.094209
O O7 0.000000 0.386194 0.000000
O O8 0.000000 0.834694 0.500000
O O9 0.995742 0.790705 0.236647
O O10 0.081649 0.899544 0.169349
O O11 0.750000 0.750000 0.000000
O O12 0.649373 0.500000 0.979222
O O13 0.500000 0.425404 0.000000
#
# Coordination Sequence:
#
# PCOD8112476 Si02
#       5
#     8   8   8   8   8
#     4  11  25  42  62  94 132 169 217 268 317 388
#     4  12  26  38  61  93 132 175 211 262 318 375
#     4  11  24  42  65  96 131 165 220 264 315 389
#     4  11  24  38  61  93 128 177 214 256 313 383
#     4  10  22  45  74  95 119 166 220 275 330 380
#
# _framework density 21.43967
#
# number of rings (size 3 to 8) (size 9 to 14) (size 15 to 20)
#    0.000    1.000    4.000    1.800   11.200    0.800 
#    0.000    0.000    0.000    1.200    0.000    0.000 
#    0.000    0.000    0.000    0.000    0.000    0.000 
#
# Total GULP energy -247787.186149 kJ/mol
# GULP energy per Si atom -12389.359307 kJ/mol
# Density = 2.139087 g / cm^3
# Si number density = 21.439670 Si / 1000 Ang^3
#
#
#
# Elastic Constant Matrix: (Units=GPa)
#
#
# Indices 1 2 3 4 5 6 
#
# 1 114.1813 -0.7312 45.8038 0.0000 12.0906 0.0000
# 2 -0.7312 73.9835 32.7282 0.0000 14.6274 0.0000
# 3 45.8038 32.7282 154.4283 0.0000 8.6512 0.0000
# 4 0.0000 0.0000 0.0000 13.3236 0.0000 -0.2753
# 5 12.0906 14.6274 8.6512 0.0000 47.9726 0.0000
# 6 0.0000 0.0000 0.0000 -0.2753 0.0000 19.4845
#
#
#
# Elastic Compliance Matrix: (Units=1/GPa)
#
#
# Indices 1 2 3 4 5 6 
#
# 1 0.010414 0.002129 -0.003391 0.000000 -0.002662 0.000000
# 2 0.002129 0.016159 -0.003788 0.000000 -0.004780 0.000000
# 3 -0.003391 -0.003788 0.008255 0.000000 0.000521 0.000000
# 4 0.000000 0.000000 0.000000 0.075077 0.000000 0.001061
# 5 -0.002662 -0.004780 0.000521 0.000000 0.022880 0.000000
# 6 0.000000 0.000000 0.000000 0.001061 0.000000 0.051338
#
#
# Mechanical properties :
#
#
# Convention : Reuss Voigt Hill
#
# Bulk Modulus (GPa) = 40.44059 55.35496 47.89778
# Shear Modulus (GPa) = 24.69579 33.80898 29.25238
#
# Velocity S-wave (km/s) = 3.39761 3.97537 3.69779
# Velocity P-wave (km/s) = 5.85620 6.85175 6.37344
#
# Compressibility (1/GPa) = 0.02472763
#
# Stress axis : x y z
#
# Youngs Moduli (GPa) = 96.02643 61.88678 121.14017
#
# Poissons Ratio (x) = -0.13178 0.41077
# Poissons Ratio (y) = -0.20447 0.45891
# Poissons Ratio (z) = 0.32561 0.23444
#
# Static dielectric constant tensor:
#      x y z
#    x 3.908220 0.000000 0.018680 
#    y 0.000000 3.633930 0.000000 
#    z 0.018680 0.000000 4.605460 
# 
# 
# High freq. dielectric constant tensor:
#      x y z
#    x 1.854890 0.000000 0.001740 
#    y 0.000000 1.788730 0.000000 
#    z 0.001740 0.000000 1.876810 
# 
# From -- ./inp_files/52341.got.cif
#   From: 2010.06.25/outbox.cif.g09.slc.cpg/sg12_27_cif.got.tgz:52341.got - 2010.06.28 00:19:55.
