data_PCOD8112333
_publ_section_title
;
Structure prediction by ZEFSAII (Michael W. Deem and Ramdas Pophale) SiO2 
 PCOD8112333
Probable space group: C 2/M
;
_chemical_formula_sum "Si O2"
_cell_formula_units_Z 44
_cell_length_a 8.289622
_cell_length_b 24.419667
_cell_length_c 11.881420
_cell_angle_alpha 90.000000
_cell_angle_beta 125.799066
_cell_angle_gamma 90.000000
_cell_volume 1950.755981
_symmetry_space_group_name_H-M "C 2/M"
_symmetry_group_IT_number 12
_symmetry_cell_setting 'monoclinic'
loop_
_space_group_symop_operation_xyz
x,y,z
-x,y,-z
-x,-y,-z
x,-y,z
1/2+x,1/2+y,z
1/2-x,1/2+y,-z
1/2-x,1/2-y,-z
1/2+x,1/2-y,z
loop_
_atom_site_type_symbol
_atom_site_label
_atom_site_fract_x
_atom_site_fract_y
_atom_site_fract_z
Si Si1 0.362142 0.112816 0.240764
Si Si2 0.568891 0.500000 0.658473
Si Si3 0.846888 0.400610 0.841230
Si Si4 0.895172 0.793582 0.191364
Si Si5 0.000000 0.178747 0.000000
Si Si6 0.164469 0.287746 0.644374
Si Si7 0.815737 0.500000 0.343100
O O1 0.526182 0.118111 0.212585
O O2 0.434296 0.152898 0.370283
O O3 0.327182 0.051373 0.265490
O O4 0.152083 0.137188 0.118934
O O5 0.500000 0.500000 0.500000
O O6 0.699170 0.447459 0.740335
O O7 0.380633 0.500000 0.662800
O O8 0.716790 0.350125 0.831192
O O9 0.000000 0.421329 0.000000
O O10 0.792291 0.744432 0.219215
O O11 0.123522 0.794825 0.330323
O O12 0.898183 0.784081 0.056786
O O13 0.000000 0.256788 0.500000
O O14 0.000000 0.500000 0.500000
#
# Coordination Sequence:
#
# PCOD8112333 Si02
#       7
#     8   4   8   8   4   8   4
#     4  11  24  43  70 100 139 183 231 289 355 414
#     4  12  27  46  74 108 142 189 239 291 356 426
#     4  12  25  47  70 105 144 185 238 297 360 425
#     4  11  24  43  69 101 138 190 232 293 358 424
#     4  10  22  43  64 102 132 181 238 286 348 424
#     4  11  24  44  68 103 141 185 238 295 360 432
#     4  12  26  47  72 106 142 183 232 286 352 431
#
# _framework density 22.555357999999998
#
# number of rings (size 3 to 8) (size 9 to 14) (size 15 to 20)
#    0.000    0.727    1.818    6.273    0.000    5.455 
#    8.182    0.000    0.000    0.000    0.000    0.000 
#    0.000    0.000    0.000    0.000    0.000    0.000 
#
# Total GULP energy -272736.703096 kJ/mol
# GULP energy per Si atom -12397.122868 kJ/mol
# Density = 2.250402 g / cm^3
# Si number density = 22.555358 Si / 1000 Ang^3
#
#
#
# Elastic Constant Matrix: (Units=GPa)
#
#
# Indices 1 2 3 4 5 6 
#
# 1 135.7273 27.5447 36.9589 0.0000 -12.2941 0.0000
# 2 27.5447 123.6030 31.5169 0.0000 -13.3137 0.0000
# 3 36.9589 31.5169 118.2923 0.0000 3.3462 0.0000
# 4 0.0000 0.0000 0.0000 -176.9202 0.0000 -171.0737
# 5 -12.2941 -13.3137 3.3462 0.0000 36.2683 0.0000
# 6 0.0000 0.0000 0.0000 -171.0737 0.0000 -104.0405
#
#
#
# Elastic Compliance Matrix: (Units=1/GPa)
#
#
# Indices 1 2 3 4 5 6 
#
# 1 0.008486 -0.000964 -0.002472 0.000000 0.002751 0.000000
# 2 -0.000964 0.009231 -0.002251 0.000000 0.003270 0.000000
# 3 -0.002472 -0.002251 0.009899 0.000000 -0.002577 0.000000
# 4 0.000000 0.000000 0.000000 0.009581 0.000000 -0.015754
# 5 0.002751 0.003270 -0.002577 0.000000 0.029943 0.000000
# 6 0.000000 0.000000 0.000000 -0.015754 0.000000 0.016292
#
#
# Mechanical properties :
#
#
# Convention : Reuss Voigt Hill
#
# Bulk Modulus (GPa) = 61.57159 63.29595 62.43377
# Shear Modulus (GPa) = 49.89054 -30.16502 9.86276
#
# Velocity S-wave (km/s) = 4.70820 -3.66098 2.09337
# Velocity P-wave (km/s) = 7.54410 3.20203 5.79510
#
# Compressibility (1/GPa) = 0.01624126
#
# Stress axis : x y z
#
# Youngs Moduli (GPa) = 117.84471 108.32586 101.02444
#
# Poissons Ratio (x) = 0.10447 0.24974
# Poissons Ratio (y) = 0.11365 0.22738
# Poissons Ratio (z) = 0.29133 0.24381
#
# Static dielectric constant tensor:
#      x y z
#    x 4.493980 0.000000 -0.075580 
#    y 0.000000 5.341540 0.000000 
#    z -0.075580 0.000000 4.370920 
# 
# 
# High freq. dielectric constant tensor:
#      x y z
#    x 1.916710 0.000000 0.003320 
#    y 0.000000 1.887710 0.000000 
#    z 0.003320 0.000000 1.902700 
# 
# From -- ./inp_files/122681.got.cif
#   From: 2010.06.25/outbox.cif.g09.slc.cpg/sg12_62_cif.got.tgz:122681.got - 2010.06.28 00:19:55.
