data_PCOD8112982
_publ_section_title
;
Structure prediction by ZEFSAII (Michael W. Deem and Ramdas Pophale) SiO2 
 PCOD8112982
Probable space group: C 2/M
;
_chemical_formula_sum "Si O2"
_cell_formula_units_Z 64
_cell_length_a 23.645693
_cell_length_b 17.301813
_cell_length_c 10.656770
_cell_angle_alpha 90.000000
_cell_angle_beta 45.566842
_cell_angle_gamma 90.000000
_cell_volume 3113.211411
_symmetry_space_group_name_H-M "C 2/M"
_symmetry_group_IT_number 12
_symmetry_cell_setting 'monoclinic'
loop_
_space_group_symop_operation_xyz
x,y,z
-x,y,-z
-x,-y,-z
x,-y,z
1/2+x,1/2+y,z
1/2-x,1/2+y,-z
1/2-x,1/2-y,-z
1/2+x,1/2-y,z
loop_
_atom_site_type_symbol
_atom_site_label
_atom_site_fract_x
_atom_site_fract_y
_atom_site_fract_z
Si Si1 0.051192 0.696070 0.621680
Si Si2 0.423433 0.913817 0.886961
Si Si3 0.745240 0.086805 0.761573
Si Si4 0.308598 0.587184 0.942262
Si Si5 0.680743 0.296626 0.544154
Si Si6 0.559753 0.588754 0.796382
Si Si7 0.358636 0.912257 0.708674
Si Si8 0.521924 0.352291 0.327669
O O1 0.118998 0.731835 0.600668
O O2 0.091042 0.642554 0.456722
O O3 0.994499 0.646006 0.801128
O O4 0.999298 0.762151 0.636030
O O5 0.397358 0.907906 0.783957
O O6 0.454147 0.000000 0.869101
O O7 0.348375 0.894447 0.091174
O O8 0.782113 0.089839 0.840829
O O9 0.788069 0.153675 0.619949
O O10 0.758807 0.000000 0.684727
O O11 0.333027 0.500000 0.941638
O O12 0.384435 0.641316 0.845853
O O13 0.233809 0.614681 0.142897
O O14 0.750000 0.250000 0.500000
O O15 0.636608 0.357883 0.703572
O O16 0.585458 0.500000 0.765122
O O17 0.525540 0.604697 0.709800
O O18 0.500000 0.610399 0.000000
O O19 0.362915 0.000000 0.651018
O O20 0.500000 0.387743 0.500000
#
# Coordination Sequence:
#
# PCOD8112982 Si02
#       8
#     8   8   8   8   8   8   8   8
#     4  11  22  35  53  81 117 151 187 234 291 344
#     4   9  18  34  57  83 112 148 185 223 276 341
#     4   9  19  38  61  82 110 149 189 233 287 344
#     4   9  18  33  56  87 116 146 188 234 283 339
#     4  11  25  41  57  79 108 146 191 241 292 343
#     4  10  23  43  64  85 114 156 198 236 287 349
#     4   9  18  33  54  81 116 153 184 220 272 339
#     4  11  22  35  57  93 125 151 187 237 293 344
#
# _framework density 20.557551
#
# number of rings (size 3 to 8) (size 9 to 14) (size 15 to 20)
#    0.000    2.125    0.000    5.250    0.000    7.000 
#    0.000    6.875    0.000    1.500    0.000    0.000 
#    0.000    0.000    0.000    0.000    0.000    0.000 
#
# Total GULP energy -396689.394165 kJ/mol
# GULP energy per Si atom -12396.543568 kJ/mol
# Density = 2.051076 g / cm^3
# Si number density = 20.557551 Si / 1000 Ang^3
#
#
#
# Elastic Constant Matrix: (Units=GPa)
#
#
# Indices 1 2 3 4 5 6 
#
# 1 72.6562 47.7005 37.1564 0.0000 -25.2340 0.0000
# 2 47.7005 115.5658 62.2553 0.0000 -29.3140 0.0000
# 3 37.1564 62.2553 103.2688 0.0000 -29.1099 0.0000
# 4 0.0000 0.0000 0.0000 19.8440 0.0000 -20.5303
# 5 -25.2340 -29.3140 -29.1099 0.0000 36.0210 0.0000
# 6 0.0000 0.0000 0.0000 -20.5303 0.0000 15.3416
#
#
#
# Elastic Compliance Matrix: (Units=1/GPa)
#
#
# Indices 1 2 3 4 5 6 
#
# 1 0.021513 -0.005612 -0.001809 0.000000 0.009042 0.000000
# 2 -0.005612 0.015151 -0.006148 0.000000 0.003431 0.000000
# 3 -0.001809 -0.006148 0.015893 0.000000 0.006574 0.000000
# 4 0.000000 0.000000 0.000000 -0.131062 0.000000 -0.175390
# 5 0.009042 0.003431 0.006574 0.000000 0.042201 0.000000
# 6 0.000000 0.000000 0.000000 -0.175390 0.000000 -0.169527
#
#
# Mechanical properties :
#
#
# Convention : Reuss Voigt Hill
#
# Bulk Modulus (GPa) = 39.33635 65.07945 52.20790
# Shear Modulus (GPa) = -29.37361 23.86656 -2.75353
#
# Velocity S-wave (km/s) = -3.78411 3.41099 -1.15859
# Velocity P-wave (km/s) = 0.28918 6.87307 4.86429
#
# Compressibility (1/GPa) = 0.02542178
#
# Stress axis : x y z
#
# Youngs Moduli (GPa) = 46.48349 66.00048 62.91888
#
# Poissons Ratio (x) = 0.37038 0.11379
# Poissons Ratio (y) = 0.26085 0.38681
# Poissons Ratio (z) = 0.08407 0.40576
#
# Static dielectric constant tensor:
#      x y z
#    x 3.467090 0.000000 -0.384930 
#    y 0.000000 4.300620 0.000000 
#    z -0.384930 0.000000 3.798090 
# 
# 
# High freq. dielectric constant tensor:
#      x y z
#    x 1.774990 0.000000 -0.023870 
#    y 0.000000 1.810790 0.000000 
#    z -0.023870 0.000000 1.815530 
# 
# From -- ./inp_files/183776.got.cif
#   From: 2010.06.25/outbox.cif.g09.slc.cpg/sg12_92_cif.got.tgz:183776.got - 2010.06.28 00:19:55.
