data_PCOD8112844
_publ_section_title
;
Structure prediction by ZEFSAII (Michael W. Deem and Ramdas Pophale) SiO2 
 PCOD8112844
Probable space group: C 2/M
;
_chemical_formula_sum "Si O2"
_cell_formula_units_Z 40
_cell_length_a 7.649334
_cell_length_b 13.173292
_cell_length_c 24.036932
_cell_angle_alpha 90.000000
_cell_angle_beta 140.486974
_cell_angle_gamma 90.000000
_cell_volume 1541.087333
_symmetry_space_group_name_H-M "C 2/M"
_symmetry_group_IT_number 12
_symmetry_cell_setting 'monoclinic'
loop_
_space_group_symop_operation_xyz
x,y,z
-x,y,-z
-x,-y,-z
x,-y,z
1/2+x,1/2+y,z
1/2-x,1/2+y,-z
1/2-x,1/2-y,-z
1/2+x,1/2-y,z
loop_
_atom_site_type_symbol
_atom_site_label
_atom_site_fract_x
_atom_site_fract_y
_atom_site_fract_z
Si Si1 0.684919 0.879562 0.772880
Si Si2 0.335506 0.614786 0.183649
Si Si3 0.194148 0.678167 0.415545
Si Si4 0.785304 0.621951 0.094862
Si Si5 0.280712 0.612758 0.620593
O O1 0.410317 0.845238 0.672868
O O2 0.674501 0.834526 0.832520
O O3 0.960855 0.833143 0.811248
O O4 0.695930 0.000000 0.774315
O O5 0.303016 0.500000 0.155727
O O6 0.456898 0.621524 0.275420
O O7 0.029707 0.662112 0.114293
O O8 0.500000 0.634262 0.500000
O O9 0.200133 0.802066 0.423152
O O10 0.993812 0.628316 0.410671
O O11 0.789662 0.500000 0.099222
O O12 0.500000 0.662575 0.000000
O O13 0.269839 0.500000 0.590865
#
# Coordination Sequence:
#
# PCOD8112844 Si02
#       5
#     8   8   8   8   8
#     4   9  19  35  58  89 127 176 220 269 342 397
#     4   8  16  33  54  81 124 167 209 267 326 390
#     4  11  23  41  65  96 131 175 226 276 336 402
#     4   9  17  30  55  92 126 165 220 272 331 405
#     4  10  23  42  63  95 135 175 224 278 335 401
#
# _framework density 25.955698999999999
#
# number of rings (size 3 to 8) (size 9 to 14) (size 15 to 20)
#    0.000    2.600    0.000    2.400    2.800    2.800 
#    0.000    5.000    0.000    1.200    0.000    0.000 
#    0.000    0.000    0.000    0.000    0.000    0.000 
#
# Total GULP energy -247890.064516 kJ/mol
# GULP energy per Si atom -12394.503226 kJ/mol
# Density = 2.589662 g / cm^3
# Si number density = 25.955699 Si / 1000 Ang^3
#
#
#
# Elastic Constant Matrix: (Units=GPa)
#
#
# Indices 1 2 3 4 5 6 
#
# 1 70.2315 11.4758 76.6247 0.0001 25.2755 0.0001
# 2 11.4758 59.7718 -1.0295 -0.0001 9.8899 0.0000
# 3 76.6247 -1.0295 192.2469 -0.0001 29.6429 0.0001
# 4 0.0001 -0.0001 -0.0001 13.5036 0.0001 -3.8922
# 5 25.2755 9.8899 29.6429 0.0001 48.6809 0.0001
# 6 0.0001 0.0000 0.0001 -3.8922 0.0001 38.2447
#
#
#
# Elastic Compliance Matrix: (Units=1/GPa)
#
#
# Indices 1 2 3 4 5 6 
#
# 1 0.029214 -0.004483 -0.010451 0.000000 -0.007894 0.000000
# 2 -0.004483 0.018086 0.002308 0.000000 -0.002752 0.000000
# 3 -0.010451 0.002308 0.009508 0.000000 -0.000832 0.000000
# 4 0.000000 0.000000 0.000000 0.076293 0.000000 0.007764
# 5 -0.007894 -0.002752 -0.000832 0.000000 0.025706 0.000000
# 6 0.000000 0.000000 0.000000 0.007764 0.000000 0.026938
#
#
# Mechanical properties :
#
#
# Convention : Reuss Voigt Hill
#
# Bulk Modulus (GPa) = 31.68915 55.15469 43.42192
# Shear Modulus (GPa) = 22.57183 35.76443 29.16813
#
# Velocity S-wave (km/s) = 2.95215 3.71604 3.35590
# Velocity P-wave (km/s) = 4.88423 6.30140 5.63752
#
# Compressibility (1/GPa) = 0.03155654
#
# Stress axis : x y z
#
# Youngs Moduli (GPa) = 34.22986 55.29110 105.17700
#
# Poissons Ratio (x) = 0.24786 1.09919
# Poissons Ratio (y) = 0.15345 -0.24274
# Poissons Ratio (z) = 0.35773 -0.12761
#
# Static dielectric constant tensor:
#      x y z
#    x 4.697320 0.000000 0.169590 
#    y 0.000000 4.743650 0.000000 
#    z 0.169590 0.000000 4.815880 
# 
# 
# High freq. dielectric constant tensor:
#      x y z
#    x 2.029820 0.000000 0.019420 
#    y 0.000000 2.041490 0.000000 
#    z 0.019420 0.000000 2.035140 
# 
# From -- ./inp_files/372688.got.cif
#   From: 2010.06.25/outbox.cif.g09.slc.cpg/sg12_187_cif.got.tgz:372688.got - 2010.06.28 00:19:55.
