data_PCOD8112877
_publ_section_title
;
Structure prediction by ZEFSAII (Michael W. Deem and Ramdas Pophale) SiO2 
 PCOD8112877
Probable space group: C 2/M
;
_chemical_formula_sum "Si O2"
_cell_formula_units_Z 56
_cell_length_a 10.366968
_cell_length_b 17.733027
_cell_length_c 15.849225
_cell_angle_alpha 90.000000
_cell_angle_beta 110.631905
_cell_angle_gamma 90.000000
_cell_volume 2726.811764
_symmetry_space_group_name_H-M "C 2/M"
_symmetry_group_IT_number 12
_symmetry_cell_setting 'monoclinic'
loop_
_space_group_symop_operation_xyz
x,y,z
-x,y,-z
-x,-y,-z
x,-y,z
1/2+x,1/2+y,z
1/2-x,1/2+y,-z
1/2-x,1/2-y,-z
1/2+x,1/2-y,z
loop_
_atom_site_type_symbol
_atom_site_label
_atom_site_fract_x
_atom_site_fract_y
_atom_site_fract_z
Si Si1 0.614170 0.086189 0.598570
Si Si2 0.553639 0.654225 0.106245
Si Si3 0.080373 0.786002 0.691290
Si Si4 0.841864 0.088326 0.184717
Si Si5 0.730368 0.726178 0.402294
Si Si6 0.447017 0.829293 0.893204
Si Si7 0.640246 0.142945 0.788847
O O1 0.500000 0.104779 0.500000
O O2 0.745626 0.137148 0.606487
O O3 0.575122 0.104681 0.688075
O O4 0.658990 0.000000 0.601967
O O5 0.443932 0.605307 0.131921
O O6 0.559678 0.741686 0.136285
O O7 0.704103 0.615630 0.154059
O O8 0.500000 0.648262 0.000000
O O9 0.090263 0.874076 0.716525
O O10 0.156177 0.775399 0.620228
O O11 0.155147 0.732956 0.777521
O O12 0.924775 0.755651 0.658290
O O13 0.697469 0.129026 0.138381
O O14 0.821799 0.000000 0.194087
O O15 0.750000 0.750000 0.500000
O O16 0.544409 0.873028 0.848085
O O17 0.500000 0.837007 0.000000
#
# Coordination Sequence:
#
# PCOD8112877 Si02
#       7
#     8   8   8   8   8   8   8
#     4  10  23  42  64  94 129 169 221 277 329 392
#     4  11  22  41  68  95 128 179 231 273 319 402
#     4  11  21  38  61  89 125 163 212 265 318 400
#     4  12  25  40  60  95 134 167 209 278 338 378
#     4  11  22  39  65  93 121 162 218 268 325 391
#     4  11  22  41  67  96 131 176 228 273 329 394
#     4  11  21  39  69  94 125 176 227 266 325 394
#
# _framework density 20.536804
#
# number of rings (size 3 to 8) (size 9 to 14) (size 15 to 20)
#    0.000    1.000    2.857    5.571    0.000    5.714 
#    0.000    3.571    0.000    1.714    0.000    0.000 
#    0.000    0.000    0.000    0.000    0.000    0.000 
#
# Total GULP energy -346990.122821 kJ/mol
# GULP energy per Si atom -12392.504386 kJ/mol
# Density = 2.049006 g / cm^3
# Si number density = 20.536804 Si / 1000 Ang^3
#
#
#
# Elastic Constant Matrix: (Units=GPa)
#
#
# Indices 1 2 3 4 5 6 
#
# 1 131.9414 7.2562 45.1370 0.0000 -7.6988 0.0000
# 2 7.2562 91.0653 23.7270 0.0000 -5.9560 0.0000
# 3 45.1370 23.7270 107.4478 0.0000 -12.7124 0.0000
# 4 0.0000 0.0000 0.0000 21.8064 0.0000 -2.1081
# 5 -7.6988 -5.9560 -12.7124 0.0000 34.3726 0.0000
# 6 0.0000 0.0000 0.0000 -2.1081 0.0000 7.8321
#
#
#
# Elastic Compliance Matrix: (Units=1/GPa)
#
#
# Indices 1 2 3 4 5 6 
#
# 1 0.008872 0.000305 -0.003716 0.000000 0.000666 0.000000
# 2 0.000305 0.011703 -0.002577 0.000000 0.001143 0.000000
# 3 -0.003716 -0.002577 0.011802 0.000000 0.003086 0.000000
# 4 0.000000 0.000000 0.000000 0.047083 0.000000 0.012673
# 5 0.000666 0.001143 0.003086 0.000000 0.030581 0.000000
# 6 0.000000 0.000000 0.000000 0.012673 0.000000 0.131092
#
#
# Mechanical properties :
#
#
# Convention : Reuss Voigt Hill
#
# Bulk Modulus (GPa) = 49.01651 53.63277 51.32464
# Shear Modulus (GPa) = 19.23742 29.75783 24.49762
#
# Velocity S-wave (km/s) = 3.06392 3.81070 3.45753
# Velocity P-wave (km/s) = 6.03625 6.74789 6.40197
#
# Compressibility (1/GPa) = 0.02040129
#
# Stress axis : x y z
#
# Youngs Moduli (GPa) = 112.71000 85.44771 84.73202
#
# Poissons Ratio (x) = -0.02604 0.31483
# Poissons Ratio (y) = -0.03434 0.21836
# Poissons Ratio (z) = 0.41879 0.22021
#
# Static dielectric constant tensor:
#      x y z
#    x 4.060960 0.000000 0.053270 
#    y 0.000000 3.747260 0.000000 
#    z 0.053270 0.000000 3.795910 
# 
# 
# High freq. dielectric constant tensor:
#      x y z
#    x 1.814670 0.000000 0.000250 
#    y 0.000000 1.780170 0.000000 
#    z 0.000250 0.000000 1.815780 
# 
# From -- ./inp_files/257137.got.cif
#   From: 2010.06.25/outbox.cif.g09.slc.cpg/sg12_129_cif.got.tgz:257137.got - 2010.06.28 00:19:55.
