data_PCOD8112646
_publ_section_title
;
Structure prediction by ZEFSAII (Michael W. Deem and Ramdas Pophale) SiO2 
 PCOD8112646
Probable space group: C 2/M
;
_chemical_formula_sum "Si O2"
_cell_formula_units_Z 48
_cell_length_a 13.743596
_cell_length_b 13.366973
_cell_length_c 18.828822
_cell_angle_alpha 90.000000
_cell_angle_beta 47.105011
_cell_angle_gamma 90.000000
_cell_volume 2534.107045
_symmetry_space_group_name_H-M "C 2/M"
_symmetry_group_IT_number 12
_symmetry_cell_setting 'monoclinic'
loop_
_space_group_symop_operation_xyz
x,y,z
-x,y,-z
-x,-y,-z
x,-y,z
1/2+x,1/2+y,z
1/2-x,1/2+y,-z
1/2-x,1/2-y,-z
1/2+x,1/2-y,z
loop_
_atom_site_type_symbol
_atom_site_label
_atom_site_fract_x
_atom_site_fract_y
_atom_site_fract_z
Si Si1 0.750405 0.613395 0.051858
Si Si2 0.353267 0.000000 0.668721
Si Si3 0.777861 0.211133 0.266573
Si Si4 0.812270 0.819936 0.412594
Si Si5 0.362534 0.000000 0.496944
Si Si6 0.549456 0.713479 0.051993
Si Si7 0.884439 0.117627 0.730803
O O1 0.798105 0.500000 0.021456
O O2 0.659666 0.638409 0.028595
O O3 0.665469 0.632417 0.164474
O O4 0.884596 0.677483 0.988001
O O5 0.278328 0.101864 0.730680
O O6 0.380849 0.000000 0.572027
O O7 0.505761 0.000000 0.619153
O O8 0.780253 0.218251 0.349779
O O9 0.695288 0.306635 0.280353
O O10 0.926889 0.220851 0.165585
O O11 0.750000 0.750000 0.500000
O O12 0.965304 0.846310 0.346629
O O13 0.726289 0.910251 0.480710
O O14 0.500000 0.674228 0.000000
O O15 0.869502 0.000000 0.715339
#
# Coordination Sequence:
#
# PCOD8112646 Si02
#       7
#     8   4   8   8   4   8   8
#     4  10  23  40  64  89 125 170 211 253 308 382
#     4   9  20  36  63  88 124 159 207 261 313 370
#     4  11  23  40  64  96 125 164 214 261 312 376
#     4  11  22  39  65  87 125 169 205 259 315 371
#     4   9  18  38  58  87 114 162 215 245 301 379
#     4  11  22  40  63  92 125 159 207 263 307 369
#     4  11  22  41  66  93 125 170 213 253 316 385
#
# _framework density 18.941583000000001
#
# number of rings (size 3 to 8) (size 9 to 14) (size 15 to 20)
#    0.000    1.500    4.167    1.000    1.167    3.333 
#    1.500    0.833    0.000    0.000    0.000    0.000 
#    0.000    0.000    0.000    0.000    0.000    0.000 
#
# Total GULP energy -297363.981767 kJ/mol
# GULP energy per Si atom -12390.165907 kJ/mol
# Density = 1.889847 g / cm^3
# Si number density = 18.941583 Si / 1000 Ang^3
#
#
#
# Elastic Constant Matrix: (Units=GPa)
#
#
# Indices 1 2 3 4 5 6 
#
# 1 72.8947 36.0739 25.1027 0.0000 5.0241 0.0000
# 2 36.0739 135.0177 59.2377 0.0000 3.1438 0.0000
# 3 25.1027 59.2377 115.1957 0.0000 -10.6835 0.0000
# 4 0.0000 0.0000 0.0000 30.7647 0.0000 -0.9761
# 5 5.0241 3.1438 -10.6835 0.0000 35.7171 0.0000
# 6 0.0000 0.0000 0.0000 -0.9761 0.0000 23.0401
#
#
#
# Elastic Compliance Matrix: (Units=1/GPa)
#
#
# Indices 1 2 3 4 5 6 
#
# 1 0.016281 -0.003392 -0.002045 0.000000 -0.002603 0.000000
# 2 -0.003392 0.010472 -0.004821 0.000000 -0.001887 0.000000
# 3 -0.002045 -0.004821 0.012004 0.000000 0.004303 0.000000
# 4 0.000000 0.000000 0.000000 0.032549 0.000000 0.001379
# 5 -0.002603 -0.001887 0.004303 0.000000 0.029817 0.000000
# 6 0.000000 0.000000 0.000000 0.001379 0.000000 0.043461
#
#
# Mechanical properties :
#
#
# Convention : Reuss Voigt Hill
#
# Bulk Modulus (GPa) = 54.81983 62.65964 58.73974
# Shear Modulus (GPa) = 29.20913 31.41729 30.31321
#
# Velocity S-wave (km/s) = 3.93117 4.07706 4.00478
# Velocity P-wave (km/s) = 7.04343 7.43744 7.24311
#
# Compressibility (1/GPa) = 0.01824158
#
# Stress axis : x y z
#
# Youngs Moduli (GPa) = 61.42245 95.49561 83.30211
#
# Poissons Ratio (x) = 0.32393 0.17034
# Poissons Ratio (y) = 0.20835 0.40157
# Poissons Ratio (z) = 0.12560 0.46036
#
# Static dielectric constant tensor:
#      x y z
#    x 3.508220 0.000000 -0.089400 
#    y 0.000000 3.620630 0.000000 
#    z -0.089400 0.000000 3.416620 
# 
# 
# High freq. dielectric constant tensor:
#      x y z
#    x 1.735660 0.000000 -0.015970 
#    y 0.000000 1.745730 0.000000 
#    z -0.015970 0.000000 1.745620 
# 
# From -- ./inp_files/310215.got.cif
#   From: 2010.06.25/outbox.cif.g09.slc.cpg/sg12_156_cif.got.tgz:310215.got - 2010.06.28 00:19:55.
