data_PCOD8112460
_publ_section_title
;
Structure prediction by ZEFSAII (Michael W. Deem and Ramdas Pophale) SiO2 
 PCOD8112460
Probable space group: C 2/M
;
_chemical_formula_sum "Si O2"
_cell_formula_units_Z 52
_cell_length_a 8.863754
_cell_length_b 15.022288
_cell_length_c 31.259101
_cell_angle_alpha 90.000000
_cell_angle_beta 145.923669
_cell_angle_gamma 90.000000
_cell_volume 2332.106937
_symmetry_space_group_name_H-M "C 2/M"
_symmetry_group_IT_number 12
_symmetry_cell_setting 'monoclinic'
loop_
_space_group_symop_operation_xyz
x,y,z
-x,y,-z
-x,-y,-z
x,-y,z
1/2+x,1/2+y,z
1/2-x,1/2+y,-z
1/2-x,1/2-y,-z
1/2+x,1/2-y,z
loop_
_atom_site_type_symbol
_atom_site_label
_atom_site_fract_x
_atom_site_fract_y
_atom_site_fract_z
Si Si1 0.455584 0.000000 0.278049
Si Si2 0.788474 0.100216 0.987967
Si Si3 0.677935 0.279592 0.928687
Si Si4 0.094352 0.661773 0.473749
Si Si5 0.454034 0.500000 0.568635
Si Si6 0.172736 0.179674 0.233757
Si Si7 0.171754 0.000000 0.708636
Si Si8 0.540508 0.332497 0.298289
O O1 0.274225 0.917252 0.246678
O O2 0.537448 0.000000 0.246824
O O3 0.730855 0.000000 0.371015
O O4 0.589343 0.181633 0.926731
O O5 0.659556 0.000000 0.965350
O O6 0.917727 0.138814 0.062690
O O7 0.000000 0.087968 0.000000
O O8 0.543053 0.288417 0.851262
O O9 0.000000 0.284089 0.000000
O O10 0.250000 0.750000 0.500000
O O11 0.307708 0.584731 0.514724
O O12 0.000000 0.660655 0.500000
O O13 0.845713 0.649127 0.383502
O O14 0.436619 0.500000 0.616875
O O15 0.430142 0.244805 0.295815
O O16 0.022208 0.181305 0.243476
O O17 0.149981 0.914187 0.733381
#
# Coordination Sequence:
#
# PCOD8112460 Si02
#       8
#     4   8   8   8   4   8   4   8
#     4  10  23  48  68  99 141 185 234 287 358 410
#     4   9  20  42  71 101 129 169 235 276 340 421
#     4  10  24  45  69  99 138 180 227 293 341 410
#     4  12  22  40  69 100 135 182 234 286 340 410
#     4  10  22  44  74  97 135 184 236 293 337 408
#     4  12  27  45  68 102 149 184 230 295 353 427
#     4  10  22  49  70  97 134 184 237 288 343 426
#     4  12  25  43  68 104 140 187 228 285 360 418
#
# _framework density 22.297433000000002
#
# number of rings (size 3 to 8) (size 9 to 14) (size 15 to 20)
#    0.462    0.769    1.538    3.923    7.538    0.308 
#    1.385    1.154    0.000    0.000    0.000    0.000 
#    0.000    0.000    0.000    0.000    0.000    0.000 
#
# Total GULP energy -322285.269706 kJ/mol
# GULP energy per Si atom -12395.587296 kJ/mol
# Density = 2.224668 g / cm^3
# Si number density = 22.297433 Si / 1000 Ang^3
#
#
#
# Elastic Constant Matrix: (Units=GPa)
#
#
# Indices 1 2 3 4 5 6 
#
# 1 66.9241 30.3579 0.3539 -0.0176 -14.3090 -0.0078
# 2 30.3579 194.7359 15.1524 -0.0014 -2.6630 -0.0006
# 3 0.3539 15.1524 86.7828 -0.0567 -11.8860 -0.0250
# 4 -0.0176 -0.0014 -0.0567 591.3915 -0.0170 254.8279
# 5 -14.3090 -2.6630 -11.8860 -0.0170 36.4224 -0.0076
# 6 -0.0078 -0.0006 -0.0250 254.8279 -0.0076 154.1880
#
#
#
# Elastic Compliance Matrix: (Units=1/GPa)
#
#
# Indices 1 2 3 4 5 6 
#
# 1 0.017738 -0.002776 0.001402 0.000001 0.007223 0.000000
# 2 -0.002776 0.005640 -0.001116 0.000000 -0.001042 0.000000
# 3 0.001402 -0.001116 0.012327 0.000001 0.004492 0.000000
# 4 0.000001 0.000000 0.000001 0.005874 0.000001 -0.009708
# 5 0.007223 -0.001042 0.004492 0.000001 0.031683 0.000000
# 6 0.000000 0.000000 0.000000 -0.009708 0.000000 0.022531
#
#
# Mechanical properties :
#
#
# Convention : Reuss Voigt Hill
#
# Bulk Modulus (GPa) = 32.54600 48.90791 40.72696
# Shear Modulus (GPa) = 45.03829 176.57227 110.80528
#
# Velocity S-wave (km/s) = 4.49919 8.90850 7.05706
# Velocity P-wave (km/s) = 6.45122 11.30474 9.20368
#
# Compressibility (1/GPa) = 0.03072574
#
# Stress axis : x y z
#
# Youngs Moduli (GPa) = 56.37512 177.29079 81.11990
#
# Poissons Ratio (x) = 0.49208 -0.11370
# Poissons Ratio (y) = 0.15647 0.09055
# Poissons Ratio (z) = -0.07902 0.19790
#
# Static dielectric constant tensor:
#      x y z
#    x 4.028630 0.000000 -0.181700 
#    y 0.000000 4.433550 0.000000 
#    z -0.181700 0.000000 3.834600 
# 
# 
# High freq. dielectric constant tensor:
#      x y z
#    x 1.880600 0.000000 -0.010910 
#    y 0.000000 1.896500 0.000000 
#    z -0.010910 0.000000 1.862360 
# 
# From -- ./inp_files/372678.got.cif
#   From: 2010.06.25/outbox.cif.g09.slc.cpg/sg12_187_cif.got.tgz:372678.got - 2010.06.28 00:19:55.
