data_PCOD8112826
_publ_section_title
;
Structure prediction by ZEFSAII (Michael W. Deem and Ramdas Pophale) SiO2 
 PCOD8112826
Probable space group: C 2/M
;
_chemical_formula_sum "Si O2"
_cell_formula_units_Z 48
_cell_length_a 29.194667
_cell_length_b 8.979065
_cell_length_c 14.524896
_cell_angle_alpha 90.000000
_cell_angle_beta 38.462575
_cell_angle_gamma 90.000000
_cell_volume 2368.319934
_symmetry_space_group_name_H-M "C 2/M"
_symmetry_group_IT_number 12
_symmetry_cell_setting 'monoclinic'
loop_
_space_group_symop_operation_xyz
x,y,z
-x,y,-z
-x,-y,-z
x,-y,z
1/2+x,1/2+y,z
1/2-x,1/2+y,-z
1/2-x,1/2-y,-z
1/2+x,1/2-y,z
loop_
_atom_site_type_symbol
_atom_site_label
_atom_site_fract_x
_atom_site_fract_y
_atom_site_fract_z
Si Si1 0.656241 0.667949 0.903312
Si Si2 0.237168 0.668769 0.425525
Si Si3 0.509565 0.175758 0.090084
Si Si4 0.403491 0.670832 0.397329
Si Si5 0.723979 0.176739 0.134971
Si Si6 0.074119 0.828550 0.431333
O O1 0.631015 0.500000 0.967851
O O2 0.688382 0.672865 0.750046
O O3 0.717038 0.724250 0.880229
O O4 0.586015 0.774250 0.015580
O O5 0.211386 0.500000 0.484276
O O6 0.250000 0.750000 0.500000
O O7 0.175970 0.755574 0.464041
O O8 0.444445 0.244741 0.251634
O O9 0.504175 0.000000 0.104275
O O10 0.500000 0.231300 0.000000
O O11 0.394877 0.500000 0.381106
O O12 0.442994 0.687415 0.433292
O O13 0.643119 0.232231 0.289793
O O14 0.720596 0.000000 0.129631
O O15 0.750000 0.250000 0.000000
O O16 0.000000 0.769221 0.500000
O O17 0.090251 0.000000 0.379489
#
# Coordination Sequence:
#
# PCOD8112826 Si02
#       6
#     8   8   8   8   8   8
#     4  10  23  42  63  88 125 165 205 254 310 371
#     4  11  22  39  63  92 124 161 206 256 311 372
#     4  11  25  42  62  91 127 167 212 260 309 368
#     4  11  23  40  64  92 126 166 207 256 313 370
#     4  11  24  43  66  95 127 164 208 257 313 373
#     4  10  23  43  66  94 127 164 207 256 312 375
#
# _framework density 20.267531999999999
#
# number of rings (size 3 to 8) (size 9 to 14) (size 15 to 20)
#    0.000    1.333    1.667    3.000    2.333    7.667 
#    0.000    0.000    0.000    0.000    0.000    0.000 
#    0.000    0.000    0.000    0.000    0.000    0.000 
#
# Total GULP energy -297698.903436 kJ/mol
# GULP energy per Si atom -12404.120977 kJ/mol
# Density = 2.022140 g / cm^3
# Si number density = 20.267532 Si / 1000 Ang^3
#
#
#
# Elastic Constant Matrix: (Units=GPa)
#
#
# Indices 1 2 3 4 5 6 
#
# 1 100.2570 41.3315 22.1005 0.0000 -2.3041 0.0000
# 2 41.3315 90.2109 39.5616 0.0000 -0.2409 0.0000
# 3 22.1005 39.5616 90.5822 0.0000 3.6093 0.0000
# 4 0.0000 0.0000 0.0000 39.2057 0.0000 -4.7415
# 5 -2.3041 -0.2409 3.6093 0.0000 38.3075 0.0000
# 6 0.0000 0.0000 0.0000 -4.7415 0.0000 34.3792
#
#
#
# Elastic Compliance Matrix: (Units=1/GPa)
#
#
# Indices 1 2 3 4 5 6 
#
# 1 0.012353 -0.005346 -0.000710 0.000000 0.000776 0.000000
# 2 -0.005346 0.016041 -0.005714 0.000000 0.000318 0.000000
# 3 -0.000710 -0.005714 0.013763 0.000000 -0.001375 0.000000
# 4 0.000000 0.000000 0.000000 0.025939 0.000000 0.003577
# 5 0.000776 0.000318 -0.001375 0.000000 0.026283 0.000000
# 6 0.000000 0.000000 0.000000 0.003577 0.000000 0.029581
#
#
# Mechanical properties :
#
#
# Convention : Reuss Voigt Hill
#
# Bulk Modulus (GPa) = 53.71498 54.11525 53.91512
# Shear Modulus (GPa) = 32.52950 34.24890 33.38920
#
# Velocity S-wave (km/s) = 4.01060 4.11523 4.06325
# Velocity P-wave (km/s) = 6.92871 7.02414 6.97659
#
# Compressibility (1/GPa) = 0.01861678
#
# Stress axis : x y z
#
# Youngs Moduli (GPa) = 80.95405 62.33863 72.65641
#
# Poissons Ratio (x) = 0.33328 0.05157
# Poissons Ratio (y) = 0.43280 0.41518
# Poissons Ratio (z) = 0.05746 0.35622
#
# Static dielectric constant tensor:
#      x y z
#    x 3.903690 0.000000 -0.038870 
#    y 0.000000 3.790920 0.000000 
#    z -0.038870 0.000000 3.675840 
# 
# 
# High freq. dielectric constant tensor:
#      x y z
#    x 1.804250 0.000000 0.003010 
#    y 0.000000 1.797290 0.000000 
#    z 0.003010 0.000000 1.797270 
# 
# From -- ./inp_files/248809.got.cif
#   From: 2010.06.25/outbox.cif.g09.slc.cpg/sg12_125_cif.got.tgz:248809.got - 2010.06.28 00:19:55.
