data_PCOD8112444
_publ_section_title
;
Structure prediction by ZEFSAII (Michael W. Deem and Ramdas Pophale) SiO2 
 PCOD8112444
Probable space group: C 2/M
;
_chemical_formula_sum "Si O2"
_cell_formula_units_Z 64
_cell_length_a 17.243270
_cell_length_b 26.037577
_cell_length_c 11.618400
_cell_angle_alpha 90.000000
_cell_angle_beta 145.420685
_cell_angle_gamma 90.000000
_cell_volume 2960.519999
_symmetry_space_group_name_H-M "C 2/M"
_symmetry_group_IT_number 12
_symmetry_cell_setting 'monoclinic'
loop_
_space_group_symop_operation_xyz
x,y,z
-x,y,-z
-x,-y,-z
x,-y,z
1/2+x,1/2+y,z
1/2-x,1/2+y,-z
1/2-x,1/2-y,-z
1/2+x,1/2-y,z
loop_
_atom_site_type_symbol
_atom_site_label
_atom_site_fract_x
_atom_site_fract_y
_atom_site_fract_z
Si Si1 0.730112 0.130230 0.867852
Si Si2 0.946673 0.559085 0.213683
Si Si3 0.736172 0.938755 0.463895
Si Si4 0.103564 0.764662 0.364428
Si Si5 0.664651 0.799534 0.003664
Si Si6 0.522203 0.372816 0.160226
Si Si7 0.850908 0.722577 0.341780
Si Si8 0.146012 0.603772 0.124496
O O1 0.615065 0.086360 0.746612
O O2 0.721833 0.165967 0.740770
O O3 0.702806 0.170169 0.936759
O O4 0.882404 0.106604 0.050146
O O5 0.951169 0.500000 0.250424
O O6 0.098497 0.579061 0.364015
O O7 0.844646 0.569848 0.981240
O O8 0.865104 0.917360 0.691597
O O9 0.748959 0.915748 0.349694
O O10 0.742182 0.000000 0.464668
O O11 0.250000 0.750000 0.500000
O O12 0.066378 0.821557 0.280346
O O13 0.135123 0.761410 0.536891
O O14 0.987537 0.724310 0.184451
O O15 0.777900 0.755284 0.152600
O O16 0.670784 0.836880 0.122538
O O17 0.500000 0.359926 0.000000
O O18 0.000000 0.703007 0.500000
O O19 0.000000 0.593971 0.000000
#
# Coordination Sequence:
#
# PCOD8112444 Si02
#       8
#     8   8   8   8   8   8   8   8
#     4  11  23  43  64  93 135 171 221 269 331 398
#     4   9  20  40  70 100 128 167 222 278 335 396
#     4  10  22  44  70 100 132 172 224 280 340 395
#     4  12  27  40  65  96 134 182 226 270 325 401
#     4  11  23  40  61  99 136 176 221 267 327 397
#     4  12  27  45  65  96 135 174 224 278 332 398
#     4  12  23  40  63  86 128 179 218 265 329 382
#     4   9  19  35  65 100 134 165 212 273 328 387
#
# _framework density 21.617823999999999
#
# number of rings (size 3 to 8) (size 9 to 14) (size 15 to 20)
#    0.000    1.250    2.500    3.000    7.000    3.250 
#    0.000    1.875    0.000    5.625    0.000    0.000 
#    0.000    0.000    0.000    0.000    0.000    0.000 
#
# Total GULP energy -396441.695866 kJ/mol
# GULP energy per Si atom -12388.802996 kJ/mol
# Density = 2.156862 g / cm^3
# Si number density = 21.617824 Si / 1000 Ang^3
#
#
#
# Elastic Constant Matrix: (Units=GPa)
#
#
# Indices 1 2 3 4 5 6 
#
# 1 69.5324 35.3412 39.4497 0.0000 16.8766 0.0000
# 2 35.3412 100.4810 44.0534 0.0000 5.1185 0.0000
# 3 39.4497 44.0534 112.6341 0.0000 15.7450 0.0000
# 4 0.0000 0.0000 0.0000 36.5171 0.0000 -0.3841
# 5 16.8766 5.1185 15.7450 0.0000 39.3525 0.0000
# 6 0.0000 0.0000 0.0000 -0.3841 0.0000 34.6536
#
#
#
# Elastic Compliance Matrix: (Units=1/GPa)
#
#
# Indices 1 2 3 4 5 6 
#
# 1 0.021131 -0.005137 -0.004469 0.000000 -0.006606 0.000000
# 2 -0.005137 0.013265 -0.003660 0.000000 0.001942 0.000000
# 3 -0.004469 -0.003660 0.012224 0.000000 -0.002498 0.000000
# 4 0.000000 0.000000 0.000000 0.027388 0.000000 0.000304
# 5 -0.006606 0.001942 -0.002498 0.000000 0.028992 0.000000
# 6 0.000000 0.000000 0.000000 0.000304 0.000000 0.028860
#
#
# Mechanical properties :
#
#
# Convention : Reuss Voigt Hill
#
# Bulk Modulus (GPa) = 49.77878 57.81512 53.79695
# Shear Modulus (GPa) = 30.28691 33.02484 31.65587
#
# Velocity S-wave (km/s) = 3.74707 3.91278 3.83082
# Velocity P-wave (km/s) = 6.46510 6.87134 6.67131
#
# Compressibility (1/GPa) = 0.02008888
#
# Stress axis : x y z
#
# Youngs Moduli (GPa) = 47.32308 75.38806 81.80367
#
# Poissons Ratio (x) = 0.38724 0.36555
# Poissons Ratio (y) = 0.24308 0.29944
# Poissons Ratio (z) = 0.21147 0.27596
#
# Static dielectric constant tensor:
#      x y z
#    x 4.046700 0.000000 -0.015420 
#    y 0.000000 3.897920 0.000000 
#    z -0.015420 0.000000 4.148180 
# 
# 
# High freq. dielectric constant tensor:
#      x y z
#    x 1.847760 0.000000 0.000500 
#    y 0.000000 1.846260 0.000000 
#    z 0.000500 0.000000 1.850760 
# 
# From -- ./inp_files/161257.got.cif
#   From: 2010.06.25/outbox.cif.g09.slc.cpg/sg12_81_cif.got.tgz:161257.got - 2010.06.28 00:19:55.
