data_PCOD8112229
_publ_section_title
;
Structure prediction by ZEFSAII (Michael W. Deem and Ramdas Pophale) SiO2 
 PCOD8112229
Probable space group: C 2/M
;
_chemical_formula_sum "Si O2"
_cell_formula_units_Z 28
_cell_length_a 10.760933
_cell_length_b 9.647502
_cell_length_c 15.381375
_cell_angle_alpha 90.000000
_cell_angle_beta 55.508292
_cell_angle_gamma 90.000000
_cell_volume 1316.124188
_symmetry_space_group_name_H-M "C 2/M"
_symmetry_group_IT_number 12
_symmetry_cell_setting 'monoclinic'
loop_
_space_group_symop_operation_xyz
x,y,z
-x,y,-z
-x,-y,-z
x,-y,z
1/2+x,1/2+y,z
1/2-x,1/2+y,-z
1/2-x,1/2-y,-z
1/2+x,1/2-y,z
loop_
_atom_site_type_symbol
_atom_site_label
_atom_site_fract_x
_atom_site_fract_y
_atom_site_fract_z
Si Si1 0.128566 0.208471 0.792562
Si Si2 0.322628 0.500000 0.088425
Si Si3 0.171671 0.662060 0.454357
Si Si4 0.398376 0.000000 0.124790
Si Si5 0.867985 0.000000 0.886017
O O1 0.233849 0.190375 0.668846
O O2 0.079611 0.366286 0.824706
O O3 0.215968 0.138787 0.840873
O O4 0.969566 0.135574 0.842010
O O5 0.500000 0.500000 0.000000
O O6 0.255024 0.500000 0.017062
O O7 0.175968 0.500000 0.478837
O O8 0.250000 0.750000 0.500000
O O9 0.000000 0.708673 0.500000
O O10 0.225785 0.000000 0.163970
O O11 0.500000 0.000000 0.000000
#
# Coordination Sequence:
#
# PCOD8112229 Si02
#       5
#     8   4   8   4   4
#     4  10  22  42  66  95 133 173 218 274 341 392
#     4   8  16  38  65  86 125 173 205 260 334 388
#     4  11  26  47  72 103 135 177 233 284 340 408
#     4  12  26  40  63 106 129 169 234 264 325 417
#     4  10  22  44  67  87 136 178 209 282 338 392
#
# _framework density 21.274588999999999
#
# number of rings (size 3 to 8) (size 9 to 14) (size 15 to 20)
#    0.000    2.000    2.857    2.571    6.000    5.143 
#    0.000    1.429    0.000    0.000    0.000    0.000 
#    0.000    0.000    0.000    0.000    0.000    0.000 
#
# Total GULP energy -173508.569961 kJ/mol
# GULP energy per Si atom -12393.469283 kJ/mol
# Density = 2.122617 g / cm^3
# Si number density = 21.274589 Si / 1000 Ang^3
#
#
#
# Elastic Constant Matrix: (Units=GPa)
#
#
# Indices 1 2 3 4 5 6 
#
# 1 108.2340 54.5687 40.3047 0.0000 6.9279 0.0000
# 2 54.5687 179.3787 48.9770 0.0000 1.6274 0.0000
# 3 40.3047 48.9770 157.9107 0.0000 6.5746 0.0000
# 4 0.0000 0.0000 0.0000 26.3579 0.0000 -7.9795
# 5 6.9279 1.6274 6.5746 0.0000 15.4234 0.0000
# 6 0.0000 0.0000 0.0000 -7.9795 0.0000 15.1716
#
#
#
# Elastic Compliance Matrix: (Units=1/GPa)
#
#
# Indices 1 2 3 4 5 6 
#
# 1 0.011727 -0.003015 -0.001885 0.000000 -0.004146 0.000000
# 2 -0.003015 0.006866 -0.001411 0.000000 0.001231 0.000000
# 3 -0.001885 -0.001411 0.007340 0.000000 -0.002133 0.000000
# 4 0.000000 0.000000 0.000000 0.045124 0.000000 0.023733
# 5 -0.004146 0.001231 -0.002133 0.000000 0.067478 0.000000
# 6 0.000000 0.000000 0.000000 0.023733 0.000000 0.078395
#
#
# Mechanical properties :
#
#
# Convention : Reuss Voigt Hill
#
# Bulk Modulus (GPa) = 75.13151 81.46934 78.30042
# Shear Modulus (GPa) = 21.36837 31.50211 26.43524
#
# Velocity S-wave (km/s) = 3.17268 3.85221 3.52884
# Velocity P-wave (km/s) = 6.98663 7.62649 7.31356
#
# Compressibility (1/GPa) = 0.01331000
#
# Stress axis : x y z
#
# Youngs Moduli (GPa) = 85.27497 145.64186 136.23124
#
# Poissons Ratio (x) = 0.43911 0.25685
# Poissons Ratio (y) = 0.25710 0.19226
# Poissons Ratio (z) = 0.16078 0.20555
#
# Static dielectric constant tensor:
#      x y z
#    x 4.368080 0.000000 0.665920 
#    y 0.000000 4.062410 0.000000 
#    z 0.665920 0.000000 4.754620 
# 
# 
# High freq. dielectric constant tensor:
#      x y z
#    x 1.825690 0.000000 0.001470 
#    y 0.000000 1.840950 0.000000 
#    z 0.001470 0.000000 1.843040 
# 
# From -- ./inp_files/202036.got.cif
#   From: 2010.06.25/outbox.cif.g09.slc.cpg/sg12_102_cif.got.tgz:202036.got - 2010.06.28 00:19:55.
