data_PCOD8112054
_publ_section_title
;
Structure prediction by ZEFSAII (Michael W. Deem and Ramdas Pophale) SiO2 
 PCOD8112054
Probable space group: C 2/M
;
_chemical_formula_sum "Si O2"
_cell_formula_units_Z 32
_cell_length_a 14.072501
_cell_length_b 18.494408
_cell_length_c 8.415120
_cell_angle_alpha 90.000000
_cell_angle_beta 142.089728
_cell_angle_gamma 90.000000
_cell_volume 1345.680891
_symmetry_space_group_name_H-M "C 2/M"
_symmetry_group_IT_number 12
_symmetry_cell_setting 'monoclinic'
loop_
_space_group_symop_operation_xyz
x,y,z
-x,y,-z
-x,-y,-z
x,-y,z
1/2+x,1/2+y,z
1/2-x,1/2+y,-z
1/2-x,1/2-y,-z
1/2+x,1/2-y,z
loop_
_atom_site_type_symbol
_atom_site_label
_atom_site_fract_x
_atom_site_fract_y
_atom_site_fract_z
Si Si1 0.713987 0.582049 0.451907
Si Si2 0.412616 0.582030 0.230172
Si Si3 0.820506 0.714645 0.749571
Si Si4 0.182680 0.338908 0.729228
O O1 0.774512 0.500000 0.546896
O O2 0.528630 0.585272 0.232044
O O3 0.791689 0.628519 0.698889
O O4 0.758746 0.613112 0.340491
O O5 0.500000 0.613886 0.500000
O O6 0.359564 0.500000 0.195236
O O7 0.260179 0.629099 0.991096
O O8 0.750000 0.750000 0.500000
O O9 0.734188 0.754819 0.781552
O O10 0.000000 0.732190 0.000000
O O11 0.000000 0.344483 0.500000
#
# Coordination Sequence:
#
# PCOD8112054 Si02
#       4
#     8   8   8   8
#     4  10  22  42  68  97 132 174 220 272 331 393
#     4  10  22  41  66  98 136 175 217 269 332 400
#     4  10  22  42  65  92 128 172 220 268 322 386
#     4  11  23  41  68 100 135 174 219 271 328 396
#
# _framework density 23.779782999999998
#
# number of rings (size 3 to 8) (size 9 to 14) (size 15 to 20)
#    0.000    1.750    0.000    4.500    0.000    9.500 
#    0.000   10.000    0.000    0.000    0.000    0.000 
#    0.000    1.000    0.000    0.000    0.000    0.000 
#
# Total GULP energy -198366.817431 kJ/mol
# GULP energy per Si atom -12397.926089 kJ/mol
# Density = 2.372566 g / cm^3
# Si number density = 23.779783 Si / 1000 Ang^3
#
#
#
# Elastic Constant Matrix: (Units=GPa)
#
#
# Indices 1 2 3 4 5 6 
#
# 1 68.2418 24.6064 40.5142 0.0000 17.5567 0.0000
# 2 24.6064 160.6107 70.4838 0.0000 -1.0924 0.0000
# 3 40.5142 70.4838 186.5727 0.0000 20.9393 0.0000
# 4 0.0000 0.0000 0.0000 28.4726 0.0000 -4.8436
# 5 17.5567 -1.0924 20.9393 0.0000 38.8272 0.0000
# 6 0.0000 0.0000 0.0000 -4.8436 0.0000 22.6260
#
#
#
# Elastic Compliance Matrix: (Units=1/GPa)
#
#
# Indices 1 2 3 4 5 6 
#
# 1 0.018651 -0.001771 -0.002585 0.000000 -0.007089 0.000000
# 2 -0.001771 0.007758 -0.002832 0.000000 0.002546 0.000000
# 3 -0.002585 -0.002832 0.007311 0.000000 -0.002854 0.000000
# 4 0.000000 0.000000 0.000000 0.036449 0.000000 0.007803
# 5 -0.007089 0.002546 -0.002854 0.000000 0.030571 0.000000
# 6 0.000000 0.000000 0.000000 0.007803 0.000000 0.045867
#
#
# Mechanical properties :
#
#
# Convention : Reuss Voigt Hill
#
# Bulk Modulus (GPa) = 51.69711 76.29266 63.99488
# Shear Modulus (GPa) = 29.86285 36.63987 33.25136
#
# Velocity S-wave (km/s) = 3.54758 3.92956 3.74345
# Velocity P-wave (km/s) = 6.21028 7.26232 6.75680
#
# Compressibility (1/GPa) = 0.01934344
#
# Stress axis : x y z
#
# Youngs Moduli (GPa) = 53.61601 128.90472 136.77346
#
# Poissons Ratio (x) = 0.22830 0.35361
# Poissons Ratio (y) = 0.09496 0.38733
# Poissons Ratio (z) = 0.13862 0.36504
#
# Static dielectric constant tensor:
#      x y z
#    x 4.156320 0.000000 -0.104890 
#    y 0.000000 4.899490 0.000000 
#    z -0.104890 0.000000 4.240730 
# 
# 
# High freq. dielectric constant tensor:
#      x y z
#    x 1.935160 0.000000 -0.004520 
#    y 0.000000 1.954410 0.000000 
#    z -0.004520 0.000000 1.936230 
# 
# From -- ./inp_files/63020.got.cif
#   From: 2010.06.25/outbox.cif.g09.slc.cpg/sg12_32_cif.got.tgz:63020.got - 2010.06.28 00:19:55.
