data_PCOD8112532
_publ_section_title
;
Structure prediction by ZEFSAII (Michael W. Deem and Ramdas Pophale) SiO2 
 PCOD8112532
Probable space group: C 2/M
;
_chemical_formula_sum "Si O2"
_cell_formula_units_Z 48
_cell_length_a 13.924888
_cell_length_b 18.455049
_cell_length_c 17.218750
_cell_angle_alpha 90.000000
_cell_angle_beta 148.192462
_cell_angle_gamma 90.000000
_cell_volume 2332.248693
_symmetry_space_group_name_H-M "C 2/M"
_symmetry_group_IT_number 12
_symmetry_cell_setting 'monoclinic'
loop_
_space_group_symop_operation_xyz
x,y,z
-x,y,-z
-x,-y,-z
x,-y,z
1/2+x,1/2+y,z
1/2-x,1/2+y,-z
1/2-x,1/2-y,-z
1/2+x,1/2-y,z
loop_
_atom_site_type_symbol
_atom_site_label
_atom_site_fract_x
_atom_site_fract_y
_atom_site_fract_z
Si Si1 0.709571 0.716795 0.162069
Si Si2 0.452486 0.581703 0.670676
Si Si3 0.889167 0.305529 0.131703
Si Si4 0.518052 0.304694 0.427197
Si Si5 0.705056 0.694651 0.333621
Si Si6 0.118859 0.418166 0.009060
O O1 0.803857 0.670376 0.156938
O O2 0.723101 0.678001 0.254618
O O3 0.823526 0.791717 0.250181
O O4 0.500000 0.735607 0.000000
O O5 0.380136 0.500000 0.609629
O O6 0.379474 0.633122 0.550810
O O7 0.359984 0.616306 0.682766
O O8 0.668940 0.583181 0.824888
O O9 0.920673 0.372856 0.096268
O O10 0.074675 0.261228 0.268313
O O11 0.750000 0.250000 0.000000
O O12 0.500000 0.338963 0.500000
O O13 0.611069 0.224781 0.499499
O O14 0.055960 0.500000 0.947363
O O15 0.000000 0.388168 0.000000
#
# Coordination Sequence:
#
# PCOD8112532 Si02
#       6
#     8   8   8   8   8   8
#     4  11  21  36  61  94 118 152 200 251 292 345
#     4  11  22  39  60  85 122 165 198 237 305 363
#     4  12  21  33  63  90 117 157 206 242 290 348
#     4  10  23  38  60  90 120 154 197 255 299 347
#     4  11  23  39  60  89 123 154 203 252 294 348
#     4  10  23  39  58  90 129 160 195 246 301 354
#
# _framework density 20.580995000000001
#
# number of rings (size 3 to 8) (size 9 to 14) (size 15 to 20)
#    0.000    1.167    5.000    0.500    7.000    0.333 
#    0.000    1.667    0.000    7.500    0.000    0.000 
#    0.000    0.000    0.000    0.000    0.000    0.000 
#
# Total GULP energy -297357.676396 kJ/mol
# GULP energy per Si atom -12389.903183 kJ/mol
# Density = 2.053415 g / cm^3
# Si number density = 20.580995 Si / 1000 Ang^3
#
#
#
# Elastic Constant Matrix: (Units=GPa)
#
#
# Indices 1 2 3 4 5 6 
#
# 1 191.3147 68.5551 34.2782 0.0021 -22.9076 -0.0015
# 2 68.5551 120.8847 31.4262 0.0232 -13.4595 0.0046
# 3 34.2782 31.4262 74.9892 0.0609 -6.0184 0.0120
# 4 0.0021 0.0232 0.0609 16.7147 0.0183 -4.8416
# 5 -22.9076 -13.4595 -6.0184 0.0183 29.6284 0.0004
# 6 -0.0015 0.0046 0.0120 -4.8416 0.0004 30.5726
#
#
#
# Elastic Compliance Matrix: (Units=1/GPa)
#
#
# Indices 1 2 3 4 5 6 
#
# 1 0.007106 -0.003198 -0.001610 0.000006 0.003714 0.000002
# 2 -0.003198 0.011091 -0.003030 -0.000007 0.001950 -0.000002
# 3 -0.001610 -0.003030 0.015381 -0.000056 0.000503 -0.000015
# 4 0.000006 -0.000007 -0.000056 0.062704 -0.000049 0.009930
# 5 0.003714 0.001950 0.000503 -0.000049 0.037612 -0.000009
# 6 0.000002 -0.000002 -0.000015 0.009930 -0.000009 0.034282
#
#
# Mechanical properties :
#
#
# Convention : Reuss Voigt Hill
#
# Bulk Modulus (GPa) = 55.85581 72.85641 64.35611
# Shear Modulus (GPa) = 26.34102 32.24506 29.29304
#
# Velocity S-wave (km/s) = 3.58141 3.96250 3.77676
# Velocity P-wave (km/s) = 6.65586 7.51079 7.09621
#
# Compressibility (1/GPa) = 0.01790324
#
# Stress axis : x y z
#
# Youngs Moduli (GPa) = 140.72368 90.16624 65.01412
#
# Poissons Ratio (x) = 0.28834 0.10467
# Poissons Ratio (y) = 0.45001 0.19696
# Poissons Ratio (z) = 0.22657 0.27316
#
# Static dielectric constant tensor:
#      x y z
#    x 4.331550 -0.000080 -0.103930 
#    y -0.000080 3.563600 -0.000120 
#    z -0.103930 -0.000120 3.466450 
# 
# 
# High freq. dielectric constant tensor:
#      x y z
#    x 1.829370 0.000000 0.000070 
#    y 0.000000 1.763010 0.000000 
#    z 0.000070 0.000000 1.805950 
# 
# From -- ./inp_files/271790.got.cif
#   From: 2010.06.25/outbox.cif.g09.slc.cpg/sg12_136_cif.got.tgz:271790.got - 2010.06.28 00:19:55.
