data_PCOD8112812
_publ_section_title
;
Structure prediction by ZEFSAII (Michael W. Deem and Ramdas Pophale) SiO2 
 PCOD8112812
Probable space group: C 2/M
;
_chemical_formula_sum "Si O2"
_cell_formula_units_Z 56
_cell_length_a 8.885478
_cell_length_b 18.942166
_cell_length_c 17.336705
_cell_angle_alpha 90.000000
_cell_angle_beta 65.546903
_cell_angle_gamma 90.000000
_cell_volume 2656.205952
_symmetry_space_group_name_H-M "C 2/M"
_symmetry_group_IT_number 12
_symmetry_cell_setting 'monoclinic'
loop_
_space_group_symop_operation_xyz
x,y,z
-x,y,-z
-x,-y,-z
x,-y,z
1/2+x,1/2+y,z
1/2-x,1/2+y,-z
1/2-x,1/2-y,-z
1/2+x,1/2-y,z
loop_
_atom_site_type_symbol
_atom_site_label
_atom_site_fract_x
_atom_site_fract_y
_atom_site_fract_z
Si Si1 0.584407 0.918696 0.698339
Si Si2 0.149330 0.663977 0.136391
Si Si3 0.466570 0.581107 0.593913
Si Si4 0.883299 0.197180 0.339905
Si Si5 0.843429 0.078336 0.978725
Si Si6 0.492713 0.694803 0.149629
Si Si7 0.517148 0.822805 0.405583
O O1 0.490960 0.869391 0.779174
O O2 0.780145 0.905483 0.661739
O O3 0.527428 0.897479 0.624209
O O4 0.537785 0.000000 0.722533
O O5 0.311924 0.685078 0.150899
O O6 0.074234 0.731154 0.106563
O O7 0.191019 0.607723 0.061042
O O8 0.500000 0.607418 0.500000
O O9 0.517351 0.500000 0.591084
O O10 0.589737 0.624140 0.621587
O O11 0.999705 0.199612 0.240803
O O12 0.700555 0.199889 0.344839
O O13 0.901535 0.262426 0.394222
O O14 0.886975 0.130278 0.899025
O O15 0.798525 0.000000 0.956394
O O16 0.000000 0.073118 0.000000
O O17 0.500000 0.830316 0.500000
#
# Coordination Sequence:
#
# PCOD8112812 Si02
#       7
#     8   8   8   8   8   8   8
#     4  11  23  40  63  88 122 165 209 258 313 368
#     4  11  22  41  63  95 123 164 204 252 305 367
#     4  10  23  42  62  86 121 166 209 254 315 373
#     4  12  22  39  60  92 121 161 205 256 303 366
#     4   9  20  39  64  93 125 160 200 249 304 363
#     4  11  22  38  65  91 123 161 206 249 303 365
#     4  12  24  39  61  89 123 162 207 259 308 360
#
# _framework density 21.082702999999999
#
# number of rings (size 3 to 8) (size 9 to 14) (size 15 to 20)
#    0.000    1.143    2.857    3.429    2.000    2.000 
#    0.000    0.000    0.000    0.857    0.000    0.000 
#    0.000    0.000    0.000    0.000    0.000    0.000 
#
# Total GULP energy -347234.555428 kJ/mol
# GULP energy per Si atom -12401.234122 kJ/mol
# Density = 2.103472 g / cm^3
# Si number density = 21.082703 Si / 1000 Ang^3
#
#
#
# Elastic Constant Matrix: (Units=GPa)
#
#
# Indices 1 2 3 4 5 6 
#
# 1 50.0191 30.7470 -3.1997 0.0000 -3.9008 0.0000
# 2 30.7470 141.8844 34.8402 0.0000 -8.5324 0.0000
# 3 -3.1997 34.8402 84.4987 0.0000 -16.2014 0.0000
# 4 0.0000 0.0000 0.0000 38.6570 0.0000 5.6067
# 5 -3.9008 -8.5324 -16.2014 0.0000 23.0012 0.0000
# 6 0.0000 0.0000 0.0000 5.6067 0.0000 29.0484
#
#
#
# Elastic Compliance Matrix: (Units=1/GPa)
#
#
# Indices 1 2 3 4 5 6 
#
# 1 0.024385 -0.006060 0.004375 0.000000 0.004969 0.000000
# 2 -0.006060 0.009358 -0.004185 0.000000 -0.000504 0.000000
# 3 0.004375 -0.004185 0.015689 0.000000 0.010240 0.000000
# 4 0.000000 0.000000 0.000000 0.026614 0.000000 -0.005137
# 5 0.004969 -0.000504 0.010240 0.000000 0.051345 0.000000
# 6 0.000000 0.000000 0.000000 -0.005137 0.000000 0.035417
#
#
# Mechanical properties :
#
#
# Convention : Reuss Voigt Hill
#
# Bulk Modulus (GPa) = 26.53041 44.57524 35.55283
# Shear Modulus (GPa) = 26.72211 32.40897 29.56554
#
# Velocity S-wave (km/s) = 3.56404 3.92501 3.74887
# Velocity P-wave (km/s) = 5.43579 6.45986 5.96983
#
# Compressibility (1/GPa) = 0.03769259
#
# Stress axis : x y z
#
# Youngs Moduli (GPa) = 41.00948 106.85567 63.73879
#
# Poissons Ratio (x) = 0.64751 -0.27883
# Poissons Ratio (y) = 0.24850 0.26673
# Poissons Ratio (z) = -0.17940 0.44716
#
# Static dielectric constant tensor:
#      x y z
#    x 3.694710 0.000000 -0.193820 
#    y 0.000000 4.067340 0.000000 
#    z -0.193820 0.000000 3.870190 
# 
# 
# High freq. dielectric constant tensor:
#      x y z
#    x 1.814810 0.000000 -0.013960 
#    y 0.000000 1.836810 0.000000 
#    z -0.013960 0.000000 1.834250 
# 
# From -- ./inp_files/257017.got.cif
#   From: 2010.06.25/outbox.cif.g09.slc.cpg/sg12_129_cif.got.tgz:257017.got - 2010.06.28 00:19:55.
