data_PCOD8112009
_publ_section_title
;
Structure prediction by ZEFSAII (Michael W. Deem and Ramdas Pophale) SiO2 
 PCOD8112009
Probable space group: C 2/M
;
_chemical_formula_sum "Si O2"
_cell_formula_units_Z 48
_cell_length_a 9.740739
_cell_length_b 26.706351
_cell_length_c 16.057584
_cell_angle_alpha 90.000000
_cell_angle_beta 148.236375
_cell_angle_gamma 90.000000
_cell_volume 2198.952482
_symmetry_space_group_name_H-M "C 2/M"
_symmetry_group_IT_number 12
_symmetry_cell_setting 'monoclinic'
loop_
_space_group_symop_operation_xyz
x,y,z
-x,y,-z
-x,-y,-z
x,-y,z
1/2+x,1/2+y,z
1/2-x,1/2+y,-z
1/2-x,1/2-y,-z
1/2+x,1/2-y,z
loop_
_atom_site_type_symbol
_atom_site_label
_atom_site_fract_x
_atom_site_fract_y
_atom_site_fract_z
Si Si1 0.549548 0.056107 0.432048
Si Si2 0.596630 0.555033 0.639658
Si Si3 0.302078 0.318868 0.673561
Si Si4 0.759666 0.862539 0.826320
Si Si5 0.533590 0.779484 0.834223
Si Si6 0.224474 0.646392 0.182422
O O1 0.500000 0.076980 0.500000
O O2 0.431974 0.093001 0.301261
O O3 0.857302 0.052986 0.579728
O O4 0.428209 0.000000 0.359758
O O5 0.500000 0.572255 0.500000
O O6 0.730916 0.500000 0.704046
O O7 0.802778 0.595943 0.777107
O O8 0.372001 0.334242 0.803651
O O9 0.373270 0.260736 0.697472
O O10 0.484268 0.350757 0.705254
O O11 0.000000 0.329229 0.500000
O O12 0.635067 0.820895 0.822188
O O13 0.000000 0.887497 0.000000
O O14 0.327249 0.804715 0.789669
O O15 0.750000 0.750000 0.000000
O O16 0.000000 0.642513 0.000000
#
# Coordination Sequence:
#
# PCOD8112009 Si02
#       6
#     8   8   8   8   8   8
#     4  10  22  42  67  96 135 176 218 278 342 399
#     4  10  22  41  65  95 131 169 216 275 333 394
#     4  12  27  43  66  99 133 175 231 280 330 398
#     4  12  23  40  68  95 134 178 224 283 330 407
#     4  12  25  44  64  94 134 178 222 276 345 386
#     4  12  24  42  70  95 132 177 219 275 332 402
#
# _framework density 21.828576000000002
#
# number of rings (size 3 to 8) (size 9 to 14) (size 15 to 20)
#    0.000    0.667    3.333    4.500    0.000    5.333 
#    0.000    0.000    0.000   10.000    0.000    0.000 
#    0.000    0.000    0.000    0.000    0.000    0.000 
#
# Total GULP energy -297585.698112 kJ/mol
# GULP energy per Si atom -12399.404088 kJ/mol
# Density = 2.177889 g / cm^3
# Si number density = 21.828576 Si / 1000 Ang^3
#
#
#
# Elastic Constant Matrix: (Units=GPa)
#
#
# Indices 1 2 3 4 5 6 
#
# 1 105.1778 23.2877 22.3835 0.0001 -6.9528 0.0000
# 2 23.2877 145.3715 54.1050 -0.0001 -11.3111 0.0000
# 3 22.3835 54.1050 78.5705 -0.0003 -5.9755 0.0000
# 4 0.0001 -0.0001 -0.0003 11.9990 0.0000 -9.0609
# 5 -6.9528 -11.3111 -5.9755 0.0000 34.7692 0.0000
# 6 0.0000 0.0000 0.0000 -9.0609 0.0000 35.6905
#
#
#
# Elastic Compliance Matrix: (Units=1/GPa)
#
#
# Indices 1 2 3 4 5 6 
#
# 1 0.010249 -0.000651 -0.002363 0.000000 0.001432 0.000000
# 2 -0.000651 0.009422 -0.006160 0.000000 0.001876 0.000000
# 3 -0.002363 -0.006160 0.017685 0.000001 0.000563 0.000000
# 4 0.000000 0.000000 0.000001 0.103107 0.000000 0.026176
# 5 0.001432 0.001876 0.000563 0.000000 0.029755 0.000000
# 6 0.000000 0.000000 0.000000 0.026176 0.000000 0.034664
#
#
# Mechanical properties :
#
#
# Convention : Reuss Voigt Hill
#
# Bulk Modulus (GPa) = 52.60652 58.74137 55.67394
# Shear Modulus (GPa) = 21.78030 31.78132 26.78081
#
# Velocity S-wave (km/s) = 3.16221 3.81983 3.50647
# Velocity P-wave (km/s) = 6.12249 6.81348 6.47721
#
# Compressibility (1/GPa) = 0.01900905
#
# Stress axis : x y z
#
# Youngs Moduli (GPa) = 97.56741 106.13663 56.54490
#
# Poissons Ratio (x) = 0.06911 0.13359
# Poissons Ratio (y) = 0.06353 0.34831
# Poissons Ratio (z) = 0.23051 0.65378
#
# Static dielectric constant tensor:
#      x y z
#    x 7.135020 0.000000 0.036530 
#    y 0.000000 4.362480 0.000000 
#    z 0.036530 0.000000 3.789390 
# 
# 
# High freq. dielectric constant tensor:
#      x y z
#    x 1.871270 0.000000 -0.008820 
#    y 0.000000 1.878010 0.000000 
#    z -0.008820 0.000000 1.838500 
# 
# From -- ./inp_files/200235.got.cif
#   From: 2010.06.25/outbox.cif.g09.slc.cpg/sg12_101_cif.got.tgz:200235.got - 2010.06.28 00:19:55.
