data_PCOD8112946
_publ_section_title
;
Structure prediction by ZEFSAII (Michael W. Deem and Ramdas Pophale) SiO2 
 PCOD8112946
Probable space group: C 2/M
;
_chemical_formula_sum "Si O2"
_cell_formula_units_Z 44
_cell_length_a 13.067094
_cell_length_b 20.895628
_cell_length_c 14.780480
_cell_angle_alpha 90.000000
_cell_angle_beta 30.911972
_cell_angle_gamma 90.000000
_cell_volume 2073.241564
_symmetry_space_group_name_H-M "C 2/M"
_symmetry_group_IT_number 12
_symmetry_cell_setting 'monoclinic'
loop_
_space_group_symop_operation_xyz
x,y,z
-x,y,-z
-x,-y,-z
x,-y,z
1/2+x,1/2+y,z
1/2-x,1/2+y,-z
1/2-x,1/2-y,-z
1/2+x,1/2-y,z
loop_
_atom_site_type_symbol
_atom_site_label
_atom_site_fract_x
_atom_site_fract_y
_atom_site_fract_z
Si Si1 0.000000 0.673792 0.000000
Si Si2 0.780647 0.073116 0.193555
Si Si3 0.192850 0.428420 0.964696
Si Si4 0.380850 0.388353 0.306871
Si Si5 0.960669 0.623070 0.306676
Si Si6 0.012609 0.746543 0.170581
O O1 0.823035 0.625043 0.102516
O O2 0.940529 0.719801 0.127669
O O3 0.755752 0.080635 0.319989
O O4 0.625015 0.117499 0.260155
O O5 0.745052 0.000000 0.190635
O O6 0.000000 0.097214 0.000000
O O7 0.161468 0.500000 0.949911
O O8 0.409227 0.424040 0.845423
O O9 0.024773 0.415562 0.168376
O O10 0.409717 0.313704 0.265446
O O11 0.252713 0.401165 0.494700
O O12 0.936365 0.698022 0.304617
O O13 0.250000 0.750000 0.000000
#
# Coordination Sequence:
#
# PCOD8112946 Si02
#       6
#     4   8   8   8   8   8
#     4  10  23  42  68  94 121 170 210 260 318 374
#     4  11  22  39  62  92 130 169 209 256 313 375
#     4  11  23  43  66  90 129 171 214 262 313 378
#     4  12  24  39  66  96 128 166 211 264 323 372
#     4  11  24  41  62  97 128 168 212 262 318 378
#     4  11  22  43  68  91 127 165 209 261 318 378
#
# _framework density 21.222805000000001
#
# number of rings (size 3 to 8) (size 9 to 14) (size 15 to 20)
#    0.000    0.909    5.455    2.455    3.818    3.636 
#    0.000    3.636    0.000    5.455    0.000    0.000 
#    0.000    0.000    0.000    0.000    0.000    0.000 
#
# Total GULP energy -272828.908268 kJ/mol
# GULP energy per Si atom -12401.314012 kJ/mol
# Density = 2.117450 g / cm^3
# Si number density = 21.222805 Si / 1000 Ang^3
#
#
#
# Elastic Constant Matrix: (Units=GPa)
#
#
# Indices 1 2 3 4 5 6 
#
# 1 101.3692 26.1755 18.8117 0.0667 11.8466 -0.1143
# 2 26.1755 99.2595 31.0077 0.0708 -0.0084 -0.1205
# 3 18.8117 31.0077 111.4318 0.0662 12.4396 -0.0747
# 4 0.0667 0.0708 0.0662 15.4054 -0.0535 11.6533
# 5 11.8466 -0.0084 12.4396 -0.0535 19.5110 0.0728
# 6 -0.1143 -0.1205 -0.0747 11.6533 0.0728 26.8590
#
#
#
# Elastic Compliance Matrix: (Units=1/GPa)
#
#
# Indices 1 2 3 4 5 6 
#
# 1 0.011472 -0.002908 -0.000376 -0.000146 -0.006728 0.000116
# 2 -0.002908 0.011852 -0.003235 -0.000046 0.003833 0.000041
# 3 -0.000376 -0.003235 0.010672 -0.000113 -0.006578 0.000080
# 4 -0.000146 -0.000046 -0.000113 0.096632 0.000582 -0.041929
# 5 -0.006728 0.003833 -0.006578 0.000582 0.059537 -0.000444
# 6 0.000116 0.000041 0.000080 -0.041929 -0.000444 0.055425
#
#
# Mechanical properties :
#
#
# Convention : Reuss Voigt Hill
#
# Bulk Modulus (GPa) = 47.71427 51.56113 49.63770
# Shear Modulus (GPa) = 18.82420 28.09282 23.45851
#
# Velocity S-wave (km/s) = 2.98145 3.64223 3.32828
# Velocity P-wave (km/s) = 5.86374 6.48349 6.18139
#
# Compressibility (1/GPa) = 0.02095809
#
# Stress axis : x y z
#
# Youngs Moduli (GPa) = 87.16759 84.37047 93.70099
#
# Poissons Ratio (x) = 0.24536 0.03526
# Poissons Ratio (y) = 0.25349 0.30313
# Poissons Ratio (z) = 0.03280 0.27294
#
# Static dielectric constant tensor:
#      x y z
#    x 3.903120 -0.000160 0.136600 
#    y -0.000160 4.031850 0.000390 
#    z 0.136600 0.000390 3.729370 
# 
# 
# High freq. dielectric constant tensor:
#      x y z
#    x 1.831540 -0.000010 0.007740 
#    y -0.000010 1.845950 0.000030 
#    z 0.007740 0.000030 1.813910 
# 
# From -- ./inp_files/217584.got.cif
#   From: 2010.06.25/outbox.cif.g09.slc.cpg/sg12_109_cif.got.tgz:217584.got - 2010.06.28 00:19:55.
