data_PCOD8112245
_publ_section_title
;
Structure prediction by ZEFSAII (Michael W. Deem and Ramdas Pophale) SiO2 
 PCOD8112245
Probable space group: C 2/M
;
_chemical_formula_sum "Si O2"
_cell_formula_units_Z 56
_cell_length_a 27.474394
_cell_length_b 8.671408
_cell_length_c 12.446268
_cell_angle_alpha 90.000000
_cell_angle_beta 66.201531
_cell_angle_gamma 90.000000
_cell_volume 2713.088494
_symmetry_space_group_name_H-M "C 2/M"
_symmetry_group_IT_number 12
_symmetry_cell_setting 'monoclinic'
loop_
_space_group_symop_operation_xyz
x,y,z
-x,y,-z
-x,-y,-z
x,-y,z
1/2+x,1/2+y,z
1/2-x,1/2+y,-z
1/2-x,1/2-y,-z
1/2+x,1/2-y,z
loop_
_atom_site_type_symbol
_atom_site_label
_atom_site_fract_x
_atom_site_fract_y
_atom_site_fract_z
Si Si1 0.102507 0.678036 0.487228
Si Si2 0.656047 0.320068 0.829081
Si Si3 0.099323 0.320785 0.244160
Si Si4 0.449127 0.824889 0.118240
Si Si5 0.692828 0.181964 0.573304
Si Si6 0.804540 0.681897 0.992354
Si Si7 0.485978 0.679882 0.303276
O O1 0.088314 0.500000 0.520629
O O2 0.117824 0.706947 0.349873
O O3 0.152973 0.730285 0.513039
O O4 0.049953 0.777405 0.561525
O O5 0.668002 0.500000 0.824049
O O6 0.593798 0.284940 0.900262
O O7 0.671740 0.253721 0.700843
O O8 0.689203 0.236882 0.891642
O O9 0.086564 0.500000 0.233311
O O10 0.046917 0.223215 0.267147
O O11 0.146425 0.260172 0.125157
O O12 0.461247 0.774596 0.227633
O O13 0.427464 0.000000 0.140807
O O14 0.500000 0.810188 0.000000
O O15 0.750000 0.250000 0.500000
O O16 0.696958 0.000000 0.580640
O O17 0.801166 0.500000 0.990514
O O18 0.750000 0.750000 0.000000
O O19 0.481891 0.500000 0.282003
#
# Coordination Sequence:
#
# PCOD8112245 Si02
#       7
#     8   8   8   8   8   8   8
#     4  10  22  42  67  93 128 173 216 259 319 388
#     4  12  25  43  67  96 132 170 216 268 321 385
#     4  10  23  43  66  92 127 173 217 262 320 388
#     4  11  23  40  64  92 126 169 215 265 323 387
#     4  11  24  42  68  99 132 171 217 268 325 387
#     4  11  25  45  69  97 129 170 218 269 327 387
#     4  12  24  38  61  96 132 167 211 264 321 383
#
# _framework density 20.640684
#
# number of rings (size 3 to 8) (size 9 to 14) (size 15 to 20)
#    0.000    1.000    1.429    5.143    2.000    8.571 
#    0.000    0.000    0.000    0.000    0.000    0.000 
#    0.000    0.000    0.000    0.000    0.000    0.000 
#
# Total GULP energy -347376.862159 kJ/mol
# GULP energy per Si atom -12406.316506 kJ/mol
# Density = 2.059370 g / cm^3
# Si number density = 20.640684 Si / 1000 Ang^3
#
#
#
# Elastic Constant Matrix: (Units=GPa)
#
#
# Indices 1 2 3 4 5 6 
#
# 1 133.4634 32.3410 25.5455 0.0000 -1.0569 0.0000
# 2 32.3410 67.0174 27.8331 0.0000 -14.2089 0.0000
# 3 25.5455 27.8331 47.0207 0.0000 9.4836 0.0000
# 4 0.0000 0.0000 0.0000 23.3078 0.0000 -3.9134
# 5 -1.0569 -14.2089 9.4836 0.0000 35.4695 0.0000
# 6 0.0000 0.0000 0.0000 -3.9134 0.0000 39.1124
#
#
#
# Elastic Compliance Matrix: (Units=1/GPa)
#
#
# Indices 1 2 3 4 5 6 
#
# 1 0.008795 -0.003069 -0.002924 0.000000 -0.000186 0.000000
# 2 -0.003069 0.026823 -0.017291 0.000000 0.015277 0.000000
# 3 -0.002924 -0.017291 0.036472 0.000000 -0.016765 0.000000
# 4 0.000000 0.000000 0.000000 0.043637 0.000000 0.004366
# 5 -0.000186 0.015277 -0.016765 0.000000 0.038790 0.000000
# 6 0.000000 0.000000 0.000000 0.004366 0.000000 0.026004
#
#
# Mechanical properties :
#
#
# Convention : Reuss Voigt Hill
#
# Bulk Modulus (GPa) = 39.18238 46.54897 42.86567
# Shear Modulus (GPa) = 21.22282 30.36341 25.79312
#
# Velocity S-wave (km/s) = 3.21004 3.83958 3.53884
# Velocity P-wave (km/s) = 5.72394 6.50058 6.12458
#
# Compressibility (1/GPa) = 0.02552168
#
# Stress axis : x y z
#
# Youngs Moduli (GPa) = 113.70674 37.28196 27.41823
#
# Poissons Ratio (x) = 0.11442 0.08016
# Poissons Ratio (y) = 0.34898 0.47409
# Poissons Ratio (z) = 0.33245 0.64464
#
# Static dielectric constant tensor:
#      x y z
#    x 4.138990 0.000000 -0.026350 
#    y 0.000000 3.658650 0.000000 
#    z -0.026350 0.000000 4.035070 
# 
# 
# High freq. dielectric constant tensor:
#      x y z
#    x 1.819030 0.000000 0.001860 
#    y 0.000000 1.808930 0.000000 
#    z 0.001860 0.000000 1.821810 
# 
# From -- ./inp_files/180766.got.cif
#   From: 2010.06.25/outbox.cif.g09.slc.cpg/sg12_91_cif.got.tgz:180766.got - 2010.06.28 00:19:55.
