data_PCOD8112366
_publ_section_title
;
Structure prediction by ZEFSAII (Michael W. Deem and Ramdas Pophale) SiO2 
 PCOD8112366
Probable space group: C 2/M
;
_chemical_formula_sum "Si O2"
_cell_formula_units_Z 48
_cell_length_a 15.985956
_cell_length_b 30.280559
_cell_length_c 9.097738
_cell_angle_alpha 90.000000
_cell_angle_beta 30.993352
_cell_angle_gamma 90.000000
_cell_volume 2267.730220
_symmetry_space_group_name_H-M "C 2/M"
_symmetry_group_IT_number 12
_symmetry_cell_setting 'monoclinic'
loop_
_space_group_symop_operation_xyz
x,y,z
-x,y,-z
-x,-y,-z
x,-y,z
1/2+x,1/2+y,z
1/2-x,1/2+y,-z
1/2-x,1/2-y,-z
1/2+x,1/2-y,z
loop_
_atom_site_type_symbol
_atom_site_label
_atom_site_fract_x
_atom_site_fract_y
_atom_site_fract_z
Si Si1 0.568434 0.448927 0.557396
Si Si2 0.547892 0.855450 0.589754
Si Si3 0.077678 0.267922 0.727215
Si Si4 0.112399 0.889815 0.970070
Si Si5 0.665403 0.122771 0.843825
Si Si6 0.035742 0.816671 0.616962
O O1 0.500000 0.437038 0.500000
O O2 0.612987 0.500000 0.504862
O O3 0.434316 0.436452 0.883171
O O4 0.731509 0.421166 0.343999
O O5 0.500000 0.841330 0.500000
O O6 0.592630 0.811806 0.610653
O O7 0.392182 0.878691 0.899604
O O8 0.700244 0.889319 0.362611
O O9 0.250000 0.250000 0.500000
O O10 0.990956 0.229283 0.764082
O O11 0.000000 0.278761 0.000000
O O12 0.086907 0.852224 0.130836
O O13 0.000000 0.879907 0.000000
O O14 0.777337 0.166125 0.643138
O O15 0.500000 0.124437 0.000000
O O16 0.000000 0.811005 0.500000
#
# Coordination Sequence:
#
# PCOD8112366 Si02
#       6
#     8   8   8   8   8   8
#     4  10  22  43  67  89 117 156 196 234 287 360
#     4  12  23  37  58  88 120 152 196 249 299 341
#     4  12  24  38  57  83 119 159 204 249 294 341
#     4  11  22  39  62  87 118 156 195 239 293 352
#     4  11  22  39  62  89 120 154 193 243 299 350
#     4  11  22  40  61  84 117 163 210 244 287 349
#
# _framework density 21.166540000000001
#
# number of rings (size 3 to 8) (size 9 to 14) (size 15 to 20)
#    0.000    0.833    0.000   11.500    0.000    0.667 
#    0.000    5.833    0.000    3.000    0.000    0.000 
#    0.000    0.000    0.000    0.000    0.000    0.000 
#
# Total GULP energy -297595.917394 kJ/mol
# GULP energy per Si atom -12399.829891 kJ/mol
# Density = 2.111836 g / cm^3
# Si number density = 21.166540 Si / 1000 Ang^3
#
#
#
# Elastic Constant Matrix: (Units=GPa)
#
#
# Indices 1 2 3 4 5 6 
#
# 1 108.2406 36.8160 25.7902 0.0000 10.9906 0.0000
# 2 36.8160 104.2308 41.4288 0.0000 1.8225 0.0000
# 3 25.7902 41.4288 128.5344 0.0000 2.1384 0.0000
# 4 0.0000 0.0000 0.0000 20.9047 0.0000 -2.6868
# 5 10.9906 1.8225 2.1384 0.0000 44.7303 0.0000
# 6 0.0000 0.0000 0.0000 -2.6868 0.0000 1.0918
#
#
#
# Elastic Compliance Matrix: (Units=1/GPa)
#
#
# Indices 1 2 3 4 5 6 
#
# 1 0.010894 -0.003386 -0.001053 0.000000 -0.002488 0.000000
# 2 -0.003386 0.012060 -0.003216 0.000000 0.000494 0.000000
# 3 -0.001053 -0.003216 0.009029 0.000000 -0.000042 0.000000
# 4 0.000000 0.000000 0.000000 0.069966 0.000000 0.172181
# 5 -0.002488 0.000494 -0.000042 0.000000 0.022950 0.000000
# 6 0.000000 0.000000 0.000000 0.172181 0.000000 1.339643
#
#
# Mechanical properties :
#
#
# Convention : Reuss Voigt Hill
#
# Bulk Modulus (GPa) = 59.97935 61.00844 60.49389
# Shear Modulus (GPa) = 3.36608 29.14339 16.25474
#
# Velocity S-wave (km/s) = 1.26243 3.71463 2.77419
# Velocity P-wave (km/s) = 5.52480 6.87631 6.23727
#
# Compressibility (1/GPa) = 0.01667240
#
# Stress axis : x y z
#
# Youngs Moduli (GPa) = 91.79452 82.92156 110.75971
#
# Poissons Ratio (x) = 0.28076 0.11665
# Poissons Ratio (y) = 0.31080 0.35619
# Poissons Ratio (z) = 0.09667 0.26667
#
# Static dielectric constant tensor:
#      x y z
#    x 3.854890 0.000000 0.117180 
#    y 0.000000 4.337830 0.000000 
#    z 0.117180 0.000000 4.260540 
# 
# 
# High freq. dielectric constant tensor:
#      x y z
#    x 1.842310 0.000000 0.011700 
#    y 0.000000 1.808870 0.000000 
#    z 0.011700 0.000000 1.847580 
# 
# From -- ./inp_files/80617.got.cif
#   From: 2010.06.25/outbox.cif.g09.slc.cpg/sg12_41_cif.got.tgz:80617.got - 2010.06.28 00:19:55.
