data_PCOD8112711
_publ_section_title
;
Structure prediction by ZEFSAII (Michael W. Deem and Ramdas Pophale) SiO2 
 PCOD8112711
Probable space group: C 2/M
;
_chemical_formula_sum "Si O2"
_cell_formula_units_Z 48
_cell_length_a 24.639766
_cell_length_b 8.520494
_cell_length_c 12.422923
_cell_angle_alpha 90.000000
_cell_angle_beta 70.967320
_cell_angle_gamma 90.000000
_cell_volume 2465.527440
_symmetry_space_group_name_H-M "C 2/M"
_symmetry_group_IT_number 12
_symmetry_cell_setting 'monoclinic'
loop_
_space_group_symop_operation_xyz
x,y,z
-x,y,-z
-x,-y,-z
x,-y,z
1/2+x,1/2+y,z
1/2-x,1/2+y,-z
1/2-x,1/2-y,-z
1/2+x,1/2-y,z
loop_
_atom_site_type_symbol
_atom_site_label
_atom_site_fract_x
_atom_site_fract_y
_atom_site_fract_z
Si Si1 0.568165 0.180397 0.635194
Si Si2 0.938193 0.317086 0.996703
Si Si3 0.119579 0.181223 0.399186
Si Si4 0.552013 0.680807 0.233741
Si Si5 0.746477 0.315142 0.382573
Si Si6 0.640468 0.318042 0.772692
O O1 0.578839 0.217662 0.503340
O O2 0.502716 0.211955 0.707669
O O3 0.610890 0.287333 0.677023
O O4 0.582036 0.000000 0.651327
O O5 0.939409 0.500000 0.968833
O O6 0.890049 0.283022 0.115864
O O7 0.922479 0.222220 0.899226
O O8 0.000000 0.259863 0.000000
O O9 0.101387 0.216983 0.288717
O O10 0.185602 0.229840 0.370073
O O11 0.110136 0.000000 0.435265
O O12 0.532866 0.500000 0.250496
O O13 0.757336 0.500000 0.378052
O O14 0.750000 0.250000 0.500000
O O15 0.793432 0.232951 0.276637
O O16 0.635763 0.500000 0.805190
#
# Coordination Sequence:
#
# PCOD8112711 Si02
#       6
#     8   8   8   8   8   8
#     4  12  23  36  59  91 125 160 199 248 303 360
#     4  11  23  40  63  90 121 156 200 250 300 356
#     4  10  23  41  61  88 124 163 201 245 301 360
#     4  11  23  40  62  89 123 162 202 245 300 362
#     4  11  22  39  63  90 122 160 202 249 298 355
#     4  12  24  39  62  91 122 157 202 252 301 355
#
# _framework density 19.468451000000002
#
# number of rings (size 3 to 8) (size 9 to 14) (size 15 to 20)
#    0.000    0.833    3.333    5.000    0.000    4.667 
#    0.000    0.833    0.000    0.000    0.000    0.000 
#    0.000    0.000    0.000    0.000    0.000    0.000 
#
# Total GULP energy -297796.835366 kJ/mol
# GULP energy per Si atom -12408.201474 kJ/mol
# Density = 1.942414 g / cm^3
# Si number density = 19.468451 Si / 1000 Ang^3
#
#
#
# Elastic Constant Matrix: (Units=GPa)
#
#
# Indices 1 2 3 4 5 6 
#
# 1 85.3575 24.9931 40.8338 0.0000 2.1731 0.0000
# 2 24.9931 68.4378 18.8299 0.0000 4.7393 0.0000
# 3 40.8338 18.8299 121.6075 0.0000 1.6753 0.0000
# 4 0.0000 0.0000 0.0000 34.8468 0.0000 -4.0258
# 5 2.1731 4.7393 1.6753 0.0000 36.7872 0.0000
# 6 0.0000 0.0000 0.0000 -4.0258 0.0000 25.2855
#
#
#
# Elastic Compliance Matrix: (Units=1/GPa)
#
#
# Indices 1 2 3 4 5 6 
#
# 1 0.015078 -0.004287 -0.004397 0.000000 -0.000138 0.000000
# 2 -0.004287 0.016609 -0.001107 0.000000 -0.001836 0.000000
# 3 -0.004397 -0.001107 0.009872 0.000000 -0.000047 0.000000
# 4 0.000000 0.000000 0.000000 0.029235 0.000000 0.004655
# 5 -0.000138 -0.001836 -0.000047 0.000000 0.027430 0.000000
# 6 0.000000 0.000000 0.000000 0.004655 0.000000 0.040289
#
#
# Mechanical properties :
#
#
# Convention : Reuss Voigt Hill
#
# Bulk Modulus (GPa) = 45.50338 49.41295 47.45816
# Shear Modulus (GPa) = 30.22601 32.10032 31.16316
#
# Velocity S-wave (km/s) = 3.94453 4.06499 4.00522
# Velocity P-wave (km/s) = 6.64601 6.88973 6.76896
#
# Compressibility (1/GPa) = 0.02197639
#
# Stress axis : x y z
#
# Youngs Moduli (GPa) = 66.32300 60.20803 101.29927
#
# Poissons Ratio (x) = 0.25811 0.44543
# Poissons Ratio (y) = 0.28432 0.11214
# Poissons Ratio (z) = 0.29163 0.06665
#
# Static dielectric constant tensor:
#      x y z
#    x 3.639770 0.000000 0.010780 
#    y 0.000000 3.579100 0.000000 
#    z 0.010780 0.000000 3.504810 
# 
# 
# High freq. dielectric constant tensor:
#      x y z
#    x 1.752590 0.000000 -0.003080 
#    y 0.000000 1.768380 0.000000 
#    z -0.003080 0.000000 1.759570 
# 
# From -- ./inp_files/172951.got.cif
#   From: 2010.06.25/outbox.cif.g09.slc.cpg/sg12_87_cif.got.tgz:172951.got - 2010.06.28 00:19:55.
