data_PCOD8112893
_publ_section_title
;
Structure prediction by ZEFSAII (Michael W. Deem and Ramdas Pophale) SiO2 
 PCOD8112893
Probable space group: C 2/M
;
_chemical_formula_sum "Si O2"
_cell_formula_units_Z 56
_cell_length_a 9.024415
_cell_length_b 29.918417
_cell_length_c 12.308095
_cell_angle_alpha 90.000000
_cell_angle_beta 125.676281
_cell_angle_gamma 90.000000
_cell_volume 2699.468996
_symmetry_space_group_name_H-M "C 2/M"
_symmetry_group_IT_number 12
_symmetry_cell_setting 'monoclinic'
loop_
_space_group_symop_operation_xyz
x,y,z
-x,y,-z
-x,-y,-z
x,-y,z
1/2+x,1/2+y,z
1/2-x,1/2+y,-z
1/2-x,1/2-y,-z
1/2+x,1/2-y,z
loop_
_atom_site_type_symbol
_atom_site_label
_atom_site_fract_x
_atom_site_fract_y
_atom_site_fract_z
Si Si1 0.703189 0.114719 0.559048
Si Si2 0.592327 0.689701 0.230071
Si Si3 0.664539 0.763410 0.847465
Si Si4 0.370155 0.608140 0.039356
Si Si5 0.474563 0.552580 0.274265
Si Si6 0.181048 0.885956 0.623085
Si Si7 0.498568 0.845649 0.124591
O O1 0.500000 0.104111 0.500000
O O2 0.767955 0.163564 0.630392
O O3 0.689606 0.108822 0.423903
O O4 0.830712 0.076221 0.663006
O O5 0.460377 0.721684 0.245793
O O6 0.691585 0.721345 0.182909
O O7 0.461954 0.654492 0.115042
O O8 0.527674 0.804176 0.807773
O O9 0.750000 0.750000 0.000000
O O10 0.349116 0.570197 0.122341
O O11 0.500000 0.588509 0.000000
O O12 0.161105 0.618490 0.914937
O O13 0.494995 0.500000 0.280229
O O14 0.392162 0.567708 0.355236
O O15 0.295526 0.862352 0.766491
O O16 0.000000 0.859747 0.500000
O O17 0.500000 0.830913 0.000000
#
# Coordination Sequence:
#
# PCOD8112893 Si02
#       7
#     8   8   8   8   8   8   8
#     4  10  23  43  67  90 130 175 225 273 340 402
#     4  11  23  39  58  96 131 171 220 285 321 382
#     4  12  22  36  62  98 133 170 226 279 324 385
#     4  11  21  40  65  93 137 170 216 268 345 392
#     4  10  23  43  68  98 132 168 218 281 337 403
#     4  10  23  42  65  93 128 174 221 266 332 400
#     4  12  22  38  67  98 125 179 226 265 332 399
#
# _framework density 20.744820000000001
#
# number of rings (size 3 to 8) (size 9 to 14) (size 15 to 20)
#    0.000    1.143    4.286    2.143    2.000    3.143 
#    0.000    5.000    0.000    1.714    0.000    0.000 
#    0.000    0.000    0.000    0.000    0.000    0.000 
#
# Total GULP energy -346962.791933 kJ/mol
# GULP energy per Si atom -12391.528283 kJ/mol
# Density = 2.069760 g / cm^3
# Si number density = 20.744820 Si / 1000 Ang^3
#
#
#
# Elastic Constant Matrix: (Units=GPa)
#
#
# Indices 1 2 3 4 5 6 
#
# 1 121.6732 45.8527 37.0422 0.0000 -1.5948 0.0000
# 2 45.8527 116.6147 43.9965 0.0000 4.0738 0.0000
# 3 37.0422 43.9965 91.5462 0.0000 4.8579 0.0000
# 4 0.0000 0.0000 0.0000 18.0395 0.0000 -4.7003
# 5 -1.5948 4.0738 4.8579 0.0000 36.8490 0.0000
# 6 0.0000 0.0000 0.0000 -4.7003 0.0000 25.6469
#
#
#
# Elastic Compliance Matrix: (Units=1/GPa)
#
#
# Indices 1 2 3 4 5 6 
#
# 1 0.010205 -0.003019 -0.002739 0.000000 0.001136 0.000000
# 2 -0.003019 0.011377 -0.004202 0.000000 -0.000834 0.000000
# 3 -0.002739 -0.004202 0.014131 0.000000 -0.001517 0.000000
# 4 0.000000 0.000000 0.000000 0.058214 0.000000 0.010669
# 5 0.001136 -0.000834 -0.001517 0.000000 0.027479 0.000000
# 6 0.000000 0.000000 0.000000 0.010669 0.000000 0.040946
#
#
# Mechanical properties :
#
#
# Convention : Reuss Voigt Hill
#
# Bulk Modulus (GPa) = 63.31363 64.84634 64.07998
# Shear Modulus (GPa) = 26.66150 29.63658 28.14904
#
# Velocity S-wave (km/s) = 3.58888 3.78382 3.68763
# Velocity P-wave (km/s) = 6.91085 7.10047 7.00630
#
# Compressibility (1/GPa) = 0.01579439
#
# Stress axis : x y z
#
# Youngs Moduli (GPa) = 97.98992 87.89876 70.76458
#
# Poissons Ratio (x) = 0.26538 0.19380
# Poissons Ratio (y) = 0.29584 0.29733
# Poissons Ratio (z) = 0.26836 0.36932
#
# Static dielectric constant tensor:
#      x y z
#    x 4.053170 0.000000 -0.072460 
#    y 0.000000 3.535910 0.000000 
#    z -0.072460 0.000000 3.983310 
# 
# 
# High freq. dielectric constant tensor:
#      x y z
#    x 1.831180 0.000000 -0.001110 
#    y 0.000000 1.779420 0.000000 
#    z -0.001110 0.000000 1.806470 
# 
# From -- ./inp_files/125837.got.cif
#   From: 2010.06.25/outbox.cif.g09.slc.cpg/sg12_63_cif.got.tgz:125837.got - 2010.06.28 00:19:55.
