data_PCOD8112220
_publ_section_title
;
Structure prediction by ZEFSAII (Michael W. Deem and Ramdas Pophale) SiO2 
 PCOD8112220
Probable space group: C 2/M
;
_chemical_formula_sum "Si O2"
_cell_formula_units_Z 64
_cell_length_a 11.249500
_cell_length_b 27.661586
_cell_length_c 13.970907
_cell_angle_alpha 90.000000
_cell_angle_beta 136.186606
_cell_angle_gamma 90.000000
_cell_volume 3009.793384
_symmetry_space_group_name_H-M "C 2/M"
_symmetry_group_IT_number 12
_symmetry_cell_setting 'monoclinic'
loop_
_space_group_symop_operation_xyz
x,y,z
-x,y,-z
-x,-y,-z
x,-y,z
1/2+x,1/2+y,z
1/2-x,1/2+y,-z
1/2-x,1/2-y,-z
1/2+x,1/2-y,z
loop_
_atom_site_type_symbol
_atom_site_label
_atom_site_fract_x
_atom_site_fract_y
_atom_site_fract_z
Si Si1 0.592111 0.052899 0.151822
Si Si2 0.646634 0.135886 0.922600
Si Si3 0.267284 0.377560 0.591885
Si Si4 0.995919 0.737741 0.109134
Si Si5 0.866648 0.756508 0.344821
Si Si6 0.092328 0.646564 0.680421
Si Si7 0.584179 0.681619 0.806877
Si Si8 0.521944 0.443376 0.622084
O O1 0.477543 0.089740 0.145373
O O2 0.783474 0.072460 0.240632
O O3 0.603570 0.000000 0.211267
O O4 0.500000 0.044714 0.000000
O O5 0.544838 0.182262 0.899707
O O6 0.695677 0.138785 0.838991
O O7 0.814130 0.134441 0.090246
O O8 0.190674 0.384233 0.655177
O O9 0.386242 0.330389 0.671760
O O10 0.386786 0.419699 0.617644
O O11 0.106138 0.370874 0.427129
O O12 0.173287 0.748013 0.269752
O O13 0.873674 0.776886 0.089686
O O14 0.000000 0.751374 0.000000
O O15 0.928846 0.703615 0.349835
O O16 0.842558 0.796650 0.248065
O O17 0.000000 0.777232 0.500000
O O18 0.500000 0.425991 0.500000
O O19 0.491002 0.500000 0.615389
#
# Coordination Sequence:
#
# PCOD8112220 Si02
#       8
#     8   8   8   8   8   8   8   8
#     4  10  22  42  66  94 129 162 200 267 337 386
#     4  12  24  39  64  94 127 167 223 265 323 386
#     4  11  24  41  63  92 126 167 218 256 326 390
#     4  12  23  38  59  89 128 168 222 272 318 373
#     4  12  24  41  58  87 128 172 217 267 322 373
#     4  11  23  43  60  89 130 174 208 262 318 385
#     4  12  25  39  61  91 127 174 221 268 317 380
#     4  10  22  43  70  98 127 161 207 270 334 387
#
# _framework density 21.263919000000001
#
# number of rings (size 3 to 8) (size 9 to 14) (size 15 to 20)
#    0.000    0.750    5.000    3.000    3.500    1.500 
#    0.000    1.875    0.000    0.000    0.000    4.375 
#    0.000    0.000    0.000    0.000    0.000    0.000 
#
# Total GULP energy -396474.451845 kJ/mol
# GULP energy per Si atom -12389.826620 kJ/mol
# Density = 2.121552 g / cm^3
# Si number density = 21.263919 Si / 1000 Ang^3
#
#
#
# Elastic Constant Matrix: (Units=GPa)
#
#
# Indices 1 2 3 4 5 6 
#
# 1 89.2280 36.4504 45.2665 0.0000 -8.1153 0.0000
# 2 36.4504 70.2000 24.4858 0.0000 -2.3798 0.0000
# 3 45.2665 24.4858 121.8937 0.0000 -0.7941 0.0000
# 4 0.0000 0.0000 0.0000 27.8086 0.0000 2.2955
# 5 -8.1153 -2.3798 -0.7941 0.0000 44.8746 0.0000
# 6 0.0000 0.0000 0.0000 2.2955 0.0000 39.5212
#
#
#
# Elastic Compliance Matrix: (Units=1/GPa)
#
#
# Indices 1 2 3 4 5 6 
#
# 1 0.016696 -0.006910 -0.004796 0.000000 0.002568 0.000000
# 2 -0.006910 0.018204 -0.001093 0.000000 -0.000304 0.000000
# 3 -0.004796 -0.001093 0.010199 0.000000 -0.000745 0.000000
# 4 0.000000 0.000000 0.000000 0.036133 0.000000 -0.002099
# 5 0.002568 -0.000304 -0.000745 0.000000 0.022719 0.000000
# 6 0.000000 0.000000 0.000000 -0.002099 0.000000 0.025425
#
#
# Mechanical properties :
#
#
# Convention : Reuss Voigt Hill
#
# Bulk Modulus (GPa) = 51.27298 54.85855 53.06576
# Shear Modulus (GPa) = 30.96476 34.11549 32.54013
#
# Velocity S-wave (km/s) = 3.82017 4.00982 3.91615
# Velocity P-wave (km/s) = 6.60479 6.87700 6.74227
#
# Compressibility (1/GPa) = 0.01950345
#
# Stress axis : x y z
#
# Youngs Moduli (GPa) = 59.89347 54.93426 98.04462
#
# Poissons Ratio (x) = 0.37957 0.47019
# Poissons Ratio (y) = 0.41384 0.10714
# Poissons Ratio (z) = 0.28723 0.06003
#
# Static dielectric constant tensor:
#      x y z
#    x 3.819580 0.000000 0.062720 
#    y 0.000000 3.866340 0.000000 
#    z 0.062720 0.000000 4.266180 
# 
# 
# High freq. dielectric constant tensor:
#      x y z
#    x 1.829160 0.000000 0.010140 
#    y 0.000000 1.811780 0.000000 
#    z 0.010140 0.000000 1.858970 
# 
# From -- ./inp_files/209419.got.cif
#   From: 2010.06.25/outbox.cif.g09.slc.cpg/sg12_105_cif.got.tgz:209419.got - 2010.06.28 00:19:55.
