data_PCOD8112018
_publ_section_title
;
Structure prediction by ZEFSAII (Michael W. Deem and Ramdas Pophale) SiO2 
 PCOD8112018
Probable space group: C 2/M
;
_chemical_formula_sum "Si O2"
_cell_formula_units_Z 52
_cell_length_a 8.884268
_cell_length_b 14.227820
_cell_length_c 29.084359
_cell_angle_alpha 90.000000
_cell_angle_beta 41.802203
_cell_angle_gamma 90.000000
_cell_volume 2450.527024
_symmetry_space_group_name_H-M "C 2/M"
_symmetry_group_IT_number 12
_symmetry_cell_setting 'monoclinic'
loop_
_space_group_symop_operation_xyz
x,y,z
-x,y,-z
-x,-y,-z
x,-y,z
1/2+x,1/2+y,z
1/2-x,1/2+y,-z
1/2-x,1/2-y,-z
1/2+x,1/2-y,z
loop_
_atom_site_type_symbol
_atom_site_label
_atom_site_fract_x
_atom_site_fract_y
_atom_site_fract_z
Si Si1 0.503514 0.000000 0.396504
Si Si2 0.156204 0.106513 0.008611
Si Si3 0.639096 0.317322 0.346149
Si Si4 0.530651 0.500000 0.666185
Si Si5 0.499345 0.241688 0.111286
Si Si6 0.481416 0.704801 0.795204
Si Si7 0.752663 0.822589 0.573757
Si Si8 0.410289 0.500000 0.245989
O O1 0.340175 0.910592 0.434318
O O2 0.641884 0.000000 0.317127
O O3 0.690152 0.000000 0.396193
O O4 0.391531 0.158184 0.943391
O O5 0.209786 0.000000 0.011575
O O6 0.000000 0.109205 0.000000
O O7 0.030856 0.158829 0.078643
O O8 0.579695 0.411713 0.333266
O O9 0.811882 0.253336 0.277960
O O10 0.404146 0.263692 0.404474
O O11 0.745256 0.340095 0.371763
O O12 0.450164 0.500000 0.737555
O O13 0.605133 0.248841 0.137685
O O14 0.241913 0.218378 0.184046
O O15 0.533025 0.595181 0.794104
O O16 0.000000 0.797758 0.500000
#
# Coordination Sequence:
#
# PCOD8112018 Si02
#       8
#     4   8   8   4   8   8   8   4
#     4  10  22  44  64  95 133 172 221 282 334 402
#     4  10  22  45  65  91 136 172 214 269 319 389
#     4  12  24  45  65  98 137 173 222 286 340 396
#     4  10  23  43  67  90 131 181 208 266 350 399
#     4  11  24  42  64 100 125 176 218 268 325 398
#     4  12  24  41  67  96 132 167 220 272 332 394
#     4  12  24  43  69  97 130 180 226 278 342 408
#     4  10  22  41  66  91 135 164 214 270 341 385
#
# _framework density 21.219923999999999
#
# number of rings (size 3 to 8) (size 9 to 14) (size 15 to 20)
#    0.462    0.462    3.077    4.846    2.154    0.000 
#    2.769    1.923    0.000    0.000    0.000    0.000 
#    0.000    0.000    0.000    0.000    0.000    0.000 
#
# Total GULP energy -322310.877835 kJ/mol
# GULP energy per Si atom -12396.572224 kJ/mol
# Density = 2.117163 g / cm^3
# Si number density = 21.219924 Si / 1000 Ang^3
#
#
#
# Elastic Constant Matrix: (Units=GPa)
#
#
# Indices 1 2 3 4 5 6 
#
# 1 75.1394 25.4217 11.8849 -0.0027 -7.9988 0.0023
# 2 25.4217 152.0273 47.1985 -0.0011 -20.0894 0.0017
# 3 11.8849 47.1985 90.0743 -0.0050 -13.9722 0.0036
# 4 -0.0027 -0.0011 -0.0050 16.2375 0.0013 -1.3047
# 5 -7.9988 -20.0894 -13.9722 0.0013 35.6275 0.0011
# 6 0.0023 0.0017 0.0036 -1.3047 0.0011 31.3861
#
#
#
# Elastic Compliance Matrix: (Units=1/GPa)
#
#
# Indices 1 2 3 4 5 6 
#
# 1 0.014261 -0.001962 -0.000563 0.000002 0.001875 -0.000001
# 2 -0.001962 0.008438 -0.003719 -0.000001 0.002859 0.000000
# 3 -0.000563 -0.003719 0.013608 0.000003 0.003113 -0.000001
# 4 0.000002 -0.000001 0.000003 0.061792 -0.000001 0.002569
# 5 0.001875 0.002859 0.003113 -0.000001 0.031322 -0.000002
# 6 -0.000001 0.000000 -0.000001 0.002569 -0.000002 0.031968
#
#
# Mechanical properties :
#
#
# Convention : Reuss Voigt Hill
#
# Bulk Modulus (GPa) = 41.98337 54.02793 48.00565
# Shear Modulus (GPa) = 27.50002 32.16593 29.83297
#
# Velocity S-wave (km/s) = 3.60384 3.89760 3.75359
# Velocity P-wave (km/s) = 6.09465 6.76545 6.43879
#
# Compressibility (1/GPa) = 0.02381895
#
# Stress axis : x y z
#
# Youngs Moduli (GPa) = 70.12101 118.50605 73.48634
#
# Poissons Ratio (x) = 0.23255 0.04135
# Poissons Ratio (y) = 0.13760 0.27332
# Poissons Ratio (z) = 0.03945 0.44076
#
# Static dielectric constant tensor:
#      x y z
#    x 3.893520 0.000000 -0.046340 
#    y 0.000000 4.167320 0.000000 
#    z -0.046340 0.000000 3.633840 
# 
# 
# High freq. dielectric constant tensor:
#      x y z
#    x 1.838210 0.000000 -0.007630 
#    y 0.000000 1.838100 0.000000 
#    z -0.007630 0.000000 1.827080 
# 
# From -- ./inp_files/372520.got.cif
#   From: 2010.06.25/outbox.cif.g09.slc.cpg/sg12_187_cif.got.tgz:372520.got - 2010.06.28 00:19:55.
