data_PCOD8112397
_publ_section_title
;
Structure prediction by ZEFSAII (Michael W. Deem and Ramdas Pophale) SiO2 
 PCOD8112397
Probable space group: C 2/M
;
_chemical_formula_sum "Si O2"
_cell_formula_units_Z 40
_cell_length_a 20.137716
_cell_length_b 18.259612
_cell_length_c 14.211413
_cell_angle_alpha 90.000000
_cell_angle_beta 21.079850
_cell_angle_gamma 90.000000
_cell_volume 1879.497013
_symmetry_space_group_name_H-M "C 2/M"
_symmetry_group_IT_number 12
_symmetry_cell_setting 'monoclinic'
loop_
_space_group_symop_operation_xyz
x,y,z
-x,y,-z
-x,-y,-z
x,-y,z
1/2+x,1/2+y,z
1/2-x,1/2+y,-z
1/2-x,1/2-y,-z
1/2+x,1/2-y,z
loop_
_atom_site_type_symbol
_atom_site_label
_atom_site_fract_x
_atom_site_fract_y
_atom_site_fract_z
Si Si1 0.771900 0.158214 0.146630
Si Si2 0.998004 0.585235 0.368111
Si Si3 0.165497 0.180350 0.558336
Si Si4 0.494929 0.084943 0.859976
Si Si5 0.665266 0.683031 0.345088
O O1 0.664103 0.127138 0.199291
O O2 0.700226 0.115940 0.334418
O O3 0.733229 0.244031 0.204119
O O4 0.990531 0.148104 0.846085
O O5 0.010345 0.500000 0.376268
O O6 0.020560 0.601172 0.229504
O O7 0.250000 0.250000 0.500000
O O8 0.312348 0.115494 0.357533
O O9 0.104552 0.201239 0.532540
O O10 0.485255 0.000000 0.897584
O O11 0.328459 0.124206 0.133472
O O12 0.500000 0.650169 0.500000
#
# Coordination Sequence:
#
# PCOD8112397 Si02
#       5
#     8   8   8   8   8
#     4  11  22  39  69  96 134 166 217 273 329 384
#     4  10  22  43  68  99 131 170 218 269 328 392
#     4  12  26  41  65  99 134 171 220 267 328 390
#     4  11  26  45  66  94 136 176 216 269 328 387
#     4  12  25  42  68  97 129 174 222 271 321 387
#
# _framework density 21.282288999999999
#
# number of rings (size 3 to 8) (size 9 to 14) (size 15 to 20)
#    0.000    0.800    4.000    4.200    0.000    7.600 
#    0.000    2.000    0.000    0.000    0.000    0.000 
#    0.000    0.000    0.000    0.000    0.000    0.000 
#
# Total GULP energy -248091.851944 kJ/mol
# GULP energy per Si atom -12404.592597 kJ/mol
# Density = 2.123385 g / cm^3
# Si number density = 21.282289 Si / 1000 Ang^3
#
#
#
# Elastic Constant Matrix: (Units=GPa)
#
#
# Indices 1 2 3 4 5 6 
#
# 1 68.0399 38.8594 18.4982 0.0196 12.0214 -0.0023
# 2 38.8594 119.3567 49.4875 -0.0109 -5.4942 0.0074
# 3 18.4982 49.4875 139.9983 0.0062 -10.6799 -0.0011
# 4 0.0196 -0.0109 0.0062 35.9678 -0.0011 -0.2297
# 5 12.0214 -5.4942 -10.6799 -0.0011 31.2615 -0.0037
# 6 -0.0023 0.0074 -0.0011 -0.2297 -0.0037 32.1023
#
#
#
# Elastic Compliance Matrix: (Units=1/GPa)
#
#
# Indices 1 2 3 4 5 6 
#
# 1 0.020443 -0.006645 -0.001069 -0.000013 -0.009394 0.000002
# 2 -0.006645 0.011986 -0.003084 0.000008 0.003608 -0.000003
# 3 -0.001069 -0.003084 0.008588 -0.000002 0.002803 0.000001
# 4 -0.000013 0.000008 -0.000002 0.027804 0.000007 0.000199
# 5 -0.009394 0.003608 0.002803 0.000007 0.037192 0.000003
# 6 0.000002 -0.000003 0.000001 0.000199 0.000003 0.031152
#
#
# Mechanical properties :
#
#
# Convention : Reuss Voigt Hill
#
# Bulk Modulus (GPa) = 51.48776 60.12057 55.80416
# Shear Modulus (GPa) = 30.26009 34.56964 32.41486
#
# Velocity S-wave (km/s) = 3.77483 4.03468 3.90691
# Velocity P-wave (km/s) = 6.57604 7.07215 6.82860
#
# Compressibility (1/GPa) = 0.01942209
#
# Stress axis : x y z
#
# Youngs Moduli (GPa) = 48.91735 83.42857 116.44061
#
# Poissons Ratio (x) = 0.55437 0.12446
# Poissons Ratio (y) = 0.32505 0.35907
# Poissons Ratio (z) = 0.05229 0.25727
#
# Static dielectric constant tensor:
#      x y z
#    x 4.073700 -0.000050 0.022090 
#    y -0.000050 3.852930 0.000060 
#    z 0.022090 0.000060 3.967210 
# 
# 
# High freq. dielectric constant tensor:
#      x y z
#    x 1.847320 0.000000 0.008510 
#    y 0.000000 1.836930 0.000000 
#    z 0.008510 0.000000 1.838610 
# 
# From -- ./inp_files/47046.got.cif
#   From: 2010.06.25/outbox.cif.g09.slc.cpg/sg12_24_cif.got.tgz:47046.got - 2010.06.28 00:19:55.
