data_PCOD8112236
_publ_section_title
;
Structure prediction by ZEFSAII (Michael W. Deem and Ramdas Pophale) SiO2 
 PCOD8112236
Probable space group: C 2/M
;
_chemical_formula_sum "Si O2"
_cell_formula_units_Z 32
_cell_length_a 12.033316
_cell_length_b 18.993239
_cell_length_c 9.991572
_cell_angle_alpha 90.000000
_cell_angle_beta 40.826281
_cell_angle_gamma 90.000000
_cell_volume 1492.937675
_symmetry_space_group_name_H-M "C 2/M"
_symmetry_group_IT_number 12
_symmetry_cell_setting 'monoclinic'
loop_
_space_group_symop_operation_xyz
x,y,z
-x,y,-z
-x,-y,-z
x,-y,z
1/2+x,1/2+y,z
1/2-x,1/2+y,-z
1/2-x,1/2-y,-z
1/2+x,1/2-y,z
loop_
_atom_site_type_symbol
_atom_site_label
_atom_site_fract_x
_atom_site_fract_y
_atom_site_fract_z
Si Si1 0.500000 0.123326 0.000000
Si Si2 0.062116 0.262944 0.717647
Si Si3 0.500000 0.179958 0.500000
Si Si4 0.748510 0.000000 0.812633
Si Si5 0.630063 0.622775 0.775835
Si Si6 0.590398 0.500000 0.621784
O O1 0.552419 0.171039 0.826231
O O2 0.646050 0.072392 0.922415
O O3 0.250000 0.250000 0.500000
O O4 0.960212 0.274574 0.671153
O O5 0.016064 0.190958 0.835793
O O6 0.324688 0.136206 0.645453
O O7 0.834577 0.000000 0.592088
O O8 0.886065 0.000000 0.805260
O O9 0.658839 0.569887 0.628694
O O10 0.500000 0.586771 0.000000
#
# Coordination Sequence:
#
# PCOD8112236 Si02
#       6
#     4   8   4   4   8   4
#     4  11  22  44  74 101 132 178 234 271 346 416
#     4  10  22  42  67 100 135 172 226 284 335 409
#     4  10  24  41  68 101 134 180 222 286 348 397
#     4  10  24  42  70  98 131 181 227 281 334 404
#     4  11  24  43  65  99 137 180 228 278 345 409
#     4  11  25  45  62  96 143 176 225 284 337 400
#
# _framework density 21.434249000000001
#
# number of rings (size 3 to 8) (size 9 to 14) (size 15 to 20)
#    0.000    1.500    1.250    3.375    3.500    7.500 
#    0.000    0.000    0.000    0.000    0.000    0.000 
#    0.000    0.000    0.000    0.000    0.000    0.000 
#
# Total GULP energy -198224.270310 kJ/mol
# GULP energy per Si atom -12389.016894 kJ/mol
# Density = 2.138546 g / cm^3
# Si number density = 21.434249 Si / 1000 Ang^3
#
#
#
# Elastic Constant Matrix: (Units=GPa)
#
#
# Indices 1 2 3 4 5 6 
#
# 1 156.0926 58.8063 41.4092 -0.0001 -2.3038 0.0002
# 2 58.8063 141.7154 35.2572 0.0000 4.6230 0.0000
# 3 41.4092 35.2572 93.4119 0.0000 -0.0406 0.0001
# 4 -0.0001 0.0000 0.0000 47.5412 0.0001 13.4123
# 5 -2.3038 4.6230 -0.0406 0.0001 39.2548 -0.0001
# 6 0.0002 0.0000 0.0001 13.4123 -0.0001 19.3301
#
#
#
# Elastic Compliance Matrix: (Units=1/GPa)
#
#
# Indices 1 2 3 4 5 6 
#
# 1 0.008141 -0.002766 -0.002564 0.000000 0.000801 0.000000
# 2 -0.002766 0.008761 -0.002081 0.000000 -0.001196 0.000000
# 3 -0.002564 -0.002081 0.012628 0.000000 0.000108 0.000000
# 4 0.000000 0.000000 0.000000 0.026154 0.000000 -0.018147
# 5 0.000801 -0.001196 0.000108 0.000000 0.025663 0.000000
# 6 0.000000 0.000000 0.000000 -0.018147 0.000000 0.064324
#
#
# Mechanical properties :
#
#
# Convention : Reuss Voigt Hill
#
# Bulk Modulus (GPa) = 67.99874 73.57392 70.78633
# Shear Modulus (GPa) = 30.23059 38.27503 34.25281
#
# Velocity S-wave (km/s) = 3.75959 4.23033 4.00189
# Velocity P-wave (km/s) = 7.11612 7.63288 7.37903
#
# Compressibility (1/GPa) = 0.01470615
#
# Stress axis : x y z
#
# Youngs Moduli (GPa) = 122.83951 114.14191 79.19207
#
# Poissons Ratio (x) = 0.31574 0.20307
# Poissons Ratio (y) = 0.33980 0.16480
# Poissons Ratio (z) = 0.31500 0.23753
#
# Static dielectric constant tensor:
#      x y z
#    x 2.854290 0.000000 -0.566400 
#    y 0.000000 5.600320 0.000000 
#    z -0.566400 0.000000 3.681160 
# 
# 
# High freq. dielectric constant tensor:
#      x y z
#    x 1.843630 0.000000 0.007300 
#    y 0.000000 1.842760 0.000000 
#    z 0.007300 0.000000 1.857160 
# 
# From -- ./inp_files/48366.got.cif
#   From: 2010.06.25/outbox.cif.g09.slc.cpg/sg12_25_cif.got.tgz:48366.got - 2010.06.28 00:19:55.
