data_PCOD8112629
_publ_section_title
;
Structure prediction by ZEFSAII (Michael W. Deem and Ramdas Pophale) SiO2 
 PCOD8112629
Probable space group: C 2/M
;
_chemical_formula_sum "Si O2"
_cell_formula_units_Z 36
_cell_length_a 8.810719
_cell_length_b 14.965301
_cell_length_c 16.614633
_cell_angle_alpha 90.000000
_cell_angle_beta 129.805849
_cell_angle_gamma 90.000000
_cell_volume 1682.953579
_symmetry_space_group_name_H-M "C 2/M"
_symmetry_group_IT_number 12
_symmetry_cell_setting 'monoclinic'
loop_
_space_group_symop_operation_xyz
x,y,z
-x,y,-z
-x,-y,-z
x,-y,z
1/2+x,1/2+y,z
1/2-x,1/2+y,-z
1/2-x,1/2-y,-z
1/2+x,1/2-y,z
loop_
_atom_site_type_symbol
_atom_site_label
_atom_site_fract_x
_atom_site_fract_y
_atom_site_fract_z
Si Si1 0.396112 0.813381 0.102333
Si Si2 0.158651 0.170548 0.794867
Si Si3 0.718435 0.000000 0.546528
Si Si4 0.280454 0.500000 0.897250
Si Si5 0.897228 0.830707 0.549013
Si Si6 0.463999 0.500000 0.790250
O O1 0.604121 0.825567 0.128017
O O2 0.427697 0.761244 0.196540
O O3 0.320092 0.911974 0.099734
O O4 0.250000 0.750000 0.000000
O O5 0.063029 0.165258 0.674465
O O6 0.101704 0.088480 0.835462
O O7 0.500000 0.000000 0.500000
O O8 0.757471 0.084242 0.504384
O O9 0.850125 0.000000 0.669253
O O10 0.300934 0.500000 0.806720
O O11 0.500000 0.500000 0.000000
O O12 0.750000 0.750000 0.500000
O O13 0.000000 0.829656 0.500000
#
# Coordination Sequence:
#
# PCOD8112629 Si02
#       6
#     8   8   4   4   8   4
#     4  12  25  42  66  94 125 164 207 255 309 368
#     4  11  23  42  63  92 126 163 208 258 308 368
#     4  10  23  40  62  91 125 162 207 257 306 364
#     4  12  25  42  64  92 124 162 204 252 308 368
#     4  11  23  40  63  91 125 166 208 255 310 368
#     4  10  23  42  65  91 124 162 206 255 309 364
#
# _framework density 21.390965000000001
#
# number of rings (size 3 to 8) (size 9 to 14) (size 15 to 20)
#    0.000    0.889    0.000    7.667    0.000    7.111 
#    0.000    3.333    0.000    0.000    0.000    0.000 
#    0.000    0.000    0.000    0.000    0.000    0.000 
#
# Total GULP energy -223131.981280 kJ/mol
# GULP energy per Si atom -12396.221182 kJ/mol
# Density = 2.134228 g / cm^3
# Si number density = 21.390965 Si / 1000 Ang^3
#
#
#
# Elastic Constant Matrix: (Units=GPa)
#
#
# Indices 1 2 3 4 5 6 
#
# 1 166.9812 87.8684 33.7680 0.0000 5.8644 0.0000
# 2 87.8684 210.5025 39.1257 0.0000 3.4300 0.0000
# 3 33.7680 39.1257 57.9064 0.0000 -1.6596 0.0000
# 4 0.0000 0.0000 0.0000 32.1567 0.0000 0.6023
# 5 5.8644 3.4300 -1.6596 0.0000 45.5195 0.0000
# 6 0.0000 0.0000 0.0000 0.6023 0.0000 48.6136
#
#
#
# Elastic Compliance Matrix: (Units=1/GPa)
#
#
# Indices 1 2 3 4 5 6 
#
# 1 0.008084 -0.002834 -0.002826 0.000000 -0.000931 0.000000
# 2 -0.002834 0.006440 -0.002705 0.000000 -0.000219 0.000000
# 3 -0.002826 -0.002705 0.020783 0.000000 0.001326 0.000000
# 4 0.000000 0.000000 0.000000 0.031105 0.000000 -0.000385
# 5 -0.000931 -0.000219 0.001326 0.000000 0.022153 0.000000
# 6 0.000000 0.000000 0.000000 -0.000385 0.000000 0.020575
#
#
# Mechanical properties :
#
#
# Convention : Reuss Voigt Hill
#
# Bulk Modulus (GPa) = 53.83008 84.10161 68.96584
# Shear Modulus (GPa) = 37.86082 43.56649 40.71365
#
# Velocity S-wave (km/s) = 4.21163 4.51785 4.36743
# Velocity P-wave (km/s) = 6.99071 8.16189 7.59889
#
# Compressibility (1/GPa) = 0.01857697
#
# Stress axis : x y z
#
# Youngs Moduli (GPa) = 123.69723 155.28303 48.11666
#
# Poissons Ratio (x) = 0.44009 0.13598
# Poissons Ratio (y) = 0.35057 0.13015
# Poissons Ratio (z) = 0.34958 0.42001
#
# Static dielectric constant tensor:
#      x y z
#    x 4.927920 0.000000 -1.965210 
#    y 0.000000 3.755000 0.000000 
#    z -1.965210 0.000000 6.678380 
# 
# 
# High freq. dielectric constant tensor:
#      x y z
#    x 1.859300 0.000000 -0.005540 
#    y 0.000000 1.863040 0.000000 
#    z -0.005540 0.000000 1.841570 
# 
# From -- ./inp_files/255622.got.cif
#   From: 2010.06.25/outbox.cif.g09.slc.cpg/sg12_128_cif.got.tgz:255622.got - 2010.06.28 00:19:55.
