data_PCOD8112886
_publ_section_title
;
Structure prediction by ZEFSAII (Michael W. Deem and Ramdas Pophale) SiO2 
 PCOD8112886
Probable space group: C 2/M
;
_chemical_formula_sum "Si O2"
_cell_formula_units_Z 56
_cell_length_a 18.608371
_cell_length_b 14.965968
_cell_length_c 12.132841
_cell_angle_alpha 90.000000
_cell_angle_beta 57.226600
_cell_angle_gamma 90.000000
_cell_volume 2841.042154
_symmetry_space_group_name_H-M "C 2/M"
_symmetry_group_IT_number 12
_symmetry_cell_setting 'monoclinic'
loop_
_space_group_symop_operation_xyz
x,y,z
-x,y,-z
-x,-y,-z
x,-y,z
1/2+x,1/2+y,z
1/2-x,1/2+y,-z
1/2-x,1/2-y,-z
1/2+x,1/2-y,z
loop_
_atom_site_type_symbol
_atom_site_label
_atom_site_fract_x
_atom_site_fract_y
_atom_site_fract_z
Si Si1 0.085403 0.347326 0.048260
Si Si2 0.198033 0.395893 0.154318
Si Si3 0.108830 0.147857 0.981125
Si Si4 0.561199 0.599118 0.778673
Si Si5 0.603150 0.903177 0.802301
Si Si6 0.402803 0.897223 0.543915
Si Si7 0.847220 0.266773 0.397323
O O1 0.146413 0.345327 0.102342
O O2 0.991991 0.379125 0.161082
O O3 0.082487 0.250411 0.995772
O O4 0.115482 0.410861 0.923675
O O5 0.185306 0.500000 0.144807
O O6 0.295628 0.367623 0.056505
O O7 0.160977 0.368808 0.304228
O O8 0.102803 0.106466 0.864799
O O9 0.041798 0.104298 0.122985
O O10 0.583875 0.500000 0.712770
O O11 0.598892 0.675111 0.665457
O O12 0.661247 0.824832 0.706676
O O13 0.627580 0.000000 0.732703
O O14 0.500000 0.888118 0.500000
O O15 0.389391 0.827395 0.456851
O O16 0.383812 0.000000 0.523220
O O17 0.750000 0.250000 0.500000
#
# Coordination Sequence:
#
# PCOD8112886 Si02
#       7
#     8   8   8   8   8   8   8
#     4  11  20  37  61  93 122 155 191 249 317 370
#     4  11  22  36  59  93 123 155 201 251 303 364
#     4  11  20  38  60  90 120 156 201 251 311 361
#     4  11  22  40  63  87 119 160 204 252 302 358
#     4  11  21  38  62  89 123 157 192 247 313 370
#     4  10  23  42  65  92 125 167 209 252 307 367
#     4  12  24  40  61  89 125 162 211 254 298 362
#
# _framework density 19.711077
#
# number of rings (size 3 to 8) (size 9 to 14) (size 15 to 20)
#    0.000    1.000    2.857    6.857    0.000    3.429 
#    0.000    0.000    0.000    0.429    0.000    0.000 
#    0.000    0.000    0.000    0.000    0.000    0.000 
#
# Total GULP energy -347113.775313 kJ/mol
# GULP energy per Si atom -12396.920547 kJ/mol
# Density = 1.966621 g / cm^3
# Si number density = 19.711077 Si / 1000 Ang^3
#
#
#
# Elastic Constant Matrix: (Units=GPa)
#
#
# Indices 1 2 3 4 5 6 
#
# 1 63.9638 29.2380 45.6150 0.0000 2.0185 0.0000
# 2 29.2380 148.9578 53.6046 0.0000 -1.6418 0.0000
# 3 45.6150 53.6046 105.4540 0.0000 -9.7994 0.0000
# 4 0.0000 0.0000 0.0000 21.3783 0.0000 5.3117
# 5 2.0185 -1.6418 -9.7994 0.0000 27.8775 0.0000
# 6 0.0000 0.0000 0.0000 5.3117 0.0000 24.8169
#
#
#
# Elastic Compliance Matrix: (Units=1/GPa)
#
#
# Indices 1 2 3 4 5 6 
#
# 1 0.023501 -0.001022 -0.010141 0.000000 -0.005326 0.000000
# 2 -0.001022 0.008289 -0.003845 0.000000 -0.000789 0.000000
# 3 -0.010141 -0.003845 0.016407 0.000000 0.006275 0.000000
# 4 0.000000 0.000000 0.000000 0.049404 0.000000 -0.010574
# 5 -0.005326 -0.000789 0.006275 0.000000 0.038416 0.000000
# 6 0.000000 0.000000 0.000000 -0.010574 0.000000 0.042558
#
#
# Mechanical properties :
#
#
# Convention : Reuss Voigt Hill
#
# Bulk Modulus (GPa) = 55.00192 63.92122 59.46157
# Shear Modulus (GPa) = 23.29368 27.47574 25.38471
#
# Velocity S-wave (km/s) = 3.44140 3.73758 3.59254
# Velocity P-wave (km/s) = 6.61480 7.15021 6.88771
#
# Compressibility (1/GPa) = 0.01818118
#
# Stress axis : x y z
#
# Youngs Moduli (GPa) = 42.55123 120.64521 60.95063
#
# Poissons Ratio (x) = 0.12333 0.61810
# Poissons Ratio (y) = 0.04350 0.23433
# Poissons Ratio (z) = 0.43151 0.46382
#
# Static dielectric constant tensor:
#      x y z
#    x 3.200360 0.000000 -0.520870 
#    y 0.000000 3.799940 0.000000 
#    z -0.520870 0.000000 2.895590 
# 
# 
# High freq. dielectric constant tensor:
#      x y z
#    x 1.753990 0.000000 -0.009720 
#    y 0.000000 1.783280 0.000000 
#    z -0.009720 0.000000 1.764090 
# 
# From -- ./inp_files/156532.got.cif
#   From: 2010.06.25/outbox.cif.g09.slc.cpg/sg12_79_cif.got.tgz:156532.got - 2010.06.28 00:19:55.
