data_PCOD8112996
_publ_section_title
;
Structure prediction by ZEFSAII (Michael W. Deem and Ramdas Pophale) SiO2 
 PCOD8112996
Probable space group: C 2/M
;
_chemical_formula_sum "Si O2"
_cell_formula_units_Z 48
_cell_length_a 21.199605
_cell_length_b 16.853159
_cell_length_c 15.902159
_cell_angle_alpha 90.000000
_cell_angle_beta 153.826410
_cell_angle_gamma 90.000000
_cell_volume 2506.077969
_symmetry_space_group_name_H-M "C 2/M"
_symmetry_group_IT_number 12
_symmetry_cell_setting 'monoclinic'
loop_
_space_group_symop_operation_xyz
x,y,z
-x,y,-z
-x,-y,-z
x,-y,z
1/2+x,1/2+y,z
1/2-x,1/2+y,-z
1/2-x,1/2-y,-z
1/2+x,1/2-y,z
loop_
_atom_site_type_symbol
_atom_site_label
_atom_site_fract_x
_atom_site_fract_y
_atom_site_fract_z
Si Si1 0.394697 0.408346 0.494328
Si Si2 0.865706 0.906798 0.787171
Si Si3 0.129037 0.188620 0.373726
Si Si4 0.116869 0.300535 0.869862
Si Si5 0.547755 0.092694 0.461812
Si Si6 0.792964 0.908500 0.192276
O O1 0.359123 0.500000 0.467415
O O2 0.330767 0.357131 0.492929
O O3 0.321214 0.378400 0.320669
O O4 0.565156 0.395426 0.693640
O O5 0.879520 0.874708 0.710146
O O6 0.714774 0.884248 0.650434
O O7 0.880510 0.000000 0.797581
O O8 0.000000 0.871797 0.000000
O O9 0.250000 0.250000 0.500000
O O10 0.984438 0.236900 0.208675
O O11 0.045706 0.350166 0.709051
O O12 0.250000 0.250000 0.000000
O O13 0.161389 0.361542 0.995727
O O14 0.500000 0.109439 0.500000
O O15 0.521292 0.000000 0.406832
O O16 0.749899 0.000000 0.142030
#
# Coordination Sequence:
#
# PCOD8112996 Si02
#       6
#     8   8   8   8   8   8
#     4   9  19  38  63  87 116 156 201 246 290 350
#     4  10  23  43  65  88 119 163 209 251 302 365
#     4  12  24  40  58  88 128 162 194 244 307 360
#     4  12  24  38  60  92 126 161 195 246 306 360
#     4  10  23  43  65  89 120 160 208 257 300 355
#     4   9  19  38  63  89 115 152 203 249 291 347
#
# _framework density 19.153435000000002
#
# number of rings (size 3 to 8) (size 9 to 14) (size 15 to 20)
#    0.000    1.667    3.333    2.000    2.333    2.667 
#    0.000    0.000    0.000    2.000    0.000    0.000 
#    0.000    0.000    0.000    0.000    0.000    0.000 
#
# Total GULP energy -297610.744977 kJ/mol
# GULP energy per Si atom -12400.447707 kJ/mol
# Density = 1.910984 g / cm^3
# Si number density = 19.153435 Si / 1000 Ang^3
#
#
#
# Elastic Constant Matrix: (Units=GPa)
#
#
# Indices 1 2 3 4 5 6 
#
# 1 138.4673 56.3125 61.1142 0.0000 -0.9686 0.0000
# 2 56.3125 63.7318 53.8913 0.0000 -2.0015 0.0000
# 3 61.1142 53.8913 127.0498 0.0000 -0.1841 0.0000
# 4 0.0000 0.0000 0.0000 29.8853 0.0000 13.5995
# 5 -0.9686 -2.0015 -0.1841 0.0000 34.0990 0.0000
# 6 0.0000 0.0000 0.0000 13.5995 0.0000 16.9666
#
#
#
# Elastic Compliance Matrix: (Units=1/GPa)
#
#
# Indices 1 2 3 4 5 6 
#
# 1 0.011565 -0.008608 -0.001912 0.000000 -0.000187 0.000000
# 2 -0.008608 0.030938 -0.008980 0.000000 0.001523 0.000000
# 3 -0.001912 -0.008980 0.012599 0.000000 -0.000513 0.000000
# 4 0.000000 0.000000 0.000000 0.052674 0.000000 -0.042221
# 5 -0.000187 0.001523 -0.000513 0.000000 0.029408 0.000000
# 6 0.000000 0.000000 0.000000 -0.042221 0.000000 0.092781
#
#
# Mechanical properties :
#
#
# Convention : Reuss Voigt Hill
#
# Bulk Modulus (GPa) = 62.10494 74.65390 68.37942
# Shear Modulus (GPa) = 18.22598 26.71890 22.47244
#
# Velocity S-wave (km/s) = 3.08811 3.73901 3.42904
# Velocity P-wave (km/s) = 6.72388 7.59616 7.17329
#
# Compressibility (1/GPa) = 0.01610178
#
# Stress axis : x y z
#
# Youngs Moduli (GPa) = 86.46576 32.32261 79.36961
#
# Poissons Ratio (x) = 0.27823 0.15177
# Poissons Ratio (y) = 0.74428 0.71277
# Poissons Ratio (z) = 0.16534 0.29027
#
# Static dielectric constant tensor:
#      x y z
#    x 3.452440 0.000000 0.021980 
#    y 0.000000 3.601640 0.000000 
#    z 0.021980 0.000000 3.490800 
# 
# 
# High freq. dielectric constant tensor:
#      x y z
#    x 1.748530 0.000000 -0.004500 
#    y 0.000000 1.755380 0.000000 
#    z -0.004500 0.000000 1.744710 
# 
# From -- ./inp_files/226940.got.cif
#   From: 2010.06.25/outbox.cif.g09.slc.cpg/sg12_114_cif.got.tgz:226940.got - 2010.06.28 00:19:55.
