data_PCOD8112723
_publ_section_title
;
Structure prediction by ZEFSAII (Michael W. Deem and Ramdas Pophale) SiO2 
 PCOD8112723
Probable space group: C 2/M
;
_chemical_formula_sum "Si O2"
_cell_formula_units_Z 48
_cell_length_a 10.082481
_cell_length_b 25.147659
_cell_length_c 7.872310
_cell_angle_alpha 90.000000
_cell_angle_beta 109.376821
_cell_angle_gamma 90.000000
_cell_volume 1882.969212
_symmetry_space_group_name_H-M "C 2/M"
_symmetry_group_IT_number 12
_symmetry_cell_setting 'monoclinic'
loop_
_space_group_symop_operation_xyz
x,y,z
-x,y,-z
-x,-y,-z
x,-y,z
1/2+x,1/2+y,z
1/2-x,1/2+y,-z
1/2-x,1/2-y,-z
1/2+x,1/2-y,z
loop_
_atom_site_type_symbol
_atom_site_label
_atom_site_fract_x
_atom_site_fract_y
_atom_site_fract_z
Si Si1 0.502424 0.892817 0.812136
Si Si2 0.115636 0.299075 0.664865
Si Si3 0.698881 0.598072 0.028590
Si Si4 0.894416 0.205790 0.104103
Si Si5 0.297153 0.439565 0.335255
Si Si6 0.380183 0.364788 0.666026
O O1 0.507700 0.843213 0.690165
O O2 0.369838 0.930271 0.719089
O O3 0.500000 0.869664 0.000000
O O4 0.648583 0.926555 0.857728
O O5 0.176336 0.256222 0.830033
O O6 0.243492 0.326581 0.618660
O O7 0.000000 0.267700 0.500000
O O8 0.722194 0.663115 0.013508
O O9 0.643381 0.571437 0.830856
O O10 0.602095 0.596168 0.157204
O O11 0.982447 0.171929 0.281347
O O12 0.000000 0.224620 0.000000
O O13 0.330434 0.500000 0.397674
O O14 0.377863 0.401747 0.500025
#
# Coordination Sequence:
#
# PCOD8112723 Si02
#       6
#     8   8   8   8   8   8
#     4   9  19  37  59  86 125 154 198 254 301 357
#     4  11  21  35  60  94 123 163 201 246 301 364
#     4   9  22  40  61  89 124 159 202 250 298 365
#     4  10  23  41  62  90 125 169 203 242 303 369
#     4  11  23  41  66  92 119 158 209 261 316 358
#     4  10  23  42  62  90 129 160 204 255 302 362
#
# _framework density 25.491655000000002
#
# number of rings (size 3 to 8) (size 9 to 14) (size 15 to 20)
#    0.000    2.000    1.667    0.500    2.333   13.000 
#    0.000    7.500    0.000    3.000    0.000    0.000 
#    0.000    0.000    0.000    0.000    0.000    0.000 
#
# Total GULP energy -297344.775440 kJ/mol
# GULP energy per Si atom -12389.365643 kJ/mol
# Density = 2.543364 g / cm^3
# Si number density = 25.491655 Si / 1000 Ang^3
#
#
#
# Elastic Constant Matrix: (Units=GPa)
#
#
# Indices 1 2 3 4 5 6 
#
# 1 71.7764 33.1641 -1.4979 0.0000 -5.3009 0.0000
# 2 33.1641 104.7805 20.1443 0.0000 -9.3609 0.0000
# 3 -1.4979 20.1443 102.4287 0.0000 -7.5441 0.0000
# 4 0.0000 0.0000 0.0000 27.3845 0.0000 -10.9376
# 5 -5.3009 -9.3609 -7.5441 0.0000 19.2987 0.0000
# 6 0.0000 0.0000 0.0000 -10.9376 0.0000 17.5930
#
#
#
# Elastic Compliance Matrix: (Units=1/GPa)
#
#
# Indices 1 2 3 4 5 6 
#
# 1 0.016606 -0.005311 0.001476 0.000000 0.002562 0.000000
# 2 -0.005311 0.011954 -0.002172 0.000000 0.003491 0.000000
# 3 0.001476 -0.002172 0.010465 0.000000 0.003443 0.000000
# 4 0.000000 0.000000 0.000000 0.048580 0.000000 0.030202
# 5 0.002562 0.003491 0.003443 0.000000 0.055560 0.000000
# 6 0.000000 0.000000 0.000000 0.030202 0.000000 0.075618
#
#
# Mechanical properties :
#
#
# Convention : Reuss Voigt Hill
#
# Bulk Modulus (GPa) = 37.01987 42.51184 39.76585
# Shear Modulus (GPa) = 20.85074 28.00024 24.42549
#
# Velocity S-wave (km/s) = 2.86307 3.31782 3.09880
# Velocity P-wave (km/s) = 5.04812 5.60270 5.33262
#
# Compressibility (1/GPa) = 0.02701252
#
# Stress axis : x y z
#
# Youngs Moduli (GPa) = 60.21898 83.65374 95.55536
#
# Poissons Ratio (x) = 0.44427 -0.14104
# Poissons Ratio (y) = 0.31981 0.20750
# Poissons Ratio (z) = -0.08889 0.18166
#
# Static dielectric constant tensor:
#      x y z
#    x 4.746870 0.000000 0.105780 
#    y 0.000000 4.050600 0.000000 
#    z 0.105780 0.000000 4.946290 
# 
# 
# High freq. dielectric constant tensor:
#      x y z
#    x 2.026050 0.000000 0.016770 
#    y 0.000000 1.970630 0.000000 
#    z 0.016770 0.000000 2.044140 
# 
# From -- ./inp_files/52758.got.cif
#   From: 2010.06.25/outbox.cif.g09.slc.cpg/sg12_27_cif.got.tgz:52758.got - 2010.06.28 00:19:55.
