data_PCOD8112138
_publ_section_title
;
Structure prediction by ZEFSAII (Michael W. Deem and Ramdas Pophale) SiO2 
 PCOD8112138
Probable space group: C 2/M
;
_chemical_formula_sum "Si O2"
_cell_formula_units_Z 40
_cell_length_a 29.355880
_cell_length_b 8.974282
_cell_length_c 14.777695
_cell_angle_alpha 90.000000
_cell_angle_beta 149.276809
_cell_angle_gamma 90.000000
_cell_volume 1988.976674
_symmetry_space_group_name_H-M "C 2/M"
_symmetry_group_IT_number 12
_symmetry_cell_setting 'monoclinic'
loop_
_space_group_symop_operation_xyz
x,y,z
-x,y,-z
-x,-y,-z
x,-y,z
1/2+x,1/2+y,z
1/2-x,1/2+y,-z
1/2-x,1/2-y,-z
1/2+x,1/2-y,z
loop_
_atom_site_type_symbol
_atom_site_label
_atom_site_fract_x
_atom_site_fract_y
_atom_site_fract_z
Si Si1 0.529119 0.675858 0.281604
Si Si2 0.233828 0.828595 0.877838
Si Si3 0.440010 0.174817 0.483636
Si Si4 0.723275 0.675739 0.547241
Si Si5 0.862282 0.329391 0.935902
O O1 0.525082 0.500000 0.289393
O O2 0.511391 0.757634 0.346272
O O3 0.623800 0.727259 0.403185
O O4 0.450887 0.728509 0.080193
O O5 0.154946 0.752048 0.688350
O O6 0.321700 0.814526 0.966987
O O7 0.209195 0.000000 0.853472
O O8 0.250000 0.750000 0.000000
O O9 0.500000 0.212113 0.500000
O O10 0.426141 0.000000 0.472667
O O11 0.726817 0.500000 0.541806
O O12 0.750000 0.750000 0.500000
O O13 0.791401 0.729239 0.741238
O O14 0.888280 0.500000 0.960081
#
# Coordination Sequence:
#
# PCOD8112138 Si02
#       5
#     8   8   8   8   8
#     4  11  23  41  64  93 126 162 208 260 310 369
#     4  11  22  38  59  87 126 166 209 258 307 367
#     4  11  23  38  58  88 125 166 210 255 309 370
#     4  10  23  44  66  91 125 163 207 260 317 370
#     4  10  22  42  63  88 127 166 203 255 313 372
#
# _framework density 20.110842999999999
#
# number of rings (size 3 to 8) (size 9 to 14) (size 15 to 20)
#    0.000    1.400    2.000    3.000    0.000   11.200 
#    0.000    4.000    0.000    0.000    0.000    0.000 
#    0.000    0.000    0.000    0.000    0.000    0.000 
#
# Total GULP energy -248109.727244 kJ/mol
# GULP energy per Si atom -12405.486362 kJ/mol
# Density = 2.006507 g / cm^3
# Si number density = 20.110843 Si / 1000 Ang^3
#
#
#
# Elastic Constant Matrix: (Units=GPa)
#
#
# Indices 1 2 3 4 5 6 
#
# 1 115.2791 57.0647 59.9831 0.0000 -5.8774 0.0000
# 2 57.0647 84.4045 51.6315 0.0000 7.8590 0.0000
# 3 59.9831 51.6315 149.0976 0.0000 12.1857 0.0000
# 4 0.0000 0.0000 0.0000 42.2827 0.0000 -1.5455
# 5 -5.8774 7.8590 12.1857 0.0000 32.3855 0.0000
# 6 0.0000 0.0000 0.0000 -1.5455 0.0000 35.3832
#
#
#
# Elastic Compliance Matrix: (Units=1/GPa)
#
#
# Indices 1 2 3 4 5 6 
#
# 1 0.015123 -0.008589 -0.003616 0.000000 0.006189 0.000000
# 2 -0.008589 0.020006 -0.003042 0.000000 -0.005269 0.000000
# 3 -0.003616 -0.003042 0.009500 0.000000 -0.003493 0.000000
# 4 0.000000 0.000000 0.000000 0.023688 0.000000 0.001035
# 5 0.006189 -0.005269 -0.003493 0.000000 0.034594 0.000000
# 6 0.000000 0.000000 0.000000 0.001035 0.000000 0.028307
#
#
# Mechanical properties :
#
#
# Convention : Reuss Voigt Hill
#
# Bulk Modulus (GPa) = 70.73927 76.23775 73.48851
# Shear Modulus (GPa) = 30.04357 34.01706 32.03032
#
# Velocity S-wave (km/s) = 3.86929 4.11722 3.99518
# Velocity P-wave (km/s) = 7.43054 7.78416 7.60940
#
# Compressibility (1/GPa) = 0.01413642
#
# Stress axis : x y z
#
# Youngs Moduli (GPa) = 66.12322 49.98477 105.25792
#
# Poissons Ratio (x) = 0.42933 0.38058
# Poissons Ratio (y) = 0.56794 0.32018
# Poissons Ratio (z) = 0.23908 0.15205
#
# Static dielectric constant tensor:
#      x y z
#    x 3.581070 0.000000 0.043730 
#    y 0.000000 3.629840 0.000000 
#    z 0.043730 0.000000 3.764410 
# 
# 
# High freq. dielectric constant tensor:
#      x y z
#    x 1.781440 0.000000 0.001890 
#    y 0.000000 1.787220 0.000000 
#    z 0.001890 0.000000 1.800980 
# 
# From -- ./inp_files/211191.got.cif
#   From: 2010.06.25/outbox.cif.g09.slc.cpg/sg12_106_cif.got.tgz:211191.got - 2010.06.28 00:19:55.
