data_PCOD8112848
_publ_section_title
;
Structure prediction by ZEFSAII (Michael W. Deem and Ramdas Pophale) SiO2 
 PCOD8112848
Probable space group: C 2/M
;
_chemical_formula_sum "Si O2"
_cell_formula_units_Z 48
_cell_length_a 11.058084
_cell_length_b 25.393516
_cell_length_c 9.494271
_cell_angle_alpha 90.000000
_cell_angle_beta 68.763152
_cell_angle_gamma 90.000000
_cell_volume 2484.978753
_symmetry_space_group_name_H-M "C 2/M"
_symmetry_group_IT_number 12
_symmetry_cell_setting 'monoclinic'
loop_
_space_group_symop_operation_xyz
x,y,z
-x,y,-z
-x,-y,-z
x,-y,z
1/2+x,1/2+y,z
1/2-x,1/2+y,-z
1/2-x,1/2-y,-z
1/2+x,1/2-y,z
loop_
_atom_site_type_symbol
_atom_site_label
_atom_site_fract_x
_atom_site_fract_y
_atom_site_fract_z
Si Si1 0.453112 0.000000 0.178690
Si Si2 0.455361 0.442379 0.677991
Si Si3 0.374885 0.000000 0.651829
Si Si4 0.349189 0.195446 0.094365
Si Si5 0.289536 0.397907 0.337593
Si Si6 0.208574 0.604883 0.686529
Si Si7 0.656529 0.684939 0.917339
O O1 0.379138 0.947230 0.259507
O O2 0.588347 0.000000 0.201377
O O3 0.500000 0.000000 0.000000
O O4 0.500000 0.449983 0.500000
O O5 0.423208 0.500000 0.755024
O O6 0.560707 0.414062 0.728961
O O7 0.331342 0.405659 0.733811
O O8 0.500000 0.000000 0.500000
O O9 0.292745 0.051689 0.665344
O O10 0.347141 0.158976 0.232558
O O11 0.318460 0.255734 0.146411
O O12 0.500000 0.190961 0.000000
O O13 0.244396 0.176092 0.020781
O O14 0.242989 0.380877 0.511728
O O15 0.277068 0.351594 0.229419
O O16 0.500000 0.674253 0.000000
#
# Coordination Sequence:
#
# PCOD8112848 Si02
#       7
#     4   8   4   8   8   8   8
#     4  12  26  39  57  88 127 169 200 239 299 377
#     4   9  17  33  56  83 115 154 192 237 298 351
#     4  12  24  41  58  89 133 159 197 249 308 356
#     4  10  23  42  64  87 123 163 204 254 313 370
#     4  11  22  38  64  88 122 159 200 255 302 358
#     4  11  21  38  63  90 121 160 204 250 300 364
#     4  10  23  44  64  88 121 161 205 260 312 362
#
# _framework density 19.31606
#
# number of rings (size 3 to 8) (size 9 to 14) (size 15 to 20)
#    0.000    1.500    3.333    1.500    4.667    0.667 
#    0.000    0.417    0.000    7.000    0.000    0.000 
#    0.000    0.000    0.000    0.000    0.000    0.000 
#
# Total GULP energy -297324.534400 kJ/mol
# GULP energy per Si atom -12388.522267 kJ/mol
# Density = 1.927210 g / cm^3
# Si number density = 19.316060 Si / 1000 Ang^3
#
#
#
# Elastic Constant Matrix: (Units=GPa)
#
#
# Indices 1 2 3 4 5 6 
#
# 1 128.3413 41.6209 33.4207 0.0000 12.1813 0.0000
# 2 41.6209 142.8408 73.8098 0.0000 1.8267 0.0000
# 3 33.4207 73.8098 93.8701 0.0000 7.4792 0.0000
# 4 0.0000 0.0000 0.0000 126.8581 0.0000 -73.4485
# 5 12.1813 1.8267 7.4792 0.0000 25.0869 0.0000
# 6 0.0000 0.0000 0.0000 -73.4485 0.0000 81.1487
#
#
#
# Elastic Compliance Matrix: (Units=1/GPa)
#
#
# Indices 1 2 3 4 5 6 
#
# 1 0.009146 -0.001839 -0.001503 0.000000 -0.003859 0.000000
# 2 -0.001839 0.012256 -0.009200 0.000000 0.002744 0.000000
# 3 -0.001503 -0.009200 0.018756 0.000000 -0.004192 0.000000
# 4 0.000000 0.000000 0.000000 0.016562 0.000000 0.014990
# 5 -0.003859 0.002744 -0.004192 0.000000 0.042785 0.000000
# 6 0.000000 0.000000 0.000000 0.014990 0.000000 0.025891
#
#
# Mechanical properties :
#
#
# Convention : Reuss Voigt Hill
#
# Bulk Modulus (GPa) = 66.34201 73.63945 69.99073
# Shear Modulus (GPa) = 32.15331 61.03212 46.59272
#
# Velocity S-wave (km/s) = 4.08436 5.62718 4.91667
# Velocity P-wave (km/s) = 7.52747 8.96808 8.27917
#
# Compressibility (1/GPa) = 0.01507341
#
# Stress axis : x y z
#
# Youngs Moduli (GPa) = 109.34120 81.59450 53.31525
#
# Poissons Ratio (x) = 0.15006 0.08011
# Poissons Ratio (y) = 0.20109 0.49053
# Poissons Ratio (z) = 0.16430 0.75071
#
# Static dielectric constant tensor:
#      x y z
#    x 3.934860 0.000000 0.118040 
#    y 0.000000 3.719660 0.000000 
#    z 0.118040 0.000000 3.278810 
# 
# 
# High freq. dielectric constant tensor:
#      x y z
#    x 1.772850 0.000000 0.003850 
#    y 0.000000 1.759970 0.000000 
#    z 0.003850 0.000000 1.733390 
# 
# From -- ./inp_files/51371.got.cif
#   From: 2010.06.25/outbox.cif.g09.slc.cpg/sg12_26_cif.got.tgz:51371.got - 2010.06.28 00:19:55.
