data_PCOD8112450
_publ_section_title
;
Structure prediction by ZEFSAII (Michael W. Deem and Ramdas Pophale) SiO2 
 PCOD8112450
Probable space group: C 2/M
;
_chemical_formula_sum "Si O2"
_cell_formula_units_Z 48
_cell_length_a 11.794626
_cell_length_b 21.159443
_cell_length_c 11.627241
_cell_angle_alpha 90.000000
_cell_angle_beta 132.421487
_cell_angle_gamma 90.000000
_cell_volume 2142.103939
_symmetry_space_group_name_H-M "C 2/M"
_symmetry_group_IT_number 12
_symmetry_cell_setting 'monoclinic'
loop_
_space_group_symop_operation_xyz
x,y,z
-x,y,-z
-x,-y,-z
x,-y,z
1/2+x,1/2+y,z
1/2-x,1/2+y,-z
1/2-x,1/2-y,-z
1/2+x,1/2-y,z
loop_
_atom_site_type_symbol
_atom_site_label
_atom_site_fract_x
_atom_site_fract_y
_atom_site_fract_z
Si Si1 0.804902 0.364696 0.190963
Si Si2 0.883959 0.238977 0.824028
Si Si3 0.645287 0.427511 0.678898
Si Si4 0.873059 0.361271 0.684170
Si Si5 0.274378 0.929340 0.394938
Si Si6 0.546651 0.379120 0.842269
O O1 0.759595 0.296407 0.213134
O O2 0.855654 0.411281 0.329703
O O3 0.942091 0.360297 0.192933
O O4 0.658172 0.393856 0.025541
O O5 0.817350 0.293873 0.696167
O O6 0.977813 0.190856 0.807711
O O7 0.000000 0.267068 0.000000
O O8 0.500000 0.410687 0.500000
O O9 0.641470 0.500000 0.714824
O O10 0.804428 0.414887 0.720825
O O11 0.640168 0.383337 0.787463
O O12 0.812631 0.375640 0.514894
O O13 0.090830 0.929774 0.250739
O O14 0.325645 0.000000 0.467627
#
# Coordination Sequence:
#
# PCOD8112450 Si02
#       6
#     8   8   8   8   8   8
#     4  10  25  43  66 104 130 166 228 279 335 385
#     4   9  23  44  69  97 136 175 219 275 340 398
#     4  11  24  44  66  95 138 184 220 264 331 404
#     4  12  25  40  69  98 134 176 218 274 338 396
#     4  11  23  45  68  92 135 182 221 271 331 397
#     4  10  22  44  70  98 129 177 226 270 327 405
#
# _framework density 22.407876999999999
#
# number of rings (size 3 to 8) (size 9 to 14) (size 15 to 20)
#    0.000    1.500    1.667    3.000    4.667    8.000 
#    0.000    0.833    0.000    0.000    0.000    0.000 
#    0.000    0.000    0.000    0.000    0.000    0.000 
#
# Total GULP energy -297603.303000 kJ/mol
# GULP energy per Si atom -12400.137625 kJ/mol
# Density = 2.235688 g / cm^3
# Si number density = 22.407877 Si / 1000 Ang^3
#
#
#
# Elastic Constant Matrix: (Units=GPa)
#
#
# Indices 1 2 3 4 5 6 
#
# 1 145.6902 29.9303 23.0690 0.0000 -3.3229 0.0000
# 2 29.9303 108.7756 56.8867 0.0000 -9.7027 0.0000
# 3 23.0690 56.8867 79.0814 0.0000 -14.5853 0.0000
# 4 0.0000 0.0000 0.0000 25.9988 0.0000 -5.9255
# 5 -3.3229 -9.7027 -14.5853 0.0000 37.0776 0.0000
# 6 0.0000 0.0000 0.0000 -5.9255 0.0000 26.2224
#
#
#
# Elastic Compliance Matrix: (Units=1/GPa)
#
#
# Indices 1 2 3 4 5 6 
#
# 1 0.007336 -0.001440 -0.001135 0.000000 -0.000166 0.000000
# 2 -0.001440 0.015024 -0.010444 0.000000 -0.000306 0.000000
# 3 -0.001135 -0.010444 0.021528 0.000000 0.005634 0.000000
# 4 0.000000 0.000000 0.000000 0.040552 0.000000 0.009164
# 5 -0.000166 -0.000306 0.005634 0.000000 0.029092 0.000000
# 6 0.000000 0.000000 0.000000 0.009164 0.000000 0.040206
#
#
# Mechanical properties :
#
#
# Convention : Reuss Voigt Hill
#
# Bulk Modulus (GPa) = 56.01970 61.47993 58.74981
# Shear Modulus (GPa) = 26.92165 32.77049 29.84607
#
# Velocity S-wave (km/s) = 3.46994 3.82835 3.65354
# Velocity P-wave (km/s) = 6.41157 6.85843 6.63876
#
# Compressibility (1/GPa) = 0.01785086
#
# Stress axis : x y z
#
# Youngs Moduli (GPa) = 136.32218 66.56044 46.45125
#
# Poissons Ratio (x) = 0.09583 0.05271
# Poissons Ratio (y) = 0.19627 0.48513
# Poissons Ratio (z) = 0.15469 0.69514
#
# Static dielectric constant tensor:
#      x y z
#    x 4.244910 0.000000 -0.080880 
#    y 0.000000 3.755160 0.000000 
#    z -0.080880 0.000000 3.990710 
# 
# 
# High freq. dielectric constant tensor:
#      x y z
#    x 1.896340 0.000000 -0.008520 
#    y 0.000000 1.863270 0.000000 
#    z -0.008520 0.000000 1.876830 
# 
# From -- ./inp_files/134081.got.cif
#   From: 2010.06.25/outbox.cif.g09.slc.cpg/sg12_68_cif.got.tgz:134081.got - 2010.06.28 00:19:55.
