data_PCOD8112787
_publ_section_title
;
Structure prediction by ZEFSAII (Michael W. Deem and Ramdas Pophale) SiO2 
 PCOD8112787
Probable space group: C 2/M
;
_chemical_formula_sum "Si O2"
_cell_formula_units_Z 60
_cell_length_a 31.437901
_cell_length_b 16.914813
_cell_length_c 18.753086
_cell_angle_alpha 90.000000
_cell_angle_beta 162.773640
_cell_angle_gamma 90.000000
_cell_volume 2953.259279
_symmetry_space_group_name_H-M "C 2/M"
_symmetry_group_IT_number 12
_symmetry_cell_setting 'monoclinic'
loop_
_space_group_symop_operation_xyz
x,y,z
-x,y,-z
-x,-y,-z
x,-y,z
1/2+x,1/2+y,z
1/2-x,1/2+y,-z
1/2-x,1/2-y,-z
1/2+x,1/2-y,z
loop_
_atom_site_type_symbol
_atom_site_label
_atom_site_fract_x
_atom_site_fract_y
_atom_site_fract_z
Si Si1 0.278123 0.911234 0.416221
Si Si2 0.706308 0.159007 0.930383
Si Si3 0.858479 0.841580 0.930878
Si Si4 0.940684 0.907810 0.212873
Si Si5 0.403640 0.906768 0.098893
Si Si6 0.500000 0.774312 0.500000
Si Si7 0.390475 0.708763 0.761788
Si Si8 0.823401 0.810080 0.336687
O O1 0.210019 0.908988 0.228298
O O2 0.439263 0.875908 0.672230
O O3 0.175459 0.866960 0.305993
O O4 0.285377 0.000000 0.455660
O O5 0.643875 0.134175 0.905063
O O6 0.578492 0.158377 0.670342
O O7 0.750000 0.250000 0.000000
O O8 0.833109 0.101087 0.107695
O O9 0.753317 0.766670 0.754784
O O10 0.864521 0.876125 0.019825
O O11 0.015718 0.816749 0.155737
O O12 0.073631 0.849261 0.439648
O O13 0.985964 0.000000 0.278525
O O14 0.400008 0.000000 0.102727
O O15 0.293033 0.878607 0.862238
O O16 0.595770 0.714057 0.606743
O O17 0.250000 0.750000 0.500000
O O18 0.500000 0.748436 0.000000
#
# Coordination Sequence:
#
# PCOD8112787 Si02
#       8
#     8   8   8   8   8   4   8   8
#     4  10  23  43  67  95 127 165 211 267 326 381
#     4  12  22  39  59  88 120 167 214 264 314 375
#     4  11  24  40  68  93 128 165 213 263 315 387
#     4  12  26  41  61  96 135 167 211 268 326 380
#     4  11  23  40  62  88 125 167 212 262 320 383
#     4  12  22  36  60  86 116 164 216 262 310 370
#     4  10  23  41  69  98 125 164 216 268 323 390
#     4  12  23  39  65  90 127 170 216 258 316 385
#
# _framework density 20.316537
#
# number of rings (size 3 to 8) (size 9 to 14) (size 15 to 20)
#    0.000    0.800    4.000    2.800    5.600    2.933 
#    0.000    2.667    0.000    0.400    0.000    0.000 
#    0.000    0.000    0.000    0.000    0.000    0.000 
#
# Total GULP energy -371719.496912 kJ/mol
# GULP energy per Si atom -12390.649897 kJ/mol
# Density = 2.027030 g / cm^3
# Si number density = 20.316537 Si / 1000 Ang^3
#
#
#
# Elastic Constant Matrix: (Units=GPa)
#
#
# Indices 1 2 3 4 5 6 
#
# 1 163.1493 58.3940 76.5415 0.0000 -16.5881 0.0000
# 2 58.3940 102.2612 49.3578 0.0000 -4.4001 0.0000
# 3 76.5415 49.3578 153.3178 0.0000 -16.4708 0.0000
# 4 0.0000 0.0000 0.0000 33.4614 0.0000 0.3030
# 5 -16.5881 -4.4001 -16.4708 0.0000 52.0806 0.0000
# 6 0.0000 0.0000 0.0000 0.3030 0.0000 22.8608
#
#
#
# Elastic Compliance Matrix: (Units=1/GPa)
#
#
# Indices 1 2 3 4 5 6 
#
# 1 0.009071 -0.003561 -0.003213 0.000000 0.001572 0.000000
# 2 -0.003561 0.012978 -0.002489 0.000000 -0.000825 0.000000
# 3 -0.003213 -0.002489 0.009105 0.000000 0.001646 0.000000
# 4 0.000000 0.000000 0.000000 0.029889 0.000000 -0.000396
# 5 0.001572 -0.000825 0.001646 0.000000 0.020153 0.000000
# 6 0.000000 0.000000 0.000000 -0.000396 0.000000 0.043748
#
#
# Mechanical properties :
#
#
# Convention : Reuss Voigt Hill
#
# Bulk Modulus (GPa) = 79.19352 87.47943 83.33647
# Shear Modulus (GPa) = 33.85700 37.30957 35.58328
#
# Velocity S-wave (km/s) = 4.08668 4.28999 4.18957
# Velocity P-wave (km/s) = 7.83150 8.22742 8.03190
#
# Compressibility (1/GPa) = 0.01262730
#
# Stress axis : x y z
#
# Youngs Moduli (GPa) = 110.23596 77.05175 109.83454
#
# Poissons Ratio (x) = 0.27442 0.35294
# Poissons Ratio (y) = 0.39260 0.27335
# Poissons Ratio (z) = 0.35423 0.19176
#
# Static dielectric constant tensor:
#      x y z
#    x 3.641280 0.000000 0.197130 
#    y 0.000000 7.524970 0.000000 
#    z 0.197130 0.000000 3.659560 
# 
# 
# High freq. dielectric constant tensor:
#      x y z
#    x 1.793170 0.000000 0.002920 
#    y 0.000000 1.780470 0.000000 
#    z 0.002920 0.000000 1.820150 
# 
# From -- ./inp_files/297004.got.cif
#   From: 2010.06.25/outbox.cif.g09.slc.cpg/sg12_149_cif.got.tgz:297004.got - 2010.06.28 00:19:55.
