data_PCOD8112984
_publ_section_title
;
Structure prediction by ZEFSAII (Michael W. Deem and Ramdas Pophale) SiO2 
 PCOD8112984
Probable space group: C 2/M
;
_chemical_formula_sum "Si O2"
_cell_formula_units_Z 48
_cell_length_a 13.234832
_cell_length_b 13.047213
_cell_length_c 16.326082
_cell_angle_alpha 90.000000
_cell_angle_beta 119.415354
_cell_angle_gamma 90.000000
_cell_volume 2455.711320
_symmetry_space_group_name_H-M "C 2/M"
_symmetry_group_IT_number 12
_symmetry_cell_setting 'monoclinic'
loop_
_space_group_symop_operation_xyz
x,y,z
-x,y,-z
-x,-y,-z
x,-y,z
1/2+x,1/2+y,z
1/2-x,1/2+y,-z
1/2-x,1/2-y,-z
1/2+x,1/2-y,z
loop_
_atom_site_type_symbol
_atom_site_label
_atom_site_fract_x
_atom_site_fract_y
_atom_site_fract_z
Si Si1 0.238484 0.753031 0.744174
Si Si2 0.922534 0.385870 0.573978
Si Si3 0.302718 0.617334 0.614133
Si Si4 0.052539 0.380745 0.108134
Si Si5 0.929175 0.614350 0.219880
Si Si6 0.018326 0.176150 0.594043
O O1 0.286022 0.686970 0.686967
O O2 0.338057 0.808825 0.833539
O O3 0.170322 0.684733 0.782715
O O4 0.149826 0.840874 0.676123
O O5 0.957649 0.500000 0.555857
O O6 0.790555 0.359647 0.495619
O O7 0.007594 0.299284 0.571695
O O8 0.946230 0.379835 0.681590
O O9 0.294347 0.500000 0.639437
O O10 0.428682 0.638506 0.626452
O O11 0.089187 0.500000 0.127394
O O12 0.955127 0.354512 0.136994
O O13 0.000000 0.351707 0.000000
O O14 0.878943 0.500000 0.204414
O O15 0.000000 0.118082 0.500000
#
# Coordination Sequence:
#
# PCOD8112984 Si02
#       6
#     8   8   8   8   8   8
#     4  11  21  37  62  84 113 152 192 239 282 337
#     4   9  18  33  55  81 116 159 199 232 266 322
#     4  11  23  37  54  82 122 162 194 231 278 333
#     4  10  23  43  64  86 112 144 189 243 296 346
#     4   9  19  35  58  88 115 149 196 236 277 334
#     4  11  22  33  53  83 122 153 197 233 279 336
#
# _framework density 19.546271000000001
#
# number of rings (size 3 to 8) (size 9 to 14) (size 15 to 20)
#    0.000    1.833    1.667    3.000    2.333    2.667 
#    0.000    0.000    0.000    2.000    0.000    0.000 
#    0.000    0.000    0.000    0.000    0.000    0.000 
#
# Total GULP energy -297395.819362 kJ/mol
# GULP energy per Si atom -12391.492473 kJ/mol
# Density = 1.950178 g / cm^3
# Si number density = 19.546271 Si / 1000 Ang^3
#
#
#
# Elastic Constant Matrix: (Units=GPa)
#
#
# Indices 1 2 3 4 5 6 
#
# 1 118.4187 40.6150 81.8763 0.0000 -7.1940 0.0000
# 2 40.6150 67.0398 49.1105 0.0000 7.3336 0.0000
# 3 81.8763 49.1105 149.4072 0.0000 -13.8513 0.0000
# 4 0.0000 0.0000 0.0000 22.2751 0.0000 9.6783
# 5 -7.1940 7.3336 -13.8513 0.0000 31.6562 0.0000
# 6 0.0000 0.0000 0.0000 9.6783 0.0000 0.4896
#
#
#
# Elastic Compliance Matrix: (Units=1/GPa)
#
#
# Indices 1 2 3 4 5 6 
#
# 1 0.014373 -0.004210 -0.006357 0.000000 0.001460 0.000000
# 2 -0.004210 0.022857 -0.006030 0.000000 -0.008891 0.000000
# 3 -0.006357 -0.006030 0.012668 0.000000 0.005495 0.000000
# 4 0.000000 0.000000 0.000000 -0.005916 0.000000 0.116940
# 5 0.001460 -0.008891 0.005495 0.000000 0.036385 0.000000
# 6 0.000000 0.000000 0.000000 0.116940 0.000000 -0.269143
#
#
# Mechanical properties :
#
#
# Convention : Reuss Voigt Hill
#
# Bulk Modulus (GPa) = 59.86828 75.34104 67.60466
# Shear Modulus (GPa) = -33.33056 21.76844 -5.78106
#
# Velocity S-wave (km/s) = -4.13390 3.34082 -1.72164
# Velocity P-wave (km/s) = 2.81246 7.31506 5.54166
#
# Compressibility (1/GPa) = 0.01670334
#
# Stress axis : x y z
#
# Youngs Moduli (GPa) = 69.57636 43.74973 78.93621
#
# Poissons Ratio (x) = 0.18420 0.50180
# Poissons Ratio (y) = 0.29294 0.47600
# Poissons Ratio (z) = 0.44230 0.26382
#
# Static dielectric constant tensor:
#      x y z
#    x 3.349750 0.000000 -0.048410 
#    y 0.000000 3.639390 0.000000 
#    z -0.048410 0.000000 3.589640 
# 
# 
# High freq. dielectric constant tensor:
#      x y z
#    x 1.754330 0.000000 -0.013450 
#    y 0.000000 1.758720 0.000000 
#    z -0.013450 0.000000 1.748130 
# 
# From -- ./inp_files/143075.got.cif
#   From: 2010.06.25/outbox.cif.g09.slc.cpg/sg12_72_cif.got.tgz:143075.got - 2010.06.28 00:19:55.
