data_PCOD8112649
_publ_section_title
;
Structure prediction by ZEFSAII (Michael W. Deem and Ramdas Pophale) SiO2 
 PCOD8112649
Probable space group: C 2/M
;
_chemical_formula_sum "Si O2"
_cell_formula_units_Z 64
_cell_length_a 26.210249
_cell_length_b 21.149721
_cell_length_c 20.329831
_cell_angle_alpha 90.000000
_cell_angle_beta 164.302825
_cell_angle_gamma 90.000000
_cell_volume 3049.031275
_symmetry_space_group_name_H-M "C 2/M"
_symmetry_group_IT_number 12
_symmetry_cell_setting 'monoclinic'
loop_
_space_group_symop_operation_xyz
x,y,z
-x,y,-z
-x,-y,-z
x,-y,z
1/2+x,1/2+y,z
1/2-x,1/2+y,-z
1/2-x,1/2-y,-z
1/2+x,1/2-y,z
loop_
_atom_site_type_symbol
_atom_site_label
_atom_site_fract_x
_atom_site_fract_y
_atom_site_fract_z
Si Si1 0.012213 0.156772 0.412125
Si Si2 0.126241 0.652177 0.988908
Si Si3 0.837387 0.431317 0.848799
Si Si4 0.967563 0.572165 0.252059
Si Si5 0.456762 0.790288 0.520024
Si Si6 0.933628 0.216490 0.757727
Si Si7 0.820127 0.867050 0.740620
Si Si8 0.808383 0.157158 0.023342
O O1 0.158492 0.099688 0.590008
O O2 0.119140 0.218677 0.571298
O O3 0.850262 0.141057 0.263758
O O4 0.916406 0.174242 0.223886
O O5 0.063169 0.611079 0.972411
O O6 0.033401 0.623368 0.807969
O O7 0.082503 0.725922 0.947746
O O8 0.773562 0.500000 0.797373
O O9 0.000000 0.442708 0.000000
O O10 0.930579 0.500000 0.183693
O O11 0.181595 0.577440 0.544090
O O12 0.805111 0.590558 0.104685
O O13 0.500000 0.813298 0.500000
O O14 0.286382 0.831623 0.333486
O O15 0.642588 0.794145 0.797426
O O16 0.750000 0.250000 0.500000
O O17 0.881141 0.183834 0.761087
O O18 0.028723 0.160848 0.830737
O O19 0.000000 0.898292 0.000000
#
# Coordination Sequence:
#
# PCOD8112649 Si02
#       8
#     8   8   8   8   8   8   8   8
#     4  11  23  37  64  91 122 173 211 263 313 382
#     4  11  23  41  66  95 126 172 218 265 321 385
#     4  11  27  44  59  90 133 174 220 268 316 379
#     4  10  23  45  68  90 125 176 224 264 313 382
#     4  11  21  38  61  94 133 166 208 262 322 387
#     4  12  23  40  65 103 137 165 204 270 340 390
#     4  11  25  38  63 101 134 167 208 269 326 389
#     4  10  23  40  64  95 131 160 218 265 323 386
#
# _framework density 20.990273999999999
#
# number of rings (size 3 to 8) (size 9 to 14) (size 15 to 20)
#    0.000    1.125    2.500    3.375    7.000    3.250 
#    0.000    0.625    0.000   12.750    0.000    0.000 
#    0.000    0.000    0.000    0.000    0.000    0.000 
#
# Total GULP energy -396528.334692 kJ/mol
# GULP energy per Si atom -12391.510459 kJ/mol
# Density = 2.094250 g / cm^3
# Si number density = 20.990274 Si / 1000 Ang^3
#
#
#
# Elastic Constant Matrix: (Units=GPa)
#
#
# Indices 1 2 3 4 5 6 
#
# 1 109.6509 37.6406 22.8704 0.0076 5.9733 0.0038
# 2 37.6406 87.1963 11.2636 0.0024 0.9663 0.0012
# 3 22.8704 11.2636 106.3806 0.0098 4.9062 0.0033
# 4 0.0076 0.0024 0.0098 14.3372 0.0071 2.6519
# 5 5.9733 0.9663 4.9062 0.0071 28.7594 0.0031
# 6 0.0038 0.0012 0.0033 2.6519 0.0031 24.4124
#
#
#
# Elastic Compliance Matrix: (Units=1/GPa)
#
#
# Indices 1 2 3 4 5 6 
#
# 1 0.011170 -0.004565 -0.001833 -0.000003 -0.001854 -0.000001
# 2 -0.004565 0.013494 -0.000474 0.000000 0.000576 0.000000
# 3 -0.001833 -0.000474 0.009904 -0.000005 -0.001293 0.000000
# 4 -0.000003 0.000000 -0.000005 0.071179 -0.000015 -0.007732
# 5 -0.001854 0.000576 -0.001293 -0.000015 0.035358 -0.000002
# 6 -0.000001 0.000000 0.000000 -0.007732 -0.000002 0.041803
#
#
# Mechanical properties :
#
#
# Convention : Reuss Voigt Hill
#
# Bulk Modulus (GPa) = 48.01816 49.64190 48.83003
# Shear Modulus (GPa) = 24.55909 28.93201 26.74555
#
# Velocity S-wave (km/s) = 3.42427 3.71665 3.57345
# Velocity P-wave (km/s) = 6.20969 6.48993 6.35136
#
# Compressibility (1/GPa) = 0.02082546
#
# Stress axis : x y z
#
# Youngs Moduli (GPa) = 89.52558 74.10898 100.96919
#
# Poissons Ratio (x) = 0.33827 0.18504
# Poissons Ratio (y) = 0.40864 0.04785
# Poissons Ratio (z) = 0.16406 0.03512
#
# Static dielectric constant tensor:
#      x y z
#    x 3.923700 -0.000010 0.122290 
#    y -0.000010 3.656030 -0.000010 
#    z 0.122290 -0.000010 3.964150 
# 
# 
# High freq. dielectric constant tensor:
#      x y z
#    x 1.827430 0.000000 0.000470 
#    y 0.000000 1.796810 0.000000 
#    z 0.000470 0.000000 1.837730 
# 
# From -- ./inp_files/291104.got.cif
#   From: 2010.06.25/outbox.cif.g09.slc.cpg/sg12_146_cif.got.tgz:291104.got - 2010.06.28 00:19:55.
