data_PCOD8112632
_publ_section_title
;
Structure prediction by ZEFSAII (Michael W. Deem and Ramdas Pophale) SiO2 
 PCOD8112632
Probable space group: C 2/M
;
_chemical_formula_sum "Si O2"
_cell_formula_units_Z 40
_cell_length_a 12.879422
_cell_length_b 15.972345
_cell_length_c 25.137443
_cell_angle_alpha 90.000000
_cell_angle_beta 21.575414
_cell_angle_gamma 90.000000
_cell_volume 1901.559659
_symmetry_space_group_name_H-M "C 2/M"
_symmetry_group_IT_number 12
_symmetry_cell_setting 'monoclinic'
loop_
_space_group_symop_operation_xyz
x,y,z
-x,y,-z
-x,-y,-z
x,-y,z
1/2+x,1/2+y,z
1/2-x,1/2+y,-z
1/2-x,1/2-y,-z
1/2+x,1/2-y,z
loop_
_atom_site_type_symbol
_atom_site_label
_atom_site_fract_x
_atom_site_fract_y
_atom_site_fract_z
Si Si1 0.953873 0.655981 0.360204
Si Si2 0.920315 0.833772 0.909648
Si Si3 0.937043 0.500000 0.754656
Si Si4 0.705433 0.500000 0.976692
Si Si5 0.829904 0.097228 0.843918
Si Si6 0.726453 0.169374 0.438219
O O1 0.284697 0.678976 0.200818
O O2 0.897273 0.580291 0.346571
O O3 0.765499 0.731829 0.428570
O O4 0.869606 0.628585 0.460211
O O5 0.974245 0.847624 0.821442
O O6 0.750000 0.750000 0.000000
O O7 0.743653 0.915086 0.014062
O O8 0.931958 0.500000 0.820989
O O9 0.617027 0.500000 0.887454
O O10 0.977620 0.125870 0.718830
O O11 0.886936 0.000000 0.827415
O O12 0.500000 0.118119 0.000000
O O13 0.500000 0.151558 0.500000
#
# Coordination Sequence:
#
# PCOD8112632 Si02
#       6
#     8   8   4   4   8   8
#     4  10  23  40  62  94 123 162 218 253 307 386
#     4  11  21  38  64  91 126 168 209 258 316 374
#     4   9  20  38  59  85 123 159 203 260 303 370
#     4   9  20  36  56  90 121 160 211 253 305 373
#     4  11  24  41  62  95 129 161 209 265 314 374
#     4  11  23  41  65  91 126 166 207 261 314 375
#
# _framework density 21.035364000000001
#
# number of rings (size 3 to 8) (size 9 to 14) (size 15 to 20)
#    0.000    1.600    3.000    1.200    4.200    0.400 
#    0.000    0.500    0.000    0.000    0.000    0.000 
#    0.000    0.000    0.000    0.000    0.000    0.000 
#
# Total GULP energy -248038.174592 kJ/mol
# GULP energy per Si atom -12401.908730 kJ/mol
# Density = 2.098749 g / cm^3
# Si number density = 21.035364 Si / 1000 Ang^3
#
#
#
# Elastic Constant Matrix: (Units=GPa)
#
#
# Indices 1 2 3 4 5 6 
#
# 1 46.6386 10.5840 26.2619 -0.0428 18.5436 -0.0152
# 2 10.5840 101.1166 44.4068 -0.4442 18.6624 0.0395
# 3 26.2619 44.4068 119.5360 -0.2765 27.3381 0.2177
# 4 -0.0428 -0.4442 -0.2765 35.6111 -0.1522 6.3230
# 5 18.5436 18.6624 27.3381 -0.1522 38.0654 0.1028
# 6 -0.0152 0.0395 0.2177 6.3230 0.1028 24.7714
#
#
#
# Elastic Compliance Matrix: (Units=1/GPa)
#
#
# Indices 1 2 3 4 5 6 
#
# 1 0.027894 0.000855 -0.003880 -0.000053 -0.011222 0.000110
# 2 0.000855 0.012171 -0.003888 0.000107 -0.003591 0.000003
# 3 -0.003880 -0.003888 0.011719 0.000034 -0.004620 -0.000089
# 4 -0.000053 0.000107 0.000034 0.029416 0.000087 -0.007509
# 5 -0.011222 -0.003591 -0.004620 0.000087 0.036817 -0.000136
# 6 0.000110 0.000003 -0.000089 -0.007509 -0.000136 0.042287
#
#
# Mechanical properties :
#
#
# Convention : Reuss Voigt Hill
#
# Bulk Modulus (GPa) = 26.34427 47.75520 37.04973
# Shear Modulus (GPa) = 26.76919 32.09214 29.43067
#
# Velocity S-wave (km/s) = 3.57119 3.91017 3.74452
# Velocity P-wave (km/s) = 5.43650 6.56791 6.02881
#
# Compressibility (1/GPa) = 0.03795891
#
# Stress axis : x y z
#
# Youngs Moduli (GPa) = 35.85016 82.16514 85.33034
#
# Poissons Ratio (x) = -0.07025 0.33106
# Poissons Ratio (y) = -0.03065 0.33173
# Poissons Ratio (z) = 0.13909 0.31943
#
# Static dielectric constant tensor:
#      x y z
#    x 3.683710 0.000060 0.273900 
#    y 0.000060 3.735920 0.000290 
#    z 0.273900 0.000290 3.851220 
# 
# 
# High freq. dielectric constant tensor:
#      x y z
#    x 1.812920 0.000020 0.017960 
#    y 0.000020 1.825400 0.000010 
#    z 0.017960 0.000010 1.825570 
# 
# From -- ./inp_files/111874.got.cif
#   From: 2010.06.25/outbox.cif.g09.slc.cpg/sg12_56_cif.got.tgz:111874.got - 2010.06.28 00:19:55.
