data_PCOD8112441
_publ_section_title
;
Structure prediction by ZEFSAII (Michael W. Deem and Ramdas Pophale) SiO2 
 PCOD8112441
Probable space group: C 2/M
;
_chemical_formula_sum "Si O2"
_cell_formula_units_Z 64
_cell_length_a 29.501682
_cell_length_b 22.950767
_cell_length_c 8.749590
_cell_angle_alpha 90.000000
_cell_angle_beta 149.360166
_cell_angle_gamma 90.000000
_cell_volume 3019.221283
_symmetry_space_group_name_H-M "C 2/M"
_symmetry_group_IT_number 12
_symmetry_cell_setting 'monoclinic'
loop_
_space_group_symop_operation_xyz
x,y,z
-x,y,-z
-x,-y,-z
x,-y,z
1/2+x,1/2+y,z
1/2-x,1/2+y,-z
1/2-x,1/2-y,-z
1/2+x,1/2-y,z
loop_
_atom_site_type_symbol
_atom_site_label
_atom_site_fract_x
_atom_site_fract_y
_atom_site_fract_z
Si Si1 0.070789 0.739335 0.822467
Si Si2 0.863795 0.064646 0.095468
Si Si3 0.216748 0.876322 0.573062
Si Si4 0.596324 0.565839 0.451282
Si Si5 0.445908 0.643072 0.099395
Si Si6 0.681260 0.933189 0.389994
Si Si7 0.250320 0.244220 0.818791
Si Si8 0.404422 0.181189 0.792515
O O1 0.019141 0.793303 0.752377
O O2 0.000000 0.709731 0.500000
O O3 0.156280 0.765917 0.981254
O O4 0.100008 0.694893 0.039345
O O5 0.856801 0.081199 0.252512
O O6 0.935861 0.104665 0.222042
O O7 0.901166 0.000000 0.181218
O O8 0.766888 0.070064 0.744176
O O9 0.169575 0.926525 0.533767
O O10 0.295971 0.909092 0.713589
O O11 0.248564 0.824433 0.774640
O O12 0.148281 0.847844 0.255556
O O13 0.559642 0.500000 0.337497
O O14 0.515399 0.610881 0.189140
O O15 0.611180 0.888616 0.264732
O O16 0.644575 0.000000 0.275057
O O17 0.170210 0.281662 0.513635
O O18 0.250000 0.250000 0.000000
O O19 0.500000 0.197119 0.000000
#
# Coordination Sequence:
#
# PCOD8112441 Si02
#       8
#     8   8   8   8   8   8   8   8
#     4  12  25  44  66 101 134 171 220 274 337 405
#     4   9  19  36  58  87 123 168 222 270 319 386
#     4  11  23  39  62  91 129 173 220 266 326 397
#     4  11  23  36  55  91 132 173 220 267 320 392
#     4  11  22  35  59  86 129 172 214 262 325 391
#     4  10  22  44  69  91 122 170 221 280 343 394
#     4  12  26  44  70 100 138 181 222 276 339 398
#     4  12  26  45  70 102 134 174 224 281 336 407
#
# _framework density 21.197520000000001
#
# number of rings (size 3 to 8) (size 9 to 14) (size 15 to 20)
#    0.000    1.000    2.500    4.875    7.000    3.250 
#    0.000    0.000    0.000    0.375    0.000    0.000 
#    0.000    0.000    0.000    0.000    0.000    0.000 
#
# Total GULP energy -396799.158379 kJ/mol
# GULP energy per Si atom -12399.973699 kJ/mol
# Density = 2.114927 g / cm^3
# Si number density = 21.197520 Si / 1000 Ang^3
#
#
#
# Elastic Constant Matrix: (Units=GPa)
#
#
# Indices 1 2 3 4 5 6 
#
# 1 94.9579 17.4526 35.8714 0.0000 -2.5430 0.0000
# 2 17.4526 112.1296 28.8573 0.0000 -2.9312 0.0000
# 3 35.8714 28.8573 89.7040 0.0000 -9.3021 0.0000
# 4 0.0000 0.0000 0.0000 25.8829 0.0000 -0.4439
# 5 -2.5430 -2.9312 -9.3021 0.0000 39.2082 0.0000
# 6 0.0000 0.0000 0.0000 -0.4439 0.0000 34.0217
#
#
#
# Elastic Compliance Matrix: (Units=1/GPa)
#
#
# Indices 1 2 3 4 5 6 
#
# 1 0.012463 -0.000716 -0.004793 0.000000 -0.000382 0.000000
# 2 -0.000716 0.009764 -0.002854 0.000000 0.000006 0.000000
# 3 -0.004793 -0.002854 0.014280 0.000000 0.002864 0.000000
# 4 0.000000 0.000000 0.000000 0.038644 0.000000 0.000504
# 5 -0.000382 0.000006 0.002864 0.000000 0.026160 0.000000
# 6 0.000000 0.000000 0.000000 0.000504 0.000000 0.029400
#
#
# Mechanical properties :
#
#
# Convention : Reuss Voigt Hill
#
# Bulk Modulus (GPa) = 50.55562 51.23937 50.89750
# Shear Modulus (GPa) = 32.46106 34.12992 33.29549
#
# Velocity S-wave (km/s) = 3.91751 4.01695 3.96754
# Velocity P-wave (km/s) = 6.66063 6.76308 6.71205
#
# Compressibility (1/GPa) = 0.01978019
#
# Stress axis : x y z
#
# Youngs Moduli (GPa) = 80.23742 102.41264 70.03034
#
# Poissons Ratio (x) = 0.07336 0.33566
# Poissons Ratio (y) = 0.05747 0.19987
# Poissons Ratio (z) = 0.38458 0.29229
#
# Static dielectric constant tensor:
#      x y z
#    x 3.855290 0.000000 -0.137610 
#    y 0.000000 3.904240 0.000000 
#    z -0.137610 0.000000 3.780770 
# 
# 
# High freq. dielectric constant tensor:
#      x y z
#    x 1.833350 0.000000 -0.016180 
#    y 0.000000 1.831980 0.000000 
#    z -0.016180 0.000000 1.819120 
# 
# From -- ./inp_files/113648.got.cif
#   From: 2010.06.25/outbox.cif.g09.slc.cpg/sg12_57_cif.got.tgz:113648.got - 2010.06.28 00:19:55.
