data_PCOD8112830
_publ_section_title
;
Structure prediction by ZEFSAII (Michael W. Deem and Ramdas Pophale) SiO2 
 PCOD8112830
Probable space group: C 2/M
;
_chemical_formula_sum "Si O2"
_cell_formula_units_Z 48
_cell_length_a 28.355316
_cell_length_b 8.612855
_cell_length_c 18.591311
_cell_angle_alpha 90.000000
_cell_angle_beta 31.405726
_cell_angle_gamma 90.000000
_cell_volume 2365.965959
_symmetry_space_group_name_H-M "C 2/M"
_symmetry_group_IT_number 12
_symmetry_cell_setting 'monoclinic'
loop_
_space_group_symop_operation_xyz
x,y,z
-x,y,-z
-x,-y,-z
x,-y,z
1/2+x,1/2+y,z
1/2-x,1/2+y,-z
1/2-x,1/2-y,-z
1/2+x,1/2-y,z
loop_
_atom_site_type_symbol
_atom_site_label
_atom_site_fract_x
_atom_site_fract_y
_atom_site_fract_z
Si Si1 0.638082 0.816351 0.808412
Si Si2 0.494451 0.820078 0.749159
Si Si3 0.398634 0.316751 0.624221
Si Si4 0.164008 0.682133 0.150809
Si Si5 0.483556 0.318065 0.915907
Si Si6 0.329362 0.181483 0.567221
O O1 0.570786 0.773537 0.831380
O O2 0.735852 0.750840 0.659756
O O3 0.641724 0.000000 0.813410
O O4 0.605180 0.739496 0.925933
O O5 0.426548 0.770434 0.774133
O O6 0.471191 0.716088 0.848155
O O7 0.595918 0.784740 0.590851
O O8 0.481765 0.000000 0.786157
O O9 0.500000 0.248681 0.500000
O O10 0.399234 0.500000 0.627801
O O11 0.337704 0.251817 0.767531
O O12 0.355106 0.265611 0.606805
O O13 0.174103 0.500000 0.143755
O O14 0.250000 0.750000 0.000000
O O15 0.496945 0.500000 0.911677
O O16 0.320352 0.000000 0.594455
#
# Coordination Sequence:
#
# PCOD8112830 Si02
#       6
#     8   8   8   8   8   8
#     4  11  23  42  66  92 125 161 202 252 309 368
#     4  10  23  42  63  89 124 164 205 254 310 363
#     4  11  23  40  63  91 126 164 205 252 306 366
#     4  11  24  42  63  90 125 165 210 257 308 363
#     4  11  23  41  66  93 124 161 205 253 304 366
#     4  11  23  41  65  92 123 162 209 254 303 365
#
# _framework density 20.287697999999999
#
# number of rings (size 3 to 8) (size 9 to 14) (size 15 to 20)
#    0.000    1.167    1.667    5.500    2.333    4.000 
#    0.000    0.000    0.000    0.000    0.000    0.000 
#    0.000    0.000    0.000    0.000    0.000    0.000 
#
# Total GULP energy -297770.872982 kJ/mol
# GULP energy per Si atom -12407.119708 kJ/mol
# Density = 2.024152 g / cm^3
# Si number density = 20.287698 Si / 1000 Ang^3
#
#
#
# Elastic Constant Matrix: (Units=GPa)
#
#
# Indices 1 2 3 4 5 6 
#
# 1 45.0535 24.7471 6.3767 0.0034 6.2579 -0.0017
# 2 24.7471 109.3355 26.3937 -0.0066 5.5450 0.0065
# 3 6.3767 26.3937 101.0211 -0.0037 -8.6930 0.0021
# 4 0.0034 -0.0066 -0.0037 34.2893 0.0004 -1.0328
# 5 6.2579 5.5450 -8.6930 0.0004 43.3988 -0.0002
# 6 -0.0017 0.0065 0.0021 -1.0328 -0.0002 33.9012
#
#
#
# Elastic Compliance Matrix: (Units=1/GPa)
#
#
# Indices 1 2 3 4 5 6 
#
# 1 0.025743 -0.005565 -0.000437 -0.000004 -0.003089 0.000002
# 2 -0.005565 0.011103 -0.002648 0.000002 -0.001147 -0.000002
# 3 -0.000437 -0.002648 0.010840 0.000001 0.002573 0.000000
# 4 -0.000004 0.000002 0.000001 0.029190 0.000000 0.000889
# 5 -0.003089 -0.001147 0.002573 0.000000 0.024149 0.000000
# 6 0.000002 -0.000002 0.000000 0.000889 0.000000 0.029525
#
#
# Mechanical properties :
#
#
# Convention : Reuss Voigt Hill
#
# Bulk Modulus (GPa) = 32.90938 41.16056 37.03497
# Shear Modulus (GPa) = 31.64976 35.51069 33.58022
#
# Velocity S-wave (km/s) = 3.95403 4.18826 4.07283
# Velocity P-wave (km/s) = 6.09117 6.61220 6.35703
#
# Compressibility (1/GPa) = 0.03038647
#
# Stress axis : x y z
#
# Youngs Moduli (GPa) = 38.84513 90.06463 92.25255
#
# Poissons Ratio (x) = 0.50118 0.04030
# Poissons Ratio (y) = 0.21616 0.24432
# Poissons Ratio (z) = 0.01697 0.23852
#
# Static dielectric constant tensor:
#      x y z
#    x 3.653000 -0.000040 -0.058450 
#    y -0.000040 3.735260 0.000050 
#    z -0.058450 0.000050 3.762540 
# 
# 
# High freq. dielectric constant tensor:
#      x y z
#    x 1.793150 0.000000 -0.001590 
#    y 0.000000 1.804380 0.000000 
#    z -0.001590 0.000000 1.803290 
# 
# From -- ./inp_files/295371.got.cif
#   From: 2010.06.25/outbox.cif.g09.slc.cpg/sg12_148_cif.got.tgz:295371.got - 2010.06.28 00:19:55.
