data_PCOD8112992
_publ_section_title
;
Structure prediction by ZEFSAII (Michael W. Deem and Ramdas Pophale) SiO2 
 PCOD8112992
Probable space group: C 2/M
;
_chemical_formula_sum "Si O2"
_cell_formula_units_Z 56
_cell_length_a 9.113573
_cell_length_b 26.699227
_cell_length_c 16.129497
_cell_angle_alpha 90.000000
_cell_angle_beta 134.244864
_cell_angle_gamma 90.000000
_cell_volume 2811.526872
_symmetry_space_group_name_H-M "C 2/M"
_symmetry_group_IT_number 12
_symmetry_cell_setting 'monoclinic'
loop_
_space_group_symop_operation_xyz
x,y,z
-x,y,-z
-x,-y,-z
x,-y,z
1/2+x,1/2+y,z
1/2-x,1/2+y,-z
1/2-x,1/2-y,-z
1/2+x,1/2-y,z
loop_
_atom_site_type_symbol
_atom_site_label
_atom_site_fract_x
_atom_site_fract_y
_atom_site_fract_z
Si Si1 0.823872 0.602338 0.492350
Si Si2 0.770171 0.214249 0.584909
Si Si3 0.323633 0.762865 0.271889
Si Si4 0.761460 0.854520 0.884924
Si Si5 0.939746 0.057633 0.387383
Si Si6 0.568497 0.789366 0.934208
Si Si7 0.512751 0.058714 0.272409
O O1 0.790076 0.661196 0.476054
O O2 0.594804 0.581191 0.380208
O O3 0.000000 0.583752 0.500000
O O4 0.897484 0.581522 0.608691
O O5 0.750000 0.250000 0.500000
O O6 0.630966 0.223752 0.612645
O O7 0.008927 0.225051 0.702382
O O8 0.295078 0.814303 0.208847
O O9 0.116265 0.732003 0.191815
O O10 0.641500 0.840883 0.921605
O O11 0.689649 0.910284 0.831679
O O12 0.000000 0.854833 0.000000
O O13 0.695723 0.065780 0.275778
O O14 0.000000 0.081863 0.500000
O O15 0.995867 0.000000 0.411428
O O16 0.500000 0.800247 0.000000
O O17 0.750000 0.750000 0.000000
O O18 0.455431 0.000000 0.259383
#
# Coordination Sequence:
#
# PCOD8112992 Si02
#       7
#     8   8   8   8   8   8   8
#     4  11  22  37  57  91 126 160 210 256 309 370
#     4  12  25  37  54  86 133 172 206 248 302 375
#     4  12  23  39  60  87 130 173 205 254 310 380
#     4  12  24  41  67  95 125 164 216 268 322 377
#     4   8  17  35  58  80 107 149 201 250 300 365
#     4  12  21  41  64  94 123 163 210 263 318 377
#     4  10  23  43  64  89 123 167 216 263 314 371
#
# _framework density 19.918004
#
# number of rings (size 3 to 8) (size 9 to 14) (size 15 to 20)
#    0.000    1.000    4.286    4.286    2.000    3.714 
#    0.000    0.000    0.000    0.429    0.000    0.000 
#    0.000    0.000    0.000    0.000    0.000    0.000 
#
# Total GULP energy -346898.327868 kJ/mol
# GULP energy per Si atom -12389.225995 kJ/mol
# Density = 1.987267 g / cm^3
# Si number density = 19.918004 Si / 1000 Ang^3
#
#
#
# Elastic Constant Matrix: (Units=GPa)
#
#
# Indices 1 2 3 4 5 6 
#
# 1 145.6771 56.4913 37.6918 0.0000 4.7241 0.0000
# 2 56.4913 110.6447 36.8808 0.0000 3.6693 0.0000
# 3 37.6918 36.8808 58.0215 0.0000 -3.8252 0.0000
# 4 0.0000 0.0000 0.0000 30.4211 0.0000 6.1292
# 5 4.7241 3.6693 -3.8252 0.0000 32.2976 0.0000
# 6 0.0000 0.0000 0.0000 6.1292 0.0000 27.5059
#
#
#
# Elastic Compliance Matrix: (Units=1/GPa)
#
#
# Indices 1 2 3 4 5 6 
#
# 1 0.009235 -0.003345 -0.003968 0.000000 -0.001441 0.000000
# 2 -0.003345 0.012834 -0.006096 0.000000 -0.001691 0.000000
# 3 -0.003968 -0.006096 0.023959 0.000000 0.004111 0.000000
# 4 0.000000 0.000000 0.000000 0.034417 0.000000 -0.007669
# 5 -0.001441 -0.001691 0.004111 0.000000 0.031852 0.000000
# 6 0.000000 0.000000 0.000000 -0.007669 0.000000 0.038065
#
#
# Mechanical properties :
#
#
# Convention : Reuss Voigt Hill
#
# Bulk Modulus (GPa) = 52.05837 64.05235 58.05536
# Shear Modulus (GPa) = 27.23567 30.26352 28.74960
#
# Velocity S-wave (km/s) = 3.70183 3.90218 3.80333
# Velocity P-wave (km/s) = 6.66817 7.24780 6.96402
#
# Compressibility (1/GPa) = 0.01920921
#
# Stress axis : x y z
#
# Youngs Moduli (GPa) = 108.28499 77.91985 41.73800
#
# Poissons Ratio (x) = 0.26060 0.16563
# Poissons Ratio (y) = 0.36216 0.25445
# Poissons Ratio (z) = 0.42970 0.47503
#
# Static dielectric constant tensor:
#      x y z
#    x 8.730020 0.000000 1.833180 
#    y 0.000000 3.442130 0.000000 
#    z 1.833180 0.000000 4.577840 
# 
# 
# High freq. dielectric constant tensor:
#      x y z
#    x 1.793610 0.000000 0.026980 
#    y 0.000000 1.762830 0.000000 
#    z 0.026980 0.000000 1.769100 
# 
# From -- ./inp_files/259861.got.cif
#   From: 2010.06.25/outbox.cif.g09.slc.cpg/sg12_130_cif.got.tgz:259861.got - 2010.06.28 00:19:55.
