data_PCOD8112857
_publ_section_title
;
Structure prediction by ZEFSAII (Michael W. Deem and Ramdas Pophale) SiO2 
 PCOD8112857
Probable space group: C 2/M
;
_chemical_formula_sum "Si O2"
_cell_formula_units_Z 48
_cell_length_a 27.030269
_cell_length_b 8.384502
_cell_length_c 15.210775
_cell_angle_alpha 90.000000
_cell_angle_beta 139.145438
_cell_angle_gamma 90.000000
_cell_volume 2255.020401
_symmetry_space_group_name_H-M "C 2/M"
_symmetry_group_IT_number 12
_symmetry_cell_setting 'monoclinic'
loop_
_space_group_symop_operation_xyz
x,y,z
-x,y,-z
-x,-y,-z
x,-y,z
1/2+x,1/2+y,z
1/2-x,1/2+y,-z
1/2-x,1/2-y,-z
1/2+x,1/2-y,z
loop_
_atom_site_type_symbol
_atom_site_label
_atom_site_fract_x
_atom_site_fract_y
_atom_site_fract_z
Si Si1 0.666097 0.315490 0.889148
Si Si2 0.084508 0.814195 0.277957
Si Si3 0.913320 0.316339 0.381782
Si Si4 0.079301 0.682838 0.935241
Si Si5 0.667326 0.315750 0.213080
Si Si6 0.169011 0.817147 0.567370
O O1 0.666468 0.500000 0.916289
O O2 0.630384 0.294803 0.745294
O O3 0.617471 0.217851 0.893547
O O4 0.750000 0.250000 0.000000
O O5 0.122148 0.757203 0.237941
O O6 0.143693 0.775502 0.434623
O O7 0.009392 0.713865 0.193267
O O8 0.062872 0.000000 0.245619
O O9 0.905403 0.500000 0.342360
O O10 0.877723 0.294103 0.429817
O O11 0.000000 0.261984 0.500000
O O12 0.093418 0.500000 0.979717
O O13 0.114409 0.793759 0.057578
O O14 0.690387 0.500000 0.253098
O O15 0.742190 0.211865 0.303120
O O16 0.151313 0.000000 0.566737
#
# Coordination Sequence:
#
# PCOD8112857 Si02
#       6
#     8   8   8   8   8   8
#     4  12  25  43  66  91 123 161 204 253 305 363
#     4  10  23  42  64  91 124 163 205 252 305 360
#     4  11  24  42  64  92 125 161 203 251 304 363
#     4  12  25  41  63  92 125 161 204 253 305 363
#     4  11  23  41  64  90 124 164 206 252 304 361
#     4  11  23  40  63  92 125 161 204 252 304 362
#
# _framework density 21.285838999999999
#
# number of rings (size 3 to 8) (size 9 to 14) (size 15 to 20)
#    0.000    0.833    0.000    7.500    0.000    8.667 
#    0.000    0.000    0.000    0.000    0.000    0.000 
#    0.000    0.000    0.000    0.000    0.000    0.000 
#
# Total GULP energy -297848.375132 kJ/mol
# GULP energy per Si atom -12410.348964 kJ/mol
# Density = 2.123739 g / cm^3
# Si number density = 21.285839 Si / 1000 Ang^3
#
#
#
# Elastic Constant Matrix: (Units=GPa)
#
#
# Indices 1 2 3 4 5 6 
#
# 1 132.3474 23.4290 22.8129 0.0000 6.1102 0.0000
# 2 23.4290 70.0067 26.4950 0.0000 9.3451 0.0000
# 3 22.8129 26.4950 109.3892 0.0000 9.3564 0.0000
# 4 0.0000 0.0000 0.0000 27.9472 0.0000 0.0617
# 5 6.1102 9.3451 9.3564 0.0000 46.0626 0.0000
# 6 0.0000 0.0000 0.0000 0.0617 0.0000 27.6017
#
#
#
# Elastic Compliance Matrix: (Units=1/GPa)
#
#
# Indices 1 2 3 4 5 6 
#
# 1 0.008167 -0.002255 -0.001123 0.000000 -0.000398 0.000000
# 2 -0.002255 0.016627 -0.003352 0.000000 -0.002393 0.000000
# 3 -0.001123 -0.003352 0.010296 0.000000 -0.001262 0.000000
# 4 0.000000 0.000000 0.000000 0.035782 0.000000 -0.000080
# 5 -0.000398 -0.002393 -0.001262 0.000000 0.022504 0.000000
# 6 0.000000 0.000000 0.000000 -0.000080 0.000000 0.036230
#
#
# Mechanical properties :
#
#
# Convention : Reuss Voigt Hill
#
# Bulk Modulus (GPa) = 46.23360 50.80190 48.51775
# Shear Modulus (GPa) = 33.27196 36.25605 34.76400
#
# Velocity S-wave (km/s) = 3.95790 4.13158 4.04567
# Velocity P-wave (km/s) = 6.53101 6.83215 6.68328
#
# Compressibility (1/GPa) = 0.02162929
#
# Stress axis : x y z
#
# Youngs Moduli (GPa) = 122.44364 60.14221 97.12723
#
# Poissons Ratio (x) = 0.13563 0.10907
# Poissons Ratio (y) = 0.27613 0.32560
# Poissons Ratio (z) = 0.13750 0.20161
#
# Static dielectric constant tensor:
#      x y z
#    x 3.909860 0.000000 -0.018850 
#    y 0.000000 3.799620 0.000000 
#    z -0.018850 0.000000 3.769180 
# 
# 
# High freq. dielectric constant tensor:
#      x y z
#    x 1.849590 0.000000 -0.000240 
#    y 0.000000 1.838280 0.000000 
#    z -0.000240 0.000000 1.847700 
# 
# From -- ./inp_files/244915.got.cif
#   From: 2010.06.25/outbox.cif.g09.slc.cpg/sg12_123_cif.got.tgz:244915.got - 2010.06.28 00:19:55.
