data_PCOD8112919
_publ_section_title
;
Structure prediction by ZEFSAII (Michael W. Deem and Ramdas Pophale) SiO2 
 PCOD8112919
Probable space group: C 2/M
;
_chemical_formula_sum "Si O2"
_cell_formula_units_Z 48
_cell_length_a 16.274733
_cell_length_b 15.061800
_cell_length_c 10.770645
_cell_angle_alpha 90.000000
_cell_angle_beta 57.277242
_cell_angle_gamma 90.000000
_cell_volume 2221.167715
_symmetry_space_group_name_H-M "C 2/M"
_symmetry_group_IT_number 12
_symmetry_cell_setting 'monoclinic'
loop_
_space_group_symop_operation_xyz
x,y,z
-x,y,-z
-x,-y,-z
x,-y,z
1/2+x,1/2+y,z
1/2-x,1/2+y,-z
1/2-x,1/2-y,-z
1/2+x,1/2-y,z
loop_
_atom_site_type_symbol
_atom_site_label
_atom_site_fract_x
_atom_site_fract_y
_atom_site_fract_z
Si Si1 0.289336 0.098996 0.680406
Si Si2 0.110374 0.897241 0.370451
Si Si3 0.426144 0.406637 0.171149
Si Si4 0.205983 0.397176 0.611275
Si Si5 0.843581 0.739639 0.835663
Si Si6 0.972447 0.720519 0.165243
O O1 0.177427 0.097795 0.812628
O O2 0.293653 0.128622 0.533312
O O3 0.338616 0.173627 0.723112
O O4 0.335909 0.000000 0.661357
O O5 0.188789 0.873250 0.414832
O O6 0.134237 0.838492 0.230321
O O7 0.000000 0.874816 0.500000
O O8 0.120739 0.000000 0.322968
O O9 0.431121 0.500000 0.247381
O O10 0.443386 0.319264 0.239461
O O11 0.500000 0.412755 0.000000
O O12 0.182646 0.500000 0.649883
O O13 0.118176 0.345012 0.748020
O O14 0.931625 0.693070 0.838434
O O15 0.750000 0.750000 0.000000
O O16 0.000000 0.725943 0.000000
#
# Coordination Sequence:
#
# PCOD8112919 Si02
#       6
#     8   8   8   8   8   8
#     4  10  23  42  66  93 128 172 217 271 325 385
#     4  10  24  45  69 100 136 174 220 278 342 404
#     4   9  18  35  59  87 119 159 208 258 317 381
#     4  10  23  44  68  95 129 173 223 271 328 399
#     4  12  26  42  65 100 136 174 223 275 333 397
#     4  11  24  41  65  95 130 176 218 270 329 392
#
# _framework density 21.610254000000001
#
# number of rings (size 3 to 8) (size 9 to 14) (size 15 to 20)
#    0.000    1.667    0.000    4.000    4.667    3.667 
#    0.000    1.667    0.000    0.000    0.000    0.000 
#    0.000    0.000    0.000    0.000    0.000    0.000 
#
# Total GULP energy -297438.808421 kJ/mol
# GULP energy per Si atom -12393.283684 kJ/mol
# Density = 2.156107 g / cm^3
# Si number density = 21.610254 Si / 1000 Ang^3
#
#
#
# Elastic Constant Matrix: (Units=GPa)
#
#
# Indices 1 2 3 4 5 6 
#
# 1 148.1766 60.5345 62.2070 0.0000 -9.6172 0.0000
# 2 60.5345 109.9652 66.1936 0.0000 -5.6432 0.0000
# 3 62.2070 66.1936 103.9015 0.0000 -8.0130 0.0000
# 4 0.0000 0.0000 0.0000 33.3649 0.0000 -2.3765
# 5 -9.6172 -5.6432 -8.0130 0.0000 37.1473 0.0000
# 6 0.0000 0.0000 0.0000 -2.3765 0.0000 43.4358
#
#
#
# Elastic Compliance Matrix: (Units=1/GPa)
#
#
# Indices 1 2 3 4 5 6 
#
# 1 0.009625 -0.002958 -0.003784 0.000000 0.001226 0.000000
# 2 -0.002958 0.015661 -0.008219 0.000000 -0.000160 0.000000
# 3 -0.003784 -0.008219 0.017241 0.000000 0.001491 0.000000
# 4 0.000000 0.000000 0.000000 0.030089 0.000000 0.001646
# 5 0.001226 -0.000160 0.001491 0.000000 0.027535 0.000000
# 6 0.000000 0.000000 0.000000 0.001646 0.000000 0.023113
#
#
# Mechanical properties :
#
#
# Convention : Reuss Voigt Hill
#
# Bulk Modulus (GPa) = 79.32498 82.21261 80.76879
# Shear Modulus (GPa) = 31.76897 34.33015 33.04956
#
# Velocity S-wave (km/s) = 3.83833 3.99005 3.91493
# Velocity P-wave (km/s) = 7.51202 7.70411 7.60867
#
# Compressibility (1/GPa) = 0.01260637
#
# Stress axis : x y z
#
# Youngs Moduli (GPa) = 103.89417 63.85186 58.00210
#
# Poissons Ratio (x) = 0.18888 0.21946
# Poissons Ratio (y) = 0.30733 0.47670
# Poissons Ratio (z) = 0.39309 0.52478
#
# Static dielectric constant tensor:
#      x y z
#    x 4.178700 0.000000 -0.218080 
#    y 0.000000 4.531660 0.000000 
#    z -0.218080 0.000000 3.741230 
# 
# 
# High freq. dielectric constant tensor:
#      x y z
#    x 1.850280 0.000000 -0.010680 
#    y 0.000000 1.863460 0.000000 
#    z -0.010680 0.000000 1.845310 
# 
# From -- ./inp_files/143520.got.cif
#   From: 2010.06.25/outbox.cif.g09.slc.cpg/sg12_72_cif.got.tgz:143520.got - 2010.06.28 00:19:55.
