data_PCOD8112854
_publ_section_title
;
Structure prediction by ZEFSAII (Michael W. Deem and Ramdas Pophale) SiO2 
 PCOD8112854
Probable space group: C 2/M
;
_chemical_formula_sum "Si O2"
_cell_formula_units_Z 64
_cell_length_a 19.710476
_cell_length_b 8.750280
_cell_length_c 18.862606
_cell_angle_alpha 90.000000
_cell_angle_beta 92.052618
_cell_angle_gamma 90.000000
_cell_volume 3251.187405
_symmetry_space_group_name_H-M "C 2/M"
_symmetry_group_IT_number 12
_symmetry_cell_setting 'monoclinic'
loop_
_space_group_symop_operation_xyz
x,y,z
-x,y,-z
-x,-y,-z
x,-y,z
1/2+x,1/2+y,z
1/2-x,1/2+y,-z
1/2-x,1/2-y,-z
1/2+x,1/2-y,z
loop_
_atom_site_type_symbol
_atom_site_label
_atom_site_fract_x
_atom_site_fract_y
_atom_site_fract_z
Si Si1 0.050983 0.175535 0.564556
Si Si2 0.965297 0.323445 0.290326
Si Si3 0.346342 0.320601 0.201424
Si Si4 0.293270 0.677228 0.439314
Si Si5 0.389448 0.177576 0.768750
Si Si6 0.240130 0.820445 0.293709
Si Si7 0.580312 0.319656 0.932929
Si Si8 0.928134 0.819015 0.910582
O O1 0.030576 0.288617 0.626621
O O2 0.127652 0.206356 0.541446
O O3 0.000000 0.216525 0.500000
O O4 0.042579 0.000000 0.588878
O O5 0.945279 0.500000 0.277656
O O6 0.909300 0.213545 0.254799
O O7 0.036606 0.283439 0.257633
O O8 0.330697 0.500000 0.203228
O O9 0.280223 0.230252 0.224543
O O10 0.364491 0.262887 0.122404
O O11 0.275480 0.500000 0.435098
O O12 0.250000 0.750000 0.500000
O O13 0.275236 0.748932 0.363336
O O14 0.337078 0.266135 0.716542
O O15 0.383742 0.234861 0.849526
O O16 0.371922 0.000000 0.764868
O O17 0.242375 0.000000 0.302449
O O18 0.573407 0.500000 0.929398
O O19 0.505604 0.256812 0.910062
O O20 0.601959 0.271538 0.013301
O O21 0.923717 0.000000 0.898043
#
# Coordination Sequence:
#
# PCOD8112854 Si02
#       8
#     8   8   8   8   8   8   8   8
#     4  10  23  42  64  91 121 156 199 243 293 352
#     4  11  23  38  60  90 122 156 199 248 297 352
#     4  11  20  37  63  90 119 158 200 247 301 357
#     4  11  24  43  65  91 124 162 199 245 296 356
#     4  11  24  40  58  89 125 159 202 254 304 355
#     4  12  26  43  63  87 119 162 206 251 300 359
#     4   8  16  30  57  89 119 155 198 245 298 360
#     4   9  16  33  57  87 120 156 201 245 297 361
#
# _framework density 19.685116000000001
#
# number of rings (size 3 to 8) (size 9 to 14) (size 15 to 20)
#    0.000    1.625    2.500    3.375    1.750    2.250 
#    0.000    3.125    0.000    0.000    0.000    0.000 
#    0.000    0.000    0.000    0.000    0.000    0.000 
#
# Total GULP energy -396880.732542 kJ/mol
# GULP energy per Si atom -12402.522892 kJ/mol
# Density = 1.964031 g / cm^3
# Si number density = 19.685116 Si / 1000 Ang^3
#
#
#
# Elastic Constant Matrix: (Units=GPa)
#
#
# Indices 1 2 3 4 5 6 
#
# 1 66.7954 32.7023 35.0047 0.0000 4.5977 0.0000
# 2 32.7023 83.0144 35.3527 0.0000 -2.6823 0.0000
# 3 35.0047 35.3527 99.1369 0.0000 -13.3706 0.0000
# 4 0.0000 0.0000 0.0000 27.2795 0.0000 -1.9935
# 5 4.5977 -2.6823 -13.3706 0.0000 31.4392 0.0000
# 6 0.0000 0.0000 0.0000 -1.9935 0.0000 27.6968
#
#
#
# Elastic Compliance Matrix: (Units=1/GPa)
#
#
# Indices 1 2 3 4 5 6 
#
# 1 0.021712 -0.006046 -0.006374 0.000000 -0.006402 0.000000
# 2 -0.006046 0.015916 -0.003436 0.000000 0.000781 0.000000
# 3 -0.006374 -0.003436 0.014480 0.000000 0.006797 0.000000
# 4 0.000000 0.000000 0.000000 0.036851 0.000000 0.002652
# 5 -0.006402 0.000781 0.006797 0.000000 0.035701 0.000000
# 6 0.000000 0.000000 0.000000 0.002652 0.000000 0.036296
#
#
# Mechanical properties :
#
#
# Convention : Reuss Voigt Hill
#
# Bulk Modulus (GPa) = 49.02656 50.56288 49.79472
# Shear Modulus (GPa) = 25.06703 27.00889 26.03796
#
# Velocity S-wave (km/s) = 3.57234 3.70813 3.64087
# Velocity P-wave (km/s) = 6.47881 6.63892 6.55935
#
# Compressibility (1/GPa) = 0.02039711
#
# Stress axis : x y z
#
# Youngs Moduli (GPa) = 46.05788 62.82963 69.06290
#
# Poissons Ratio (x) = 0.37984 0.44020
# Poissons Ratio (y) = 0.27844 0.23729
# Poissons Ratio (z) = 0.29357 0.21587
#
# Static dielectric constant tensor:
#      x y z
#    x 3.572490 0.000000 -0.166220 
#    y 0.000000 3.461840 0.000000 
#    z -0.166220 0.000000 3.833480 
# 
# 
# High freq. dielectric constant tensor:
#      x y z
#    x 1.760080 0.000000 -0.006630 
#    y 0.000000 1.759990 0.000000 
#    z -0.006630 0.000000 1.777300 
# 
# From -- ./inp_files/314062.got.cif
#   From: 2010.06.25/outbox.cif.g09.slc.cpg/sg12_158_cif.got.tgz:314062.got - 2010.06.28 00:19:55.
