data_PCOD8112172
_publ_section_title
;
Structure prediction by ZEFSAII (Michael W. Deem and Ramdas Pophale) SiO2 
 PCOD8112172
Probable space group: C 2/M
;
_chemical_formula_sum "Si O2"
_cell_formula_units_Z 56
_cell_length_a 31.149173
_cell_length_b 8.776770
_cell_length_c 11.806847
_cell_angle_alpha 90.000000
_cell_angle_beta 56.937440
_cell_angle_gamma 90.000000
_cell_volume 2705.193037
_symmetry_space_group_name_H-M "C 2/M"
_symmetry_group_IT_number 12
_symmetry_cell_setting 'monoclinic'
loop_
_space_group_symop_operation_xyz
x,y,z
-x,y,-z
-x,-y,-z
x,-y,z
1/2+x,1/2+y,z
1/2-x,1/2+y,-z
1/2-x,1/2-y,-z
1/2+x,1/2-y,z
loop_
_atom_site_type_symbol
_atom_site_label
_atom_site_fract_x
_atom_site_fract_y
_atom_site_fract_z
Si Si1 0.325437 0.173416 0.136269
Si Si2 0.381431 0.179165 0.670744
Si Si3 0.195293 0.822300 0.603193
Si Si4 0.600945 0.322543 0.584790
Si Si5 0.504755 0.680657 0.866991
Si Si6 0.908828 0.180660 0.861614
Si Si7 0.774016 0.826223 0.856516
O O1 0.332030 0.251433 0.247962
O O2 0.265778 0.179510 0.189374
O O3 0.344923 0.000000 0.114532
O O4 0.357395 0.261799 0.995544
O O5 0.408552 0.226490 0.515005
O O6 0.411653 0.256078 0.730539
O O7 0.323176 0.233641 0.747435
O O8 0.383183 0.000000 0.685283
O O9 0.250000 0.750000 0.500000
O O10 0.157498 0.791250 0.552631
O O11 0.202997 0.000000 0.613849
O O12 0.593965 0.500000 0.565569
O O13 0.558603 0.267712 0.736066
O O14 0.501539 0.500000 0.878539
O O15 0.458074 0.743046 0.858285
O O16 0.500000 0.750577 0.000000
O O17 0.907742 0.000000 0.858957
O O18 0.789550 0.000000 0.862368
O O19 0.750000 0.750000 0.000000
#
# Coordination Sequence:
#
# PCOD8112172 Si02
#       7
#     8   8   8   8   8   8   8
#     4  11  23  38  59  89 125 160 200 251 305 365
#     4  12  25  40  59  88 127 165 205 253 307 370
#     4  11  23  39  62  90 122 161 203 250 303 362
#     4  10  22  42  65  89 121 161 207 255 305 363
#     4   9  19  39  67  95 119 150 201 258 307 364
#     4  11  22  38  64  92 119 156 203 255 308 362
#     4  11  22  37  59  87 122 164 206 249 300 359
#
# _framework density 20.700927
#
# number of rings (size 3 to 8) (size 9 to 14) (size 15 to 20)
#    0.000    1.286    1.429    4.714    0.000    9.143 
#    0.000    4.286    0.000    3.000    0.000    0.000 
#    0.000    0.000    0.000    0.000    0.000    0.000 
#
# Total GULP energy -347351.925631 kJ/mol
# GULP energy per Si atom -12405.425915 kJ/mol
# Density = 2.065381 g / cm^3
# Si number density = 20.700927 Si / 1000 Ang^3
#
#
#
# Elastic Constant Matrix: (Units=GPa)
#
#
# Indices 1 2 3 4 5 6 
#
# 1 125.3807 45.6449 52.3868 0.0000 4.5610 0.0000
# 2 45.6449 114.5456 44.4344 0.0000 11.8185 0.0000
# 3 52.3868 44.4344 135.5505 0.0000 12.1789 0.0000
# 4 0.0000 0.0000 0.0000 33.4996 0.0000 3.1937
# 5 4.5610 11.8185 12.1789 0.0000 38.9115 0.0000
# 6 0.0000 0.0000 0.0000 3.1937 0.0000 24.3063
#
#
#
# Elastic Compliance Matrix: (Units=1/GPa)
#
#
# Indices 1 2 3 4 5 6 
#
# 1 0.010323 -0.002991 -0.003068 0.000000 0.000659 0.000000
# 2 -0.002991 0.011034 -0.002255 0.000000 -0.002295 0.000000
# 3 -0.003068 -0.002255 0.009475 0.000000 -0.001921 0.000000
# 4 0.000000 0.000000 0.000000 0.030230 0.000000 -0.003972
# 5 0.000659 -0.002295 -0.001921 0.000000 0.026920 0.000000
# 6 0.000000 0.000000 0.000000 -0.003972 0.000000 0.041663
#
#
# Mechanical properties :
#
#
# Convention : Reuss Voigt Hill
#
# Bulk Modulus (GPa) = 70.40776 73.37877 71.89326
# Shear Modulus (GPa) = 33.11110 34.87753 33.99432
#
# Velocity S-wave (km/s) = 4.00371 4.10912 4.05676
# Velocity P-wave (km/s) = 7.44706 7.61822 7.53312
#
# Compressibility (1/GPa) = 0.01420298
#
# Stress axis : x y z
#
# Youngs Moduli (GPa) = 96.87472 90.63306 105.54375
#
# Poissons Ratio (x) = 0.27110 0.32382
# Poissons Ratio (y) = 0.28978 0.23796
# Poissons Ratio (z) = 0.29722 0.20434
#
# Static dielectric constant tensor:
#      x y z
#    x 3.882630 0.000000 -0.005770 
#    y 0.000000 3.726020 0.000000 
#    z -0.005770 0.000000 3.721230 
# 
# 
# High freq. dielectric constant tensor:
#      x y z
#    x 1.816700 0.000000 0.007850 
#    y 0.000000 1.801160 0.000000 
#    z 0.007850 0.000000 1.818810 
# 
# From -- ./inp_files/187176.got.cif
#   From: 2010.06.25/outbox.cif.g09.slc.cpg/sg12_94_cif.got.tgz:187176.got - 2010.06.28 00:19:55.
