data_PCOD8112506
_publ_section_title
;
Structure prediction by ZEFSAII (Michael W. Deem and Ramdas Pophale) SiO2 
 PCOD8112506
Probable space group: C 2/M
;
_chemical_formula_sum "Si O2"
_cell_formula_units_Z 56
_cell_length_a 11.836766
_cell_length_b 25.834822
_cell_length_c 14.655698
_cell_angle_alpha 90.000000
_cell_angle_beta 37.247772
_cell_angle_gamma 90.000000
_cell_volume 2712.621463
_symmetry_space_group_name_H-M "C 2/M"
_symmetry_group_IT_number 12
_symmetry_cell_setting 'monoclinic'
loop_
_space_group_symop_operation_xyz
x,y,z
-x,y,-z
-x,-y,-z
x,-y,z
1/2+x,1/2+y,z
1/2-x,1/2+y,-z
1/2-x,1/2-y,-z
1/2+x,1/2-y,z
loop_
_atom_site_type_symbol
_atom_site_label
_atom_site_fract_x
_atom_site_fract_y
_atom_site_fract_z
Si Si1 0.817674 0.306954 0.938066
Si Si2 0.730888 0.625860 0.570663
Si Si3 0.795733 0.059404 0.588122
Si Si4 0.533172 0.310286 0.377488
Si Si5 0.081111 0.308425 0.324240
Si Si6 0.893717 0.370112 0.148360
Si Si7 0.448644 0.635192 0.131376
O O1 0.945162 0.309298 0.766562
O O2 0.958010 0.325578 0.924271
O O3 0.750000 0.250000 0.000000
O O4 0.638486 0.343103 0.048817
O O5 0.718593 0.578746 0.507073
O O6 0.625257 0.675066 0.593632
O O7 0.642341 0.604053 0.723673
O O8 0.937950 0.648872 0.458240
O O9 0.646741 0.090713 0.743766
O O10 0.000000 0.066083 0.500000
O O11 0.734029 0.000000 0.627822
O O12 0.500000 0.334174 0.500000
O O13 0.542412 0.248967 0.384595
O O14 0.717046 0.338843 0.222775
O O15 0.297163 0.320376 0.208016
O O16 0.000000 0.402326 0.000000
O O17 0.500000 0.606379 0.000000
#
# Coordination Sequence:
#
# PCOD8112506 Si02
#       7
#     8   8   8   8   8   8   8
#     4  11  21  36  53  86 128 173 207 243 302 372
#     4  12  20  40  61  87 118 163 209 259 311 369
#     4  11  24  45  69  94 122 159 209 268 324 371
#     4  12  21  35  55  91 129 165 207 249 308 379
#     4  11  22  35  56  86 126 171 212 249 296 371
#     4  12  22  38  61  90 129 164 201 258 307 378
#     4  10  23  37  55  85 121 165 204 251 300 360
#
# _framework density 20.644235999999999
#
# number of rings (size 3 to 8) (size 9 to 14) (size 15 to 20)
#    0.000    0.714    4.286    5.143    0.000    1.429 
#    0.000    0.000    0.000    2.143    0.000    0.000 
#    0.000    0.000    0.000    0.000    0.000    0.000 
#
# Total GULP energy -346931.384589 kJ/mol
# GULP energy per Si atom -12390.406592 kJ/mol
# Density = 2.059725 g / cm^3
# Si number density = 20.644236 Si / 1000 Ang^3
#
#
#
# Elastic Constant Matrix: (Units=GPa)
#
#
# Indices 1 2 3 4 5 6 
#
# 1 66.0353 15.6003 28.7057 0.0000 0.8380 0.0000
# 2 15.6003 93.1264 30.9291 -0.0001 0.9516 0.0000
# 3 28.7057 30.9291 149.7873 0.0002 28.2430 0.0000
# 4 0.0000 -0.0001 0.0002 11.6494 -0.0003 2.8612
# 5 0.8380 0.9516 28.2430 -0.0003 46.1045 0.0000
# 6 0.0000 0.0000 0.0000 2.8612 0.0000 18.9951
#
#
#
# Elastic Compliance Matrix: (Units=1/GPa)
#
#
# Indices 1 2 3 4 5 6 
#
# 1 0.016934 -0.001794 -0.003193 0.000000 0.001685 0.000000
# 2 -0.001794 0.011797 -0.002320 0.000000 0.001211 0.000000
# 3 -0.003193 -0.002320 0.008759 0.000000 -0.005260 0.000000
# 4 0.000000 0.000000 0.000000 0.089139 0.000001 -0.013427
# 5 0.001685 0.001211 -0.005260 0.000001 0.024856 0.000000
# 6 0.000000 0.000000 0.000000 -0.013427 0.000000 0.054668
#
#
# Mechanical properties :
#
#
# Convention : Reuss Voigt Hill
#
# Bulk Modulus (GPa) = 43.71370 51.04657 47.38014
# Shear Modulus (GPa) = 21.89232 30.93073 26.41152
#
# Velocity S-wave (km/s) = 3.26000 3.87495 3.58070
# Velocity P-wave (km/s) = 5.94902 6.69334 6.33213
#
# Compressibility (1/GPa) = 0.02287612
#
# Stress axis : x y z
#
# Youngs Moduli (GPa) = 59.05438 84.76853 114.17062
#
# Poissons Ratio (x) = 0.15204 0.36449
# Poissons Ratio (y) = 0.10592 0.26492
# Poissons Ratio (z) = 0.18853 0.19670
#
# Static dielectric constant tensor:
#      x y z
#    x 3.976120 0.000000 0.309940 
#    y 0.000000 3.275720 0.000000 
#    z 0.309940 0.000000 4.307160 
# 
# 
# High freq. dielectric constant tensor:
#      x y z
#    x 1.824510 0.000000 0.008750 
#    y 0.000000 1.742780 0.000000 
#    z 0.008750 0.000000 1.838960 
# 
# From -- ./inp_files/209115.got.cif
#   From: 2010.06.25/outbox.cif.g09.slc.cpg/sg12_105_cif.got.tgz:209115.got - 2010.06.28 00:19:55.
