data_PCOD8112684
_publ_section_title
;
Structure prediction by ZEFSAII (Michael W. Deem and Ramdas Pophale) SiO2 
 PCOD8112684
Probable space group: C 2/M
;
_chemical_formula_sum "Si O2"
_cell_formula_units_Z 64
_cell_length_a 10.422453
_cell_length_b 13.973279
_cell_length_c 28.601639
_cell_angle_alpha 90.000000
_cell_angle_beta 51.066851
_cell_angle_gamma 90.000000
_cell_volume 3240.198654
_symmetry_space_group_name_H-M "C 2/M"
_symmetry_group_IT_number 12
_symmetry_cell_setting 'monoclinic'
loop_
_space_group_symop_operation_xyz
x,y,z
-x,y,-z
-x,-y,-z
x,-y,z
1/2+x,1/2+y,z
1/2-x,1/2+y,-z
1/2-x,1/2-y,-z
1/2+x,1/2-y,z
loop_
_atom_site_type_symbol
_atom_site_label
_atom_site_fract_x
_atom_site_fract_y
_atom_site_fract_z
Si Si1 0.191329 0.890343 0.949819
Si Si2 0.745420 0.750654 0.855987
Si Si3 0.032699 0.387718 0.635198
Si Si4 0.978670 0.390580 0.951007
Si Si5 0.296514 0.103887 0.766235
Si Si6 0.010230 0.895576 0.760003
Si Si7 0.745316 0.112120 0.371718
Si Si8 0.191573 0.241849 0.460556
O O1 0.272358 0.815608 0.895303
O O2 0.289049 0.879582 0.976848
O O3 0.207345 0.000000 0.927937
O O4 0.000000 0.863233 0.000000
O O5 0.588480 0.819782 0.895105
O O6 0.719565 0.680275 0.818809
O O7 0.902456 0.816160 0.810398
O O8 0.052009 0.500000 0.624922
O O9 0.211259 0.341890 0.588249
O O10 0.967858 0.363151 0.702781
O O11 0.906150 0.347767 0.624927
O O12 0.038842 0.500000 0.930497
O O13 0.000000 0.360259 0.000000
O O14 0.173930 0.089368 0.751809
O O15 0.318563 0.000000 0.786461
O O16 0.076415 0.864577 0.693505
O O17 0.918716 0.000000 0.778428
O O18 0.736556 0.159177 0.424581
O O19 0.727240 0.000000 0.383562
O O20 0.250000 0.250000 0.500000
O O21 0.000000 0.216964 0.500000
#
# Coordination Sequence:
#
# PCOD8112684 Si02
#       8
#     8   8   8   8   8   8   8   8
#     4  10  23  41  58  80 115 155 192 231 280 342
#     4  12  20  32  58  89 115 142 183 234 292 337
#     4   9  19  38  59  80 114 156 191 230 281 336
#     4  10  23  41  58  80 115 154 190 235 286 334
#     4   9  19  35  56  82 112 148 188 227 275 339
#     4   9  19  35  56  83 112 146 189 231 271 334
#     4   9  19  38  60  80 112 157 195 226 276 343
#     4  12  23  36  57  90 118 146 192 243 287 332
#
# _framework density 19.751875999999999
#
# number of rings (size 3 to 8) (size 9 to 14) (size 15 to 20)
#    0.000    2.000    1.250    4.125    0.000    4.000 
#    0.000    2.500    0.000    0.000    0.000    0.000 
#    0.000    0.000    0.000    0.000    0.000    0.000 
#
# Total GULP energy -396640.667242 kJ/mol
# GULP energy per Si atom -12395.020851 kJ/mol
# Density = 1.970692 g / cm^3
# Si number density = 19.751876 Si / 1000 Ang^3
#
#
#
# Elastic Constant Matrix: (Units=GPa)
#
#
# Indices 1 2 3 4 5 6 
#
# 1 93.1715 37.3556 56.8065 0.0000 -1.3058 0.0000
# 2 37.3556 104.3535 75.8556 0.0000 -1.0498 0.0000
# 3 56.8065 75.8556 136.9339 0.0000 -4.7410 0.0000
# 4 0.0000 0.0000 0.0000 23.8898 0.0000 10.4964
# 5 -1.3058 -1.0498 -4.7410 0.0000 29.6543 0.0000
# 6 0.0000 0.0000 0.0000 10.4964 0.0000 18.5535
#
#
#
# Elastic Compliance Matrix: (Units=1/GPa)
#
#
# Indices 1 2 3 4 5 6 
#
# 1 0.014484 -0.001362 -0.005263 0.000000 -0.000252 0.000000
# 2 -0.001362 0.016193 -0.008434 0.000000 -0.000835 0.000000
# 3 -0.005263 -0.008434 0.014219 0.000000 0.001743 0.000000
# 4 0.000000 0.000000 0.000000 0.055706 0.000000 -0.031515
# 5 -0.000252 -0.000835 0.001743 0.000000 0.033960 0.000000
# 6 0.000000 0.000000 0.000000 -0.031515 0.000000 0.071727
#
#
# Mechanical properties :
#
#
# Convention : Reuss Voigt Hill
#
# Bulk Modulus (GPa) = 67.66914 74.94382 71.30648
# Shear Modulus (GPa) = 20.71836 25.38227 23.05031
#
# Velocity S-wave (km/s) = 3.24223 3.58866 3.41983
# Velocity P-wave (km/s) = 6.95342 7.42942 7.19536
#
# Compressibility (1/GPa) = 0.01477778
#
# Stress axis : x y z
#
# Youngs Moduli (GPa) = 69.04058 61.75638 70.33008
#
# Poissons Ratio (x) = 0.08409 0.37016
# Poissons Ratio (y) = 0.09401 0.59317
# Poissons Ratio (z) = 0.36337 0.52086
#
# Static dielectric constant tensor:
#      x y z
#    x 3.384680 0.000000 -0.007840 
#    y 0.000000 4.015080 0.000000 
#    z -0.007840 0.000000 3.709010 
# 
# 
# High freq. dielectric constant tensor:
#      x y z
#    x 1.744430 0.000000 0.000560 
#    y 0.000000 1.782060 0.000000 
#    z 0.000560 0.000000 1.776320 
# 
# From -- ./inp_files/374072.got.cif
#   From: 2010.06.25/outbox.cif.g09.slc.cpg/sg12_188_cif.got.tgz:374072.got - 2010.06.28 00:19:55.
