data_PCOD8112914
_publ_section_title
;
Structure prediction by ZEFSAII (Michael W. Deem and Ramdas Pophale) SiO2 
 PCOD8112914
Probable space group: C 2/M
;
_chemical_formula_sum "Si O2"
_cell_formula_units_Z 44
_cell_length_a 19.812763
_cell_length_b 18.129200
_cell_length_c 5.470750
_cell_angle_alpha 90.000000
_cell_angle_beta 93.572772
_cell_angle_gamma 90.000000
_cell_volume 1961.217056
_symmetry_space_group_name_H-M "C 2/M"
_symmetry_group_IT_number 12
_symmetry_cell_setting 'monoclinic'
loop_
_space_group_symop_operation_xyz
x,y,z
-x,y,-z
-x,-y,-z
x,-y,z
1/2+x,1/2+y,z
1/2-x,1/2+y,-z
1/2-x,1/2-y,-z
1/2+x,1/2-y,z
loop_
_atom_site_type_symbol
_atom_site_label
_atom_site_fract_x
_atom_site_fract_y
_atom_site_fract_z
Si Si1 0.089961 0.191165 0.632668
Si Si2 0.000000 0.137704 0.000000
Si Si3 0.578429 0.145269 0.518147
Si Si4 0.623865 0.583261 0.256417
Si Si5 0.856273 0.586600 0.960945
Si Si6 0.721298 0.331000 0.971581
O O1 0.023103 0.194048 0.789344
O O2 0.092741 0.267938 0.487213
O O3 0.080670 0.120346 0.460182
O O4 0.162145 0.175078 0.765945
O O5 0.933805 0.085297 0.965690
O O6 0.500000 0.125003 0.500000
O O7 0.606426 0.105311 0.283548
O O8 0.611400 0.121844 0.786249
O O9 0.647419 0.500000 0.317151
O O10 0.689248 0.633865 0.211543
O O11 0.856550 0.500000 0.001503
O O12 0.779945 0.614001 0.901235
O O13 0.750000 0.250000 0.000000
#
# Coordination Sequence:
#
# PCOD8112914 Si02
#       6
#     8   4   8   8   8   8
#     4  11  25  42  72 102 138 186 244 294 357 430
#     4  10  23  42  66 100 141 182 238 288 355 420
#     4  12  27  47  78 106 145 189 248 302 365 435
#     4  11  24  41  66 101 143 185 233 292 359 429
#     4  12  28  48  74 109 148 191 241 304 368 432
#     4  11  24  46  70  98 138 186 241 293 355 430
#
# _framework density 22.435047000000001
#
# number of rings (size 3 to 8) (size 9 to 14) (size 15 to 20)
#    0.000    0.727    1.818    4.636    7.636    8.727 
#    0.000    0.000    0.000    0.000    0.000    0.000 
#    0.000    0.000    0.000    0.000    0.000    0.000 
#
# Total GULP energy -272607.073737 kJ/mol
# GULP energy per Si atom -12391.230624 kJ/mol
# Density = 2.238398 g / cm^3
# Si number density = 22.435047 Si / 1000 Ang^3
#
#
#
# Elastic Constant Matrix: (Units=GPa)
#
#
# Indices 1 2 3 4 5 6 
#
# 1 161.1324 45.4281 39.8413 0.0000 -8.8021 0.0000
# 2 45.4281 174.0009 38.7517 0.0000 -12.8028 0.0000
# 3 39.8413 38.7517 90.6603 0.0000 -17.6267 0.0000
# 4 0.0000 0.0000 0.0000 32.4579 0.0000 -4.5327
# 5 -8.8021 -12.8028 -17.6267 0.0000 35.0958 0.0000
# 6 0.0000 0.0000 0.0000 -4.5327 0.0000 23.7115
#
#
#
# Elastic Compliance Matrix: (Units=1/GPa)
#
#
# Indices 1 2 3 4 5 6 
#
# 1 0.007220 -0.001302 -0.002612 0.000000 0.000024 0.000000
# 2 -0.001302 0.006622 -0.002053 0.000000 0.001058 0.000000
# 3 -0.002612 -0.002053 0.014166 0.000000 0.005711 0.000000
# 4 0.000000 0.000000 0.000000 0.031654 0.000000 0.006051
# 5 0.000024 0.001058 0.005711 0.000000 0.031754 0.000000
# 6 0.000000 0.000000 0.000000 0.006051 0.000000 0.043330
#
#
# Mechanical properties :
#
#
# Convention : Reuss Voigt Hill
#
# Bulk Modulus (GPa) = 62.20671 74.87064 68.53867
# Shear Modulus (GPa) = 32.88675 38.37122 35.62898
#
# Velocity S-wave (km/s) = 3.83281 4.14009 3.98941
# Velocity P-wave (km/s) = 6.88295 7.50323 7.19977
#
# Compressibility (1/GPa) = 0.01607544
#
# Stress axis : x y z
#
# Youngs Moduli (GPa) = 138.50100 151.01326 70.59276
#
# Poissons Ratio (x) = 0.19655 0.18438
# Poissons Ratio (y) = 0.18027 0.14491
# Poissons Ratio (z) = 0.36175 0.30999
#
# Static dielectric constant tensor:
#      x y z
#    x 4.136580 0.000000 -0.121220 
#    y 0.000000 4.043490 0.000000 
#    z -0.121220 0.000000 4.022440 
# 
# 
# High freq. dielectric constant tensor:
#      x y z
#    x 1.908120 0.000000 0.002220 
#    y 0.000000 1.885560 0.000000 
#    z 0.002220 0.000000 1.886190 
# 
# From -- ./inp_files/20483.got.cif
#   From: 2010.06.25/outbox.cif.g09.slc.cpg/sg12_11_cif.got.tgz:20483.got - 2010.06.28 00:19:55.
