data_PCOD8112978
_publ_section_title
;
Structure prediction by ZEFSAII (Michael W. Deem and Ramdas Pophale) SiO2 
 PCOD8112978
Probable space group: C 2/M
;
_chemical_formula_sum "Si O2"
_cell_formula_units_Z 40
_cell_length_a 10.508617
_cell_length_b 8.061485
_cell_length_c 23.187188
_cell_angle_alpha 90.000000
_cell_angle_beta 109.196620
_cell_angle_gamma 90.000000
_cell_volume 1855.080371
_symmetry_space_group_name_H-M "C 2/M"
_symmetry_group_IT_number 12
_symmetry_cell_setting 'monoclinic'
loop_
_space_group_symop_operation_xyz
x,y,z
-x,y,-z
-x,-y,-z
x,-y,z
1/2+x,1/2+y,z
1/2-x,1/2+y,-z
1/2-x,1/2-y,-z
1/2+x,1/2-y,z
loop_
_atom_site_type_symbol
_atom_site_label
_atom_site_fract_x
_atom_site_fract_y
_atom_site_fract_z
Si Si1 0.866868 0.186729 0.873034
Si Si2 0.920057 0.000000 0.047837
Si Si3 0.482981 0.308960 0.665329
Si Si4 0.354180 0.000000 0.949216
Si Si5 0.221538 0.194548 0.266928
Si Si6 0.600620 0.810578 0.469258
O O1 0.820164 0.335446 0.907455
O O2 0.841469 0.241932 0.803965
O O3 0.801164 0.000000 0.875536
O O4 0.028066 0.162936 0.908650
O O5 0.759135 0.000000 0.017075
O O6 0.000000 0.000000 0.000000
O O7 0.452420 0.500000 0.648599
O O8 0.637641 0.288265 0.706166
O O9 0.384586 0.242184 0.701016
O O10 0.452384 0.209096 0.603165
O O11 0.500000 0.000000 0.000000
O O12 0.247457 0.000000 0.277053
O O13 0.500000 0.720069 0.500000
O O14 0.750000 0.750000 0.500000
O O15 0.603840 0.000000 0.486489
#
# Coordination Sequence:
#
# PCOD8112978 Si02
#       6
#     8   4   8   4   8   8
#     4   9  24  45  65  98 136 177 218 285 334 398
#     4  10  24  48  68  98 144 170 222 287 330 398
#     4  11  24  40  66  96 131 169 217 274 325 391
#     4  12  26  44  74 102 132 182 230 272 344 410
#     4  10  23  43  63  93 132 169 216 272 331 385
#     4  11  24  42  64  93 132 172 218 269 326 388
#
# _framework density 21.562408000000001
#
# number of rings (size 3 to 8) (size 9 to 14) (size 15 to 20)
#    0.600    1.000    0.000    3.000    4.200   11.200 
#    1.800    0.000    0.000    0.000    0.000    0.000 
#    0.000    0.000    0.000    0.000    0.000    0.000 
#
# Total GULP energy -247800.012975 kJ/mol
# GULP energy per Si atom -12390.000649 kJ/mol
# Density = 2.151333 g / cm^3
# Si number density = 21.562408 Si / 1000 Ang^3
#
#
#
# Elastic Constant Matrix: (Units=GPa)
#
#
# Indices 1 2 3 4 5 6 
#
# 1 190.8706 32.8736 78.9839 0.0000 -4.0810 0.0000
# 2 32.8736 80.7602 27.3418 0.0000 -11.6514 0.0000
# 3 78.9839 27.3418 156.0904 0.0000 -0.7882 0.0000
# 4 0.0000 0.0000 0.0000 31.8736 0.0000 4.1879
# 5 -4.0810 -11.6514 -0.7882 0.0000 35.7608 0.0000
# 6 0.0000 0.0000 0.0000 4.1879 0.0000 27.3209
#
#
#
# Elastic Compliance Matrix: (Units=1/GPa)
#
#
# Indices 1 2 3 4 5 6 
#
# 1 0.006844 -0.001691 -0.003166 0.000000 0.000160 0.000000
# 2 -0.001691 0.014256 -0.001619 0.000000 0.004416 0.000000
# 3 -0.003166 -0.001619 0.008289 0.000000 -0.000706 0.000000
# 4 0.000000 0.000000 0.000000 0.032019 0.000000 -0.004908
# 5 0.000160 0.004416 -0.000706 0.000000 0.029405 0.000000
# 6 0.000000 0.000000 0.000000 -0.004908 0.000000 0.037354
#
#
# Mechanical properties :
#
#
# Convention : Reuss Voigt Hill
#
# Bulk Modulus (GPa) = 60.84152 78.45775 69.64964
# Shear Modulus (GPa) = 34.10684 38.22586 36.16635
#
# Velocity S-wave (km/s) = 3.98147 4.21503 4.09991
# Velocity P-wave (km/s) = 7.02950 7.75590 7.40162
#
# Compressibility (1/GPa) = 0.01643614
#
# Stress axis : x y z
#
# Youngs Moduli (GPa) = 146.11398 70.14620 120.64555
#
# Poissons Ratio (x) = 0.11860 0.38198
# Poissons Ratio (y) = 0.24705 0.19536
# Poissons Ratio (z) = 0.46262 0.11359
#
# Static dielectric constant tensor:
#      x y z
#    x 4.093830 0.000000 0.225790 
#    y 0.000000 3.885620 0.000000 
#    z 0.225790 0.000000 3.900350 
# 
# 
# High freq. dielectric constant tensor:
#      x y z
#    x 1.841790 0.000000 0.003270 
#    y 0.000000 1.844350 0.000000 
#    z 0.003270 0.000000 1.860430 
# 
# From -- ./inp_files/331825.got.cif
#   From: 2010.06.25/outbox.cif.g09.slc.cpg/sg12_166_cif.got.tgz:331825.got - 2010.06.28 00:19:55.
