data_PCOD8112321
_publ_section_title
;
Structure prediction by ZEFSAII (Michael W. Deem and Ramdas Pophale) SiO2 
 PCOD8112321
Probable space group: C 2/M
;
_chemical_formula_sum "Si O2"
_cell_formula_units_Z 64
_cell_length_a 8.969334
_cell_length_b 17.910074
_cell_length_c 28.957010
_cell_angle_alpha 90.000000
_cell_angle_beta 39.408984
_cell_angle_gamma 90.000000
_cell_volume 2953.136759
_symmetry_space_group_name_H-M "C 2/M"
_symmetry_group_IT_number 12
_symmetry_cell_setting 'monoclinic'
loop_
_space_group_symop_operation_xyz
x,y,z
-x,y,-z
-x,-y,-z
x,-y,z
1/2+x,1/2+y,z
1/2-x,1/2+y,-z
1/2-x,1/2-y,-z
1/2+x,1/2-y,z
loop_
_atom_site_type_symbol
_atom_site_label
_atom_site_fract_x
_atom_site_fract_y
_atom_site_fract_z
Si Si1 0.805177 0.087802 0.709372
Si Si2 0.547823 0.325981 0.413283
Si Si3 0.835987 0.087128 0.297332
Si Si4 0.953988 0.163348 0.838238
Si Si5 0.008766 0.412483 0.915173
Si Si6 0.088509 0.331674 0.152221
Si Si7 0.882379 0.329271 0.418530
Si Si8 0.401349 0.326231 0.954300
O O1 0.910766 0.111834 0.635150
O O2 0.538187 0.119380 0.777778
O O3 0.975370 0.117048 0.710124
O O4 0.789866 0.000000 0.713529
O O5 0.764855 0.323429 0.396516
O O6 0.308530 0.347112 0.496750
O O7 0.522885 0.246450 0.394759
O O8 0.571066 0.104373 0.376225
O O9 0.868521 0.122496 0.238655
O O10 0.869819 0.000000 0.283591
O O11 0.712909 0.116673 0.899488
O O12 0.941213 0.247589 0.823478
O O13 0.027478 0.171060 0.874026
O O14 0.034855 0.500000 0.896721
O O15 0.041697 0.360172 0.862627
O O16 0.762279 0.398065 0.999450
O O17 0.364246 0.338811 0.071441
O O18 0.250000 0.250000 0.000000
#
# Coordination Sequence:
#
# PCOD8112321 Si02
#       8
#     8   8   8   8   8   8   8   8
#     4  11  25  44  66  99 144 188 235 291 359 425
#     4  10  22  42  71 104 139 182 237 294 350 419
#     4  11  25  44  66  99 144 188 235 291 359 425
#     4  12  24  43  71  97 136 179 228 286 348 424
#     4  12  26  46  70  98 135 174 222 289 357 415
#     4  12  24  43  71  97 136 179 228 286 348 424
#     4  10  22  42  71 104 139 182 237 294 350 419
#     4  12  26  44  68 106 133 174 234 290 353 425
#
# _framework density 21.671869999999998
#
# number of rings (size 3 to 8) (size 9 to 14) (size 15 to 20)
#    0.000    0.750    3.750    3.000    1.750    5.500 
#    0.000    2.500    0.000    0.000    0.000    0.000 
#    0.000    0.000    0.000    0.000    0.000    0.000 
#
# Total GULP energy -396653.794630 kJ/mol
# GULP energy per Si atom -12395.431082 kJ/mol
# Density = 2.162254 g / cm^3
# Si number density = 21.671870 Si / 1000 Ang^3
#
#
#
# Elastic Constant Matrix: (Units=GPa)
#
#
# Indices 1 2 3 4 5 6 
#
# 1 62.8964 38.4244 33.3469 -0.0010 -1.7320 0.0022
# 2 38.4244 114.0600 50.2135 -0.0116 -1.7034 -0.0014
# 3 33.3469 50.2135 114.4510 0.0322 0.3072 -0.0232
# 4 -0.0010 -0.0116 0.0322 32.0072 -0.0229 0.9079
# 5 -1.7320 -1.7034 0.3072 -0.0229 38.9240 0.0073
# 6 0.0022 -0.0014 -0.0232 0.9079 0.0073 34.0616
#
#
#
# Elastic Compliance Matrix: (Units=1/GPa)
#
#
# Indices 1 2 3 4 5 6 
#
# 1 0.021285 -0.005488 -0.003796 0.000003 0.000737 -0.000004
# 2 -0.005488 0.012292 -0.003794 0.000008 0.000324 -0.000002
# 3 -0.003796 -0.003794 0.011509 -0.000014 -0.000426 0.000008
# 4 0.000003 0.000008 -0.000014 0.031267 0.000019 -0.000833
# 5 0.000737 0.000324 -0.000426 0.000019 0.025741 -0.000006
# 6 -0.000004 -0.000002 0.000008 -0.000833 -0.000006 0.029381
#
#
# Mechanical properties :
#
#
# Convention : Reuss Voigt Hill
#
# Bulk Modulus (GPa) = 52.83039 59.48632 56.15835
# Shear Modulus (GPa) = 30.49876 32.29338 31.39607
#
# Velocity S-wave (km/s) = 3.75547 3.86438 3.81031
# Velocity P-wave (km/s) = 6.57533 6.88618 6.73255
#
# Compressibility (1/GPa) = 0.01892850
#
# Stress axis : x y z
#
# Youngs Moduli (GPa) = 46.98179 81.35670 86.88712
#
# Poissons Ratio (x) = 0.44652 0.32979
# Poissons Ratio (y) = 0.25786 0.32969
# Poissons Ratio (z) = 0.17833 0.30870
#
# Static dielectric constant tensor:
#      x y z
#    x 4.001370 0.000010 -0.031720 
#    y 0.000010 3.793140 -0.000020 
#    z -0.031720 -0.000020 4.039610 
# 
# 
# High freq. dielectric constant tensor:
#      x y z
#    x 1.854060 0.000000 0.002470 
#    y 0.000000 1.842980 0.000000 
#    z 0.002470 0.000000 1.866390 
# 
# From -- ./inp_files/372895.got.cif
#   From: 2010.06.25/outbox.cif.g09.slc.cpg/sg12_187_cif.got.tgz:372895.got - 2010.06.28 00:19:55.
