data_PCOD8112226
_publ_section_title
;
Structure prediction by ZEFSAII (Michael W. Deem and Ramdas Pophale) SiO2 
 PCOD8112226
Probable space group: C 2/M
;
_chemical_formula_sum "Si O2"
_cell_formula_units_Z 40
_cell_length_a 16.193689
_cell_length_b 7.789866
_cell_length_c 18.093919
_cell_angle_alpha 90.000000
_cell_angle_beta 128.387758
_cell_angle_gamma 90.000000
_cell_volume 1789.073467
_symmetry_space_group_name_H-M "C 2/M"
_symmetry_group_IT_number 12
_symmetry_cell_setting 'monoclinic'
loop_
_space_group_symop_operation_xyz
x,y,z
-x,y,-z
-x,-y,-z
x,-y,z
1/2+x,1/2+y,z
1/2-x,1/2+y,-z
1/2-x,1/2-y,-z
1/2+x,1/2-y,z
loop_
_atom_site_type_symbol
_atom_site_label
_atom_site_fract_x
_atom_site_fract_y
_atom_site_fract_z
Si Si1 0.642025 0.191833 0.903790
Si Si2 0.240993 0.803462 0.718085
Si Si3 0.563277 0.500000 0.937840
Si Si4 0.826406 0.701022 0.608111
Si Si5 0.164849 0.000000 0.137063
Si Si6 0.943495 0.304355 0.301478
O O1 0.556594 0.328285 0.884968
O O2 0.637775 0.202207 0.812628
O O3 0.610936 0.000000 0.913056
O O4 0.750000 0.250000 0.000000
O O5 0.274377 0.733122 0.655711
O O6 0.288983 0.673998 0.804284
O O7 0.113855 0.795036 0.662187
O O8 0.279603 0.000000 0.751342
O O9 0.458844 0.500000 0.925975
O O10 0.671569 0.500000 0.050061
O O11 0.839425 0.500000 0.622173
O O12 0.750000 0.750000 0.500000
O O13 0.942978 0.779566 0.656747
O O14 0.960366 0.500000 0.336348
#
# Coordination Sequence:
#
# PCOD8112226 Si02
#       6
#     8   8   4   8   4   8
#     4  11  22  38  61  93 134 173 224 272 319 387
#     4  11  24  43  68  96 131 172 218 274 330 396
#     4  11  24  38  60  94 126 178 228 268 330 393
#     4  10  24  44  67  98 132 169 219 275 334 398
#     4  11  24  42  62  91 134 172 220 276 332 386
#     4  10  22  42  66  94 133 180 220 265 337 393
#
# _framework density 22.357941
#
# number of rings (size 3 to 8) (size 9 to 14) (size 15 to 20)
#    0.000    1.400    2.000    2.400    2.800    6.400 
#    0.000    6.000    0.000    0.000    0.000    0.000 
#    0.000    0.000    0.000    0.000    0.000    0.000 
#
# Total GULP energy -247820.650894 kJ/mol
# GULP energy per Si atom -12391.032545 kJ/mol
# Density = 2.230705 g / cm^3
# Si number density = 22.357941 Si / 1000 Ang^3
#
#
#
# Elastic Constant Matrix: (Units=GPa)
#
#
# Indices 1 2 3 4 5 6 
#
# 1 166.3951 36.1792 52.2563 0.0000 -5.5341 0.0000
# 2 36.1792 130.4738 26.6904 0.0000 -13.7138 0.0000
# 3 52.2563 26.6904 84.5919 0.0000 1.1653 0.0000
# 4 0.0000 0.0000 0.0000 27.8308 0.0000 -5.1961
# 5 -5.5341 -13.7138 1.1653 0.0000 33.7257 0.0000
# 6 0.0000 0.0000 0.0000 -5.1961 0.0000 27.4837
#
#
#
# Elastic Compliance Matrix: (Units=1/GPa)
#
#
# Indices 1 2 3 4 5 6 
#
# 1 0.007666 -0.001127 -0.004393 0.000000 0.000951 0.000000
# 2 -0.001127 0.008774 -0.002120 0.000000 0.003456 0.000000
# 3 -0.004393 -0.002120 0.015233 0.000000 -0.002109 0.000000
# 4 0.000000 0.000000 0.000000 0.037246 0.000000 0.007042
# 5 0.000951 0.003456 -0.002109 0.000000 0.031285 0.000000
# 6 0.000000 0.000000 0.000000 0.007042 0.000000 0.037717
#
#
# Mechanical properties :
#
#
# Convention : Reuss Voigt Hill
#
# Bulk Modulus (GPa) = 61.00084 67.96807 64.48445
# Shear Modulus (GPa) = 31.51283 35.56369 33.53826
#
# Velocity S-wave (km/s) = 3.75836 3.99262 3.87726
# Velocity P-wave (km/s) = 6.79534 7.19171 6.99633
#
# Compressibility (1/GPa) = 0.01639322
#
# Stress axis : x y z
#
# Youngs Moduli (GPa) = 130.44285 113.97637 65.64595
#
# Poissons Ratio (x) = 0.12846 0.28840
# Poissons Ratio (y) = 0.14702 0.13915
# Poissons Ratio (z) = 0.57307 0.24159
#
# Static dielectric constant tensor:
#      x y z
#    x 4.740520 0.000000 -0.049310 
#    y 0.000000 4.221940 0.000000 
#    z -0.049310 0.000000 3.739420 
# 
# 
# High freq. dielectric constant tensor:
#      x y z
#    x 1.902700 0.000000 -0.001310 
#    y 0.000000 1.877250 0.000000 
#    z -0.001310 0.000000 1.862080 
# 
# From -- ./inp_files/274680.got.cif
#   From: 2010.06.25/outbox.cif.g09.slc.cpg/sg12_138_cif.got.tgz:274680.got - 2010.06.28 00:19:55.
