data_PCOD8112721
_publ_section_title
;
Structure prediction by ZEFSAII (Michael W. Deem and Ramdas Pophale) SiO2 
 PCOD8112721
Probable space group: C 2/M
;
_chemical_formula_sum "Si O2"
_cell_formula_units_Z 40
_cell_length_a 26.925467
_cell_length_b 8.656710
_cell_length_c 8.909415
_cell_angle_alpha 90.000000
_cell_angle_beta 70.978492
_cell_angle_gamma 90.000000
_cell_volume 1963.266239
_symmetry_space_group_name_H-M "C 2/M"
_symmetry_group_IT_number 12
_symmetry_cell_setting 'monoclinic'
loop_
_space_group_symop_operation_xyz
x,y,z
-x,y,-z
-x,-y,-z
x,-y,z
1/2+x,1/2+y,z
1/2-x,1/2+y,-z
1/2-x,1/2-y,-z
1/2+x,1/2-y,z
loop_
_atom_site_type_symbol
_atom_site_label
_atom_site_fract_x
_atom_site_fract_y
_atom_site_fract_z
Si Si1 0.897266 0.678565 0.427492
Si Si2 0.905849 0.321494 0.767417
Si Si3 0.201374 0.319544 0.960605
Si Si4 0.200740 0.180625 0.633590
Si Si5 0.495847 0.678594 0.177878
O O1 0.882342 0.500000 0.417078
O O2 0.903116 0.718422 0.595605
O O3 0.851898 0.784646 0.405501
O O4 0.951825 0.713429 0.292791
O O5 0.921001 0.500000 0.779342
O O6 0.948853 0.212119 0.799053
O O7 0.850352 0.280033 0.894684
O O8 0.210360 0.500000 0.934243
O O9 0.195650 0.247980 0.803473
O O10 0.250000 0.250000 0.000000
O O11 0.250000 0.250000 0.500000
O O12 0.209330 0.000000 0.638314
O O13 0.480874 0.500000 0.216523
O O14 0.500000 0.721254 0.000000
#
# Coordination Sequence:
#
# PCOD8112721 Si02
#       5
#     8   8   8   8   8
#     4  11  23  41  64  91 123 159 203 253 307 367
#     4  10  23  41  62  89 121 159 202 250 305 366
#     4  11  23  41  65  93 126 164 206 254 310 368
#     4  12  25  42  64  92 125 162 207 255 308 368
#     4  11  24  40  60  89 123 160 204 252 303 363
#
# _framework density 20.374210000000001
#
# number of rings (size 3 to 8) (size 9 to 14) (size 15 to 20)
#    0.000    1.000    0.000    6.600    0.000   12.000 
#    0.000    0.000    0.000    0.000    0.000    0.000 
#    0.000    0.000    0.000    0.000    0.000    0.000 
#
# Total GULP energy -248165.709930 kJ/mol
# GULP energy per Si atom -12408.285496 kJ/mol
# Density = 2.032784 g / cm^3
# Si number density = 20.374210 Si / 1000 Ang^3
#
#
#
# Elastic Constant Matrix: (Units=GPa)
#
#
# Indices 1 2 3 4 5 6 
#
# 1 132.0984 46.5703 62.0648 0.0000 -0.1112 0.0000
# 2 46.5703 82.7237 55.3016 0.0000 -11.4568 0.0000
# 3 62.0648 55.3016 168.7513 0.0000 -4.6236 0.0000
# 4 0.0000 0.0000 0.0000 21.9772 0.0000 -2.0755
# 5 -0.1112 -11.4568 -4.6236 0.0000 31.8882 0.0000
# 6 0.0000 0.0000 0.0000 -2.0755 0.0000 40.4417
#
#
#
# Elastic Compliance Matrix: (Units=1/GPa)
#
#
# Indices 1 2 3 4 5 6 
#
# 1 0.010249 -0.004455 -0.002362 0.000000 -0.001907 0.000000
# 2 -0.004455 0.018200 -0.004164 0.000000 0.005920 0.000000
# 3 -0.002362 -0.004164 0.008150 0.000000 -0.000322 0.000000
# 4 0.000000 0.000000 0.000000 0.045723 0.000000 0.002347
# 5 -0.001907 0.005920 -0.000322 0.000000 0.033433 0.000000
# 6 0.000000 0.000000 0.000000 0.002347 0.000000 0.024847
#
#
# Mechanical properties :
#
#
# Convention : Reuss Voigt Hill
#
# Bulk Modulus (GPa) = 68.31521 79.04964 73.68243
# Shear Modulus (GPa) = 29.86118 33.50388 31.68253
#
# Velocity S-wave (km/s) = 3.83252 4.05955 3.94767
# Velocity P-wave (km/s) = 7.29296 7.80105 7.55128
#
# Compressibility (1/GPa) = 0.01463803
#
# Stress axis : x y z
#
# Youngs Moduli (GPa) = 97.57364 54.94633 122.69834
#
# Poissons Ratio (x) = 0.24478 0.28977
# Poissons Ratio (y) = 0.43469 0.51086
# Poissons Ratio (z) = 0.23044 0.22877
#
# Static dielectric constant tensor:
#      x y z
#    x 3.820340 0.000000 0.003260 
#    y 0.000000 3.759850 0.000000 
#    z 0.003260 0.000000 3.948190 
# 
# 
# High freq. dielectric constant tensor:
#      x y z
#    x 1.812860 0.000000 -0.000440 
#    y 0.000000 1.806250 0.000000 
#    z -0.000440 0.000000 1.819110 
# 
# From -- ./inp_files/92747.got.cif
#   From: 2010.06.25/outbox.cif.g09.slc.cpg/sg12_47_cif.got.tgz:92747.got - 2010.06.28 00:19:55.
