data_PCOD8112714
_publ_section_title
;
Structure prediction by ZEFSAII (Michael W. Deem and Ramdas Pophale) SiO2 
 PCOD8112714
Probable space group: C 2/M
;
_chemical_formula_sum "Si O2"
_cell_formula_units_Z 48
_cell_length_a 24.653496
_cell_length_b 8.474877
_cell_length_c 12.377045
_cell_angle_alpha 90.000000
_cell_angle_beta 108.832080
_cell_angle_gamma 90.000000
_cell_volume 2447.570058
_symmetry_space_group_name_H-M "C 2/M"
_symmetry_group_IT_number 12
_symmetry_cell_setting 'monoclinic'
loop_
_space_group_symop_operation_xyz
x,y,z
-x,y,-z
-x,-y,-z
x,-y,z
1/2+x,1/2+y,z
1/2-x,1/2+y,-z
1/2-x,1/2-y,-z
1/2+x,1/2-y,z
loop_
_atom_site_type_symbol
_atom_site_label
_atom_site_fract_x
_atom_site_fract_y
_atom_site_fract_z
Si Si1 0.616826 0.319170 0.882013
Si Si2 0.811420 0.684054 0.506656
Si Si3 0.185336 0.683384 0.116053
Si Si4 0.000064 0.317203 0.876170
Si Si5 0.809109 0.816866 0.275344
Si Si6 0.385725 0.317505 0.737508
O O1 0.598141 0.500000 0.883575
O O2 0.562074 0.209255 0.864112
O O3 0.640985 0.286082 0.778553
O O4 0.666281 0.282199 0.000019
O O5 0.813535 0.500000 0.534372
O O6 0.750000 0.750000 0.500000
O O7 0.823948 0.713826 0.389211
O O8 0.860461 0.772148 0.605298
O O9 0.183876 0.500000 0.084658
O O10 0.248714 0.740625 0.187953
O O11 0.142918 0.712480 0.188210
O O12 0.983824 0.500000 0.857940
O O13 0.953502 0.216887 0.779850
O O14 0.000000 0.259353 0.000000
O O15 0.804765 0.000000 0.305607
O O16 0.373771 0.500000 0.753891
#
# Coordination Sequence:
#
# PCOD8112714 Si02
#       6
#     8   8   8   8   8   8
#     4  11  23  39  61  91 126 164 205 252 305 365
#     4  12  24  40  64  91 123 162 205 251 301 360
#     4  11  21  36  60  90 127 164 200 249 304 366
#     4  11  23  40  63  89 122 162 203 254 305 360
#     4  10  23  41  61  89 127 165 204 251 306 363
#     4  12  24  39  63  93 123 157 203 256 304 358
#
# _framework density 19.611286
#
# number of rings (size 3 to 8) (size 9 to 14) (size 15 to 20)
#    0.000    0.833    3.333    5.000    0.000    2.667 
#    0.000    0.833    0.000    5.000    0.000    0.000 
#    0.000    0.000    0.000    0.000    0.000    0.000 
#
# Total GULP energy -297806.898016 kJ/mol
# GULP energy per Si atom -12408.620751 kJ/mol
# Density = 1.956665 g / cm^3
# Si number density = 19.611286 Si / 1000 Ang^3
#
#
#
# Elastic Constant Matrix: (Units=GPa)
#
#
# Indices 1 2 3 4 5 6 
#
# 1 86.2319 26.3382 49.0642 0.0000 5.0008 0.0000
# 2 26.3382 68.9054 32.0126 0.0000 3.2716 0.0000
# 3 49.0642 32.0126 115.5063 0.0000 7.0908 0.0000
# 4 0.0000 0.0000 0.0000 33.3567 0.0000 2.9178
# 5 5.0008 3.2716 7.0908 0.0000 36.1564 0.0000
# 6 0.0000 0.0000 0.0000 2.9178 0.0000 28.0346
#
#
#
# Elastic Compliance Matrix: (Units=1/GPa)
#
#
# Indices 1 2 3 4 5 6 
#
# 1 0.015973 -0.003373 -0.005803 0.000000 -0.000766 0.000000
# 2 -0.003373 0.017383 -0.003357 0.000000 -0.000448 0.000000
# 3 -0.005803 -0.003357 0.012131 0.000000 -0.001273 0.000000
# 4 0.000000 0.000000 0.000000 0.030254 0.000000 -0.003149
# 5 -0.000766 -0.000448 -0.001273 0.000000 0.028054 0.000000
# 6 0.000000 0.000000 0.000000 -0.003149 0.000000 0.035998
#
#
# Mechanical properties :
#
#
# Convention : Reuss Voigt Hill
#
# Bulk Modulus (GPa) = 48.97127 53.94149 51.45638
# Shear Modulus (GPa) = 29.12609 30.39146 29.75877
#
# Velocity S-wave (km/s) = 3.85797 3.94088 3.89965
# Velocity P-wave (km/s) = 6.69854 6.94784 6.82433
#
# Compressibility (1/GPa) = 0.02042014
#
# Stress axis : x y z
#
# Youngs Moduli (GPa) = 62.60493 57.52731 82.43212
#
# Poissons Ratio (x) = 0.19405 0.47836
# Poissons Ratio (y) = 0.21117 0.27676
# Poissons Ratio (z) = 0.36330 0.19314
#
# Static dielectric constant tensor:
#      x y z
#    x 3.459930 0.000000 0.052580 
#    y 0.000000 3.570980 0.000000 
#    z 0.052580 0.000000 3.625480 
# 
# 
# High freq. dielectric constant tensor:
#      x y z
#    x 1.760510 0.000000 0.005130 
#    y 0.000000 1.773310 0.000000 
#    z 0.005130 0.000000 1.764240 
# 
# From -- ./inp_files/172872.got.cif
#   From: 2010.06.25/outbox.cif.g09.slc.cpg/sg12_87_cif.got.tgz:172872.got - 2010.06.28 00:19:55.
