data_PCOD8112323
_publ_section_title
;
Structure prediction by ZEFSAII (Michael W. Deem and Ramdas Pophale) SiO2 
 PCOD8112323
Probable space group: C 2/M
;
_chemical_formula_sum "Si O2"
_cell_formula_units_Z 40
_cell_length_a 17.889237
_cell_length_b 10.937590
_cell_length_c 18.441067
_cell_angle_alpha 90.000000
_cell_angle_beta 30.348709
_cell_angle_gamma 90.000000
_cell_volume 1823.121700
_symmetry_space_group_name_H-M "C 2/M"
_symmetry_group_IT_number 12
_symmetry_cell_setting 'monoclinic'
loop_
_space_group_symop_operation_xyz
x,y,z
-x,y,-z
-x,-y,-z
x,-y,z
1/2+x,1/2+y,z
1/2-x,1/2+y,-z
1/2-x,1/2-y,-z
1/2+x,1/2-y,z
loop_
_atom_site_type_symbol
_atom_site_label
_atom_site_fract_x
_atom_site_fract_y
_atom_site_fract_z
Si Si1 0.859187 0.362803 0.915042
Si Si2 0.130255 0.734369 0.946423
Si Si3 0.853662 0.000000 0.071958
Si Si4 0.076479 0.140554 0.361754
Si Si5 0.410976 0.782930 0.393106
Si Si6 0.515430 0.000000 0.402046
O O1 0.801087 0.500000 0.941339
O O2 0.002985 0.331303 0.748927
O O3 0.750000 0.250000 0.000000
O O4 0.896223 0.367156 0.969775
O O5 0.138705 0.870545 0.977724
O O6 0.277016 0.718514 0.775722
O O7 0.000000 0.723315 0.000000
O O8 0.692047 0.000000 0.243730
O O9 0.000000 0.000000 0.000000
O O10 0.000000 0.187292 0.500000
O O11 0.972640 0.158605 0.377920
O O12 0.119984 0.000000 0.332785
O O13 0.250000 0.750000 0.500000
O O14 0.428512 0.883905 0.441354
O O15 0.500000 0.000000 0.500000
#
# Coordination Sequence:
#
# PCOD8112323 Si02
#       6
#     8   8   4   8   8   4
#     4  12  26  47  74 104 149 189 244 310 373 449
#     4  11  25  44  72 106 138 185 241 298 373 438
#     4  10  22  42  72 108 140 180 243 309 366 446
#     4  11  25  45  69  99 139 185 239 295 358 448
#     4  12  28  46  70 105 146 195 240 305 378 441
#     4  12  24  48  78 104 142 188 252 305 363 445
#
# _framework density 21.940390000000001
#
# number of rings (size 3 to 8) (size 9 to 14) (size 15 to 20)
#    0.000    0.600    5.000    1.200    5.600    3.200 
#    0.000    0.000    0.000    0.000    0.000    0.000 
#    0.000    0.000    0.000    0.000    0.000    0.000 
#
# Total GULP energy -247781.081689 kJ/mol
# GULP energy per Si atom -12389.054084 kJ/mol
# Density = 2.189045 g / cm^3
# Si number density = 21.940390 Si / 1000 Ang^3
#
#
#
# Elastic Constant Matrix: (Units=GPa)
#
#
# Indices 1 2 3 4 5 6 
#
# 1 120.0542 55.5439 84.5130 -0.0002 -11.1208 0.0002
# 2 55.5439 131.7251 53.6594 0.0005 -8.2331 -0.0005
# 3 84.5130 53.6594 123.1629 0.0009 -1.4452 -0.0008
# 4 -0.0002 0.0005 0.0009 26.6604 -0.0002 -0.3189
# 5 -11.1208 -8.2331 -1.4452 -0.0002 50.3746 0.0001
# 6 0.0002 -0.0005 -0.0008 -0.3189 0.0001 37.8093
#
#
#
# Elastic Compliance Matrix: (Units=1/GPa)
#
#
# Indices 1 2 3 4 5 6 
#
# 1 0.017462 -0.002801 -0.010726 0.000001 0.003089 0.000000
# 2 -0.002801 0.009778 -0.002327 0.000000 0.000913 0.000000
# 3 -0.010726 -0.002327 0.016466 -0.000001 -0.002276 0.000000
# 4 0.000001 0.000000 -0.000001 0.037513 0.000000 0.000316
# 5 0.003089 0.000913 -0.002276 0.000000 0.020617 0.000000
# 6 0.000000 0.000000 0.000000 0.000316 0.000000 0.026451
#
#
# Mechanical properties :
#
#
# Convention : Reuss Voigt Hill
#
# Bulk Modulus (GPa) = 83.34423 84.70830 84.02627
# Shear Modulus (GPa) = 30.48883 35.05059 32.76971
#
# Velocity S-wave (km/s) = 3.73181 4.00126 3.86888
# Velocity P-wave (km/s) = 7.52580 7.74848 7.63795
#
# Compressibility (1/GPa) = 0.01199843
#
# Stress axis : x y z
#
# Youngs Moduli (GPa) = 57.26710 102.27364 60.72941
#
# Poissons Ratio (x) = 0.28645 0.65137
# Poissons Ratio (y) = 0.16039 0.14134
# Poissons Ratio (z) = 0.61423 0.23802
#
# Static dielectric constant tensor:
#      x y z
#    x 3.622200 0.000000 -0.009090 
#    y 0.000000 4.441030 0.000000 
#    z -0.009090 0.000000 3.796110 
# 
# 
# High freq. dielectric constant tensor:
#      x y z
#    x 1.872390 0.000000 0.004550 
#    y 0.000000 1.886750 0.000000 
#    z 0.004550 0.000000 1.855010 
# 
# From -- ./inp_files/277197.got.cif
#   From: 2010.06.25/outbox.cif.g09.slc.cpg/sg12_139_cif.got.tgz:277197.got - 2010.06.28 00:19:55.
