data_PCOD8112047
_publ_section_title
;
Structure prediction by ZEFSAII (Michael W. Deem and Ramdas Pophale) SiO2 
 PCOD8112047
Probable space group: C 2/M
;
_chemical_formula_sum "Si O2"
_cell_formula_units_Z 56
_cell_length_a 17.336861
_cell_length_b 24.460288
_cell_length_c 6.565408
_cell_angle_alpha 90.000000
_cell_angle_beta 74.106081
_cell_angle_gamma 90.000000
_cell_volume 2677.719932
_symmetry_space_group_name_H-M "C 2/M"
_symmetry_group_IT_number 12
_symmetry_cell_setting 'monoclinic'
loop_
_space_group_symop_operation_xyz
x,y,z
-x,y,-z
-x,-y,-z
x,-y,z
1/2+x,1/2+y,z
1/2-x,1/2+y,-z
1/2-x,1/2-y,-z
1/2+x,1/2-y,z
loop_
_atom_site_type_symbol
_atom_site_label
_atom_site_fract_x
_atom_site_fract_y
_atom_site_fract_z
Si Si1 0.863236 0.061403 0.678468
Si Si2 0.690536 0.199020 0.547866
Si Si3 0.926649 0.741838 0.692203
Si Si4 0.295329 0.939410 0.956962
Si Si5 0.915422 0.652884 0.013519
Si Si6 0.701860 0.394336 0.669557
Si Si7 0.919261 0.850269 0.928667
O O1 0.858999 0.075276 0.440883
O O2 0.924017 0.099865 0.762445
O O3 0.896142 0.000000 0.681775
O O4 0.773318 0.067652 0.825636
O O5 0.750000 0.250000 0.500000
O O6 0.639795 0.209438 0.384170
O O7 0.741263 0.144104 0.502099
O O8 0.632422 0.188472 0.782510
O O9 0.952769 0.698330 0.838687
O O10 0.894506 0.796662 0.821131
O O11 0.000000 0.760652 0.500000
O O12 0.360521 0.892470 0.945777
O O13 0.256805 0.935972 0.758795
O O14 0.334247 0.000000 0.948143
O O15 0.000000 0.622213 0.000000
O O16 0.651962 0.357712 0.861430
O O17 0.000000 0.843974 0.000000
#
# Coordination Sequence:
#
# PCOD8112047 Si02
#       7
#     8   8   8   8   8   8   8
#     4  10  22  43  69  96 132 178 222 272 332 386
#     4  12  25  39  67  97 129 173 220 265 332 397
#     4  12  26  43  66  94 135 176 210 271 335 394
#     4  10  22  41  66  97 133 172 223 275 323 395
#     4  12  24  43  66  99 134 171 221 271 333 394
#     4  11  22  42  68  98 130 171 224 275 326 392
#     4  11  27  42  65 100 136 172 224 273 331 396
#
# _framework density 20.913314
#
# number of rings (size 3 to 8) (size 9 to 14) (size 15 to 20)
#    0.000    0.857    4.286    2.571    6.000    2.286 
#    0.000    0.714    0.000    1.286    0.000    0.000 
#    0.000    0.000    0.000    0.000    0.000    0.000 
#
# Total GULP energy -347052.375213 kJ/mol
# GULP energy per Si atom -12394.727686 kJ/mol
# Density = 2.086571 g / cm^3
# Si number density = 20.913314 Si / 1000 Ang^3
#
#
#
# Elastic Constant Matrix: (Units=GPa)
#
#
# Indices 1 2 3 4 5 6 
#
# 1 72.0185 21.7150 24.4964 0.0000 7.1398 0.0000
# 2 21.7150 120.3184 36.1472 0.0000 6.0412 0.0000
# 3 24.4964 36.1472 101.9372 0.0000 8.9835 0.0000
# 4 0.0000 0.0000 0.0000 26.7326 0.0000 10.7065
# 5 7.1398 6.0412 8.9835 0.0000 34.9332 0.0000
# 6 0.0000 0.0000 0.0000 10.7065 0.0000 17.2269
#
#
#
# Elastic Compliance Matrix: (Units=1/GPa)
#
#
# Indices 1 2 3 4 5 6 
#
# 1 0.015644 -0.001839 -0.002920 0.000000 -0.002129 0.000000
# 2 -0.001839 0.009539 -0.002894 0.000000 -0.000529 0.000000
# 3 -0.002920 -0.002894 0.011706 0.000000 -0.001913 0.000000
# 4 0.000000 0.000000 0.000000 0.049805 0.000000 -0.030954
# 5 -0.002129 -0.000529 -0.001913 0.000000 0.029645 0.000000
# 6 0.000000 0.000000 0.000000 -0.030954 0.000000 0.077287
#
#
# Mechanical properties :
#
#
# Convention : Reuss Voigt Hill
#
# Bulk Modulus (GPa) = 46.33106 50.99904 48.66505
# Shear Modulus (GPa) = 23.13464 29.90622 26.52043
#
# Velocity S-wave (km/s) = 3.32959 3.78565 3.56492
# Velocity P-wave (km/s) = 6.08141 6.59902 6.34549
#
# Compressibility (1/GPa) = 0.02158379
#
# Stress axis : x y z
#
# Youngs Moduli (GPa) = 63.92215 104.82970 85.42351
#
# Poissons Ratio (x) = 0.19283 0.24940
# Poissons Ratio (y) = 0.11758 0.24721
# Poissons Ratio (z) = 0.18662 0.30337
#
# Static dielectric constant tensor:
#      x y z
#    x 4.080660 0.000000 0.285110 
#    y 0.000000 3.718410 0.000000 
#    z 0.285110 0.000000 3.946910 
# 
# 
# High freq. dielectric constant tensor:
#      x y z
#    x 1.816660 0.000000 0.010740 
#    y 0.000000 1.822470 0.000000 
#    z 0.010740 0.000000 1.829980 
# 
# From -- ./inp_files/17628.got.cif
#   From: 2010.06.25/outbox.cif.g09.slc.cpg/sg12_9_cif.got.tgz:17628.got - 2010.06.28 00:19:55.
