data_PCOD8112592
_publ_section_title
;
Structure prediction by ZEFSAII (Michael W. Deem and Ramdas Pophale) SiO2 
 PCOD8112592
Probable space group: C 2/M
;
_chemical_formula_sum "Si O2"
_cell_formula_units_Z 44
_cell_length_a 16.819993
_cell_length_b 23.230915
_cell_length_c 13.822291
_cell_angle_alpha 90.000000
_cell_angle_beta 22.713212
_cell_angle_gamma 90.000000
_cell_volume 2085.417743
_symmetry_space_group_name_H-M "C 2/M"
_symmetry_group_IT_number 12
_symmetry_cell_setting 'monoclinic'
loop_
_space_group_symop_operation_xyz
x,y,z
-x,y,-z
-x,-y,-z
x,-y,z
1/2+x,1/2+y,z
1/2-x,1/2+y,-z
1/2-x,1/2-y,-z
1/2+x,1/2-y,z
loop_
_atom_site_type_symbol
_atom_site_label
_atom_site_fract_x
_atom_site_fract_y
_atom_site_fract_z
Si Si1 0.122533 0.500000 0.068018
Si Si2 0.816956 0.372448 0.783470
Si Si3 0.439901 0.183312 0.319334
Si Si4 0.104457 0.405739 0.786996
Si Si5 0.645944 0.000000 0.246579
Si Si6 0.518195 0.278141 0.872582
Si Si7 0.930729 0.000000 0.467907
O O1 0.010490 0.500000 0.298718
O O2 0.072177 0.444537 0.062054
O O3 0.363760 0.500000 0.827075
O O4 0.732903 0.438687 0.885370
O O5 0.000000 0.366758 0.500000
O O6 0.897371 0.351078 0.798008
O O7 0.622052 0.334984 0.971390
O O8 0.332494 0.143555 0.358377
O O9 0.554690 0.234203 0.130161
O O10 0.258347 0.207409 0.589518
O O11 0.305060 0.442765 0.585209
O O12 0.000000 0.379056 0.000000
O O13 0.500000 0.000000 0.500000
O O14 0.500000 0.250185 0.000000
O O15 0.000000 0.000000 0.500000
#
# Coordination Sequence:
#
# PCOD8112592 Si02
#       7
#     4   8   8   8   4   8   4
#     4  11  20  39  61  88 132 165 209 264 316 383
#     4  11  22  44  68  92 132 173 211 269 324 383
#     4  11  24  41  66  95 127 168 217 264 328 380
#     4  11  22  38  62  90 126 169 208 268 322 378
#     4  10  23  39  66  98 128 170 215 256 318 385
#     4  11  24  44  67  93 127 170 218 271 320 384
#     4  11  21  37  61  91 127 174 208 255 330 383
#
# _framework density 21.098890999999998
#
# number of rings (size 3 to 8) (size 9 to 14) (size 15 to 20)
#    0.000    1.091    5.455    1.636    2.545    0.000 
#    0.000    1.364    0.000    0.000    0.000    0.000 
#    0.000    0.000    0.000    0.000    0.000    0.000 
#
# Total GULP energy -272694.321974 kJ/mol
# GULP energy per Si atom -12395.196453 kJ/mol
# Density = 2.105087 g / cm^3
# Si number density = 21.098891 Si / 1000 Ang^3
#
#
#
# Elastic Constant Matrix: (Units=GPa)
#
#
# Indices 1 2 3 4 5 6 
#
# 1 113.3419 31.3578 39.0601 -0.0837 20.8783 0.0058
# 2 31.3578 122.9162 30.5648 0.2022 5.1189 -0.1104
# 3 39.0601 30.5648 82.0980 -0.0529 8.7912 0.0341
# 4 -0.0837 0.2022 -0.0529 19.0066 -0.0717 8.4877
# 5 20.8783 5.1189 8.7912 -0.0717 38.7532 0.0781
# 6 0.0058 -0.1104 0.0341 8.4877 0.0781 33.5071
#
#
#
# Elastic Compliance Matrix: (Units=1/GPa)
#
#
# Indices 1 2 3 4 5 6 
#
# 1 0.011752 -0.001687 -0.004416 0.000039 -0.005107 -0.000001
# 2 -0.001687 0.009216 -0.002660 -0.000142 0.000295 0.000069
# 3 -0.004416 -0.002660 0.015353 0.000066 -0.000752 -0.000039
# 4 0.000039 -0.000142 0.000066 0.059327 0.000123 -0.015029
# 5 -0.005107 0.000295 -0.000752 0.000123 0.028688 -0.000095
# 6 -0.000001 0.000069 -0.000039 -0.015029 -0.000095 0.033652
#
#
# Mechanical properties :
#
#
# Convention : Reuss Voigt Hill
#
# Bulk Modulus (GPa) = 53.21032 57.81348 55.51190
# Shear Modulus (GPa) = 27.50597 32.74496 30.12547
#
# Velocity S-wave (km/s) = 3.61455 3.94379 3.78275
# Velocity P-wave (km/s) = 6.53408 6.94252 6.74140
#
# Compressibility (1/GPa) = 0.01879335
#
# Stress axis : x y z
#
# Youngs Moduli (GPa) = 85.08875 108.51266 65.13570
#
# Poissons Ratio (x) = 0.18311 0.28767
# Poissons Ratio (y) = 0.14358 0.17325
# Poissons Ratio (z) = 0.37579 0.28862
#
# Static dielectric constant tensor:
#      x y z
#    x 3.888740 0.013600 0.371210 
#    y 0.013600 6.468080 -0.006870 
#    z 0.371210 -0.006870 3.704740 
# 
# 
# High freq. dielectric constant tensor:
#      x y z
#    x 1.842420 -0.000020 0.027740 
#    y -0.000020 1.833110 0.000070 
#    z 0.027740 0.000070 1.805930 
# 
# From -- ./inp_files/228085.got.cif
#   From: 2010.06.25/outbox.cif.g09.slc.cpg/sg12_115_cif.got.tgz:228085.got - 2010.06.28 00:19:55.
