data_PCOD8112370
_publ_section_title
;
Structure prediction by ZEFSAII (Michael W. Deem and Ramdas Pophale) SiO2 
 PCOD8112370
Probable space group: C 2/M
;
_chemical_formula_sum "Si O2"
_cell_formula_units_Z 64
_cell_length_a 9.401007
_cell_length_b 24.897276
_cell_length_c 14.522408
_cell_angle_alpha 90.000000
_cell_angle_beta 65.609449
_cell_angle_gamma 90.000000
_cell_volume 3095.742793
_symmetry_space_group_name_H-M "C 2/M"
_symmetry_group_IT_number 12
_symmetry_cell_setting 'monoclinic'
loop_
_space_group_symop_operation_xyz
x,y,z
-x,y,-z
-x,-y,-z
x,-y,z
1/2+x,1/2+y,z
1/2-x,1/2+y,-z
1/2-x,1/2-y,-z
1/2+x,1/2-y,z
loop_
_atom_site_type_symbol
_atom_site_label
_atom_site_fract_x
_atom_site_fract_y
_atom_site_fract_z
Si Si1 0.647878 0.725339 0.264859
Si Si2 0.256580 0.195589 0.439040
Si Si3 0.973106 0.060890 0.791717
Si Si4 0.276526 0.059631 0.823157
Si Si5 0.327639 0.794214 0.039944
Si Si6 0.096369 0.343282 0.313394
Si Si7 0.114068 0.850530 0.638643
Si Si8 0.173171 0.414451 0.986767
O O1 0.704564 0.706882 0.349773
O O2 0.757306 0.698284 0.160131
O O3 0.650055 0.789081 0.246676
O O4 0.471552 0.703174 0.299060
O O5 0.250000 0.250000 0.500000
O O6 0.424408 0.167002 0.397944
O O7 0.136732 0.154542 0.522073
O O8 0.798836 0.070453 0.875326
O O9 0.100885 0.074459 0.836848
O O10 0.007966 0.098175 0.693572
O O11 0.988585 0.000000 0.753409
O O12 0.398324 0.104925 0.755379
O O13 0.322580 0.000000 0.773310
O O14 0.280373 0.055740 0.932219
O O15 0.321621 0.851455 0.991790
O O16 0.500000 0.772093 0.000000
O O17 0.250000 0.750000 0.000000
O O18 0.212803 0.354542 0.366172
O O19 0.000000 0.432127 0.000000
#
# Coordination Sequence:
#
# PCOD8112370 Si02
#       8
#     8   8   8   8   8   8   8   8
#     4  12  23  40  64  93 129 167 205 258 315 381
#     4  12  24  39  64  95 127 165 211 258 314 382
#     4  10  22  43  67  91 125 169 218 267 317 379
#     4  10  23  41  64  93 124 168 219 263 318 387
#     4  11  27  41  59  93 136 172 209 253 320 385
#     4  11  23  38  65  90 128 162 206 262 317 374
#     4  11  23  40  61  96 124 160 211 261 313 369
#     4  11  23  40  63  94 127 166 216 267 318 384
#
# _framework density 20.673551
#
# number of rings (size 3 to 8) (size 9 to 14) (size 15 to 20)
#    0.000    1.000    3.750    2.250    7.000    3.000 
#    0.000    0.625    0.000    4.500    0.000    0.000 
#    0.000    0.000    0.000    0.000    0.000    0.000 
#
# Total GULP energy -396761.407344 kJ/mol
# GULP energy per Si atom -12398.793979 kJ/mol
# Density = 2.062650 g / cm^3
# Si number density = 20.673551 Si / 1000 Ang^3
#
#
#
# Elastic Constant Matrix: (Units=GPa)
#
#
# Indices 1 2 3 4 5 6 
#
# 1 89.7224 44.4302 56.6671 0.0000 -18.6503 0.0000
# 2 44.4302 125.1582 44.4260 0.0000 -6.4194 0.0000
# 3 56.6671 44.4260 132.9696 0.0000 -12.3144 0.0000
# 4 0.0000 0.0000 0.0000 25.6925 0.0000 -0.5035
# 5 -18.6503 -6.4194 -12.3144 0.0000 39.2741 0.0000
# 6 0.0000 0.0000 0.0000 -0.5035 0.0000 24.7677
#
#
#
# Elastic Compliance Matrix: (Units=1/GPa)
#
#
# Indices 1 2 3 4 5 6 
#
# 1 0.018073 -0.004050 -0.005784 0.000000 0.006107 0.000000
# 2 -0.004050 0.009984 -0.001686 0.000000 -0.000820 0.000000
# 3 -0.005784 -0.001686 0.010576 0.000000 0.000294 0.000000
# 4 0.000000 0.000000 0.000000 0.038937 0.000000 0.000792
# 5 0.006107 -0.000820 0.000294 0.000000 0.028320 0.000000
# 6 0.000000 0.000000 0.000000 0.000792 0.000000 0.040391
#
#
# Mechanical properties :
#
#
# Convention : Reuss Voigt Hill
#
# Bulk Modulus (GPa) = 64.12420 70.98853 67.55637
# Shear Modulus (GPa) = 28.65038 31.43533 30.04286
#
# Velocity S-wave (km/s) = 3.72674 3.90366 3.81622
# Velocity P-wave (km/s) = 7.04293 7.39801 7.22265
#
# Compressibility (1/GPa) = 0.01559474
#
# Stress axis : x y z
#
# Youngs Moduli (GPa) = 55.33079 100.16215 94.55628
#
# Poissons Ratio (x) = 0.40562 0.54687
# Poissons Ratio (y) = 0.22407 0.15940
# Poissons Ratio (z) = 0.32001 0.16885
#
# Static dielectric constant tensor:
#      x y z
#    x 3.805650 0.000000 -0.135020 
#    y 0.000000 3.849160 0.000000 
#    z -0.135020 0.000000 3.847590 
# 
# 
# High freq. dielectric constant tensor:
#      x y z
#    x 1.812810 0.000000 -0.010290 
#    y 0.000000 1.807670 0.000000 
#    z -0.010290 0.000000 1.803380 
# 
# From -- ./inp_files/199747.got.cif
#   From: 2010.06.25/outbox.cif.g09.slc.cpg/sg12_100_cif.got.tgz:199747.got - 2010.06.28 00:19:55.
