data_PCOD8112547
_publ_section_title
;
Structure prediction by ZEFSAII (Michael W. Deem and Ramdas Pophale) SiO2 
 PCOD8112547
Probable space group: C 2/M
;
_chemical_formula_sum "Si O2"
_cell_formula_units_Z 56
_cell_length_a 20.414234
_cell_length_b 17.909211
_cell_length_c 8.409792
_cell_angle_alpha 90.000000
_cell_angle_beta 61.062513
_cell_angle_gamma 90.000000
_cell_volume 2690.768725
_symmetry_space_group_name_H-M "C 2/M"
_symmetry_group_IT_number 12
_symmetry_cell_setting 'monoclinic'
loop_
_space_group_symop_operation_xyz
x,y,z
-x,y,-z
-x,-y,-z
x,-y,z
1/2+x,1/2+y,z
1/2-x,1/2+y,-z
1/2-x,1/2-y,-z
1/2+x,1/2-y,z
loop_
_atom_site_type_symbol
_atom_site_label
_atom_site_fract_x
_atom_site_fract_y
_atom_site_fract_z
Si Si1 0.560955 0.082593 0.210242
Si Si2 0.666463 0.410319 0.430749
Si Si3 0.889778 0.416189 0.507274
Si Si4 0.562860 0.331842 0.309978
Si Si5 0.965867 0.914772 0.198336
Si Si6 0.424345 0.223226 0.997404
Si Si7 0.299752 0.184461 0.377591
O O1 0.612132 0.102707 0.302895
O O2 0.474428 0.087673 0.352745
O O3 0.576774 0.136511 0.046410
O O4 0.581649 0.000000 0.126010
O O5 0.665954 0.500000 0.402757
O O6 0.634019 0.365284 0.317440
O O7 0.616412 0.387891 0.645694
O O8 0.750434 0.380399 0.353021
O O9 0.857726 0.500000 0.514772
O O10 0.843230 0.353546 0.471742
O O11 0.500000 0.294258 0.500000
O O12 0.523493 0.402917 0.273943
O O13 0.587052 0.272152 0.148478
O O14 0.957976 0.000000 0.163894
O O15 0.000000 0.873326 0.000000
O O16 0.500000 0.245755 0.000000
O O17 0.354359 0.229429 0.196013
O O18 0.250000 0.250000 0.500000
#
# Coordination Sequence:
#
# PCOD8112547 Si02
#       7
#     8   8   8   8   8   8   8
#     4   9  20  39  69  99 120 158 218 267 312 373
#     4  10  23  44  65  92 131 177 214 263 324 377
#     4   9  19  41  69  94 127 166 207 262 319 377
#     4  10  23  38  68  93 127 164 215 267 314 377
#     4   9  18  36  66  97 122 159 217 267 310 375
#     4  12  26  41  67  97 126 168 216 267 323 381
#     4  12  28  42  62  95 137 172 210 263 323 389
#
# _framework density 20.811896999999998
#
# number of rings (size 3 to 8) (size 9 to 14) (size 15 to 20)
#    0.000    1.857    1.429    2.143   10.000    3.714 
#    0.000    0.000    0.000    0.000    0.000    0.000 
#    0.000    0.000    0.000    0.000    0.000    0.000 
#
# Total GULP energy -347029.194854 kJ/mol
# GULP energy per Si atom -12393.899816 kJ/mol
# Density = 2.076453 g / cm^3
# Si number density = 20.811897 Si / 1000 Ang^3
#
#
#
# Elastic Constant Matrix: (Units=GPa)
#
#
# Indices 1 2 3 4 5 6 
#
# 1 113.0768 49.4705 45.3654 0.0000 4.9476 0.0000
# 2 49.4705 109.2152 50.2493 0.0000 7.3801 0.0000
# 3 45.3654 50.2493 114.3262 0.0000 -5.3698 0.0000
# 4 0.0000 0.0000 0.0000 37.5311 0.0000 8.6863
# 5 4.9476 7.3801 -5.3698 0.0000 29.1649 0.0000
# 6 0.0000 0.0000 0.0000 8.6863 0.0000 31.6126
#
#
#
# Elastic Compliance Matrix: (Units=1/GPa)
#
#
# Indices 1 2 3 4 5 6 
#
# 1 0.011827 -0.003829 -0.003085 0.000000 -0.001605 0.000000
# 2 -0.003829 0.013166 -0.004432 0.000000 -0.003498 0.000000
# 3 -0.003085 -0.004432 0.012101 0.000000 0.003873 0.000000
# 4 0.000000 0.000000 0.000000 0.028454 0.000000 -0.007818
# 5 -0.001605 -0.003498 0.003873 0.000000 0.036158 0.000000
# 6 0.000000 0.000000 0.000000 -0.007818 0.000000 0.033781
#
#
# Mechanical properties :
#
#
# Convention : Reuss Voigt Hill
#
# Bulk Modulus (GPa) = 69.43730 69.64317 69.54024
# Shear Modulus (GPa) = 30.67855 32.43060 31.55457
#
# Velocity S-wave (km/s) = 3.84355 3.95178 3.89804
# Velocity P-wave (km/s) = 7.28930 7.37278 7.33116
#
# Compressibility (1/GPa) = 0.01440148
#
# Stress axis : x y z
#
# Youngs Moduli (GPa) = 84.55354 75.95291 82.63797
#
# Poissons Ratio (x) = 0.29083 0.25497
# Poissons Ratio (y) = 0.32376 0.36623
# Poissons Ratio (z) = 0.26088 0.33660
#
# Static dielectric constant tensor:
#      x y z
#    x 4.099640 0.000000 0.135970 
#    y 0.000000 4.204060 0.000000 
#    z 0.135970 0.000000 4.096460 
# 
# 
# High freq. dielectric constant tensor:
#      x y z
#    x 1.802200 0.000000 0.012160 
#    y 0.000000 1.828710 0.000000 
#    z 0.012160 0.000000 1.811170 
# 
# From -- ./inp_files/75825.got.cif
#   From: 2010.06.25/outbox.cif.g09.slc.cpg/sg12_38_cif.got.tgz:75825.got - 2010.06.28 00:19:55.
