data_PCOD8112050
_publ_section_title
;
Structure prediction by ZEFSAII (Michael W. Deem and Ramdas Pophale) SiO2 
 PCOD8112050
Probable space group: C 2/M
;
_chemical_formula_sum "Si O2"
_cell_formula_units_Z 44
_cell_length_a 23.903464
_cell_length_b 11.717172
_cell_length_c 11.569695
_cell_angle_alpha 90.000000
_cell_angle_beta 139.990629
_cell_angle_gamma 90.000000
_cell_volume 2083.328194
_symmetry_space_group_name_H-M "C 2/M"
_symmetry_group_IT_number 12
_symmetry_cell_setting 'monoclinic'
loop_
_space_group_symop_operation_xyz
x,y,z
-x,y,-z
-x,-y,-z
x,-y,z
1/2+x,1/2+y,z
1/2-x,1/2+y,-z
1/2-x,1/2-y,-z
1/2+x,1/2-y,z
loop_
_atom_site_type_symbol
_atom_site_label
_atom_site_fract_x
_atom_site_fract_y
_atom_site_fract_z
Si Si1 0.369199 0.000000 0.374979
Si Si2 0.141070 0.626542 0.088087
Si Si3 0.586641 0.374245 0.712419
Si Si4 0.939892 0.500000 0.232732
Si Si5 0.000000 0.243590 0.000000
Si Si6 0.317099 0.247961 0.321688
Si Si7 0.039753 0.132982 0.299073
O O1 0.313702 0.111029 0.320465
O O2 0.388779 0.000000 0.270901
O O3 0.457487 0.000000 0.587558
O O4 0.173783 0.500000 0.179241
O O5 0.079760 0.676364 0.090248
O O6 0.221228 0.710115 0.196976
O O7 0.086321 0.613229 0.881680
O O8 0.500000 0.376812 0.500000
O O9 0.630634 0.500000 0.783162
O O10 0.654660 0.286589 0.763361
O O11 0.554186 0.338910 0.789417
O O12 0.967817 0.162271 0.846708
O O13 0.383212 0.294639 0.521902
O O14 0.062354 0.000000 0.351866
#
# Coordination Sequence:
#
# PCOD8112050 Si02
#       7
#     4   8   8   4   4   8   8
#     4  11  24  40  68 105 143 174 217 272 347 413
#     4  10  24  45  67  96 129 180 231 275 329 402
#     4   8  16  32  60  94 126 163 211 267 330 400
#     4   9  24  43  66 100 138 183 219 266 335 416
#     4  12  24  42  66  94 134 184 226 284 336 394
#     4  11  22  41  69 101 133 173 223 284 337 396
#     4  10  22  41  66  98 131 177 224 276 334 407
#
# _framework density 21.120052000000001
#
# number of rings (size 3 to 8) (size 9 to 14) (size 15 to 20)
#    0.545    1.455    0.000    4.364   10.182    1.455 
#    4.909    0.000    0.000    0.000    0.000    0.000 
#    0.000    0.000    0.000    0.000    0.000    0.000 
#
# Total GULP energy -272760.060810 kJ/mol
# GULP energy per Si atom -12398.184582 kJ/mol
# Density = 2.107198 g / cm^3
# Si number density = 21.120052 Si / 1000 Ang^3
#
#
#
# Elastic Constant Matrix: (Units=GPa)
#
#
# Indices 1 2 3 4 5 6 
#
# 1 153.2742 76.1333 66.7758 0.0000 8.4992 0.0000
# 2 76.1333 166.4469 44.2428 0.0000 12.6459 0.0000
# 3 66.7758 44.2428 68.2782 0.0000 -4.8875 0.0000
# 4 0.0000 0.0000 0.0000 23.6958 0.0000 -2.3274
# 5 8.4992 12.6459 -4.8875 0.0000 35.9202 0.0000
# 6 0.0000 0.0000 0.0000 -2.3274 0.0000 37.5065
#
#
#
# Elastic Compliance Matrix: (Units=1/GPa)
#
#
# Indices 1 2 3 4 5 6 
#
# 1 0.012911 -0.002662 -0.011162 0.000000 -0.003637 0.000000
# 2 -0.002662 0.008197 -0.002898 0.000000 -0.002650 0.000000
# 3 -0.011162 -0.002898 0.027975 0.000000 0.007468 0.000000
# 4 0.000000 0.000000 0.000000 0.042460 0.000000 0.002635
# 5 -0.003637 -0.002650 0.007468 0.000000 0.030649 0.000000
# 6 0.000000 0.000000 0.000000 0.002635 0.000000 0.026826
#
#
# Mechanical properties :
#
#
# Convention : Reuss Voigt Hill
#
# Bulk Modulus (GPa) = 63.94354 84.70033 74.32194
# Shear Modulus (GPa) = 26.64163 32.81432 29.72798
#
# Velocity S-wave (km/s) = 3.55553 3.94598 3.75583
# Velocity P-wave (km/s) = 6.87005 7.80720 7.35357
#
# Compressibility (1/GPa) = 0.01563880
#
# Stress axis : x y z
#
# Youngs Moduli (GPa) = 77.45104 121.99229 35.74633
#
# Poissons Ratio (x) = 0.32479 0.39902
# Poissons Ratio (y) = 0.20620 0.10358
# Poissons Ratio (z) = 0.86454 0.35348
#
# Static dielectric constant tensor:
#      x y z
#    x 3.956000 0.000000 -0.158600 
#    y 0.000000 3.923280 0.000000 
#    z -0.158600 0.000000 3.540770 
# 
# 
# High freq. dielectric constant tensor:
#      x y z
#    x 1.820990 0.000000 -0.005120 
#    y 0.000000 1.842230 0.000000 
#    z -0.005120 0.000000 1.807580 
# 
# From -- ./inp_files/175423.got.cif
#   From: 2010.06.25/outbox.cif.g09.slc.cpg/sg12_88_cif.got.tgz:175423.got - 2010.06.28 00:19:55.
