data_PCOD8112484
_publ_section_title
;
Structure prediction by ZEFSAII (Michael W. Deem and Ramdas Pophale) SiO2 
 PCOD8112484
Probable space group: C 2/M
;
_chemical_formula_sum "Si O2"
_cell_formula_units_Z 44
_cell_length_a 9.097490
_cell_length_b 20.476349
_cell_length_c 11.745050
_cell_angle_alpha 90.000000
_cell_angle_beta 75.487913
_cell_angle_gamma 90.000000
_cell_volume 2118.101984
_symmetry_space_group_name_H-M "C 2/M"
_symmetry_group_IT_number 12
_symmetry_cell_setting 'monoclinic'
loop_
_space_group_symop_operation_xyz
x,y,z
-x,y,-z
-x,-y,-z
x,-y,z
1/2+x,1/2+y,z
1/2-x,1/2+y,-z
1/2-x,1/2-y,-z
1/2+x,1/2-y,z
loop_
_atom_site_type_symbol
_atom_site_label
_atom_site_fract_x
_atom_site_fract_y
_atom_site_fract_z
Si Si1 0.822919 0.313357 0.540292
Si Si2 0.500000 0.258607 0.000000
Si Si3 0.652578 0.866988 0.021464
Si Si4 0.169084 0.925399 0.437346
Si Si5 0.384698 0.574127 0.809445
Si Si6 0.822376 0.853229 0.200837
O O1 0.750000 0.250000 0.500000
O O2 0.786785 0.379056 0.477975
O O3 0.768131 0.318522 0.680706
O O4 0.000000 0.302207 0.500000
O O5 0.374435 0.211045 0.966490
O O6 0.579487 0.300942 0.887686
O O7 0.700384 0.888832 0.140007
O O8 0.500000 0.902571 0.000000
O O9 0.795783 0.879623 0.913063
O O10 0.192896 0.918233 0.298047
O O11 0.000000 0.902421 0.500000
O O12 0.196477 0.000000 0.472155
O O13 0.373378 0.500000 0.855111
O O14 0.562174 0.593422 0.769965
#
# Coordination Sequence:
#
# PCOD8112484 Si02
#       6
#     8   4   8   8   8   8
#     4  12  30  43  70 106 142 180 231 296 341 410
#     4  10  24  40  66  96 130 176 216 270 348 402
#     4  10  25  40  66  97 136 174 218 283 340 403
#     4  10  22  46  70  96 136 184 229 278 346 416
#     4  11  24  44  71  98 134 182 229 275 336 414
#     4  12  24  43  68 100 133 183 227 275 342 412
#
# _framework density 20.773313999999999
#
# number of rings (size 3 to 8) (size 9 to 14) (size 15 to 20)
#    0.545    0.545    3.636    1.091    7.636    2.182 
#    0.000    0.000    0.000    0.000    0.000    0.000 
#    0.000    0.000    0.000    0.000    0.000    0.000 
#
# Total GULP energy -272767.281096 kJ/mol
# GULP energy per Si atom -12398.512777 kJ/mol
# Density = 2.072603 g / cm^3
# Si number density = 20.773314 Si / 1000 Ang^3
#
#
#
# Elastic Constant Matrix: (Units=GPa)
#
#
# Indices 1 2 3 4 5 6 
#
# 1 141.5051 52.4079 56.2044 0.0000 -3.5107 0.0000
# 2 52.4079 79.4532 35.3973 0.0000 4.0546 0.0000
# 3 56.2044 35.3973 146.7107 0.0000 -3.0420 0.0000
# 4 0.0000 0.0000 0.0000 36.1597 0.0000 2.6065
# 5 -3.5107 4.0546 -3.0420 0.0000 30.9935 0.0000
# 6 0.0000 0.0000 0.0000 2.6065 0.0000 31.0769
#
#
#
# Elastic Compliance Matrix: (Units=1/GPa)
#
#
# Indices 1 2 3 4 5 6 
#
# 1 0.010216 -0.005709 -0.002502 0.000000 0.001658 0.000000
# 2 -0.005709 0.017441 -0.002086 0.000000 -0.003133 0.000000
# 3 -0.002502 -0.002086 0.008295 0.000000 0.000804 0.000000
# 4 0.000000 0.000000 0.000000 0.027823 0.000000 -0.002334
# 5 0.001658 -0.003133 0.000804 0.000000 0.032941 0.000000
# 6 0.000000 0.000000 0.000000 -0.002334 0.000000 0.032374
#
#
# Mechanical properties :
#
#
# Convention : Reuss Voigt Hill
#
# Bulk Modulus (GPa) = 65.11188 72.85423 68.98306
# Shear Modulus (GPa) = 32.29926 34.55667 33.42796
#
# Velocity S-wave (km/s) = 3.94743 4.08304 4.01581
# Velocity P-wave (km/s) = 7.22415 7.57466 7.40148
#
# Compressibility (1/GPa) = 0.01535818
#
# Stress axis : x y z
#
# Youngs Moduli (GPa) = 97.88558 57.33742 120.56026
#
# Poissons Ratio (x) = 0.32731 0.30164
# Poissons Ratio (y) = 0.55878 0.25149
# Poissons Ratio (z) = 0.24491 0.11961
#
# Static dielectric constant tensor:
#      x y z
#    x 3.926600 0.000000 0.134460 
#    y 0.000000 3.631300 0.000000 
#    z 0.134460 0.000000 3.758680 
# 
# 
# High freq. dielectric constant tensor:
#      x y z
#    x 1.821790 0.000000 0.004680 
#    y 0.000000 1.803780 0.000000 
#    z 0.004680 0.000000 1.819280 
# 
# From -- ./inp_files/120636.got.cif
#   From: 2010.06.25/outbox.cif.g09.slc.cpg/sg12_61_cif.got.tgz:120636.got - 2010.06.28 00:19:55.
