data_PCOD8112088
_publ_section_title
;
Structure prediction by ZEFSAII (Michael W. Deem and Ramdas Pophale) SiO2 
 PCOD8112088
Probable space group: C 2/M
;
_chemical_formula_sum "Si O2"
_cell_formula_units_Z 64
_cell_length_a 17.725671
_cell_length_b 27.930715
_cell_length_c 9.164538
_cell_angle_alpha 90.000000
_cell_angle_beta 41.955389
_cell_angle_gamma 90.000000
_cell_volume 3033.404777
_symmetry_space_group_name_H-M "C 2/M"
_symmetry_group_IT_number 12
_symmetry_cell_setting 'monoclinic'
loop_
_space_group_symop_operation_xyz
x,y,z
-x,y,-z
-x,-y,-z
x,-y,z
1/2+x,1/2+y,z
1/2-x,1/2+y,-z
1/2-x,1/2-y,-z
1/2+x,1/2-y,z
loop_
_atom_site_type_symbol
_atom_site_label
_atom_site_fract_x
_atom_site_fract_y
_atom_site_fract_z
Si Si1 0.980077 0.722136 0.182526
Si Si2 0.727333 0.555258 0.373742
Si Si3 0.123286 0.188594 0.528260
Si Si4 0.217473 0.299055 0.973979
Si Si5 0.690655 0.140031 0.565417
Si Si6 0.996443 0.902776 0.672217
Si Si7 0.233637 0.055458 0.023213
Si Si8 0.867686 0.373086 0.681812
O O1 0.914825 0.757001 0.388154
O O2 0.912138 0.674063 0.242244
O O3 0.095785 0.705368 0.081307
O O4 0.000000 0.749541 0.000000
O O5 0.753916 0.500000 0.372974
O O6 0.812154 0.589773 0.341694
O O7 0.598269 0.568171 0.604626
O O8 0.745347 0.566942 0.177650
O O9 0.195882 0.169460 0.560115
O O10 0.013863 0.154421 0.668504
O O11 0.193184 0.185459 0.277601
O O12 0.211228 0.338653 0.108033
O O13 0.250000 0.250000 0.000000
O O14 0.681792 0.129159 0.408191
O O15 0.873197 0.918864 0.903434
O O16 0.000000 0.918560 0.500000
O O17 0.220703 0.000000 0.012664
O O18 0.346410 0.074166 0.779523
O O19 0.000000 0.359610 0.500000
#
# Coordination Sequence:
#
# PCOD8112088 Si02
#       8
#     8   8   8   8   8   8   8   8
#     4  12  26  42  68  95 133 178 221 272 331 393
#     4   9  19  39  69  99 128 169 217 273 340 406
#     4  11  25  42  65 100 133 178 219 266 333 402
#     4  12  27  43  68  94 132 174 227 280 325 395
#     4  11  23  43  63  91 134 170 221 270 332 397
#     4   9  18  36  66  99 132 162 212 266 325 389
#     4  10  22  41  68 100 132 169 218 278 338 398
#     4  12  26  44  66  92 129 174 224 278 334 391
#
# _framework density 21.098403000000001
#
# number of rings (size 3 to 8) (size 9 to 14) (size 15 to 20)
#    0.000    1.250    2.500    3.750    5.250    2.250 
#    0.000    1.875    0.000    5.625    0.000    0.000 
#    0.000    0.000    0.000    0.000    0.000    0.000 
#
# Total GULP energy -396767.411717 kJ/mol
# GULP energy per Si atom -12398.981616 kJ/mol
# Density = 2.105038 g / cm^3
# Si number density = 21.098403 Si / 1000 Ang^3
#
#
#
# Elastic Constant Matrix: (Units=GPa)
#
#
# Indices 1 2 3 4 5 6 
#
# 1 97.9148 58.3884 36.0499 0.0000 15.0087 0.0000
# 2 58.3884 142.1966 56.2975 0.0000 0.8174 0.0000
# 3 36.0499 56.2975 97.9027 0.0000 11.0574 0.0000
# 4 0.0000 0.0000 0.0000 81.4225 0.0000 -33.1645
# 5 15.0087 0.8174 11.0574 0.0000 25.1618 0.0000
# 6 0.0000 0.0000 0.0000 -33.1645 0.0000 62.8413
#
#
#
# Elastic Compliance Matrix: (Units=1/GPa)
#
#
# Indices 1 2 3 4 5 6 
#
# 1 0.015443 -0.005719 -0.001451 0.000000 -0.008388 0.000000
# 2 -0.005719 0.011331 -0.005002 0.000000 0.005241 0.000000
# 3 -0.001451 -0.005002 0.014214 0.000000 -0.005219 0.000000
# 4 0.000000 0.000000 0.000000 0.015645 0.000000 0.008256
# 5 -0.008388 0.005241 -0.005219 0.000000 0.046869 0.000000
# 6 0.000000 0.000000 0.000000 0.008256 0.000000 0.020270
#
#
# Mechanical properties :
#
#
# Convention : Reuss Voigt Hill
#
# Bulk Modulus (GPa) = 60.07587 71.05397 65.56492
# Shear Modulus (GPa) = 32.53876 46.37033 39.45455
#
# Velocity S-wave (km/s) = 3.93139 4.69317 4.32907
# Velocity P-wave (km/s) = 7.01026 7.94470 7.49206
#
# Compressibility (1/GPa) = 0.01664562
#
# Stress axis : x y z
#
# Youngs Moduli (GPa) = 64.75448 88.25463 70.35305
#
# Poissons Ratio (x) = 0.50469 0.10206
# Poissons Ratio (y) = 0.37030 0.35190
# Poissons Ratio (z) = 0.09394 0.44144
#
# Static dielectric constant tensor:
#      x y z
#    x 3.783810 0.000000 0.225090 
#    y 0.000000 3.888650 0.000000 
#    z 0.225090 0.000000 3.188630 
# 
# 
# High freq. dielectric constant tensor:
#      x y z
#    x 1.832670 0.000000 -0.004450 
#    y 0.000000 1.832060 0.000000 
#    z -0.004450 0.000000 1.812270 
# 
# From -- ./inp_files/80719.got.cif
#   From: 2010.06.25/outbox.cif.g09.slc.cpg/sg12_41_cif.got.tgz:80719.got - 2010.06.28 00:19:55.
