data_PCOD8112928
_publ_section_title
;
Structure prediction by ZEFSAII (Michael W. Deem and Ramdas Pophale) SiO2 
 PCOD8112928
Probable space group: C 2/M
;
_chemical_formula_sum "Si O2"
_cell_formula_units_Z 48
_cell_length_a 9.244920
_cell_length_b 22.890250
_cell_length_c 12.039176
_cell_angle_alpha 90.000000
_cell_angle_beta 115.138409
_cell_angle_gamma 90.000000
_cell_volume 2306.404149
_symmetry_space_group_name_H-M "C 2/M"
_symmetry_group_IT_number 12
_symmetry_cell_setting 'monoclinic'
loop_
_space_group_symop_operation_xyz
x,y,z
-x,y,-z
-x,-y,-z
x,-y,z
1/2+x,1/2+y,z
1/2-x,1/2+y,-z
1/2-x,1/2-y,-z
1/2+x,1/2-y,z
loop_
_atom_site_type_symbol
_atom_site_label
_atom_site_fract_x
_atom_site_fract_y
_atom_site_fract_z
Si Si1 0.154342 0.810756 0.471630
Si Si2 0.441416 0.103320 0.600006
Si Si3 0.223401 0.500000 0.055800
Si Si4 0.352571 0.386803 0.028271
Si Si5 0.982990 0.500000 0.789500
Si Si6 0.350294 0.178726 0.192709
Si Si7 0.964728 0.789663 0.801500
O O1 0.250000 0.750000 0.500000
O O2 0.267315 0.865726 0.540491
O O3 0.085769 0.820954 0.327791
O O4 0.000000 0.806633 0.500000
O O5 0.500000 0.077244 0.500000
O O6 0.443345 0.055223 0.698095
O O7 0.574212 0.152025 0.671259
O O8 0.326442 0.441171 0.101583
O O9 0.113317 0.500000 0.126925
O O10 0.157554 0.500000 0.904712
O O11 0.389771 0.328181 0.107318
O O12 0.500000 0.404859 0.000000
O O13 0.189176 0.373119 0.907009
O O14 0.185411 0.211968 0.164669
O O15 0.479791 0.223119 0.186762
#
# Coordination Sequence:
#
# PCOD8112928 Si02
#       7
#     8   8   4   8   4   8   8
#     4  12  24  39  65  98 133 174 215 262 325 392
#     4  12  24  46  68  96 134 176 225 273 327 403
#     4  11  23  46  69  98 125 171 224 283 334 390
#     4  10  23  42  66  97 132 174 221 272 334 393
#     4  11  27  44  70  97 127 169 226 280 340 386
#     4  11  22  40  65  97 134 172 220 269 324 392
#     4  11  23  39  62 100 135 174 213 266 331 388
#
# _framework density 20.811616999999998
#
# number of rings (size 3 to 8) (size 9 to 14) (size 15 to 20)
#    0.000    0.833    5.000    2.500    2.333    0.000 
#    0.000    1.250    0.000    0.000    0.000    0.000 
#    0.000    0.000    0.000    0.000    0.000    0.000 
#
# Total GULP energy -297471.914759 kJ/mol
# GULP energy per Si atom -12394.663115 kJ/mol
# Density = 2.076425 g / cm^3
# Si number density = 20.811617 Si / 1000 Ang^3
#
#
#
# Elastic Constant Matrix: (Units=GPa)
#
#
# Indices 1 2 3 4 5 6 
#
# 1 85.9539 49.5093 40.1501 0.0000 3.6024 0.0000
# 2 49.5093 97.8866 28.9459 0.0000 -9.3162 0.0000
# 3 40.1501 28.9459 97.7774 0.0000 -6.4008 0.0000
# 4 0.0000 0.0000 0.0000 3.8513 0.0000 13.1415
# 5 3.6024 -9.3162 -6.4008 0.0000 30.1529 0.0000
# 6 0.0000 0.0000 0.0000 13.1415 0.0000 19.3617
#
#
#
# Elastic Compliance Matrix: (Units=1/GPa)
#
#
# Indices 1 2 3 4 5 6 
#
# 1 0.019758 -0.008850 -0.005909 0.000000 -0.006349 0.000000
# 2 -0.008850 0.015397 -0.000551 0.000000 0.005698 0.000000
# 3 -0.005909 -0.000551 0.013033 0.000000 0.003302 0.000000
# 4 0.000000 0.000000 0.000000 -0.197304 0.000000 0.133917
# 5 -0.006349 0.005698 0.003302 0.000000 0.036384 0.000000
# 6 0.000000 0.000000 0.000000 0.133917 0.000000 -0.039246
#
#
# Mechanical properties :
#
#
# Convention : Reuss Voigt Hill
#
# Bulk Modulus (GPa) = 56.92136 57.64761 57.28449
# Shear Modulus (GPa) = -43.28971 21.54069 -10.87451
#
# Velocity S-wave (km/s) = -4.56573 3.22068 -2.28835
# Velocity P-wave (km/s) = 0.61999 6.44905 4.53904
#
# Compressibility (1/GPa) = 0.01756810
#
# Stress axis : x y z
#
# Youngs Moduli (GPa) = 50.61224 64.94591 76.72858
#
# Poissons Ratio (x) = 0.57479 0.45338
# Poissons Ratio (y) = 0.44793 0.04228
# Poissons Ratio (z) = 0.29906 0.03579
#
# Static dielectric constant tensor:
#      x y z
#    x 3.844570 0.000000 0.207950 
#    y 0.000000 3.738530 0.000000 
#    z 0.207950 0.000000 4.125560 
# 
# 
# High freq. dielectric constant tensor:
#      x y z
#    x 1.811870 0.000000 0.005660 
#    y 0.000000 1.812170 0.000000 
#    z 0.005660 0.000000 1.828010 
# 
# From -- ./inp_files/122612.got.cif
#   From: 2010.06.25/outbox.cif.g09.slc.cpg/sg12_62_cif.got.tgz:122612.got - 2010.06.28 00:19:55.
