data_PCOD8112150
_publ_section_title
;
Structure prediction by ZEFSAII (Michael W. Deem and Ramdas Pophale) SiO2 
 PCOD8112150
Probable space group: C 2/M
;
_chemical_formula_sum "Si O2"
_cell_formula_units_Z 56
_cell_length_a 12.282173
_cell_length_b 13.498384
_cell_length_c 16.367492
_cell_angle_alpha 90.000000
_cell_angle_beta 115.926121
_cell_angle_gamma 90.000000
_cell_volume 2440.461684
_symmetry_space_group_name_H-M "C 2/M"
_symmetry_group_IT_number 12
_symmetry_cell_setting 'monoclinic'
loop_
_space_group_symop_operation_xyz
x,y,z
-x,y,-z
-x,-y,-z
x,-y,z
1/2+x,1/2+y,z
1/2-x,1/2+y,-z
1/2-x,1/2-y,-z
1/2+x,1/2-y,z
loop_
_atom_site_type_symbol
_atom_site_label
_atom_site_fract_x
_atom_site_fract_y
_atom_site_fract_z
Si Si1 0.003256 0.113577 0.254985
Si Si2 0.631293 0.804745 0.555922
Si Si3 0.684423 0.115646 0.892380
Si Si4 0.777848 0.802362 0.757435
Si Si5 0.731263 0.387476 0.908113
Si Si6 0.857720 0.116176 0.541561
Si Si7 0.596489 0.110322 0.175971
O O1 0.110863 0.124158 0.224515
O O2 0.047202 0.155264 0.357626
O O3 0.878916 0.164985 0.179836
O O4 0.975436 0.000000 0.261418
O O5 0.500000 0.852752 0.500000
O O6 0.664214 0.820569 0.661584
O O7 0.722472 0.867603 0.530460
O O8 0.626330 0.687120 0.531441
O O9 0.738341 0.182433 0.837899
O O10 0.543294 0.136141 0.860332
O O11 0.706410 0.000000 0.881064
O O12 0.753821 0.155324 0.995708
O O13 0.824610 0.691573 0.750579
O O14 0.690776 0.500000 0.906971
O O15 0.860439 0.381907 0.904383
O O16 0.875679 0.000000 0.524286
O O17 0.624825 0.000000 0.219611
#
# Coordination Sequence:
#
# PCOD8112150 Si02
#       7
#     8   8   8   8   8   8   8
#     4   9  19  38  64  94 126 158 201 256 308 360
#     4  10  23  40  61  89 123 156 198 258 307 358
#     4  10  22  42  64  89 125 165 205 251 303 362
#     4  11  24  38  62  91 127 160 205 252 311 367
#     4   9  19  38  64  90 122 163 206 253 301 355
#     4   9  20  40  64  89 120 160 202 247 303 364
#     4  10  23  41  61  87 125 167 208 253 299 355
#
# _framework density 22.946477999999999
#
# number of rings (size 3 to 8) (size 9 to 14) (size 15 to 20)
#    0.000    2.286    0.000    0.857    4.000    6.857 
#    2.571    3.571    0.000    0.000    0.000    0.000 
#    0.000    0.000    0.000    0.000    0.000    0.000 
#
# Total GULP energy -347007.365718 kJ/mol
# GULP energy per Si atom -12393.120204 kJ/mol
# Density = 2.289425 g / cm^3
# Si number density = 22.946478 Si / 1000 Ang^3
#
#
#
# Elastic Constant Matrix: (Units=GPa)
#
#
# Indices 1 2 3 4 5 6 
#
# 1 79.0271 13.8427 40.2279 0.0000 20.2625 0.0000
# 2 13.8427 74.6551 0.1794 0.0000 9.0294 0.0000
# 3 40.2279 0.1794 87.7416 0.0000 15.6460 0.0000
# 4 0.0000 0.0000 0.0000 15.4694 0.0000 -0.9942
# 5 20.2625 9.0294 15.6460 0.0000 35.9880 0.0000
# 6 0.0000 0.0000 0.0000 -0.9942 0.0000 27.7179
#
#
#
# Elastic Compliance Matrix: (Units=1/GPa)
#
#
# Indices 1 2 3 4 5 6 
#
# 1 0.018526 -0.002620 -0.007313 0.000000 -0.006594 0.000000
# 2 -0.002620 0.014218 0.001675 0.000000 -0.002820 0.000000
# 3 -0.007313 0.001675 0.015271 0.000000 -0.002942 0.000000
# 4 0.000000 0.000000 0.000000 0.064793 0.000000 0.002324
# 5 -0.006594 -0.002820 -0.002942 0.000000 0.033487 0.000000
# 6 0.000000 0.000000 0.000000 0.002324 0.000000 0.036161
#
#
# Mechanical properties :
#
#
# Convention : Reuss Voigt Hill
#
# Bulk Modulus (GPa) = 31.74623 38.88043 35.31333
# Shear Modulus (GPa) = 23.86970 28.31330 26.09150
#
# Velocity S-wave (km/s) = 3.22876 3.51648 3.37569
# Velocity P-wave (km/s) = 5.26923 5.78518 5.53322
#
# Compressibility (1/GPa) = 0.03149980
#
# Stress axis : x y z
#
# Youngs Moduli (GPa) = 53.97835 70.33418 65.48353
#
# Poissons Ratio (x) = 0.18427 0.47885
# Poissons Ratio (y) = 0.14142 -0.10969
# Poissons Ratio (z) = 0.39472 -0.11781
#
# Static dielectric constant tensor:
#      x y z
#    x 4.097390 0.000000 0.248240 
#    y 0.000000 4.102820 0.000000 
#    z 0.248240 0.000000 4.270760 
# 
# 
# High freq. dielectric constant tensor:
#      x y z
#    x 1.908310 0.000000 0.008680 
#    y 0.000000 1.907610 0.000000 
#    z 0.008680 0.000000 1.894650 
# 
# From -- ./inp_files/263398.got.cif
#   From: 2010.06.25/outbox.cif.g09.slc.cpg/sg12_132_cif.got.tgz:263398.got - 2010.06.28 00:19:55.
