data_PCOD8112666
_publ_section_title
;
Structure prediction by ZEFSAII (Michael W. Deem and Ramdas Pophale) SiO2 
 PCOD8112666
Probable space group: C 2/M
;
_chemical_formula_sum "Si O2"
_cell_formula_units_Z 44
_cell_length_a 11.896022
_cell_length_b 16.803375
_cell_length_c 12.159078
_cell_angle_alpha 90.000000
_cell_angle_beta 56.797536
_cell_angle_gamma 90.000000
_cell_volume 2033.713870
_symmetry_space_group_name_H-M "C 2/M"
_symmetry_group_IT_number 12
_symmetry_cell_setting 'monoclinic'
loop_
_space_group_symop_operation_xyz
x,y,z
-x,y,-z
-x,-y,-z
x,-y,z
1/2+x,1/2+y,z
1/2-x,1/2+y,-z
1/2-x,1/2-y,-z
1/2+x,1/2-y,z
loop_
_atom_site_type_symbol
_atom_site_label
_atom_site_fract_x
_atom_site_fract_y
_atom_site_fract_z
Si Si1 0.230425 0.188353 0.829639
Si Si2 0.809474 0.167006 0.508669
Si Si3 0.649964 0.909371 0.424022
Si Si4 0.500000 0.802214 0.000000
Si Si5 0.113255 0.834395 0.284775
Si Si6 0.219040 0.407666 0.986540
O O1 0.250909 0.137516 0.709372
O O2 0.100763 0.244371 0.879875
O O3 0.357667 0.246912 0.781626
O O4 0.211786 0.129690 0.942601
O O5 0.750000 0.250000 0.500000
O O6 0.710843 0.098729 0.513863
O O7 0.811087 0.160349 0.638577
O O8 0.956311 0.151783 0.380208
O O9 0.500000 0.872047 0.500000
O O10 0.643144 0.000000 0.389230
O O11 0.581576 0.859398 0.038887
O O12 0.176837 0.900754 0.170594
O O13 0.185175 0.500000 0.025175
#
# Coordination Sequence:
#
# PCOD8112666 Si02
#       6
#     8   8   8   4   8   8
#     4  11  23  41  68  98 132 171 223 272 325 400
#     4  11  22  40  67  95 128 174 225 274 326 396
#     4  11  25  42  64  97 135 173 218 277 340 396
#     4  10  23  42  67  96 126 176 230 266 319 398
#     4  10  23  40  66  99 128 174 228 270 328 397
#     4  11  25  43  65  98 140 175 216 278 340 395
#
# _framework density 21.635296
#
# number of rings (size 3 to 8) (size 9 to 14) (size 15 to 20)
#    0.000    1.273    1.818    4.091    5.091    4.364 
#    0.000    4.545    0.000    0.000    0.000    0.000 
#    0.000    0.000    0.000    0.000    0.000    0.000 
#
# Total GULP energy -272823.524448 kJ/mol
# GULP energy per Si atom -12401.069293 kJ/mol
# Density = 2.158605 g / cm^3
# Si number density = 21.635296 Si / 1000 Ang^3
#
#
#
# Elastic Constant Matrix: (Units=GPa)
#
#
# Indices 1 2 3 4 5 6 
#
# 1 126.5036 43.0093 54.5767 0.0000 -1.6836 0.0000
# 2 43.0093 119.8950 49.4878 0.0000 -2.7374 0.0000
# 3 54.5767 49.4878 116.9235 0.0000 0.7078 0.0000
# 4 0.0000 0.0000 0.0000 28.7532 0.0000 -0.1175
# 5 -1.6836 -2.7374 0.7078 0.0000 30.1166 0.0000
# 6 0.0000 0.0000 0.0000 -0.1175 0.0000 30.5672
#
#
#
# Elastic Compliance Matrix: (Units=1/GPa)
#
#
# Indices 1 2 3 4 5 6 
#
# 1 0.010314 -0.002060 -0.003945 0.000000 0.000482 0.000000
# 2 -0.002060 0.010549 -0.003509 0.000000 0.000926 0.000000
# 3 -0.003945 -0.003509 0.011884 0.000000 -0.000819 0.000000
# 4 0.000000 0.000000 0.000000 0.034779 0.000000 0.000134
# 5 0.000482 0.000926 -0.000819 0.000000 0.033335 0.000000
# 6 0.000000 0.000000 0.000000 0.000134 0.000000 0.032715
#
#
# Mechanical properties :
#
#
# Convention : Reuss Voigt Hill
#
# Bulk Modulus (GPa) = 72.89403 73.05217 72.97310
# Shear Modulus (GPa) = 31.81110 32.30394 32.05752
#
# Velocity S-wave (km/s) = 3.83865 3.86827 3.85349
# Velocity P-wave (km/s) = 7.30837 7.33416 7.32128
#
# Compressibility (1/GPa) = 0.01371854
#
# Stress axis : x y z
#
# Youngs Moduli (GPa) = 96.95702 94.79391 84.14619
#
# Poissons Ratio (x) = 0.19532 0.33196
# Poissons Ratio (y) = 0.19978 0.29525
# Poissons Ratio (z) = 0.38250 0.33261
#
# Static dielectric constant tensor:
#      x y z
#    x 4.143400 0.000000 0.022650 
#    y 0.000000 3.847610 0.000000 
#    z 0.022650 0.000000 4.000230 
# 
# 
# High freq. dielectric constant tensor:
#      x y z
#    x 1.852770 0.000000 -0.001110 
#    y 0.000000 1.842510 0.000000 
#    z -0.001110 0.000000 1.854900 
# 
# From -- ./inp_files/131595.got.cif
#   From: 2010.06.25/outbox.cif.g09.slc.cpg/sg12_66_cif.got.tgz:131595.got - 2010.06.28 00:19:55.
