data_PCOD8112717
_publ_section_title
;
Structure prediction by ZEFSAII (Michael W. Deem and Ramdas Pophale) SiO2 
 PCOD8112717
Probable space group: C 2/M
;
_chemical_formula_sum "Si O2"
_cell_formula_units_Z 40
_cell_length_a 9.085851
_cell_length_b 14.542705
_cell_length_c 14.186102
_cell_angle_alpha 90.000000
_cell_angle_beta 92.478279
_cell_angle_gamma 90.000000
_cell_volume 1872.696899
_symmetry_space_group_name_H-M "C 2/M"
_symmetry_group_IT_number 12
_symmetry_cell_setting 'monoclinic'
loop_
_space_group_symop_operation_xyz
x,y,z
-x,y,-z
-x,-y,-z
x,-y,z
1/2+x,1/2+y,z
1/2-x,1/2+y,-z
1/2-x,1/2-y,-z
1/2+x,1/2-y,z
loop_
_atom_site_type_symbol
_atom_site_label
_atom_site_fract_x
_atom_site_fract_y
_atom_site_fract_z
Si Si1 0.932573 0.000000 0.359719
Si Si2 0.993930 0.810040 0.707196
Si Si3 0.106109 0.783403 0.912140
Si Si4 0.702349 0.806222 0.590522
Si Si5 0.245559 0.000000 0.470064
Si Si6 0.826950 0.398619 0.012883
O O1 0.926985 0.908704 0.296917
O O2 0.785133 0.000000 0.419077
O O3 0.083104 0.000000 0.421968
O O4 0.009242 0.781908 0.815749
O O5 0.060934 0.739138 0.633529
O O6 0.823417 0.811459 0.676128
O O7 0.193562 0.684896 0.913360
O O8 0.227858 0.866074 0.919671
O O9 0.000000 0.791844 0.000000
O O10 0.750000 0.750000 0.500000
O O11 0.662837 0.910093 0.557807
O O12 0.770909 0.500000 0.045635
O O13 0.000000 0.406837 0.000000
#
# Coordination Sequence:
#
# PCOD8112717 Si02
#       6
#     4   8   8   8   4   8
#     4   9  18  38  62  86 120 158 210 238 309 372
#     4  11  24  39  64  94 120 168 206 254 310 370
#     4  10  23  41  61  90 128 163 212 257 296 367
#     4  11  22  41  65  91 126 160 206 257 314 368
#     4   9  18  38  62  87 121 161 194 261 302 362
#     4   9  20  40  64  85 121 163 200 258 319 358
#
# _framework density 21.359569
#
# number of rings (size 3 to 8) (size 9 to 14) (size 15 to 20)
#    0.000    2.000    2.000    0.600    9.800    0.400 
#    1.800    3.000    0.000    0.000    0.000    0.000 
#    0.000    0.000    0.000    0.000    0.000    0.000 
#
# Total GULP energy -247796.758554 kJ/mol
# GULP energy per Si atom -12389.837928 kJ/mol
# Density = 2.131095 g / cm^3
# Si number density = 21.359569 Si / 1000 Ang^3
#
#
#
# Elastic Constant Matrix: (Units=GPa)
#
#
# Indices 1 2 3 4 5 6 
#
# 1 39.0217 11.2978 -1.4613 0.0000 5.9783 0.0000
# 2 11.2978 178.5996 14.3258 0.0000 -0.8686 0.0000
# 3 -1.4613 14.3258 90.5871 0.0000 10.1067 0.0000
# 4 0.0000 0.0000 0.0000 9.6076 0.0000 -10.4524
# 5 5.9783 -0.8686 10.1067 0.0000 33.9797 0.0000
# 6 0.0000 0.0000 0.0000 -10.4524 0.0000 -4.5196
#
#
#
# Elastic Compliance Matrix: (Units=1/GPa)
#
#
# Indices 1 2 3 4 5 6 
#
# 1 0.027002 -0.001838 0.001305 0.000000 -0.005186 0.000000
# 2 -0.001838 0.005802 -0.001034 0.000000 0.000779 0.000000
# 3 0.001305 -0.001034 0.011638 0.000000 -0.003718 0.000000
# 4 0.000000 0.000000 0.000000 0.029603 0.000000 -0.068462
# 5 -0.005186 0.000779 -0.003718 0.000000 0.031467 0.000000
# 6 0.000000 0.000000 0.000000 -0.068462 0.000000 -0.062929
#
#
# Mechanical properties :
#
#
# Convention : Reuss Voigt Hill
#
# Bulk Modulus (GPa) = 24.20825 39.61478 31.91151
# Shear Modulus (GPa) = 84.04982 26.74995 55.39989
#
# Velocity S-wave (km/s) = 6.27976 3.54271 5.09834
# Velocity P-wave (km/s) = 7.99617 5.94317 7.04486
#
# Compressibility (1/GPa) = 0.04130823
#
# Stress axis : x y z
#
# Youngs Moduli (GPa) = 37.03392 172.35057 85.92198
#
# Poissons Ratio (x) = 0.31678 -0.11211
# Poissons Ratio (y) = 0.06807 0.08886
# Poissons Ratio (z) = -0.04832 0.17824
#
# Static dielectric constant tensor:
#      x y z
#    x 3.718200 0.000000 0.180310 
#    y 0.000000 4.582880 0.000000 
#    z 0.180310 0.000000 3.532550 
# 
# 
# High freq. dielectric constant tensor:
#      x y z
#    x 1.828960 0.000000 0.016220 
#    y 0.000000 1.854920 0.000000 
#    z 0.016220 0.000000 1.812950 
# 
# From -- ./inp_files/194602.got.cif
#   From: 2010.06.25/outbox.cif.g09.slc.cpg/sg12_98_cif.got.tgz:194602.got - 2010.06.28 00:19:55.
