data_PCOD8112021
_publ_section_title
;
Structure prediction by ZEFSAII (Michael W. Deem and Ramdas Pophale) SiO2 
 PCOD8112021
Probable space group: C 2/M
;
_chemical_formula_sum "Si O2"
_cell_formula_units_Z 48
_cell_length_a 9.583505
_cell_length_b 24.431885
_cell_length_c 10.542696
_cell_angle_alpha 90.000000
_cell_angle_beta 70.304556
_cell_angle_gamma 90.000000
_cell_volume 2324.085673
_symmetry_space_group_name_H-M "C 2/M"
_symmetry_group_IT_number 12
_symmetry_cell_setting 'monoclinic'
loop_
_space_group_symop_operation_xyz
x,y,z
-x,y,-z
-x,-y,-z
x,-y,z
1/2+x,1/2+y,z
1/2-x,1/2+y,-z
1/2-x,1/2-y,-z
1/2+x,1/2-y,z
loop_
_atom_site_type_symbol
_atom_site_label
_atom_site_fract_x
_atom_site_fract_y
_atom_site_fract_z
Si Si1 0.218679 0.000000 0.526730
Si Si2 0.407043 0.500000 0.714101
Si Si3 0.150790 0.602414 0.397384
Si Si4 0.305849 0.297583 0.677609
Si Si5 0.099409 0.561670 0.134222
Si Si6 0.859814 0.198497 0.362842
Si Si7 0.711686 0.905112 0.848806
O O1 0.150475 0.000000 0.410308
O O2 0.318696 0.946491 0.513823
O O3 0.084613 0.000000 0.669114
O O4 0.356355 0.443220 0.793868
O O5 0.131272 0.579580 0.264806
O O6 0.293751 0.640893 0.339741
O O7 0.000000 0.631447 0.500000
O O8 0.209798 0.242102 0.715829
O O9 0.463585 0.294240 0.700339
O O10 0.316264 0.301565 0.523418
O O11 0.222849 0.347962 0.769689
O O12 0.158070 0.500000 0.093225
O O13 0.923295 0.561360 0.169791
O O14 0.178951 0.602910 0.009322
#
# Coordination Sequence:
#
# PCOD8112021 Si02
#       7
#     4   4   8   8   8   8   8
#     4  11  23  35  55  94 122 156 206 261 314 373
#     4  11  20  36  61  83 124 162 202 255 317 373
#     4  12  24  38  63  92 129 158 203 265 319 369
#     4  10  22  41  66  92 126 165 211 260 314 373
#     4  11  22  40  63  95 124 166 213 250 314 384
#     4  10  23  40  64  97 124 163 212 261 318 369
#     4  11  21  39  64  88 122 170 209 255 310 381
#
# _framework density 20.653282999999998
#
# number of rings (size 3 to 8) (size 9 to 14) (size 15 to 20)
#    0.000    1.167    2.500    4.750    7.000    2.667 
#    0.000    5.000    0.000    0.000    0.000    0.000 
#    0.000    0.000    0.000    0.000    0.000    0.000 
#
# Total GULP energy -297433.515941 kJ/mol
# GULP energy per Si atom -12393.063164 kJ/mol
# Density = 2.060628 g / cm^3
# Si number density = 20.653283 Si / 1000 Ang^3
#
#
#
# Elastic Constant Matrix: (Units=GPa)
#
#
# Indices 1 2 3 4 5 6 
#
# 1 98.8286 30.8469 37.3671 0.0000 -3.5248 0.0000
# 2 30.8469 117.1128 35.5341 0.0000 1.2392 0.0000
# 3 37.3671 35.5341 63.5552 0.0000 -2.0540 0.0000
# 4 0.0000 0.0000 0.0000 39.4064 0.0000 1.5835
# 5 -3.5248 1.2392 -2.0540 0.0000 25.9798 0.0000
# 6 0.0000 0.0000 0.0000 1.5835 0.0000 35.9078
#
#
#
# Elastic Compliance Matrix: (Units=1/GPa)
#
#
# Indices 1 2 3 4 5 6 
#
# 1 0.013230 -0.001386 -0.006961 0.000000 0.001311 0.000000
# 2 -0.001386 0.010452 -0.005064 0.000000 -0.001087 0.000000
# 3 -0.006961 -0.005064 0.022693 0.000000 0.001091 0.000000
# 4 0.000000 0.000000 0.000000 0.025422 0.000000 -0.001121
# 5 0.001311 -0.001087 0.001091 0.000000 0.038807 0.000000
# 6 0.000000 0.000000 0.000000 -0.001121 0.000000 0.027899
#
#
# Mechanical properties :
#
#
# Convention : Reuss Voigt Hill
#
# Bulk Modulus (GPa) = 51.14291 54.11030 52.62661
# Shear Modulus (GPa) = 29.09638 31.97538 30.53588
#
# Velocity S-wave (km/s) = 3.75747 3.93898 3.84930
# Velocity P-wave (km/s) = 6.60615 6.85155 6.72997
#
# Compressibility (1/GPa) = 0.01955305
#
# Stress axis : x y z
#
# Youngs Moduli (GPa) = 75.58595 95.67663 44.06563
#
# Poissons Ratio (x) = 0.13265 0.30674
# Poissons Ratio (y) = 0.10480 0.22313
# Poissons Ratio (z) = 0.52615 0.48447
#
# Static dielectric constant tensor:
#      x y z
#    x 3.956330 0.000000 -0.103900 
#    y 0.000000 3.915590 0.000000 
#    z -0.103900 0.000000 3.698910 
# 
# 
# High freq. dielectric constant tensor:
#      x y z
#    x 1.814730 0.000000 -0.001270 
#    y 0.000000 1.800280 0.000000 
#    z -0.001270 0.000000 1.794130 
# 
# From -- ./inp_files/122494.got.cif
#   From: 2010.06.25/outbox.cif.g09.slc.cpg/sg12_62_cif.got.tgz:122494.got - 2010.06.28 00:19:55.
