data_PCOD8112034
_publ_section_title
;
Structure prediction by ZEFSAII (Michael W. Deem and Ramdas Pophale) SiO2 
 PCOD8112034
Probable space group: C 2/M
;
_chemical_formula_sum "Si O2"
_cell_formula_units_Z 56
_cell_length_a 16.276190
_cell_length_b 8.881299
_cell_length_c 17.924724
_cell_angle_alpha 90.000000
_cell_angle_beta 76.407956
_cell_angle_gamma 90.000000
_cell_volume 2518.518492
_symmetry_space_group_name_H-M "C 2/M"
_symmetry_group_IT_number 12
_symmetry_cell_setting 'monoclinic'
loop_
_space_group_symop_operation_xyz
x,y,z
-x,y,-z
-x,-y,-z
x,-y,z
1/2+x,1/2+y,z
1/2-x,1/2+y,-z
1/2-x,1/2-y,-z
1/2+x,1/2-y,z
loop_
_atom_site_type_symbol
_atom_site_label
_atom_site_fract_x
_atom_site_fract_y
_atom_site_fract_z
Si Si1 0.682345 0.676945 0.664787
Si Si2 0.692157 0.824073 0.818654
Si Si3 0.876870 0.825684 0.824366
Si Si4 0.019213 0.824068 0.911586
Si Si5 0.179815 0.175660 0.442598
Si Si6 0.604190 0.833352 0.328204
Si Si7 0.922175 0.665805 0.413750
O O1 0.678576 0.500000 0.667512
O O2 0.714516 0.738803 0.736992
O O3 0.730140 0.734487 0.575786
O O4 0.592070 0.747878 0.663018
O O5 0.774628 0.796384 0.855104
O O6 0.604487 0.762135 0.870175
O O7 0.679856 0.000000 0.805401
O O8 0.913876 0.723607 0.750779
O O9 0.933930 0.780342 0.883857
O O10 0.891663 0.000000 0.801813
O O11 0.039104 0.000000 0.898470
O O12 0.000000 0.778021 0.000000
O O13 0.161993 0.213143 0.358800
O O14 0.105748 0.239371 0.508723
O O15 0.190803 0.000000 0.453171
O O16 0.521771 0.850926 0.396162
O O17 0.648413 0.000000 0.316660
O O18 0.879359 0.500000 0.423354
#
# Coordination Sequence:
#
# PCOD8112034 Si02
#       7
#     8   8   8   8   8   8   8
#     4  12  24  40  62  88 120 161 212 264 318 381
#     4  11  23  41  66  97 131 171 216 267 323 383
#     4  10  22  41  66  94 130 173 215 263 322 385
#     4  10  23  44  69 100 136 173 214 261 316 384
#     4  12  24  39  59  85 120 162 209 264 323 382
#     4  11  23  39  61  88 119 159 211 265 316 380
#     4  11  24  40  58  85 122 163 210 267 326 381
#
# _framework density 22.235292999999999
#
# number of rings (size 3 to 8) (size 9 to 14) (size 15 to 20)
#    0.000    1.000    1.429    5.571    0.000    8.286 
#    0.000    0.000    0.000    0.000    0.000    0.000 
#    0.000    0.000    0.000    0.000    0.000    0.000 
#
# Total GULP energy -346935.939408 kJ/mol
# GULP energy per Si atom -12390.569265 kJ/mol
# Density = 2.218468 g / cm^3
# Si number density = 22.235293 Si / 1000 Ang^3
#
#
#
# Elastic Constant Matrix: (Units=GPa)
#
#
# Indices 1 2 3 4 5 6 
#
# 1 102.5958 38.8866 21.8613 0.0000 -4.8156 0.0000
# 2 38.8866 138.3182 22.5230 0.0000 -7.0616 0.0000
# 3 21.8613 22.5230 56.4632 0.0000 -7.6590 0.0000
# 4 0.0000 0.0000 0.0000 32.7447 0.0000 -4.3086
# 5 -4.8156 -7.0616 -7.6590 0.0000 34.2027 0.0000
# 6 0.0000 0.0000 0.0000 -4.3086 0.0000 27.5413
#
#
#
# Elastic Compliance Matrix: (Units=1/GPa)
#
#
# Indices 1 2 3 4 5 6 
#
# 1 0.011485 -0.002669 -0.003339 0.000000 0.000318 0.000000
# 2 -0.002669 0.008381 -0.002193 0.000000 0.000864 0.000000
# 3 -0.003339 -0.002193 0.020372 0.000000 0.003639 0.000000
# 4 0.000000 0.000000 0.000000 0.031181 0.000000 0.004878
# 5 0.000318 0.000864 0.003639 0.000000 0.030275 0.000000
# 6 0.000000 0.000000 0.000000 0.004878 0.000000 0.037072
#
#
# Mechanical properties :
#
#
# Convention : Reuss Voigt Hill
#
# Bulk Modulus (GPa) = 41.95215 51.54657 46.74936
# Shear Modulus (GPa) = 30.65351 33.17150 31.91251
#
# Velocity S-wave (km/s) = 3.71697 3.86662 3.79254
# Velocity P-wave (km/s) = 6.10979 6.57016 6.34415
#
# Compressibility (1/GPa) = 0.02383668
#
# Stress axis : x y z
#
# Youngs Moduli (GPa) = 87.07013 119.31479 49.08773
#
# Poissons Ratio (x) = 0.31844 0.16390
# Poissons Ratio (y) = 0.23238 0.10764
# Poissons Ratio (z) = 0.29072 0.26163
#
# Static dielectric constant tensor:
#      x y z
#    x 4.456150 0.000000 0.065040 
#    y 0.000000 4.112480 0.000000 
#    z 0.065040 0.000000 3.814910 
# 
# 
# High freq. dielectric constant tensor:
#      x y z
#    x 1.904000 0.000000 0.002340 
#    y 0.000000 1.877340 0.000000 
#    z 0.002340 0.000000 1.857880 
# 
# From -- ./inp_files/275117.got.cif
#   From: 2010.06.25/outbox.cif.g09.slc.cpg/sg12_138_cif.got.tgz:275117.got - 2010.06.28 00:19:55.
