data_PCOD8112635
_publ_section_title
;
Structure prediction by ZEFSAII (Michael W. Deem and Ramdas Pophale) SiO2 
 PCOD8112635
Probable space group: C 2/M
;
_chemical_formula_sum "Si O2"
_cell_formula_units_Z 40
_cell_length_a 13.970869
_cell_length_b 29.886190
_cell_length_c 8.337169
_cell_angle_alpha 90.000000
_cell_angle_beta 144.695743
_cell_angle_gamma 90.000000
_cell_volume 2011.773096
_symmetry_space_group_name_H-M "C 2/M"
_symmetry_group_IT_number 12
_symmetry_cell_setting 'monoclinic'
loop_
_space_group_symop_operation_xyz
x,y,z
-x,y,-z
-x,-y,-z
x,-y,z
1/2+x,1/2+y,z
1/2-x,1/2+y,-z
1/2-x,1/2-y,-z
1/2+x,1/2-y,z
loop_
_atom_site_type_symbol
_atom_site_label
_atom_site_fract_x
_atom_site_fract_y
_atom_site_fract_z
Si Si1 0.722161 0.072297 0.457918
Si Si2 0.500000 0.144752 0.000000
Si Si3 0.503681 0.000000 0.694735
Si Si4 0.762328 0.286087 0.800938
Si Si5 0.000000 0.125239 0.000000
Si Si6 0.949559 0.203243 0.173362
Si Si7 0.823250 0.000000 0.342520
O O1 0.855791 0.090458 0.764038
O O2 0.588276 0.043663 0.369069
O O3 0.804390 0.044162 0.425952
O O4 0.632821 0.115856 0.273305
O O5 0.398543 0.175324 0.983503
O O6 0.500000 0.000000 0.500000
O O7 0.688756 0.000000 0.016918
O O8 0.659928 0.298357 0.817980
O O9 0.638767 0.284166 0.479065
O O10 0.863820 0.239660 0.940995
O O11 0.051351 0.155717 0.918472
O O12 0.000000 0.000000 0.500000
#
# Coordination Sequence:
#
# PCOD8112635 Si02
#       7
#     8   4   4   8   4   8   4
#     4  11  25  44  65  94 131 160 212 259 314 379
#     4  12  21  41  66  90 122 174 202 263 313 366
#     4  11  25  46  69  95 127 164 206 254 318 382
#     4  10  23  40  63  86 128 170 212 256 315 367
#     4  12  25  39  66  98 126 162 216 267 305 366
#     4  10  23  42  59  91 126 169 213 258 308 373
#     4  11  25  46  71  91 127 172 200 250 324 382
#
# _framework density 19.882959
#
# number of rings (size 3 to 8) (size 9 to 14) (size 15 to 20)
#    0.000    1.200    4.000    1.200    5.600    5.600 
#    0.000    0.000    0.000    0.000    0.000    0.000 
#    0.000    0.000    0.000    0.000    0.000    0.000 
#
# Total GULP energy -248012.434378 kJ/mol
# GULP energy per Si atom -12400.621719 kJ/mol
# Density = 1.983770 g / cm^3
# Si number density = 19.882959 Si / 1000 Ang^3
#
#
#
# Elastic Constant Matrix: (Units=GPa)
#
#
# Indices 1 2 3 4 5 6 
#
# 1 88.2964 37.4898 47.4285 0.0000 10.2472 0.0000
# 2 37.4898 106.8548 62.4837 0.0000 11.7289 0.0000
# 3 47.4285 62.4837 166.7200 0.0000 4.9295 0.0000
# 4 0.0000 0.0000 0.0000 52.6298 0.0000 -9.1294
# 5 10.2472 11.7289 4.9295 0.0000 33.6642 0.0000
# 6 0.0000 0.0000 0.0000 -9.1294 0.0000 20.5237
#
#
#
# Elastic Compliance Matrix: (Units=1/GPa)
#
#
# Indices 1 2 3 4 5 6 
#
# 1 0.014527 -0.003086 -0.002890 0.000000 -0.002924 0.000000
# 2 -0.003086 0.013074 -0.003932 0.000000 -0.003040 0.000000
# 3 -0.002890 -0.003932 0.008263 0.000000 0.001040 0.000000
# 4 0.000000 0.000000 0.000000 0.020589 0.000000 0.009159
# 5 -0.002924 -0.003040 0.001040 0.000000 0.031502 0.000000
# 6 0.000000 0.000000 0.000000 0.009159 0.000000 0.052798
#
#
# Mechanical properties :
#
#
# Convention : Reuss Voigt Hill
#
# Bulk Modulus (GPa) = 62.31048 72.96392 67.63720
# Shear Modulus (GPa) = 30.13503 35.66148 32.89826
#
# Velocity S-wave (km/s) = 3.89732 4.23965 4.07209
# Velocity P-wave (km/s) = 7.18741 7.79375 7.49671
#
# Compressibility (1/GPa) = 0.01604867
#
# Stress axis : x y z
#
# Youngs Moduli (GPa) = 68.83570 76.48580 121.02015
#
# Poissons Ratio (x) = 0.23606 0.34970
# Poissons Ratio (y) = 0.21245 0.47587
# Poissons Ratio (z) = 0.19891 0.30075
#
# Static dielectric constant tensor:
#      x y z
#    x 4.279620 0.000000 1.477850 
#    y 0.000000 3.971110 0.000000 
#    z 1.477850 0.000000 5.450880 
# 
# 
# High freq. dielectric constant tensor:
#      x y z
#    x 1.776100 0.000000 0.006390 
#    y 0.000000 1.785390 0.000000 
#    z 0.006390 0.000000 1.796190 
# 
# From -- ./inp_files/68798.got.cif
#   From: 2010.06.25/outbox.cif.g09.slc.cpg/sg12_35_cif.got.tgz:68798.got - 2010.06.28 00:19:55.
