data_PCOD8112362
_publ_section_title
;
Structure prediction by ZEFSAII (Michael W. Deem and Ramdas Pophale) SiO2 
 PCOD8112362
Probable space group: C 2/M
;
_chemical_formula_sum "Si O2"
_cell_formula_units_Z 40
_cell_length_a 9.674791
_cell_length_b 14.044730
_cell_length_c 32.818087
_cell_angle_alpha 90.000000
_cell_angle_beta 153.177883
_cell_angle_gamma 90.000000
_cell_volume 2012.141742
_symmetry_space_group_name_H-M "C 2/M"
_symmetry_group_IT_number 12
_symmetry_cell_setting 'monoclinic'
loop_
_space_group_symop_operation_xyz
x,y,z
-x,y,-z
-x,-y,-z
x,-y,z
1/2+x,1/2+y,z
1/2-x,1/2+y,-z
1/2-x,1/2-y,-z
1/2+x,1/2-y,z
loop_
_atom_site_type_symbol
_atom_site_label
_atom_site_fract_x
_atom_site_fract_y
_atom_site_fract_z
Si Si1 0.806033 0.731661 0.854890
Si Si2 0.339849 0.611194 0.581825
Si Si3 0.334127 0.610871 0.415152
Si Si4 0.789459 0.389666 0.983865
Si Si5 0.314889 0.740794 0.266862
O O1 0.663137 0.703874 0.773689
O O2 0.536467 0.735497 0.816773
O O3 0.970110 0.834308 0.894202
O O4 0.042887 0.650859 0.931797
O O5 0.347447 0.500000 0.592709
O O6 0.435431 0.635488 0.560932
O O7 0.575365 0.656861 0.675116
O O8 0.000000 0.652632 0.500000
O O9 0.500000 0.643980 0.500000
O O10 0.250177 0.500000 0.394307
O O11 0.015738 0.665023 0.326226
O O12 0.712678 0.500000 0.970638
O O13 0.000000 0.373424 0.000000
#
# Coordination Sequence:
#
# PCOD8112362 Si02
#       5
#     8   8   8   8   8
#     4  11  24  40  62  96 121 152 203 252 296 361
#     4  10  23  41  60  87 125 164 202 249 301 349
#     4  10  23  41  61  87 122 166 207 243 295 360
#     4  10  22  43  67  88 121 162 195 241 307 368
#     4  12  23  39  63  91 125 158 200 253 299 350
#
# _framework density 19.879315999999999
#
# number of rings (size 3 to 8) (size 9 to 14) (size 15 to 20)
#    0.000    1.400    4.000    0.600    2.800    4.800 
#    0.000    1.000    0.000    0.000    0.000    0.000 
#    0.000    0.000    0.000    0.000    0.000    0.000 
#
# Total GULP energy -248128.133794 kJ/mol
# GULP energy per Si atom -12406.406690 kJ/mol
# Density = 1.983407 g / cm^3
# Si number density = 19.879316 Si / 1000 Ang^3
#
#
#
# Elastic Constant Matrix: (Units=GPa)
#
#
# Indices 1 2 3 4 5 6 
#
# 1 98.2297 51.7543 44.8047 -0.0005 -1.0344 -0.0009
# 2 51.7543 93.8729 42.9837 0.0006 -1.6948 -0.0003
# 3 44.8047 42.9837 101.6681 0.0011 -9.9119 -0.0012
# 4 -0.0005 0.0006 0.0011 27.0219 -0.0006 0.8386
# 5 -1.0344 -1.6948 -9.9119 -0.0006 52.1895 -0.0007
# 6 -0.0009 -0.0003 -0.0012 0.8386 -0.0007 27.6350
#
#
#
# Elastic Compliance Matrix: (Units=1/GPa)
#
#
# Indices 1 2 3 4 5 6 
#
# 1 0.015585 -0.006733 -0.004089 0.000001 -0.000686 0.000000
# 2 -0.006733 0.016140 -0.003891 0.000000 -0.000348 0.000000
# 3 -0.004089 -0.003891 0.013513 0.000000 0.002359 0.000000
# 4 0.000001 0.000000 0.000000 0.037042 0.000000 -0.001124
# 5 -0.000686 -0.000348 0.002359 0.000000 0.019584 0.000001
# 6 0.000000 0.000000 0.000000 -0.001124 0.000001 0.036220
#
#
# Mechanical properties :
#
#
# Convention : Reuss Voigt Hill
#
# Bulk Modulus (GPa) = 63.23638 63.65070 63.44354
# Shear Modulus (GPa) = 28.93875 31.65116 30.29495
#
# Velocity S-wave (km/s) = 3.81953 3.99452 3.90801
# Velocity P-wave (km/s) = 7.16456 7.30500 7.23512
#
# Compressibility (1/GPa) = 0.01581368
#
# Stress axis : x y z
#
# Youngs Moduli (GPa) = 64.16346 61.95898 74.00462
#
# Poissons Ratio (x) = 0.41715 0.30259
# Poissons Ratio (y) = 0.43199 0.28792
# Poissons Ratio (z) = 0.26235 0.24105
#
# Static dielectric constant tensor:
#      x y z
#    x 3.752720 0.000000 -0.006160 
#    y 0.000000 3.510850 0.000000 
#    z -0.006160 0.000000 3.653470 
# 
# 
# High freq. dielectric constant tensor:
#      x y z
#    x 1.785790 0.000000 -0.003680 
#    y 0.000000 1.772790 0.000000 
#    z -0.003680 0.000000 1.783760 
# 
# From -- ./inp_files/194413.got.cif
#   From: 2010.06.25/outbox.cif.g09.slc.cpg/sg12_98_cif.got.tgz:194413.got - 2010.06.28 00:19:55.
