data_PCOD8112824
_publ_section_title
;
Structure prediction by ZEFSAII (Michael W. Deem and Ramdas Pophale) SiO2 
 PCOD8112824
Probable space group: C 2/M
;
_chemical_formula_sum "Si O2"
_cell_formula_units_Z 48
_cell_length_a 19.462374
_cell_length_b 8.843635
_cell_length_c 22.024041
_cell_angle_alpha 90.000000
_cell_angle_beta 39.088841
_cell_angle_gamma 90.000000
_cell_volume 2390.152996
_symmetry_space_group_name_H-M "C 2/M"
_symmetry_group_IT_number 12
_symmetry_cell_setting 'monoclinic'
loop_
_space_group_symop_operation_xyz
x,y,z
-x,y,-z
-x,-y,-z
x,-y,z
1/2+x,1/2+y,z
1/2-x,1/2+y,-z
1/2-x,1/2-y,-z
1/2+x,1/2-y,z
loop_
_atom_site_type_symbol
_atom_site_label
_atom_site_fract_x
_atom_site_fract_y
_atom_site_fract_z
Si Si1 0.223806 0.326866 0.081201
Si Si2 0.899383 0.322858 0.233654
Si Si3 0.958872 0.172897 0.963486
Si Si4 0.518779 0.825256 0.585352
Si Si5 0.824105 0.325532 0.631612
Si Si6 0.994087 0.177907 0.727001
O O1 0.190819 0.500000 0.091824
O O2 0.125803 0.244728 0.182033
O O3 0.250000 0.250000 0.000000
O O4 0.328400 0.314894 0.052961
O O5 0.904713 0.500000 0.240315
O O6 0.992845 0.276208 0.122478
O O7 0.781905 0.277174 0.288420
O O8 0.920370 0.242026 0.283247
O O9 0.996816 0.000000 0.926563
O O10 0.000000 0.233328 0.000000
O O11 0.406479 0.781465 0.628933
O O12 0.619680 0.795009 0.471610
O O13 0.536572 0.720141 0.631208
O O14 0.515041 0.000000 0.607972
O O15 0.789861 0.500000 0.660633
O O16 0.988558 0.000000 0.738813
#
# Coordination Sequence:
#
# PCOD8112824 Si02
#       6
#     8   8   8   8   8   8
#     4  11  22  39  63  89 121 160 200 248 298 355
#     4  12  25  40  61  90 124 160 203 253 301 356
#     4  10  23  42  63  88 119 160 203 244 298 359
#     4   9  20  41  67  93 119 157 202 246 299 365
#     4   9  20  41  67  91 122 158 197 246 304 364
#     4  12  25  40  61  89 124 164 204 250 302 357
#
# _framework density 20.082397
#
# number of rings (size 3 to 8) (size 9 to 14) (size 15 to 20)
#    0.000    1.500    1.667    4.500    2.333    3.000 
#    0.000    1.667    0.000    0.000    0.000    0.000 
#    0.000    0.000    0.000    0.000    0.000    0.000 
#
# Total GULP energy -297744.036949 kJ/mol
# GULP energy per Si atom -12406.001540 kJ/mol
# Density = 2.003669 g / cm^3
# Si number density = 20.082397 Si / 1000 Ang^3
#
#
#
# Elastic Constant Matrix: (Units=GPa)
#
#
# Indices 1 2 3 4 5 6 
#
# 1 83.8098 29.9012 7.8380 0.0000 7.2538 0.0001
# 2 29.9012 124.2458 21.2537 -0.0002 3.5854 0.0004
# 3 7.8380 21.2537 42.8650 0.0000 3.0094 0.0000
# 4 0.0000 -0.0002 0.0000 38.1491 0.0000 1.9813
# 5 7.2538 3.5854 3.0094 0.0000 40.9165 -0.0001
# 6 0.0001 0.0004 0.0000 1.9813 -0.0001 27.6038
#
#
#
# Elastic Compliance Matrix: (Units=1/GPa)
#
#
# Indices 1 2 3 4 5 6 
#
# 1 0.013250 -0.002994 -0.000796 0.000000 -0.002028 0.000000
# 2 -0.002994 0.009479 -0.004153 0.000000 0.000006 0.000000
# 3 -0.000796 -0.004153 0.025631 0.000000 -0.001380 0.000000
# 4 0.000000 0.000000 0.000000 0.026311 0.000000 -0.001889
# 5 -0.002028 0.000006 -0.001380 0.000000 0.024901 0.000000
# 6 0.000000 0.000000 0.000000 -0.001889 0.000000 0.036362
#
#
# Mechanical properties :
#
#
# Convention : Reuss Voigt Hill
#
# Bulk Modulus (GPa) = 30.79388 40.98960 35.89174
# Shear Modulus (GPa) = 30.74185 34.12906 32.43545
#
# Velocity S-wave (km/s) = 3.91677 4.12691 4.02321
# Velocity P-wave (km/s) = 5.98514 6.56990 6.28432
#
# Compressibility (1/GPa) = 0.03247398
#
# Stress axis : x y z
#
# Youngs Moduli (GPa) = 75.47192 105.49204 39.01579
#
# Poissons Ratio (x) = 0.31585 0.03105
# Poissons Ratio (y) = 0.22597 0.16203
# Poissons Ratio (z) = 0.06007 0.43811
#
# Static dielectric constant tensor:
#      x y z
#    x 3.762980 0.000000 -0.099400 
#    y 0.000000 3.601250 0.000000 
#    z -0.099400 0.000000 3.576500 
# 
# 
# High freq. dielectric constant tensor:
#      x y z
#    x 1.795240 0.000000 -0.001540 
#    y 0.000000 1.780930 0.000000 
#    z -0.001540 0.000000 1.783690 
# 
# From -- ./inp_files/319561.got.cif
#   From: 2010.06.25/outbox.cif.g09.slc.cpg/sg12_160_cif.got.tgz:319561.got - 2010.06.28 00:19:55.
