data_PCOD8112765
_publ_section_title
;
Structure prediction by ZEFSAII (Michael W. Deem and Ramdas Pophale) SiO2 
 PCOD8112765
Probable space group: C 2/M
;
_chemical_formula_sum "Si O2"
_cell_formula_units_Z 40
_cell_length_a 17.307610
_cell_length_b 14.681515
_cell_length_c 13.176052
_cell_angle_alpha 90.000000
_cell_angle_beta 33.811162
_cell_angle_gamma 90.000000
_cell_volume 1863.053249
_symmetry_space_group_name_H-M "C 2/M"
_symmetry_group_IT_number 12
_symmetry_cell_setting 'monoclinic'
loop_
_space_group_symop_operation_xyz
x,y,z
-x,y,-z
-x,-y,-z
x,-y,z
1/2+x,1/2+y,z
1/2-x,1/2+y,-z
1/2-x,1/2-y,-z
1/2+x,1/2-y,z
loop_
_atom_site_type_symbol
_atom_site_label
_atom_site_fract_x
_atom_site_fract_y
_atom_site_fract_z
Si Si1 0.407037 0.653998 0.897937
Si Si2 0.881283 0.895565 0.705640
Si Si3 0.711756 0.671601 0.621809
Si Si4 0.198491 0.500000 0.193179
Si Si5 0.856093 0.292454 0.116535
Si Si6 0.883803 0.500000 0.484163
O O1 0.396260 0.666616 0.788721
O O2 0.563820 0.624191 0.757077
O O3 0.289221 0.586416 0.065023
O O4 0.378681 0.750401 0.980617
O O5 0.742195 0.878491 0.793535
O O6 0.000000 0.865965 0.500000
O O7 0.890399 0.000000 0.730363
O O8 0.750000 0.750000 0.500000
O O9 0.706485 0.716588 0.739258
O O10 0.826737 0.591645 0.492335
O O11 0.170775 0.500000 0.342168
O O12 0.051424 0.500000 0.293867
O O13 0.000000 0.332619 0.000000
#
# Coordination Sequence:
#
# PCOD8112765 Si02
#       6
#     8   8   8   4   8   4
#     4  11  22  43  71  93 132 178 227 270 338 399
#     4  11  24  41  63  95 132 174 220 270 335 408
#     4  11  24  44  67 101 134 180 223 277 339 401
#     4  11  23  41  70 104 126 178 230 285 342 383
#     4  10  23  41  65  95 126 172 224 274 330 392
#     4  11  25  43  69 100 141 166 229 295 333 397
#
# _framework density 21.470132
#
# number of rings (size 3 to 8) (size 9 to 14) (size 15 to 20)
#    0.000    1.200    3.000    2.400    0.000    7.600 
#    1.800    0.000    0.000    0.000    0.000    0.000 
#    0.000    0.000    0.000    0.000    0.000    0.000 
#
# Total GULP energy -248004.679337 kJ/mol
# GULP energy per Si atom -12400.233967 kJ/mol
# Density = 2.142127 g / cm^3
# Si number density = 21.470132 Si / 1000 Ang^3
#
#
#
# Elastic Constant Matrix: (Units=GPa)
#
#
# Indices 1 2 3 4 5 6 
#
# 1 136.8743 48.2245 70.4861 0.0001 -2.5536 0.0000
# 2 48.2245 48.0007 48.9405 0.0000 -2.2612 0.0000
# 3 70.4861 48.9405 137.5160 0.0001 -16.7581 0.0000
# 4 0.0001 0.0000 0.0001 -13.9317 -0.0001 -22.7836
# 5 -2.5536 -2.2612 -16.7581 -0.0001 45.8702 0.0000
# 6 0.0000 0.0000 0.0000 -22.7836 0.0000 16.9472
#
#
#
# Elastic Compliance Matrix: (Units=1/GPa)
#
#
# Indices 1 2 3 4 5 6 
#
# 1 0.012049 -0.009007 -0.003080 0.000000 -0.000898 0.000000
# 2 -0.009007 0.039769 -0.009795 0.000000 -0.002119 0.000000
# 3 -0.003080 -0.009795 0.012828 0.000000 0.004032 0.000000
# 4 0.000000 0.000000 0.000000 -0.022441 0.000000 -0.030169
# 5 -0.000898 -0.002119 0.004032 0.000000 0.023119 0.000000
# 6 0.000000 0.000000 0.000000 -0.030169 0.000000 0.018448
#
#
# Mechanical properties :
#
#
# Convention : Reuss Voigt Hill
#
# Bulk Modulus (GPa) = 47.88834 73.07701 60.48268
# Shear Modulus (GPa) = 37.17601 20.09316 28.63458
#
# Velocity S-wave (km/s) = 4.16567 3.06251 3.65594
# Velocity P-wave (km/s) = 6.74464 6.82757 6.78623
#
# Compressibility (1/GPa) = 0.02088191
#
# Stress axis : x y z
#
# Youngs Moduli (GPa) = 82.99723 25.14522 77.95664
#
# Poissons Ratio (x) = 0.22649 0.24008
# Poissons Ratio (y) = 0.74757 0.76357
# Poissons Ratio (z) = 0.25560 0.24629
#
# Static dielectric constant tensor:
#      x y z
#    x 4.105930 0.000000 -0.104900 
#    y 0.000000 3.564370 0.000000 
#    z -0.104900 0.000000 4.142130 
# 
# 
# High freq. dielectric constant tensor:
#      x y z
#    x 1.855370 0.000000 -0.002720 
#    y 0.000000 1.822350 0.000000 
#    z -0.002720 0.000000 1.857980 
# 
# From -- ./inp_files/225571.got.cif
#   From: 2010.06.25/outbox.cif.g09.slc.cpg/sg12_113_cif.got.tgz:225571.got - 2010.06.28 00:19:55.
