data_PCOD8112555
_publ_section_title
;
Structure prediction by ZEFSAII (Michael W. Deem and Ramdas Pophale) SiO2 
 PCOD8112555
Probable space group: C 2/M
;
_chemical_formula_sum "Si O2"
_cell_formula_units_Z 56
_cell_length_a 27.133470
_cell_length_b 14.022143
_cell_length_c 9.150027
_cell_angle_alpha 90.000000
_cell_angle_beta 61.332038
_cell_angle_gamma 90.000000
_cell_volume 3054.547888
_symmetry_space_group_name_H-M "C 2/M"
_symmetry_group_IT_number 12
_symmetry_cell_setting 'monoclinic'
loop_
_space_group_symop_operation_xyz
x,y,z
-x,y,-z
-x,-y,-z
x,-y,z
1/2+x,1/2+y,z
1/2-x,1/2+y,-z
1/2-x,1/2-y,-z
1/2+x,1/2-y,z
loop_
_atom_site_type_symbol
_atom_site_label
_atom_site_fract_x
_atom_site_fract_y
_atom_site_fract_z
Si Si1 0.006548 0.611186 0.329206
Si Si2 0.223197 0.721877 0.886306
Si Si3 0.173245 0.896161 0.786469
Si Si4 0.298910 0.707626 0.525699
Si Si5 0.611998 0.114336 0.986874
Si Si6 0.558784 0.395423 0.842244
Si Si7 0.407385 0.200971 0.305541
O O1 0.015619 0.500000 0.334555
O O2 0.000000 0.658268 0.500000
O O3 0.948811 0.627760 0.324459
O O4 0.061043 0.649691 0.163946
O O5 0.204877 0.820444 0.838912
O O6 0.273483 0.675443 0.717777
O O7 0.170959 0.649101 0.973766
O O8 0.250000 0.750000 0.000000
O O9 0.178626 0.881023 0.602072
O O10 0.105972 0.889747 0.904294
O O11 0.197343 0.000000 0.793925
O O12 0.250000 0.750000 0.500000
O O13 0.347552 0.788934 0.474015
O O14 0.603783 0.164861 0.842855
O O15 0.612978 0.000000 0.966485
O O16 0.562869 0.500000 0.757752
O O17 0.564892 0.306203 0.724436
O O18 0.500000 0.382856 0.000000
#
# Coordination Sequence:
#
# PCOD8112555 Si02
#       7
#     8   8   8   8   8   8   8
#     4  10  23  39  56  86 121 150 187 235 295 361
#     4  11  23  38  56  81 121 149 191 240 289 349
#     4   9  18  35  57  79 109 146 188 231 278 334
#     4   9  18  37  53  83 109 144 193 233 277 335
#     4  11  22  38  59  86 113 150 198 238 287 347
#     4   9  16  28  52  84 109 134 176 222 266 321
#     4  11  19  35  62  84 113 147 190 235 284 332
#
# _framework density 18.333320000000001
#
# number of rings (size 3 to 8) (size 9 to 14) (size 15 to 20)
#    0.000    2.000    4.286    1.714    2.000    2.286 
#    0.000    0.714    0.000    0.429    0.000    0.000 
#    0.000    0.000    0.000    0.000    0.000    0.000 
#
# Total GULP energy -346890.258097 kJ/mol
# GULP energy per Si atom -12388.937789 kJ/mol
# Density = 1.829159 g / cm^3
# Si number density = 18.333320 Si / 1000 Ang^3
#
#
#
# Elastic Constant Matrix: (Units=GPa)
#
#
# Indices 1 2 3 4 5 6 
#
# 1 105.1768 14.7535 63.8412 0.0000 -12.3974 0.0000
# 2 14.7535 65.3665 16.6181 0.0000 -6.0583 0.0000
# 3 63.8412 16.6181 108.8034 0.0000 -14.6274 0.0000
# 4 0.0000 0.0000 0.0000 12.2876 0.0000 -0.4311
# 5 -12.3974 -6.0583 -14.6274 0.0000 35.7071 0.0000
# 6 0.0000 0.0000 0.0000 -0.4311 0.0000 28.9206
#
#
#
# Elastic Compliance Matrix: (Units=1/GPa)
#
#
# Indices 1 2 3 4 5 6 
#
# 1 0.014936 -0.001094 -0.008386 0.000000 0.001565 0.000000
# 2 -0.001094 0.016107 -0.001589 0.000000 0.001702 0.000000
# 3 -0.008386 -0.001589 0.014738 0.000000 0.002856 0.000000
# 4 0.000000 0.000000 0.000000 0.081426 0.000000 0.001214
# 5 0.001565 0.001702 0.002856 0.000000 0.030008 0.000000
# 6 0.000000 0.000000 0.000000 0.001214 0.000000 0.034596
#
#
# Mechanical properties :
#
#
# Convention : Reuss Voigt Hill
#
# Bulk Modulus (GPa) = 42.29773 52.19693 47.24733
# Shear Modulus (GPa) = 22.53970 27.65866 25.09918
#
# Velocity S-wave (km/s) = 3.51014 3.88836 3.70408
# Velocity P-wave (km/s) = 6.28886 6.97796 6.64235
#
# Compressibility (1/GPa) = 0.02364193
#
# Stress axis : x y z
#
# Youngs Moduli (GPa) = 66.95147 62.08448 67.84974
#
# Poissons Ratio (x) = 0.06792 0.56902
# Poissons Ratio (y) = 0.07325 0.10784
# Poissons Ratio (z) = 0.56149 0.09868
#
# Static dielectric constant tensor:
#      x y z
#    x 3.418670 0.000000 -0.560480 
#    y 0.000000 3.618800 0.000000 
#    z -0.560480 0.000000 4.429420 
# 
# 
# High freq. dielectric constant tensor:
#      x y z
#    x 1.711700 0.000000 -0.030280 
#    y 0.000000 1.706800 0.000000 
#    z -0.030280 0.000000 1.698260 
# 
# From -- ./inp_files/104434.got.cif
#   From: 2010.06.25/outbox.cif.g09.slc.cpg/sg12_53_cif.got.tgz:104434.got - 2010.06.28 00:19:55.
