data_PCOD8112497
_publ_section_title
;
Structure prediction by ZEFSAII (Michael W. Deem and Ramdas Pophale) SiO2 
 PCOD8112497
Probable space group: C 2/M
;
_chemical_formula_sum "Si O2"
_cell_formula_units_Z 40
_cell_length_a 11.746701
_cell_length_b 21.369552
_cell_length_c 8.511360
_cell_angle_alpha 90.000000
_cell_angle_beta 98.418815
_cell_angle_gamma 90.000000
_cell_volume 2113.513721
_symmetry_space_group_name_H-M "C 2/M"
_symmetry_group_IT_number 12
_symmetry_cell_setting 'monoclinic'
loop_
_space_group_symop_operation_xyz
x,y,z
-x,y,-z
-x,-y,-z
x,-y,z
1/2+x,1/2+y,z
1/2-x,1/2+y,-z
1/2-x,1/2-y,-z
1/2+x,1/2-y,z
loop_
_atom_site_type_symbol
_atom_site_label
_atom_site_fract_x
_atom_site_fract_y
_atom_site_fract_z
Si Si1 0.629529 0.674004 0.983261
Si Si2 0.049331 0.571928 0.260666
Si Si3 0.120273 0.679896 0.485995
Si Si4 0.678220 0.072646 0.965885
Si Si5 0.242485 0.751565 0.753083
O O1 0.708198 0.613795 0.034298
O O2 0.664787 0.731886 0.099761
O O3 0.500000 0.654365 0.000000
O O4 0.646153 0.701824 0.810116
O O5 0.059543 0.500000 0.309752
O O6 0.090915 0.609249 0.424050
O O7 0.918188 0.589246 0.185044
O O8 0.129504 0.587540 0.128584
O O9 0.190474 0.688468 0.662858
O O10 0.189134 0.710694 0.361398
O O11 0.000000 0.714883 0.500000
O O12 0.712550 0.000000 0.958797
#
# Coordination Sequence:
#
# PCOD8112497 Si02
#       5
#     8   8   8   8   8
#     4  11  21  37  57  80 109 151 189 227 269 330
#     4   9  18  34  58  84 112 142 179 234 287 326
#     4  11  20  35  55  80 112 145 177 230 283 328
#     4   9  18  34  57  85 110 141 187 232 276 328
#     4  10  23  36  51  81 114 146 186 227 273 330
#
# _framework density 18.925829
#
# number of rings (size 3 to 8) (size 9 to 14) (size 15 to 20)
#    0.000    2.000    2.000    3.600    0.000    2.400 
#    0.000    1.000    0.000    0.000    0.000    2.800 
#    0.000    0.000    0.000    0.000    0.000    0.000 
#
# Total GULP energy -247805.031020 kJ/mol
# GULP energy per Si atom -12390.251551 kJ/mol
# Density = 1.888275 g / cm^3
# Si number density = 18.925829 Si / 1000 Ang^3
#
#
#
# Elastic Constant Matrix: (Units=GPa)
#
#
# Indices 1 2 3 4 5 6 
#
# 1 141.4903 50.1917 37.7527 0.0000 -9.4402 0.0000
# 2 50.1917 86.0534 37.1821 0.0000 6.4036 0.0000
# 3 37.7527 37.1821 72.6553 0.0000 -0.7020 0.0000
# 4 0.0000 0.0000 0.0000 57.3647 0.0000 -11.2970
# 5 -9.4402 6.4036 -0.7020 0.0000 23.7678 0.0000
# 6 0.0000 0.0000 0.0000 -11.2970 0.0000 44.8339
#
#
#
# Elastic Compliance Matrix: (Units=1/GPa)
#
#
# Indices 1 2 3 4 5 6 
#
# 1 0.009880 -0.005077 -0.002485 0.000000 0.005219 0.000000
# 2 -0.005077 0.017970 -0.006626 0.000000 -0.007054 0.000000
# 3 -0.002485 -0.006626 0.018459 0.000000 0.001344 0.000000
# 4 0.000000 0.000000 0.000000 0.018343 0.000000 0.004622
# 5 0.005219 -0.007054 0.001344 0.000000 0.046087 0.000000
# 6 0.000000 0.000000 0.000000 0.004622 0.000000 0.023469
#
#
# Mechanical properties :
#
#
# Convention : Reuss Voigt Hill
#
# Bulk Modulus (GPa) = 55.76677 61.16135 58.46406
# Shear Modulus (GPa) = 29.66272 36.86477 33.26374
#
# Velocity S-wave (km/s) = 3.96323 4.41824 4.19690
# Velocity P-wave (km/s) = 7.10442 7.64292 7.37859
#
# Compressibility (1/GPa) = 0.01793183
#
# Stress axis : x y z
#
# Youngs Moduli (GPa) = 101.21528 55.64811 54.17425
#
# Poissons Ratio (x) = 0.28254 0.13462
# Poissons Ratio (y) = 0.51389 0.35898
# Poissons Ratio (z) = 0.25152 0.36874
#
# Static dielectric constant tensor:
#      x y z
#    x 3.502660 0.000000 -0.031770 
#    y 0.000000 3.393070 0.000000 
#    z -0.031770 0.000000 3.711710 
# 
# 
# High freq. dielectric constant tensor:
#      x y z
#    x 1.728270 0.000000 -0.017220 
#    y 0.000000 1.727180 0.000000 
#    z -0.017220 0.000000 1.743520 
# 
# From -- ./inp_files/48505.got.cif
#   From: 2010.06.25/outbox.cif.g09.slc.cpg/sg12_25_cif.got.tgz:48505.got - 2010.06.28 00:19:55.
