data_PCOD8112926
_publ_section_title
;
Structure prediction by ZEFSAII (Michael W. Deem and Ramdas Pophale) SiO2 
 PCOD8112926
Probable space group: C 2/M
;
_chemical_formula_sum "Si O2"
_cell_formula_units_Z 32
_cell_length_a 18.280089
_cell_length_b 19.500309
_cell_length_c 5.065816
_cell_angle_alpha 90.000000
_cell_angle_beta 45.491469
_cell_angle_gamma 90.000000
_cell_volume 1287.797892
_symmetry_space_group_name_H-M "C 2/M"
_symmetry_group_IT_number 12
_symmetry_cell_setting 'monoclinic'
loop_
_space_group_symop_operation_xyz
x,y,z
-x,y,-z
-x,-y,-z
x,-y,z
1/2+x,1/2+y,z
1/2-x,1/2+y,-z
1/2-x,1/2-y,-z
1/2+x,1/2-y,z
loop_
_atom_site_type_symbol
_atom_site_label
_atom_site_fract_x
_atom_site_fract_y
_atom_site_fract_z
Si Si1 0.120217 0.920111 0.146147
Si Si2 0.378352 0.802222 0.322796
Si Si3 0.929870 0.426583 0.434260
Si Si4 0.797205 0.156613 0.572135
O O1 0.186688 0.896035 0.230754
O O2 0.000000 0.908482 0.500000
O O3 0.144100 0.000000 0.031172
O O4 0.148929 0.874715 0.821869
O O5 0.347994 0.864659 0.602316
O O6 0.321726 0.823743 0.192413
O O7 0.347178 0.729560 0.520489
O O8 0.500000 0.802608 0.000000
O O9 0.872827 0.500000 0.623553
O O10 0.000000 0.407555 0.500000
O O11 0.000000 0.433077 0.000000
#
# Coordination Sequence:
#
# PCOD8112926 Si02
#       4
#     8   8   8   8
#     4  11  24  45  71  98 131 171 219 277 332 384
#     4  10  23  42  66  96 136 176 217 269 328 390
#     4   9  19  35  56  84 119 162 206 247 302 371
#     4  11  25  42  67 100 131 172 223 271 326 395
#
# _framework density 24.848617999999998
#
# number of rings (size 3 to 8) (size 9 to 14) (size 15 to 20)
#    0.000    1.750    0.000    3.000    0.000   17.000 
#    0.000    5.000    0.000    0.000    0.000    0.000 
#    0.000    0.000    0.000    0.000    0.000    0.000 
#
# Total GULP energy -198219.892094 kJ/mol
# GULP energy per Si atom -12388.743256 kJ/mol
# Density = 2.479206 g / cm^3
# Si number density = 24.848618 Si / 1000 Ang^3
#
#
#
# Elastic Constant Matrix: (Units=GPa)
#
#
# Indices 1 2 3 4 5 6 
#
# 1 135.4191 71.1095 41.8208 0.0000 0.9938 0.0000
# 2 71.1095 229.0762 16.2284 0.0000 -0.5093 0.0000
# 3 41.8208 16.2284 69.6830 0.0000 -2.1381 0.0000
# 4 0.0000 0.0000 0.0000 -0.1480 0.0000 5.2415
# 5 0.9938 -0.5093 -2.1381 0.0000 51.0808 0.0000
# 6 0.0000 0.0000 0.0000 5.2415 0.0000 59.2142
#
#
#
# Elastic Compliance Matrix: (Units=1/GPa)
#
#
# Indices 1 2 3 4 5 6 
#
# 1 0.010695 -0.002913 -0.005755 0.000000 -0.000478 0.000000
# 2 -0.002913 0.005232 0.000534 0.000000 0.000131 0.000000
# 3 -0.005755 0.000534 0.017707 0.000000 0.000858 0.000000
# 4 0.000000 0.000000 0.000000 -1.634003 0.000000 0.144639
# 5 -0.000478 0.000131 0.000858 0.000000 0.019623 0.000000
# 6 0.000000 0.000000 0.000000 0.144639 0.000000 0.004085
#
#
# Mechanical properties :
#
#
# Convention : Reuss Voigt Hill
#
# Bulk Modulus (GPa) = 57.58630 76.94397 67.26513
# Shear Modulus (GPa) = -3.21625 42.36403 19.57389
#
# Velocity S-wave (km/s) = -1.13892 4.13350 2.80969
# Velocity P-wave (km/s) = 4.63634 7.33577 6.13633
#
# Compressibility (1/GPa) = 0.01736524
#
# Stress axis : x y z
#
# Youngs Moduli (GPa) = 93.50110 191.12523 56.47624
#
# Poissons Ratio (x) = 0.55681 0.32502
# Poissons Ratio (y) = 0.27240 -0.03016
# Poissons Ratio (z) = 0.53809 -0.10205
#
# Static dielectric constant tensor:
#      x y z
#    x 4.673540 0.000000 -0.099910 
#    y 0.000000 6.237550 0.000000 
#    z -0.099910 0.000000 4.213130 
# 
# 
# High freq. dielectric constant tensor:
#      x y z
#    x 2.004320 0.000000 -0.004140 
#    y 0.000000 2.022330 0.000000 
#    z -0.004140 0.000000 1.973390 
# 
# From -- ./inp_files/15675.got.cif
#   From: 2010.06.25/outbox.cif.g09.slc.cpg/sg12_8_cif.got.tgz:15675.got - 2010.06.28 00:19:55.
