data_PCOD8112953
_publ_section_title
;
Structure prediction by ZEFSAII (Michael W. Deem and Ramdas Pophale) SiO2 
 PCOD8112953
Probable space group: C 2/M
;
_chemical_formula_sum "Si O2"
_cell_formula_units_Z 32
_cell_length_a 12.743515
_cell_length_b 18.110044
_cell_length_c 12.118074
_cell_angle_alpha 90.000000
_cell_angle_beta 149.642722
_cell_angle_gamma 90.000000
_cell_volume 1413.414081
_symmetry_space_group_name_H-M "C 2/M"
_symmetry_group_IT_number 12
_symmetry_cell_setting 'monoclinic'
loop_
_space_group_symop_operation_xyz
x,y,z
-x,y,-z
-x,-y,-z
x,-y,z
1/2+x,1/2+y,z
1/2-x,1/2+y,-z
1/2-x,1/2-y,-z
1/2+x,1/2-y,z
loop_
_atom_site_type_symbol
_atom_site_label
_atom_site_fract_x
_atom_site_fract_y
_atom_site_fract_z
Si Si1 0.229733 0.791476 0.595382
Si Si2 0.500000 0.829657 0.500000
Si Si3 0.902701 0.083565 0.246555
Si Si4 0.318474 0.586282 0.918787
Si Si5 0.500000 0.127715 0.000000
O O1 0.250000 0.750000 0.500000
O O2 0.183400 0.724036 0.632994
O O3 0.059264 0.856955 0.439800
O O4 0.439886 0.824580 0.837095
O O5 0.404596 0.879177 0.315627
O O6 0.996342 0.000000 0.334580
O O7 0.867358 0.108808 0.088379
O O8 0.693944 0.080464 0.131129
O O9 0.286510 0.500000 0.879346
O O10 0.500000 0.612698 0.000000
#
# Coordination Sequence:
#
# PCOD8112953 Si02
#       5
#     8   4   8   8   4
#     4  12  27  43  69 102 138 184 227 288 345 414
#     4  12  23  40  65  96 132 174 226 284 335 406
#     4  11  25  46  70 102 141 184 233 284 347 417
#     4  10  23  42  68  98 135 180 230 289 343 406
#     4  12  25  46  68 102 139 186 234 282 351 408
#
# _framework density 22.640217
#
# number of rings (size 3 to 8) (size 9 to 14) (size 15 to 20)
#    0.000    0.750    2.500    3.750    5.250    5.000 
#    0.000    6.250    0.000    0.000    0.000    0.000 
#    0.000    0.000    0.000    0.000    0.000    0.000 
#
# Total GULP energy -198283.982426 kJ/mol
# GULP energy per Si atom -12392.748902 kJ/mol
# Density = 2.258869 g / cm^3
# Si number density = 22.640217 Si / 1000 Ang^3
#
#
#
# Elastic Constant Matrix: (Units=GPa)
#
#
# Indices 1 2 3 4 5 6 
#
# 1 93.7487 19.5424 17.0134 0.0000 -15.3816 0.0000
# 2 19.5424 91.4674 60.1589 0.0000 1.3535 0.0000
# 3 17.0134 60.1589 131.3360 -0.0001 -14.0753 0.0000
# 4 0.0000 0.0000 -0.0001 9.4576 0.0000 -6.4502
# 5 -15.3816 1.3535 -14.0753 0.0000 38.2285 0.0000
# 6 0.0000 0.0000 0.0000 -6.4502 0.0000 35.7818
#
#
#
# Elastic Compliance Matrix: (Units=1/GPa)
#
#
# Indices 1 2 3 4 5 6 
#
# 1 0.012034 -0.002828 0.000277 0.000000 0.005044 0.000000
# 2 -0.002828 0.016728 -0.007789 0.000000 -0.004598 0.000000
# 3 0.000277 -0.007789 0.011647 0.000000 0.004675 0.000000
# 4 0.000000 0.000000 0.000000 0.120556 0.000000 0.021732
# 5 0.005044 -0.004598 0.004675 0.000000 0.030072 0.000000
# 6 0.000000 0.000000 0.000000 0.021732 0.000000 0.031865
#
#
# Mechanical properties :
#
#
# Convention : Reuss Voigt Hill
#
# Bulk Modulus (GPa) = 50.68613 56.66461 53.67537
# Shear Modulus (GPa) = 19.98746 31.34939 25.66843
#
# Velocity S-wave (km/s) = 2.97447 3.72516 3.37078
# Velocity P-wave (km/s) = 5.85089 6.60190 6.23771
#
# Compressibility (1/GPa) = 0.01972926
#
# Stress axis : x y z
#
# Youngs Moduli (GPa) = 83.10062 59.78099 85.86019
#
# Poissons Ratio (x) = 0.16905 -0.02379
# Poissons Ratio (y) = 0.23500 0.66873
# Poissons Ratio (z) = -0.02302 0.46561
#
# Static dielectric constant tensor:
#      x y z
#    x 4.117780 0.000000 -0.147650 
#    y 0.000000 4.164080 0.000000 
#    z -0.147650 0.000000 4.044380 
# 
# 
# High freq. dielectric constant tensor:
#      x y z
#    x 1.891760 0.000000 -0.017070 
#    y 0.000000 1.905690 0.000000 
#    z -0.017070 0.000000 1.899580 
# 
# From -- ./inp_files/145974.got.cif
#   From: 2010.06.25/outbox.cif.g09.slc.cpg/sg12_73_cif.got.tgz:145974.got - 2010.06.28 00:19:55.
