data_PCOD8112701
_publ_section_title
;
Structure prediction by ZEFSAII (Michael W. Deem and Ramdas Pophale) SiO2 
 PCOD8112701
Probable space group: C 2/M
;
_chemical_formula_sum "Si O2"
_cell_formula_units_Z 56
_cell_length_a 14.861028
_cell_length_b 29.900800
_cell_length_c 11.730649
_cell_angle_alpha 90.000000
_cell_angle_beta 28.809831
_cell_angle_gamma 90.000000
_cell_volume 2511.968886
_symmetry_space_group_name_H-M "C 2/M"
_symmetry_group_IT_number 12
_symmetry_cell_setting 'monoclinic'
loop_
_space_group_symop_operation_xyz
x,y,z
-x,y,-z
-x,-y,-z
x,-y,z
1/2+x,1/2+y,z
1/2-x,1/2+y,-z
1/2-x,1/2-y,-z
1/2+x,1/2-y,z
loop_
_atom_site_type_symbol
_atom_site_label
_atom_site_fract_x
_atom_site_fract_y
_atom_site_fract_z
Si Si1 0.728380 0.590088 0.571347
Si Si2 0.219813 0.550678 0.246783
Si Si3 0.883051 0.187872 0.241885
Si Si4 0.495057 0.226027 0.382459
Si Si5 0.666958 0.309545 0.117743
Si Si6 0.952727 0.448293 0.925495
Si Si7 0.135216 0.911631 0.142236
O O1 0.687990 0.564481 0.734945
O O2 0.716174 0.642661 0.605640
O O3 0.580459 0.574199 0.637793
O O4 0.931586 0.578964 0.296760
O O5 0.281336 0.500000 0.148466
O O6 0.000000 0.554357 0.500000
O O7 0.277005 0.584065 0.081750
O O8 0.722855 0.225748 0.411574
O O9 0.035185 0.205668 0.160205
O O10 0.000000 0.177813 0.000000
O O11 0.500000 0.201362 0.500000
O O12 0.588461 0.275335 0.300338
O O13 0.617692 0.198921 0.153944
O O14 0.644867 0.360877 0.177086
O O15 0.006186 0.500000 0.857391
O O16 0.736288 0.441294 0.127625
O O17 0.000000 0.430510 0.000000
#
# Coordination Sequence:
#
# PCOD8112701 Si02
#       7
#     8   8   8   8   8   8   8
#     4  11  23  39  64  99 132 168 210 268 323 390
#     4  11  22  36  62  98 133 164 202 259 327 389
#     4  11  21  39  66  95 127 167 205 254 327 389
#     4  11  22  38  65  89 126 168 206 263 312 374
#     4  10  23  41  60  94 125 163 215 256 316 382
#     4  11  25  45  66  90 125 175 227 269 317 380
#     4  11  23  42  66  93 131 169 211 269 327 386
#
# _framework density 22.293268999999999
#
# number of rings (size 3 to 8) (size 9 to 14) (size 15 to 20)
#    0.000    1.143    2.857    4.286    0.000    3.429 
#    5.143    1.429    0.000    0.000    0.000    0.000 
#    0.000    0.000    0.000    0.000    0.000    0.000 
#
# Total GULP energy -347111.154827 kJ/mol
# GULP energy per Si atom -12396.826958 kJ/mol
# Density = 2.224253 g / cm^3
# Si number density = 22.293269 Si / 1000 Ang^3
#
#
#
# Elastic Constant Matrix: (Units=GPa)
#
#
# Indices 1 2 3 4 5 6 
#
# 1 108.2119 1.6452 18.2556 0.0000 -8.5800 0.0003
# 2 1.6452 73.8250 21.7577 -0.0001 -3.0083 0.0001
# 3 18.2556 21.7577 71.9454 0.0003 -8.2781 0.0008
# 4 0.0000 -0.0001 0.0003 73.6317 0.0000 -3.7473
# 5 -8.5800 -3.0083 -8.2781 0.0000 32.5224 -0.0005
# 6 0.0003 0.0001 0.0008 -3.7473 -0.0005 28.3502
#
#
#
# Elastic Compliance Matrix: (Units=1/GPa)
#
#
# Indices 1 2 3 4 5 6 
#
# 1 0.009803 0.000580 -0.002430 0.000000 0.002021 0.000000
# 2 0.000580 0.014907 -0.004614 0.000000 0.000357 0.000000
# 3 -0.002430 -0.004614 0.016265 0.000000 0.003072 0.000000
# 4 0.000000 0.000000 0.000000 0.013673 0.000000 0.001807
# 5 0.002021 0.000357 0.003072 0.000000 0.032096 0.000000
# 6 0.000000 0.000000 0.000000 0.001807 0.000000 0.035512
#
#
# Mechanical properties :
#
#
# Convention : Reuss Voigt Hill
#
# Bulk Modulus (GPa) = 35.65578 37.47771 36.56674
# Shear Modulus (GPa) = 34.59410 41.05578 37.82494
#
# Velocity S-wave (km/s) = 3.94353 4.29607 4.12357
# Velocity P-wave (km/s) = 6.06333 6.43863 6.25379
#
# Compressibility (1/GPa) = 0.02804595
#
# Stress axis : x y z
#
# Youngs Moduli (GPa) = 102.01427 67.08213 61.48175
#
# Poissons Ratio (x) = -0.03892 0.14941
# Poissons Ratio (y) = -0.05918 0.28369
# Poissons Ratio (z) = 0.24792 0.30954
#
# Static dielectric constant tensor:
#      x y z
#    x 4.157040 0.000000 -0.153600 
#    y 0.000000 3.820200 0.000000 
#    z -0.153600 0.000000 4.047210 
# 
# 
# High freq. dielectric constant tensor:
#      x y z
#    x 1.879910 0.000000 -0.019130 
#    y 0.000000 1.867090 0.000000 
#    z -0.019130 0.000000 1.875570 
# 
# From -- ./inp_files/150439.got.cif
#   From: 2010.06.25/outbox.cif.g09.slc.cpg/sg12_76_cif.got.tgz:150439.got - 2010.06.28 00:19:55.
