data_PCOD8112621
_publ_section_title
;
Structure prediction by ZEFSAII (Michael W. Deem and Ramdas Pophale) SiO2 
 PCOD8112621
Probable space group: C 2/M
;
_chemical_formula_sum "Si O2"
_cell_formula_units_Z 56
_cell_length_a 14.038548
_cell_length_b 14.464975
_cell_length_c 12.388907
_cell_angle_alpha 90.000000
_cell_angle_beta 95.135146
_cell_angle_gamma 90.000000
_cell_volume 2505.683756
_symmetry_space_group_name_H-M "C 2/M"
_symmetry_group_IT_number 12
_symmetry_cell_setting 'monoclinic'
loop_
_space_group_symop_operation_xyz
x,y,z
-x,y,-z
-x,-y,-z
x,-y,z
1/2+x,1/2+y,z
1/2-x,1/2+y,-z
1/2-x,1/2-y,-z
1/2+x,1/2-y,z
loop_
_atom_site_type_symbol
_atom_site_label
_atom_site_fract_x
_atom_site_fract_y
_atom_site_fract_z
Si Si1 0.133532 0.235827 0.591916
Si Si2 0.725222 0.645258 0.983651
Si Si3 0.145012 0.746523 0.355172
Si Si4 0.895374 0.897339 0.824747
Si Si5 0.072264 0.398314 0.925758
Si Si6 0.600736 0.603192 0.775414
Si Si7 0.475952 0.111293 0.311816
O O1 0.107304 0.211207 0.465357
O O2 0.245407 0.217729 0.620782
O O3 0.080643 0.168597 0.670734
O O4 0.094870 0.340922 0.607959
O O5 0.692065 0.629074 0.857627
O O6 0.750000 0.750000 0.000000
O O7 0.644300 0.615683 0.059232
O O8 0.822464 0.590385 0.015089
O O9 0.145143 0.822515 0.261981
O O10 0.082742 0.654586 0.323510
O O11 0.009405 0.888468 0.844035
O O12 0.866050 0.000000 0.780522
O O13 0.027585 0.500000 0.904720
O O14 0.071396 0.354890 0.806539
O O15 0.000000 0.343652 0.000000
O O16 0.614490 0.500000 0.731652
O O17 0.478563 0.000000 0.331411
#
# Coordination Sequence:
#
# PCOD8112621 Si02
#       7
#     8   8   8   8   8   8   8
#     4  11  25  45  66 101 135 178 231 290 348 416
#     4  12  25  39  65  99 137 175 218 275 337 408
#     4  11  25  44  69  98 138 174 233 292 346 414
#     4  11  24  43  68  96 131 179 226 276 342 409
#     4  10  23  40  61  92 131 174 218 266 327 402
#     4  11  24  42  68  99 135 178 227 280 341 410
#     4  11  24  45  72 101 140 184 230 286 355 426
#
# _framework density 22.349188000000002
#
# number of rings (size 3 to 8) (size 9 to 14) (size 15 to 20)
#    0.000    1.000    1.429    4.714    4.000    5.143 
#    0.000    4.286    0.000    0.000    0.000    0.000 
#    0.000    0.000    0.000    0.000    0.000    0.000 
#
# Total GULP energy -347119.089973 kJ/mol
# GULP energy per Si atom -12397.110356 kJ/mol
# Density = 2.229832 g / cm^3
# Si number density = 22.349188 Si / 1000 Ang^3
#
#
#
# Elastic Constant Matrix: (Units=GPa)
#
#
# Indices 1 2 3 4 5 6 
#
# 1 81.2292 21.2938 9.0329 0.0000 -3.6711 0.0000
# 2 21.2938 115.6430 27.0514 0.0000 1.5714 0.0000
# 3 9.0329 27.0514 99.8906 0.0000 -1.2719 0.0000
# 4 0.0000 0.0000 0.0000 15.3297 0.0000 -3.4774
# 5 -3.6711 1.5714 -1.2719 0.0000 40.7114 0.0000
# 6 0.0000 0.0000 0.0000 -3.4774 0.0000 29.9020
#
#
#
# Elastic Compliance Matrix: (Units=1/GPa)
#
#
# Indices 1 2 3 4 5 6 
#
# 1 0.013027 -0.002289 -0.000542 0.000000 0.001246 0.000000
# 2 -0.002289 0.009642 -0.002412 0.000000 -0.000654 0.000000
# 3 -0.000542 -0.002412 0.010718 0.000000 0.000379 0.000000
# 4 0.000000 0.000000 0.000000 0.067000 0.000000 0.007792
# 5 0.001246 -0.000654 0.000379 0.000000 0.024713 0.000000
# 6 0.000000 0.000000 0.000000 0.007792 0.000000 0.034349
#
#
# Mechanical properties :
#
#
# Convention : Reuss Voigt Hill
#
# Bulk Modulus (GPa) = 43.66773 45.72435 44.69604
# Shear Modulus (GPa) = 28.15789 33.14760 30.65275
#
# Velocity S-wave (km/s) = 3.55337 3.85537 3.70745
# Velocity P-wave (km/s) = 6.03461 6.34996 6.19429
#
# Compressibility (1/GPa) = 0.02290021
#
# Stress axis : x y z
#
# Youngs Moduli (GPa) = 76.76078 103.71308 93.29973
#
# Poissons Ratio (x) = 0.23739 0.05060
# Poissons Ratio (y) = 0.17570 0.22508
# Poissons Ratio (z) = 0.04163 0.25021
#
# Static dielectric constant tensor:
#      x y z
#    x 2.921090 0.000000 -0.800340 
#    y 0.000000 4.016890 0.000000 
#    z -0.800340 0.000000 3.744170 
# 
# 
# High freq. dielectric constant tensor:
#      x y z
#    x 1.891430 0.000000 -0.001560 
#    y 0.000000 1.875880 0.000000 
#    z -0.001560 0.000000 1.886290 
# 
# From -- ./inp_files/143740.got.cif
#   From: 2010.06.25/outbox.cif.g09.slc.cpg/sg12_72_cif.got.tgz:143740.got - 2010.06.28 00:19:55.
