data_PCOD8112478
_publ_section_title
;
Structure prediction by ZEFSAII (Michael W. Deem and Ramdas Pophale) SiO2 
 PCOD8112478
Probable space group: C 2/M
;
_chemical_formula_sum "Si O2"
_cell_formula_units_Z 28
_cell_length_a 5.333103
_cell_length_b 28.992261
_cell_length_c 8.951488
_cell_angle_alpha 90.000000
_cell_angle_beta 120.180197
_cell_angle_gamma 90.000000
_cell_volume 1196.455279
_symmetry_space_group_name_H-M "C 2/M"
_symmetry_group_IT_number 12
_symmetry_cell_setting 'monoclinic'
loop_
_space_group_symop_operation_xyz
x,y,z
-x,y,-z
-x,-y,-z
x,-y,z
1/2+x,1/2+y,z
1/2-x,1/2+y,-z
1/2-x,1/2-y,-z
1/2+x,1/2-y,z
loop_
_atom_site_type_symbol
_atom_site_label
_atom_site_fract_x
_atom_site_fract_y
_atom_site_fract_z
Si Si1 0.500961 0.901697 0.179364
Si Si2 0.344016 0.000000 0.111780
Si Si3 0.000000 0.851560 0.500000
Si Si4 0.432262 0.279515 0.711588
Si Si5 0.000000 0.164126 0.000000
O O1 0.794571 0.884323 0.341162
O O2 0.439895 0.953154 0.225748
O O3 0.500000 0.902954 0.000000
O O4 0.248080 0.866769 0.150166
O O5 0.500000 0.000000 0.000000
O O6 0.000000 0.000000 0.000000
O O7 0.826281 0.818172 0.561578
O O8 0.645431 0.244085 0.692309
O O9 0.615804 0.303559 0.900095
#
# Coordination Sequence:
#
# PCOD8112478 Si02
#       5
#     8   4   4   8   4
#     4  11  24  47  73 108 149 189 243 301 368 442
#     4  10  22  45  76 109 147 190 235 295 370 439
#     4  12  26  47  76 108 148 196 248 305 368 436
#     4  12  27  47  70 105 149 196 250 310 364 429
#     4  12  24  45  76 104 146 194 254 301 368 440
#
# _framework density 23.402460999999999
#
# number of rings (size 3 to 8) (size 9 to 14) (size 15 to 20)
#    0.000    0.571    4.286    3.429    0.000    4.000 
#    0.000    0.000    0.000    5.143    0.000    0.000 
#    0.000    0.000    0.000    0.000    0.000    0.000 
#
# Total GULP energy -173531.657829 kJ/mol
# GULP energy per Si atom -12395.118416 kJ/mol
# Density = 2.334920 g / cm^3
# Si number density = 23.402461 Si / 1000 Ang^3
#
#
#
# Elastic Constant Matrix: (Units=GPa)
#
#
# Indices 1 2 3 4 5 6 
#
# 1 94.5589 36.1417 34.3540 0.0000 -9.3239 0.0000
# 2 36.1417 172.9269 80.6311 0.0000 -7.2008 0.0000
# 3 34.3540 80.6311 144.2034 0.0000 4.3830 0.0000
# 4 0.0000 0.0000 0.0000 16.5636 0.0000 2.9173
# 5 -9.3239 -7.2008 4.3830 0.0000 30.9799 0.0000
# 6 0.0000 0.0000 0.0000 2.9173 0.0000 26.6580
#
#
#
# Elastic Compliance Matrix: (Units=1/GPa)
#
#
# Indices 1 2 3 4 5 6 
#
# 1 0.012287 -0.001347 -0.002286 0.000000 0.003708 0.000000
# 2 -0.001347 0.008159 -0.004305 0.000000 0.002100 0.000000
# 3 -0.002286 -0.004305 0.009981 0.000000 -0.003101 0.000000
# 4 0.000000 0.000000 0.000000 0.061560 0.000000 -0.006737
# 5 0.003708 0.002100 -0.003101 0.000000 0.034322 0.000000
# 6 0.000000 0.000000 0.000000 -0.006737 0.000000 0.038249
#
#
# Mechanical properties :
#
#
# Convention : Reuss Voigt Hill
#
# Bulk Modulus (GPa) = 68.73348 79.32697 74.03022
# Shear Modulus (GPa) = 26.98546 32.21113 29.59829
#
# Velocity S-wave (km/s) = 3.39942 3.71401 3.56019
# Velocity P-wave (km/s) = 6.69642 7.23618 6.97152
#
# Compressibility (1/GPa) = 0.01454895
#
# Stress axis : x y z
#
# Youngs Moduli (GPa) = 81.38856 122.56169 100.19306
#
# Poissons Ratio (x) = 0.16514 0.22908
# Poissons Ratio (y) = 0.10967 0.43133
# Poissons Ratio (z) = 0.18609 0.52763
#
# Static dielectric constant tensor:
#      x y z
#    x 4.087590 0.000000 -0.215210 
#    y 0.000000 5.121690 0.000000 
#    z -0.215210 0.000000 4.256050 
# 
# 
# High freq. dielectric constant tensor:
#      x y z
#    x 1.922030 0.000000 -0.006990 
#    y 0.000000 1.951020 0.000000 
#    z -0.006990 0.000000 1.916600 
# 
# From -- ./inp_files/34709.got.cif
#   From: 2010.06.25/outbox.cif.g09.slc.cpg/sg12_18_cif.got.tgz:34709.got - 2010.06.28 00:19:55.
