data_PCOD8112445
_publ_section_title
;
Structure prediction by ZEFSAII (Michael W. Deem and Ramdas Pophale) SiO2 
 PCOD8112445
Probable space group: C 2/M
;
_chemical_formula_sum "Si O2"
_cell_formula_units_Z 32
_cell_length_a 13.632172
_cell_length_b 19.009469
_cell_length_c 14.201104
_cell_angle_alpha 90.000000
_cell_angle_beta 159.613121
_cell_angle_gamma 90.000000
_cell_volume 1281.982765
_symmetry_space_group_name_H-M "C 2/M"
_symmetry_group_IT_number 12
_symmetry_cell_setting 'monoclinic'
loop_
_space_group_symop_operation_xyz
x,y,z
-x,y,-z
-x,-y,-z
x,-y,z
1/2+x,1/2+y,z
1/2-x,1/2+y,-z
1/2-x,1/2-y,-z
1/2+x,1/2-y,z
loop_
_atom_site_type_symbol
_atom_site_label
_atom_site_fract_x
_atom_site_fract_y
_atom_site_fract_z
Si Si1 0.760163 0.500000 0.118537
Si Si2 0.366615 0.500000 0.584406
Si Si3 0.847259 0.848465 0.548075
Si Si4 0.394007 0.145467 0.301211
Si Si5 0.421063 0.218505 0.030184
O O1 0.728598 0.570571 0.152896
O O2 0.070551 0.500000 0.363678
O O3 0.577597 0.500000 0.861249
O O4 0.393029 0.427855 0.547155
O O5 0.671889 0.853597 0.486201
O O6 0.160342 0.819421 0.847880
O O7 0.696097 0.793754 0.341775
O O8 0.500000 0.166297 0.500000
O O9 0.156859 0.199912 0.052416
O O10 0.500000 0.184854 0.000000
#
# Coordination Sequence:
#
# PCOD8112445 Si02
#       5
#     4   4   8   8   8
#     4  10  23  42  66 102 142 178 216 270 338 414
#     4  10  22  44  70 100 133 176 229 278 336 410
#     4  11  24  46  71  99 136 179 223 284 343 396
#     4  11  24  44  71 106 141 180 222 273 340 418
#     4  12  26  45  68 100 135 180 234 283 331 396
#
# _framework density 24.961334000000001
#
# number of rings (size 3 to 8) (size 9 to 14) (size 15 to 20)
#    0.000    1.000    0.000    7.125    0.000   10.000 
#    0.000    9.375    0.000    0.000    0.000    0.000 
#    0.000    0.000    0.000    0.000    0.000    0.000 
#
# Total GULP energy -198329.619671 kJ/mol
# GULP energy per Si atom -12395.601229 kJ/mol
# Density = 2.490452 g / cm^3
# Si number density = 24.961334 Si / 1000 Ang^3
#
#
#
# Elastic Constant Matrix: (Units=GPa)
#
#
# Indices 1 2 3 4 5 6 
#
# 1 102.2388 9.8616 12.2477 -0.0009 -4.0216 -0.0056
# 2 9.8616 215.0749 31.3885 -0.0194 -13.9112 -0.0306
# 3 12.2477 31.3885 122.0703 -0.0431 -1.6582 -0.0647
# 4 -0.0009 -0.0194 -0.0431 8.4068 0.0087 -47.8610
# 5 -4.0216 -13.9112 -1.6582 0.0087 34.2132 0.0081
# 6 -0.0056 -0.0306 -0.0647 -47.8610 0.0081 -24.1807
#
#
#
# Elastic Compliance Matrix: (Units=1/GPa)
#
#
# Indices 1 2 3 4 5 6 
#
# 1 0.009956 -0.000256 -0.000919 0.000000 0.001022 0.000001
# 2 -0.000256 0.004965 -0.001225 -0.000001 0.001929 -0.000001
# 3 -0.000919 -0.001225 0.008597 -0.000007 -0.000189 -0.000008
# 4 0.000000 -0.000001 -0.000007 0.009696 0.000001 -0.019191
# 5 0.001022 0.001929 -0.000189 0.000001 0.030124 0.000005
# 6 0.000001 -0.000001 -0.000008 -0.019191 0.000005 -0.003371
#
#
# Mechanical properties :
#
#
# Convention : Reuss Voigt Hill
#
# Bulk Modulus (GPa) = 53.42696 60.70883 57.06789
# Shear Modulus (GPa) = 70.41716 29.41361 49.91539
#
# Velocity S-wave (km/s) = 5.31712 3.43646 4.47666
# Velocity P-wave (km/s) = 7.69064 6.33400 7.04506
#
# Compressibility (1/GPa) = 0.01871714
#
# Stress axis : x y z
#
# Youngs Moduli (GPa) = 100.44157 201.41735 116.32566
#
# Poissons Ratio (x) = 0.05162 0.10692
# Poissons Ratio (y) = 0.02574 0.14246
# Poissons Ratio (z) = 0.09232 0.24668
#
# Static dielectric constant tensor:
#      x y z
#    x 4.412170 -0.000010 0.238700 
#    y -0.000010 2.044100 -0.000020 
#    z 0.238700 -0.000020 4.382150 
# 
# 
# High freq. dielectric constant tensor:
#      x y z
#    x 1.974520 0.000000 0.014550 
#    y 0.000000 2.016200 0.000000 
#    z 0.014550 0.000000 2.009640 
# 
# From -- ./inp_files/217831.got.cif
#   From: 2010.06.25/outbox.cif.g09.slc.cpg/sg12_109_cif.got.tgz:217831.got - 2010.06.28 00:19:55.
