data_PCOD8112737
_publ_section_title
;
Structure prediction by ZEFSAII (Michael W. Deem and Ramdas Pophale) SiO2 
 PCOD8112737
Probable space group: C 2/M
;
_chemical_formula_sum "Si O2"
_cell_formula_units_Z 56
_cell_length_a 25.582018
_cell_length_b 18.293326
_cell_length_c 18.326485
_cell_angle_alpha 90.000000
_cell_angle_beta 161.239063
_cell_angle_gamma 90.000000
_cell_volume 2758.353918
_symmetry_space_group_name_H-M "C 2/M"
_symmetry_group_IT_number 12
_symmetry_cell_setting 'monoclinic'
loop_
_space_group_symop_operation_xyz
x,y,z
-x,y,-z
-x,-y,-z
x,-y,z
1/2+x,1/2+y,z
1/2-x,1/2+y,-z
1/2-x,1/2-y,-z
1/2+x,1/2-y,z
loop_
_atom_site_type_symbol
_atom_site_label
_atom_site_fract_x
_atom_site_fract_y
_atom_site_fract_z
Si Si1 0.710829 0.582587 0.450308
Si Si2 0.169294 0.779836 0.198138
Si Si3 0.054351 0.334435 0.338615
Si Si4 0.231545 0.164297 0.983516
Si Si5 0.927689 0.807666 0.086787
Si Si6 0.979431 0.082334 0.554455
Si Si7 0.319169 0.113114 0.752764
O O1 0.667845 0.500000 0.369015
O O2 0.873770 0.608874 0.624627
O O3 0.562863 0.636508 0.235187
O O4 0.740241 0.582875 0.575167
O O5 0.320065 0.824462 0.429047
O O6 0.177871 0.700201 0.245050
O O7 0.175906 0.777798 0.118700
O O8 0.000000 0.816558 0.000000
O O9 0.014283 0.259111 0.243530
O O10 0.895346 0.371001 0.166601
O O11 0.196160 0.149269 0.022512
O O12 0.075481 0.136535 0.733813
O O13 0.250000 0.250000 0.000000
O O14 0.000000 0.111792 0.500000
O O15 0.789241 0.084679 0.323324
O O16 0.047910 0.000000 0.651988
O O17 0.500000 0.080885 0.000000
#
# Coordination Sequence:
#
# PCOD8112737 Si02
#       7
#     8   8   8   8   8   8   8
#     4  12  24  40  64  92 131 174 214 265 321 385
#     4  11  21  37  68  95 126 168 208 275 325 364
#     4  11  22  42  62  96 127 164 227 265 322 379
#     4  10  23  41  63  91 127 169 216 268 315 386
#     4  11  22  42  65  93 127 173 218 264 324 382
#     4  11  25  42  61  90 135 178 208 259 332 391
#     4  11  23  39  63  98 126 167 218 263 312 389
#
# _framework density 20.301964000000002
#
# number of rings (size 3 to 8) (size 9 to 14) (size 15 to 20)
#    0.000    1.000    4.286    3.429    6.000    2.286 
#    0.000    1.429    0.000    0.000    0.000    3.000 
#    0.000    0.000    0.000    0.000    0.000    0.000 
#
# Total GULP energy -347215.988402 kJ/mol
# GULP energy per Si atom -12400.571014 kJ/mol
# Density = 2.025576 g / cm^3
# Si number density = 20.301964 Si / 1000 Ang^3
#
#
#
# Elastic Constant Matrix: (Units=GPa)
#
#
# Indices 1 2 3 4 5 6 
#
# 1 141.0192 17.0182 49.4358 -0.0008 14.5238 -0.0004
# 2 17.0182 70.5876 21.0232 -0.0004 3.2782 -0.0001
# 3 49.4358 21.0232 93.6660 -0.0017 8.5030 -0.0011
# 4 -0.0008 -0.0004 -0.0017 6.7262 -0.0015 -5.8373
# 5 14.5238 3.2782 8.5030 -0.0015 49.1270 -0.0009
# 6 -0.0004 -0.0001 -0.0011 -5.8373 -0.0009 20.9952
#
#
#
# Elastic Compliance Matrix: (Units=1/GPa)
#
#
# Indices 1 2 3 4 5 6 
#
# 1 0.008900 -0.000762 -0.004360 -0.000001 -0.001826 0.000000
# 2 -0.000762 0.015256 -0.002997 0.000000 -0.000274 0.000000
# 3 -0.004360 -0.002997 0.013731 0.000004 -0.000887 0.000002
# 4 -0.000001 0.000000 0.000004 0.195953 0.000007 0.054481
# 5 -0.001826 -0.000274 -0.000887 0.000007 0.021067 0.000003
# 6 0.000000 0.000000 0.000002 0.054481 0.000003 0.062777
#
#
# Mechanical properties :
#
#
# Convention : Reuss Voigt Hill
#
# Bulk Modulus (GPa) = 46.19520 53.35855 49.77688
# Shear Modulus (GPa) = 14.65681 29.88940 22.27310
#
# Velocity S-wave (km/s) = 2.68981 3.84114 3.31583
# Velocity P-wave (km/s) = 5.69651 6.78322 6.26348
#
# Compressibility (1/GPa) = 0.02164727
#
# Stress axis : x y z
#
# Youngs Moduli (GPa) = 112.36174 65.54848 72.82876
#
# Poissons Ratio (x) = 0.04996 0.31756
# Poissons Ratio (y) = 0.08565 0.21827
# Poissons Ratio (z) = 0.48994 0.19645
#
# Static dielectric constant tensor:
#      x y z
#    x 4.096000 0.000000 0.385030 
#    y 0.000000 3.416840 0.000000 
#    z 0.385030 0.000000 3.887150 
# 
# 
# High freq. dielectric constant tensor:
#      x y z
#    x 1.810090 0.000000 0.013730 
#    y 0.000000 1.765810 0.000000 
#    z 0.013730 0.000000 1.789080 
# 
# From -- ./inp_files/290856.got.cif
#   From: 2010.06.25/outbox.cif.g09.slc.cpg/sg12_146_cif.got.tgz:290856.got - 2010.06.28 00:19:55.
