data_PCOD8112719
_publ_section_title
;
Structure prediction by ZEFSAII (Michael W. Deem and Ramdas Pophale) SiO2 
 PCOD8112719
Probable space group: C 2/M
;
_chemical_formula_sum "Si O2"
_cell_formula_units_Z 56
_cell_length_a 9.640176
_cell_length_b 25.438072
_cell_length_c 19.230045
_cell_angle_alpha 90.000000
_cell_angle_beta 139.809669
_cell_angle_gamma 90.000000
_cell_volume 3043.199976
_symmetry_space_group_name_H-M "C 2/M"
_symmetry_group_IT_number 12
_symmetry_cell_setting 'monoclinic'
loop_
_space_group_symop_operation_xyz
x,y,z
-x,y,-z
-x,-y,-z
x,-y,z
1/2+x,1/2+y,z
1/2-x,1/2+y,-z
1/2-x,1/2-y,-z
1/2+x,1/2-y,z
loop_
_atom_site_type_symbol
_atom_site_label
_atom_site_fract_x
_atom_site_fract_y
_atom_site_fract_z
Si Si1 0.558822 0.874503 0.691416
Si Si2 0.710308 0.689417 0.629119
Si Si3 0.250838 0.560410 0.107528
Si Si4 0.427076 0.560379 0.894027
Si Si5 0.708548 0.191102 0.626267
Si Si6 0.342418 0.438339 0.500817
Si Si7 0.439900 0.373651 0.304723
O O1 0.425006 0.825380 0.669734
O O2 0.722755 0.901841 0.806926
O O3 0.702261 0.851105 0.685069
O O4 0.398530 0.919466 0.604012
O O5 0.500000 0.681674 0.500000
O O6 0.730568 0.749450 0.661817
O O7 0.718380 0.651033 0.698640
O O8 0.292984 0.500000 0.146337
O O9 0.382107 0.573620 0.087401
O O10 0.316373 0.600049 0.193721
O O11 0.000000 0.570068 0.000000
O O12 0.354467 0.500000 0.856632
O O13 0.500000 0.571125 0.000000
O O14 0.500000 0.185059 0.500000
O O15 0.916213 0.176132 0.661334
O O16 0.500000 0.417045 0.500000
O O17 0.343850 0.500000 0.502850
O O18 0.416908 0.418475 0.604478
#
# Coordination Sequence:
#
# PCOD8112719 Si02
#       7
#     8   8   8   8   8   8   8
#     4  12  20  39  58  88 120 154 195 244 299 343
#     4  11  22  38  59  88 121 161 206 236 284 360
#     4  10  23  41  62  88 116 154 200 242 292 356
#     4  10  23  41  62  88 116 154 200 242 292 356
#     4  11  22  36  61  88 121 155 198 250 292 348
#     4  11  22  35  54  88 125 160 193 233 292 361
#     4  12  20  39  58  88 120 154 195 244 299 343
#
# _framework density 18.401682999999998
#
# number of rings (size 3 to 8) (size 9 to 14) (size 15 to 20)
#    0.000    1.000    5.714    1.714    2.000    2.286 
#    0.000    0.714    0.000    5.143    0.000    0.000 
#    0.000    0.000    0.000    0.000    0.000    0.000 
#
# Total GULP energy -347209.497551 kJ/mol
# GULP energy per Si atom -12400.339198 kJ/mol
# Density = 1.835980 g / cm^3
# Si number density = 18.401683 Si / 1000 Ang^3
#
#
#
# Elastic Constant Matrix: (Units=GPa)
#
#
# Indices 1 2 3 4 5 6 
#
# 1 76.9669 29.9625 35.3080 0.0000 -6.6273 0.0000
# 2 29.9625 100.9807 52.0642 0.0000 -6.1560 0.0000
# 3 35.3080 52.0642 104.0420 0.0014 -5.6118 0.0003
# 4 0.0000 0.0000 0.0014 32.6258 0.0002 -0.2508
# 5 -6.6273 -6.1560 -5.6118 0.0002 32.4821 0.0000
# 6 0.0000 0.0000 0.0003 -0.2508 0.0000 27.4398
#
#
#
# Elastic Compliance Matrix: (Units=1/GPa)
#
#
# Indices 1 2 3 4 5 6 
#
# 1 0.016020 -0.002535 -0.004055 0.000000 0.002087 0.000000
# 2 -0.002535 0.013810 -0.005993 0.000000 0.001065 0.000000
# 3 -0.004055 -0.005993 0.014011 -0.000001 0.000458 0.000000
# 4 0.000000 0.000000 -0.000001 0.030653 0.000000 0.000280
# 5 0.002087 0.001065 0.000458 0.000000 0.031493 0.000000
# 6 0.000000 0.000000 0.000000 0.000280 0.000000 0.036446
#
#
# Mechanical properties :
#
#
# Convention : Reuss Voigt Hill
#
# Bulk Modulus (GPa) = 53.54997 57.40654 55.47826
# Shear Modulus (GPa) = 28.76480 29.48654 29.12567
#
# Velocity S-wave (km/s) = 3.95797 4.00732 3.98272
# Velocity P-wave (km/s) = 7.07468 7.25779 7.16682
#
# Compressibility (1/GPa) = 0.01867415
#
# Stress axis : x y z
#
# Youngs Moduli (GPa) = 62.42378 72.41210 71.37102
#
# Poissons Ratio (x) = 0.18358 0.28942
# Poissons Ratio (y) = 0.15826 0.42772
# Poissons Ratio (z) = 0.25314 0.43396
#
# Static dielectric constant tensor:
#      x y z
#    x 3.517860 0.000000 -0.027470 
#    y 0.000000 3.406360 0.000000 
#    z -0.027470 0.000000 3.157180 
# 
# 
# High freq. dielectric constant tensor:
#      x y z
#    x 1.727100 0.000000 -0.001310 
#    y 0.000000 1.723520 0.000000 
#    z -0.001310 0.000000 1.692070 
# 
# From -- ./inp_files/124231.got.cif
#   From: 2010.06.25/outbox.cif.g09.slc.cpg/sg12_63_cif.got.tgz:124231.got - 2010.06.28 00:19:55.
