data_PCOD8112773
_publ_section_title
;
Structure prediction by ZEFSAII (Michael W. Deem and Ramdas Pophale) SiO2 
 PCOD8112773
Probable space group: C 2/M
;
_chemical_formula_sum "Si O2"
_cell_formula_units_Z 40
_cell_length_a 5.069269
_cell_length_b 17.343286
_cell_length_c 19.840411
_cell_angle_alpha 90.000000
_cell_angle_beta 83.694043
_cell_angle_gamma 90.000000
_cell_volume 1733.770964
_symmetry_space_group_name_H-M "C 2/M"
_symmetry_group_IT_number 12
_symmetry_cell_setting 'monoclinic'
loop_
_space_group_symop_operation_xyz
x,y,z
-x,y,-z
-x,-y,-z
x,-y,z
1/2+x,1/2+y,z
1/2-x,1/2+y,-z
1/2-x,1/2-y,-z
1/2+x,1/2-y,z
loop_
_atom_site_type_symbol
_atom_site_label
_atom_site_fract_x
_atom_site_fract_y
_atom_site_fract_z
Si Si1 0.709055 0.303236 0.269144
Si Si2 0.983318 0.299838 0.578636
Si Si3 0.234621 0.408648 0.038520
Si Si4 0.476082 0.912333 0.813649
Si Si5 0.697543 0.412823 0.677724
O O1 0.499731 0.233018 0.276659
O O2 0.584680 0.368403 0.322329
O O3 0.772532 0.353140 0.199453
O O4 0.761713 0.233797 0.597923
O O5 0.918088 0.376354 0.622081
O O6 0.000000 0.321900 0.500000
O O7 0.244449 0.500000 0.031040
O O8 0.198740 0.385719 0.117765
O O9 0.500000 0.371634 0.000000
O O10 0.000000 0.373938 0.000000
O O11 0.297524 0.906951 0.751744
O O12 0.584213 0.000000 0.820700
O O13 0.650920 0.500000 0.655911
#
# Coordination Sequence:
#
# PCOD8112773 Si02
#       5
#     8   8   8   8   8
#     4  12  24  41  62  90 127 171 217 257 317 388
#     4  10  23  44  68  95 131 176 220 259 311 385
#     4   9  19  35  59  89 123 164 210 261 319 382
#     4  10  23  41  65  99 132 164 215 276 328 377
#     4  11  24  41  66 101 136 167 213 274 331 379
#
# _framework density 23.071099
#
# number of rings (size 3 to 8) (size 9 to 14) (size 15 to 20)
#    0.000    1.600    2.000    1.800    5.600    0.400 
#    0.000    0.000    0.000    7.200    0.000    0.000 
#    0.000    0.000    0.000    0.000    0.000    0.000 
#
# Total GULP energy -247782.671817 kJ/mol
# GULP energy per Si atom -12389.133591 kJ/mol
# Density = 2.301859 g / cm^3
# Si number density = 23.071099 Si / 1000 Ang^3
#
#
#
# Elastic Constant Matrix: (Units=GPa)
#
#
# Indices 1 2 3 4 5 6 
#
# 1 137.9142 47.8088 50.3692 0.0000 -16.8067 0.0000
# 2 47.8088 136.9187 53.3147 0.0000 -19.1861 0.0000
# 3 50.3692 53.3147 124.1037 0.0000 -18.5111 0.0000
# 4 0.0000 0.0000 0.0000 25.1200 0.0000 -14.6323
# 5 -16.8067 -19.1861 -18.5111 0.0000 40.6081 0.0000
# 6 0.0000 0.0000 0.0000 -14.6323 0.0000 28.8034
#
#
#
# Elastic Compliance Matrix: (Units=1/GPa)
#
#
# Indices 1 2 3 4 5 6 
#
# 1 0.009071 -0.001919 -0.002610 0.000000 0.001658 0.000000
# 2 -0.001919 0.009441 -0.002929 0.000000 0.002331 0.000000
# 3 -0.002610 -0.002929 0.010738 0.000000 0.002431 0.000000
# 4 0.000000 0.000000 0.000000 0.056540 0.000000 0.028722
# 5 0.001658 0.002331 0.002431 0.000000 0.027521 0.000000
# 6 0.000000 0.000000 0.000000 0.028722 0.000000 0.049309
#
#
# Mechanical properties :
#
#
# Convention : Reuss Voigt Hill
#
# Bulk Modulus (GPa) = 69.76476 77.99134 73.87805
# Shear Modulus (GPa) = 27.42508 35.40256 31.41382
#
# Velocity S-wave (km/s) = 3.45152 3.92152 3.69400
# Velocity P-wave (km/s) = 6.79623 7.37445 7.09124
#
# Compressibility (1/GPa) = 0.01433389
#
# Stress axis : x y z
#
# Youngs Moduli (GPa) = 110.23681 105.92203 93.12628
#
# Poissons Ratio (x) = 0.20325 0.24307
# Poissons Ratio (y) = 0.21153 0.27280
# Poissons Ratio (z) = 0.28773 0.31028
#
# Static dielectric constant tensor:
#      x y z
#    x 4.318600 0.000000 -0.378310 
#    y 0.000000 4.300920 0.000000 
#    z -0.378310 0.000000 4.442370 
# 
# 
# High freq. dielectric constant tensor:
#      x y z
#    x 1.917520 0.000000 -0.024260 
#    y 0.000000 1.896150 0.000000 
#    z -0.024260 0.000000 1.913830 
# 
# From -- ./inp_files/297568.got.cif
#   From: 2010.06.25/outbox.cif.g09.slc.cpg/sg12_149_cif.got.tgz:297568.got - 2010.06.28 00:19:55.
