data_PCOD8112505
_publ_section_title
;
Structure prediction by ZEFSAII (Michael W. Deem and Ramdas Pophale) SiO2 
 PCOD8112505
Probable space group: C 2/M
;
_chemical_formula_sum "Si O2"
_cell_formula_units_Z 56
_cell_length_a 21.344220
_cell_length_b 23.889329
_cell_length_c 8.684329
_cell_angle_alpha 90.000000
_cell_angle_beta 139.353687
_cell_angle_gamma 90.000000
_cell_volume 2884.430538
_symmetry_space_group_name_H-M "C 2/M"
_symmetry_group_IT_number 12
_symmetry_cell_setting 'monoclinic'
loop_
_space_group_symop_operation_xyz
x,y,z
-x,y,-z
-x,-y,-z
x,-y,z
1/2+x,1/2+y,z
1/2-x,1/2+y,-z
1/2-x,1/2-y,-z
1/2+x,1/2-y,z
loop_
_atom_site_type_symbol
_atom_site_label
_atom_site_fract_x
_atom_site_fract_y
_atom_site_fract_z
Si Si1 0.375456 0.564544 0.431913
Si Si2 0.905911 0.063889 0.136929
Si Si3 0.538617 0.255279 0.235357
Si Si4 0.282132 0.663011 0.432800
Si Si5 0.159939 0.745840 0.006063
Si Si6 0.743133 0.642811 0.266675
Si Si7 0.098898 0.676125 0.608411
O O1 0.342765 0.500000 0.391807
O O2 0.379744 0.581865 0.261327
O O3 0.482773 0.572940 0.697768
O O4 0.300572 0.604428 0.379763
O O5 0.877196 0.000000 0.057546
O O6 0.844504 0.100123 0.904261
O O7 0.616291 0.304807 0.363102
O O8 0.582596 0.205019 0.413367
O O9 0.500000 0.233472 0.000000
O O10 0.442712 0.274220 0.145461
O O11 0.198652 0.697028 0.190625
O O12 0.237285 0.651942 0.516832
O O13 0.229202 0.798364 0.150954
O O14 0.152059 0.720309 0.820768
O O15 0.834974 0.623791 0.330322
O O16 0.000000 0.653587 0.500000
#
# Coordination Sequence:
#
# PCOD8112505 Si02
#       7
#     8   8   8   8   8   8   8
#     4   9  20  38  56  81 114 151 192 234 279 335
#     4   9  20  37  58  82 112 150 193 235 277 332
#     4  11  21  36  51  79 120 147 183 229 285 337
#     4  12  23  35  56  84 118 157 187 230 291 341
#     4  11  22  36  54  81 113 148 195 232 275 345
#     4  12  21  35  54  80 113 149 186 236 281 340
#     4  10  23  37  55  78 109 155 191 237 284 336
#
# _framework density 19.414577999999999
#
# number of rings (size 3 to 8) (size 9 to 14) (size 15 to 20)
#    0.000    1.429    2.857    4.286    2.000    0.571 
#    0.000    1.429    0.000    0.429    0.000    3.000 
#    0.000   12.571    0.000    0.000    0.000    0.000 
#
# Total GULP energy -346920.525659 kJ/mol
# GULP energy per Si atom -12390.018774 kJ/mol
# Density = 1.937039 g / cm^3
# Si number density = 19.414578 Si / 1000 Ang^3
#
#
#
# Elastic Constant Matrix: (Units=GPa)
#
#
# Indices 1 2 3 4 5 6 
#
# 1 90.8729 19.5772 4.2135 0.0000 -4.6094 0.0000
# 2 19.5772 49.5371 16.5273 0.0000 5.4390 0.0000
# 3 4.2135 16.5273 78.6605 0.0000 -13.7565 0.0000
# 4 0.0000 0.0000 0.0000 25.2898 0.0000 11.3793
# 5 -4.6094 5.4390 -13.7565 0.0000 24.5443 0.0000
# 6 0.0000 0.0000 0.0000 11.3793 0.0000 -4.8298
#
#
#
# Elastic Compliance Matrix: (Units=1/GPa)
#
#
# Indices 1 2 3 4 5 6 
#
# 1 0.012420 -0.005829 0.001323 0.000000 0.004366 0.000000
# 2 -0.005829 0.026029 -0.007048 0.000000 -0.010813 0.000000
# 3 0.001323 -0.007048 0.016008 0.000000 0.010783 0.000000
# 4 0.000000 0.000000 0.000000 0.019194 0.000000 0.045222
# 5 0.004366 -0.010813 0.010783 0.000000 0.050002 0.000000
# 6 0.000000 0.000000 0.000000 0.045222 0.000000 -0.100503
#
#
# Mechanical properties :
#
#
# Convention : Reuss Voigt Hill
#
# Bulk Modulus (GPa) = 31.89797 33.30073 32.59935
# Shear Modulus (GPa) = 88.16929 20.91770 54.54349
#
# Velocity S-wave (km/s) = 6.74630 3.28597 5.30614
# Velocity P-wave (km/s) = 8.78345 5.62019 7.37345
#
# Compressibility (1/GPa) = 0.03134996
#
# Stress axis : x y z
#
# Youngs Moduli (GPa) = 80.51318 38.41832 62.46686
#
# Poissons Ratio (x) = 0.22395 -0.08264
# Poissons Ratio (y) = 0.46934 0.44025
# Poissons Ratio (z) = -0.10652 0.27076
#
# Static dielectric constant tensor:
#      x y z
#    x 3.717000 0.000000 0.138890 
#    y 0.000000 3.190790 0.000000 
#    z 0.138890 0.000000 3.791770 
# 
# 
# High freq. dielectric constant tensor:
#      x y z
#    x 1.773560 0.000000 -0.002600 
#    y 0.000000 1.711700 0.000000 
#    z -0.002600 0.000000 1.762820 
# 
# From -- ./inp_files/99696.got.cif
#   From: 2010.06.25/outbox.cif.g09.slc.cpg/sg12_50_cif.got.tgz:99696.got - 2010.06.28 00:19:55.
