data_PCOD8112091
_publ_section_title
;
Structure prediction by ZEFSAII (Michael W. Deem and Ramdas Pophale) SiO2 
 PCOD8112091
Probable space group: C 2/M
;
_chemical_formula_sum "Si O2"
_cell_formula_units_Z 28
_cell_length_a 15.125757
_cell_length_b 9.318870
_cell_length_c 14.392247
_cell_angle_alpha 90.000000
_cell_angle_beta 36.981092
_cell_angle_gamma 90.000000
_cell_volume 1220.342520
_symmetry_space_group_name_H-M "C 2/M"
_symmetry_group_IT_number 12
_symmetry_cell_setting 'monoclinic'
loop_
_space_group_symop_operation_xyz
x,y,z
-x,y,-z
-x,-y,-z
x,-y,z
1/2+x,1/2+y,z
1/2-x,1/2+y,-z
1/2-x,1/2-y,-z
1/2+x,1/2-y,z
loop_
_atom_site_type_symbol
_atom_site_label
_atom_site_fract_x
_atom_site_fract_y
_atom_site_fract_z
Si Si1 0.030980 0.333871 0.638520
Si Si2 0.662233 0.658722 0.691059
Si Si3 0.500000 0.753404 0.000000
Si Si4 0.264714 0.661217 0.893262
O O1 0.984795 0.500000 0.686540
O O2 0.161925 0.311097 0.454165
O O3 0.083204 0.279078 0.695960
O O4 0.889773 0.240480 0.726367
O O5 0.637963 0.500000 0.667743
O O6 0.596681 0.656663 0.849487
O O7 0.613226 0.849348 0.963648
O O8 0.314772 0.500000 0.875847
O O9 0.250000 0.750000 0.000000
#
# Coordination Sequence:
#
# PCOD8112091 Si02
#       4
#     8   8   4   8
#     4  10  22  42  68  98 137 180 224 277 338 400
#     4  10  22  41  68 101 136 179 227 276 333 401
#     4  12  26  42  70 104 140 174 230 284 334 400
#     4  12  26  45  69 100 137 179 226 280 341 403
#
# _framework density 22.944379000000001
#
# number of rings (size 3 to 8) (size 9 to 14) (size 15 to 20)
#    0.000    1.143    2.857    2.571    0.000    6.857 
#    0.000    4.286    0.000    0.000    0.000    0.000 
#    0.000    0.000    0.000    0.000    0.000    0.000 
#
# Total GULP energy -173562.754357 kJ/mol
# GULP energy per Si atom -12397.339597 kJ/mol
# Density = 2.289216 g / cm^3
# Si number density = 22.944379 Si / 1000 Ang^3
#
#
#
# Elastic Constant Matrix: (Units=GPa)
#
#
# Indices 1 2 3 4 5 6 
#
# 1 97.0985 39.7468 54.4136 0.0000 -21.0739 0.0000
# 2 39.7468 169.4877 66.0176 0.0000 -14.8345 0.0000
# 3 54.4136 66.0176 187.4784 0.0000 -6.2648 0.0000
# 4 0.0000 0.0000 0.0000 25.9650 0.0000 -4.3594
# 5 -21.0739 -14.8345 -6.2648 0.0000 41.2775 0.0000
# 6 0.0000 0.0000 0.0000 -4.3594 0.0000 20.2369
#
#
#
# Elastic Compliance Matrix: (Units=1/GPa)
#
#
# Indices 1 2 3 4 5 6 
#
# 1 0.014131 -0.001456 -0.003382 0.000000 0.006178 0.000000
# 2 -0.001456 0.007175 -0.002053 0.000000 0.001524 0.000000
# 3 -0.003382 -0.002053 0.006992 0.000000 -0.001403 0.000000
# 4 0.000000 0.000000 0.000000 0.039959 0.000000 0.008608
# 5 0.006178 0.001524 -0.001403 0.000000 0.027715 0.000000
# 6 0.000000 0.000000 0.000000 0.008608 0.000000 0.051269
#
#
# Mechanical properties :
#
#
# Convention : Reuss Voigt Hill
#
# Bulk Modulus (GPa) = 68.89346 86.04673 77.47009
# Shear Modulus (GPa) = 30.14586 37.08831 33.61709
#
# Velocity S-wave (km/s) = 3.62866 4.02486 3.83189
# Velocity P-wave (km/s) = 6.90273 7.69306 7.30859
#
# Compressibility (1/GPa) = 0.01451517
#
# Stress axis : x y z
#
# Youngs Moduli (GPa) = 70.76657 139.38196 143.02756
#
# Poissons Ratio (x) = 0.20290 0.48376
# Poissons Ratio (y) = 0.10301 0.29363
# Poissons Ratio (z) = 0.23935 0.28615
#
# Static dielectric constant tensor:
#      x y z
#    x 3.830770 0.000000 -0.402710 
#    y 0.000000 3.985240 0.000000 
#    z -0.402710 0.000000 4.719110 
# 
# 
# High freq. dielectric constant tensor:
#      x y z
#    x 1.879100 0.000000 -0.021380 
#    y 0.000000 1.903980 0.000000 
#    z -0.021380 0.000000 1.930280 
# 
# From -- ./inp_files/211124.got.cif
#   From: 2010.06.25/outbox.cif.g09.slc.cpg/sg12_106_cif.got.tgz:211124.got - 2010.06.28 00:19:55.
