data_PCOD8112859
_publ_section_title
;
Structure prediction by ZEFSAII (Michael W. Deem and Ramdas Pophale) SiO2 
 PCOD8112859
Probable space group: C 2/M
;
_chemical_formula_sum "Si O2"
_cell_formula_units_Z 56
_cell_length_a 18.590515
_cell_length_b 8.718966
_cell_length_c 20.573214
_cell_angle_alpha 90.000000
_cell_angle_beta 53.922843
_cell_angle_gamma 90.000000
_cell_volume 2695.198027
_symmetry_space_group_name_H-M "C 2/M"
_symmetry_group_IT_number 12
_symmetry_cell_setting 'monoclinic'
loop_
_space_group_symop_operation_xyz
x,y,z
-x,y,-z
-x,-y,-z
x,-y,z
1/2+x,1/2+y,z
1/2-x,1/2+y,-z
1/2-x,1/2-y,-z
1/2+x,1/2-y,z
loop_
_atom_site_type_symbol
_atom_site_label
_atom_site_fract_x
_atom_site_fract_y
_atom_site_fract_z
Si Si1 0.023050 0.178029 0.707083
Si Si2 0.165918 0.679435 0.008199
Si Si3 0.164543 0.179538 0.867804
Si Si4 0.972603 0.679026 0.159375
Si Si5 0.659605 0.681448 0.524336
Si Si6 0.654523 0.322879 0.268602
Si Si7 0.399059 0.828918 0.573405
O O1 0.918922 0.207885 0.747975
O O2 0.053523 0.273098 0.753768
O O3 0.080550 0.234063 0.614728
O O4 0.041273 0.000000 0.711636
O O5 0.182414 0.500000 0.996609
O O6 0.154219 0.738107 0.941749
O O7 0.250000 0.750000 0.000000
O O8 0.075938 0.721686 0.094285
O O9 0.087255 0.231753 0.860419
O O10 0.260678 0.216773 0.787394
O O11 0.155878 0.000000 0.883695
O O12 0.954530 0.500000 0.159208
O O13 0.662613 0.500000 0.517309
O O14 0.750000 0.750000 0.500000
O O15 0.652958 0.752357 0.457162
O O16 0.683955 0.500000 0.253155
O O17 0.610643 0.281303 0.360170
O O18 0.500000 0.839652 0.500000
O O19 0.361419 0.000000 0.607829
#
# Coordination Sequence:
#
# PCOD8112859 Si02
#       7
#     8   8   8   8   8   8   8
#     4  10  23  42  64  91 125 166 213 263 316 380
#     4  11  24  44  70 100 132 169 214 258 311 377
#     4  12  26  43  66  97 132 169 211 262 318 377
#     4  11  25  43  66  95 130 170 212 260 313 375
#     4  11  24  42  63  90 126 168 216 266 322 382
#     4  11  23  42  67  93 126 168 214 265 320 380
#     4  11  23  40  64  94 127 166 213 266 321 379
#
# _framework density 20.777694
#
# number of rings (size 3 to 8) (size 9 to 14) (size 15 to 20)
#    0.000    1.000    1.429    4.714    2.000    9.143 
#    0.000    0.000    0.000    0.000    0.000    0.000 
#    0.000    0.000    0.000    0.000    0.000    0.000 
#
# Total GULP energy -347327.430589 kJ/mol
# GULP energy per Si atom -12404.551092 kJ/mol
# Density = 2.073040 g / cm^3
# Si number density = 20.777694 Si / 1000 Ang^3
#
#
#
# Elastic Constant Matrix: (Units=GPa)
#
#
# Indices 1 2 3 4 5 6 
#
# 1 118.1882 49.4577 21.1075 0.0000 10.7224 0.0000
# 2 49.4577 49.2791 17.4449 0.0001 -9.6783 -0.0002
# 3 21.1075 17.4449 67.7674 0.0000 10.0549 0.0000
# 4 0.0000 0.0001 0.0000 40.9266 0.0000 5.0762
# 5 10.7224 -9.6783 10.0549 0.0000 40.9291 0.0000
# 6 0.0000 -0.0002 0.0000 5.0762 0.0000 38.0876
#
#
#
# Elastic Compliance Matrix: (Units=1/GPa)
#
#
# Indices 1 2 3 4 5 6 
#
# 1 0.017349 -0.019641 0.001054 0.000000 -0.009448 0.000000
# 2 -0.019641 0.046641 -0.008602 0.000000 0.018288 0.000000
# 3 0.001054 -0.008602 0.017628 0.000000 -0.006641 0.000000
# 4 0.000000 0.000000 0.000000 0.024845 0.000000 -0.003311
# 5 -0.009448 0.018288 -0.006641 0.000000 0.032864 0.000000
# 6 0.000000 0.000000 0.000000 -0.003311 0.000000 0.026697
#
#
# Mechanical properties :
#
#
# Convention : Reuss Voigt Hill
#
# Bulk Modulus (GPa) = 36.71047 45.69498 41.20272
# Shear Modulus (GPa) = 21.78833 33.80365 27.79599
#
# Velocity S-wave (km/s) = 3.24178 4.03789 3.66154
# Velocity P-wave (km/s) = 5.63194 6.61660 6.14403
#
# Compressibility (1/GPa) = 0.02724019
#
# Stress axis : x y z
#
# Youngs Moduli (GPa) = 57.64052 21.44024 56.72846
#
# Poissons Ratio (x) = 0.42110 -0.05980
# Poissons Ratio (y) = 1.13209 0.48801
# Poissons Ratio (z) = -0.06076 0.18444
#
# Static dielectric constant tensor:
#      x y z
#    x 3.833160 0.000000 0.000460 
#    y 0.000000 3.120680 -0.000010 
#    z 0.000460 -0.000010 4.039480 
# 
# 
# High freq. dielectric constant tensor:
#      x y z
#    x 1.828460 0.000000 0.003520 
#    y 0.000000 1.823400 0.000000 
#    z 0.003520 0.000000 1.822860 
# 
# From -- ./inp_files/313741.got.cif
#   From: 2010.06.25/outbox.cif.g09.slc.cpg/sg12_157_cif.got.tgz:313741.got - 2010.06.28 00:19:55.
