data_PCOD8112008
_publ_section_title
;
Structure prediction by ZEFSAII (Michael W. Deem and Ramdas Pophale) SiO2 
 PCOD8112008
Probable space group: C 2/M
;
_chemical_formula_sum "Si O2"
_cell_formula_units_Z 56
_cell_length_a 11.766720
_cell_length_b 18.694867
_cell_length_c 13.876077
_cell_angle_alpha 90.000000
_cell_angle_beta 119.209016
_cell_angle_gamma 90.000000
_cell_volume 2664.291729
_symmetry_space_group_name_H-M "C 2/M"
_symmetry_group_IT_number 12
_symmetry_cell_setting 'monoclinic'
loop_
_space_group_symop_operation_xyz
x,y,z
-x,y,-z
-x,-y,-z
x,-y,z
1/2+x,1/2+y,z
1/2-x,1/2+y,-z
1/2-x,1/2-y,-z
1/2+x,1/2-y,z
loop_
_atom_site_type_symbol
_atom_site_label
_atom_site_fract_x
_atom_site_fract_y
_atom_site_fract_z
Si Si1 0.596938 0.916568 0.326107
Si Si2 0.113953 0.920589 0.779401
Si Si3 0.400382 0.080866 0.886426
Si Si4 0.740677 0.669563 0.461601
Si Si5 0.537310 0.696511 0.626522
Si Si6 0.921330 0.915734 0.870854
Si Si7 0.654245 0.847502 0.700407
O O1 0.596816 0.883170 0.218362
O O2 0.714790 0.879782 0.432239
O O3 0.456838 0.903290 0.316788
O O4 0.628646 0.000000 0.339258
O O5 0.260517 0.919260 0.881303
O O6 0.129457 0.869865 0.690938
O O7 0.016048 0.895023 0.822073
O O8 0.076009 0.000000 0.728028
O O9 0.450671 0.000000 0.890818
O O10 0.500000 0.121232 0.000000
O O11 0.750000 0.750000 0.500000
O O12 0.589766 0.664386 0.371191
O O13 0.827908 0.648681 0.406909
O O14 0.500000 0.708368 0.500000
O O15 0.599420 0.767520 0.700197
O O16 0.789042 0.867993 0.810337
O O17 0.884256 0.000000 0.852910
O O18 0.000000 0.896419 0.000000
#
# Coordination Sequence:
#
# PCOD8112008 Si02
#       7
#     8   8   8   8   8   8   8
#     4  11  24  40  66 101 131 164 217 276 324 383
#     4  10  22  41  65  95 126 166 221 268 316 385
#     4   9  20  39  64  94 128 166 211 266 325 382
#     4  12  23  42  62  91 132 173 211 254 324 389
#     4  12  23  39  66  89 130 177 207 256 320 386
#     4  10  23  43  68  95 129 170 214 268 327 384
#     4  12  24  41  67  96 129 171 217 264 326 394
#
# _framework density 21.018718
#
# number of rings (size 3 to 8) (size 9 to 14) (size 15 to 20)
#    0.000    1.143    4.286    1.714    2.000    2.571 
#    0.000    1.429    0.000    0.000    0.000    0.000 
#    0.000    0.000    0.000    0.000    0.000    0.000 
#
# Total GULP energy -346906.446831 kJ/mol
# GULP energy per Si atom -12389.515958 kJ/mol
# Density = 2.097088 g / cm^3
# Si number density = 21.018718 Si / 1000 Ang^3
#
#
#
# Elastic Constant Matrix: (Units=GPa)
#
#
# Indices 1 2 3 4 5 6 
#
# 1 112.9039 30.0124 47.5765 0.0000 9.2563 0.0000
# 2 30.0124 96.2169 68.9554 0.0000 7.0660 0.0000
# 3 47.5765 68.9554 142.5813 0.0000 10.5832 0.0000
# 4 0.0000 0.0000 0.0000 32.2333 0.0000 8.2456
# 5 9.2563 7.0660 10.5832 0.0000 33.2653 0.0000
# 6 0.0000 0.0000 0.0000 8.2456 0.0000 29.9891
#
#
#
# Elastic Compliance Matrix: (Units=1/GPa)
#
#
# Indices 1 2 3 4 5 6 
#
# 1 0.010492 -0.001114 -0.002830 0.000000 -0.001783 0.000000
# 2 -0.001114 0.016054 -0.007336 0.000000 -0.000766 0.000000
# 3 -0.002830 -0.007336 0.011605 0.000000 -0.001347 0.000000
# 4 0.000000 0.000000 0.000000 0.033371 0.000000 -0.009175
# 5 -0.001783 -0.000766 -0.001347 0.000000 0.031149 0.000000
# 6 0.000000 0.000000 0.000000 -0.009175 0.000000 0.035868
#
#
# Mechanical properties :
#
#
# Convention : Reuss Voigt Hill
#
# Bulk Modulus (GPa) = 64.13190 71.64344 67.88767
# Shear Modulus (GPa) = 30.06702 32.77472 31.42087
#
# Velocity S-wave (km/s) = 3.78628 3.95310 3.87059
# Velocity P-wave (km/s) = 7.04930 7.41589 7.23492
#
# Compressibility (1/GPa) = 0.01559286
#
# Stress axis : x y z
#
# Youngs Moduli (GPa) = 95.31269 62.28974 86.16617
#
# Poissons Ratio (x) = 0.06936 0.24386
# Poissons Ratio (y) = 0.10613 0.63208
# Poissons Ratio (z) = 0.26974 0.45693
#
# Static dielectric constant tensor:
#      x y z
#    x 3.600160 0.000000 0.056450 
#    y 0.000000 3.680650 0.000000 
#    z 0.056450 0.000000 4.734000 
# 
# 
# High freq. dielectric constant tensor:
#      x y z
#    x 1.842210 0.000000 0.010400 
#    y 0.000000 1.805310 0.000000 
#    z 0.010400 0.000000 1.822540 
# 
# From -- ./inp_files/206745.got.cif
#   From: 2010.06.25/outbox.cif.g09.slc.cpg/sg12_104_cif.got.tgz:206745.got - 2010.06.28 00:19:55.
