data_PCOD8112433
_publ_section_title
;
Structure prediction by ZEFSAII (Michael W. Deem and Ramdas Pophale) SiO2 
 PCOD8112433
Probable space group: C 2/M
;
_chemical_formula_sum "Si O2"
_cell_formula_units_Z 48
_cell_length_a 11.654416
_cell_length_b 20.896108
_cell_length_c 11.944868
_cell_angle_alpha 90.000000
_cell_angle_beta 130.888671
_cell_angle_gamma 90.000000
_cell_volume 2199.121659
_symmetry_space_group_name_H-M "C 2/M"
_symmetry_group_IT_number 12
_symmetry_cell_setting 'monoclinic'
loop_
_space_group_symop_operation_xyz
x,y,z
-x,y,-z
-x,-y,-z
x,-y,z
1/2+x,1/2+y,z
1/2-x,1/2+y,-z
1/2-x,1/2-y,-z
1/2+x,1/2-y,z
loop_
_atom_site_type_symbol
_atom_site_label
_atom_site_fract_x
_atom_site_fract_y
_atom_site_fract_z
Si Si1 0.089346 0.260582 0.165359
Si Si2 0.330651 0.427046 0.859303
Si Si3 0.589245 0.124503 0.863917
Si Si4 0.713820 0.630160 0.803661
Si Si5 0.378896 0.361624 0.674919
Si Si6 0.227422 0.428817 0.380932
O O1 0.231181 0.302788 0.214091
O O2 0.158107 0.205654 0.288611
O O3 0.973423 0.303211 0.165614
O O4 0.000000 0.232179 0.000000
O O5 0.292272 0.500000 0.867441
O O6 0.214939 0.379219 0.847160
O O7 0.320718 0.417868 0.719609
O O8 0.500000 0.407404 0.000000
O O9 0.453430 0.076619 0.747259
O O10 0.661356 0.104032 0.029050
O O11 0.557877 0.637031 0.769460
O O12 0.694353 0.579895 0.690368
O O13 0.288362 0.373168 0.502316
O O14 0.267831 0.500000 0.450394
#
# Coordination Sequence:
#
# PCOD8112433 Si02
#       6
#     8   8   8   8   8   8
#     4   9  22  40  70  98 130 169 219 273 325 382
#     4  11  23  39  64  98 133 173 219 267 323 387
#     4  10  22  44  67  98 128 169 221 268 320 392
#     4  10  23  42  66 100 127 166 222 269 324 384
#     4  12  24  40  65  97 135 171 216 267 330 391
#     4  11  25  44  65  92 131 175 217 268 325 386
#
# _framework density 21.826896000000001
#
# number of rings (size 3 to 8) (size 9 to 14) (size 15 to 20)
#    0.000    1.500    1.667    3.500    2.333    8.667 
#    0.000    1.667    0.000    0.000    0.000    0.000 
#    0.000    0.000    0.000    0.000    0.000    0.000 
#
# Total GULP energy -297601.134890 kJ/mol
# GULP energy per Si atom -12400.047287 kJ/mol
# Density = 2.177722 g / cm^3
# Si number density = 21.826896 Si / 1000 Ang^3
#
#
#
# Elastic Constant Matrix: (Units=GPa)
#
#
# Indices 1 2 3 4 5 6 
#
# 1 135.7423 41.3992 33.1453 0.0000 -11.4828 0.0000
# 2 41.3992 110.5134 48.3603 0.0000 -5.0629 0.0000
# 3 33.1453 48.3603 114.3715 0.0000 -15.4579 0.0000
# 4 0.0000 0.0000 0.0000 31.6464 0.0000 -6.7586
# 5 -11.4828 -5.0629 -15.4579 0.0000 26.2777 0.0000
# 6 0.0000 0.0000 0.0000 -6.7586 0.0000 24.6488
#
#
#
# Elastic Compliance Matrix: (Units=1/GPa)
#
#
# Indices 1 2 3 4 5 6 
#
# 1 0.008657 -0.002676 -0.001017 0.000000 0.002669 0.000000
# 2 -0.002676 0.011941 -0.004477 0.000000 -0.001502 0.000000
# 3 -0.001017 -0.004477 0.011683 0.000000 0.005566 0.000000
# 4 0.000000 0.000000 0.000000 0.033565 0.000000 0.009203
# 5 0.002669 -0.001502 0.005566 0.000000 0.042206 0.000000
# 6 0.000000 0.000000 0.000000 0.009203 0.000000 0.043094
#
#
# Mechanical properties :
#
#
# Convention : Reuss Voigt Hill
#
# Bulk Modulus (GPa) = 62.72278 67.38186 65.05232
# Shear Modulus (GPa) = 28.93538 32.36273 30.64905
#
# Velocity S-wave (km/s) = 3.64493 3.85476 3.75131
# Velocity P-wave (km/s) = 6.82004 7.12392 6.97364
#
# Compressibility (1/GPa) = 0.01594317
#
# Stress axis : x y z
#
# Youngs Moduli (GPa) = 115.51299 83.74338 85.59275
#
# Poissons Ratio (x) = 0.22408 0.08702
# Poissons Ratio (y) = 0.30909 0.38317
# Poissons Ratio (z) = 0.11743 0.37489
#
# Static dielectric constant tensor:
#      x y z
#    x 4.036470 0.000000 -0.139670 
#    y 0.000000 3.672860 0.000000 
#    z -0.139670 0.000000 3.880900 
# 
# 
# High freq. dielectric constant tensor:
#      x y z
#    x 1.867370 0.000000 -0.008860 
#    y 0.000000 1.846620 0.000000 
#    z -0.008860 0.000000 1.853120 
# 
# From -- ./inp_files/133714.got.cif
#   From: 2010.06.25/outbox.cif.g09.slc.cpg/sg12_67_cif.got.tgz:133714.got - 2010.06.28 00:19:55.
