data_PCOD8112579
_publ_section_title
;
Structure prediction by ZEFSAII (Michael W. Deem and Ramdas Pophale) SiO2 
 PCOD8112579
Probable space group: C 2/M
;
_chemical_formula_sum "Si O2"
_cell_formula_units_Z 36
_cell_length_a 14.514375
_cell_length_b 10.506362
_cell_length_c 27.331525
_cell_angle_alpha 90.000000
_cell_angle_beta 26.531913
_cell_angle_gamma 90.000000
_cell_volume 1861.773450
_symmetry_space_group_name_H-M "C 2/M"
_symmetry_group_IT_number 12
_symmetry_cell_setting 'monoclinic'
loop_
_space_group_symop_operation_xyz
x,y,z
-x,y,-z
-x,-y,-z
x,-y,z
1/2+x,1/2+y,z
1/2-x,1/2+y,-z
1/2-x,1/2-y,-z
1/2+x,1/2-y,z
loop_
_atom_site_type_symbol
_atom_site_label
_atom_site_fract_x
_atom_site_fract_y
_atom_site_fract_z
Si Si1 0.142923 0.248218 0.780696
Si Si2 0.033058 0.000000 0.271224
Si Si3 0.421994 0.248487 0.376939
Si Si4 0.580592 0.500000 0.135550
Si Si5 0.226578 0.143548 0.380294
Si Si6 0.032697 0.500000 0.888198
O O1 0.357949 0.216678 0.704683
O O2 0.174383 0.269307 0.708213
O O3 0.035517 0.373227 0.853833
O O4 0.998489 0.125102 0.855630
O O5 0.996726 0.000000 0.230622
O O6 0.921204 0.118109 0.349391
O O7 0.277121 0.000000 0.165017
O O8 0.250000 0.250000 0.500000
O O9 0.366297 0.143309 0.362696
O O10 0.827352 0.500000 0.018055
O O11 0.000000 0.197771 0.500000
O O12 0.208272 0.000000 0.368757
#
# Coordination Sequence:
#
# PCOD8112579 Si02
#       6
#     8   4   8   4   8   4
#     4  11  23  40  62  92 121 158 202 249 306 358
#     4  10  23  39  63  87 117 160 205 245 300 358
#     4  11  23  38  59  90 126 156 192 241 299 368
#     4  12  23  41  63  90 119 155 208 271 301 328
#     4  11  22  38  61  86 123 168 196 232 297 374
#     4  10  23  44  63  82 118 168 209 244 303 373
#
# _framework density 19.336402
#
# number of rings (size 3 to 8) (size 9 to 14) (size 15 to 20)
#    0.000    1.111    5.556    1.000    3.111    0.000 
#    0.000    2.222    0.000    1.333    0.000    0.000 
#    0.000    0.000    0.000    0.000    0.000    0.000 
#
# Total GULP energy -223255.347759 kJ/mol
# GULP energy per Si atom -12403.074876 kJ/mol
# Density = 1.929239 g / cm^3
# Si number density = 19.336402 Si / 1000 Ang^3
#
#
#
# Elastic Constant Matrix: (Units=GPa)
#
#
# Indices 1 2 3 4 5 6 
#
# 1 104.5644 23.6608 26.3873 0.0019 3.1014 -0.0005
# 2 23.6608 108.8855 33.9615 0.0011 -7.3271 0.0000
# 3 26.3873 33.9615 95.8889 0.0134 -6.0716 -0.0019
# 4 0.0019 0.0011 0.0134 14.4641 -0.0022 2.0996
# 5 3.1014 -7.3271 -6.0716 -0.0022 24.4222 0.0006
# 6 -0.0005 0.0000 -0.0019 2.0996 0.0006 29.5455
#
#
#
# Elastic Compliance Matrix: (Units=1/GPa)
#
#
# Indices 1 2 3 4 5 6 
#
# 1 0.010650 -0.001707 -0.002483 0.000001 -0.002482 0.000000
# 2 -0.001707 0.010718 -0.003159 0.000003 0.002647 0.000000
# 3 -0.002483 -0.003159 0.012386 -0.000011 0.002447 0.000001
# 4 0.000001 0.000003 -0.000011 0.069857 0.000004 -0.004964
# 5 -0.002482 0.002647 0.002447 0.000004 0.042664 -0.000001
# 6 0.000000 0.000000 0.000001 -0.004964 -0.000001 0.034199
#
#
# Mechanical properties :
#
#
# Convention : Reuss Voigt Hill
#
# Bulk Modulus (GPa) = 52.47649 53.03977 52.75813
# Shear Modulus (GPa) = 24.81090 28.70830 26.75960
#
# Velocity S-wave (km/s) = 3.58595 3.85733 3.72411
# Velocity P-wave (km/s) = 6.65905 6.87955 6.77020
#
# Compressibility (1/GPa) = 0.01905615
#
# Stress axis : x y z
#
# Youngs Moduli (GPa) = 93.89691 93.29934 80.73720
#
# Poissons Ratio (x) = 0.15923 0.20050
# Poissons Ratio (y) = 0.16025 0.25504
# Poissons Ratio (z) = 0.23319 0.29472
#
# Static dielectric constant tensor:
#      x y z
#    x 3.739440 0.000000 -0.084410 
#    y 0.000000 3.531230 0.000010 
#    z -0.084410 0.000010 3.412880 
# 
# 
# High freq. dielectric constant tensor:
#      x y z
#    x 1.759910 0.000000 0.001700 
#    y 0.000000 1.757510 0.000000 
#    z 0.001700 0.000000 1.747640 
# 
# From -- ./inp_files/140097.got.cif
#   From: 2010.06.25/outbox.cif.g09.slc.cpg/sg12_71_cif.got.tgz:140097.got - 2010.06.28 00:19:55.
