data_PCOD8112625
_publ_section_title
;
Structure prediction by ZEFSAII (Michael W. Deem and Ramdas Pophale) SiO2 
 PCOD8112625
Probable space group: C 2/M
;
_chemical_formula_sum "Si O2"
_cell_formula_units_Z 40
_cell_length_a 12.540789
_cell_length_b 20.013942
_cell_length_c 12.461035
_cell_angle_alpha 90.000000
_cell_angle_beta 145.328466
_cell_angle_gamma 90.000000
_cell_volume 1779.202588
_symmetry_space_group_name_H-M "C 2/M"
_symmetry_group_IT_number 12
_symmetry_cell_setting 'monoclinic'
loop_
_space_group_symop_operation_xyz
x,y,z
-x,y,-z
-x,-y,-z
x,-y,z
1/2+x,1/2+y,z
1/2-x,1/2+y,-z
1/2-x,1/2-y,-z
1/2+x,1/2-y,z
loop_
_atom_site_type_symbol
_atom_site_label
_atom_site_fract_x
_atom_site_fract_y
_atom_site_fract_z
Si Si1 0.175499 0.308009 0.714913
Si Si2 0.010432 0.620761 0.259704
Si Si3 0.797670 0.075559 0.668293
Si Si4 0.835743 0.924586 0.159285
Si Si5 0.811565 0.666267 0.795084
O O1 0.272343 0.374510 0.747308
O O2 0.310251 0.244526 0.822449
O O3 0.000000 0.284946 0.500000
O O4 0.108554 0.320600 0.781151
O O5 0.119434 0.578506 0.440426
O O6 0.174827 0.652565 0.321021
O O7 0.859448 0.577871 0.068511
O O8 0.990964 0.096392 0.772085
O O9 0.808234 0.000000 0.722003
O O10 0.847873 0.875740 0.273683
O O11 0.862582 0.000000 0.223447
O O12 0.000000 0.636076 0.000000
#
# Coordination Sequence:
#
# PCOD8112625 Si02
#       5
#     8   8   8   8   8
#     4  10  24  39  62  91 122 161 202 249 299 363
#     4  10  23  40  62  88 121 164 196 254 303 350
#     4  10  23  41  63  92 122 158 204 249 298 361
#     4  10  23  41  63  92 122 158 204 249 298 361
#     4  10  24  39  62  91 122 161 202 249 299 363
#
# _framework density 22.481981999999999
#
# number of rings (size 3 to 8) (size 9 to 14) (size 15 to 20)
#    0.000    2.000    0.000    0.600    8.400   12.000 
#    0.000    4.000    0.000    0.000    0.000    0.000 
#    0.000    0.000    0.000    0.000    0.000    0.000 
#
# Total GULP energy -247919.830346 kJ/mol
# GULP energy per Si atom -12395.991517 kJ/mol
# Density = 2.243081 g / cm^3
# Si number density = 22.481982 Si / 1000 Ang^3
#
#
#
# Elastic Constant Matrix: (Units=GPa)
#
#
# Indices 1 2 3 4 5 6 
#
# 1 138.5339 54.5032 20.0893 0.0000 -3.3403 0.0000
# 2 54.5032 109.7445 5.9173 0.0000 -6.4706 0.0000
# 3 20.0893 5.9173 39.4441 0.0000 7.9639 0.0000
# 4 0.0000 0.0000 0.0000 19.6168 0.0000 4.2315
# 5 -3.3403 -6.4706 7.9639 0.0000 34.5192 0.0000
# 6 0.0000 0.0000 0.0000 4.2315 0.0000 34.8825
#
#
#
# Elastic Compliance Matrix: (Units=1/GPa)
#
#
# Indices 1 2 3 4 5 6 
#
# 1 0.009661 -0.004490 -0.004474 0.000000 0.001125 0.000000
# 2 -0.004490 0.011427 0.000239 0.000000 0.001652 0.000000
# 3 -0.004474 0.000239 0.029026 0.000000 -0.007085 0.000000
# 4 0.000000 0.000000 0.000000 0.052346 0.000000 -0.006350
# 5 0.001125 0.001652 -0.007085 0.000000 0.031022 0.000000
# 6 0.000000 0.000000 0.000000 -0.006350 0.000000 0.029438
#
#
# Mechanical properties :
#
#
# Convention : Reuss Voigt Hill
#
# Bulk Modulus (GPa) = 30.61587 49.86024 40.23805
# Shear Modulus (GPa) = 26.14266 31.61789 28.88027
#
# Velocity S-wave (km/s) = 3.41372 3.75422 3.58802
# Velocity P-wave (km/s) = 5.40236 6.40455 5.92469
#
# Compressibility (1/GPa) = 0.03266280
#
# Stress axis : x y z
#
# Youngs Moduli (GPa) = 103.50830 87.51418 34.45238
#
# Poissons Ratio (x) = 0.39298 0.15414
# Poissons Ratio (y) = 0.46480 -0.00824
# Poissons Ratio (z) = 0.46310 -0.02094
#
# Static dielectric constant tensor:
#      x y z
#    x 4.423630 0.000000 0.074250 
#    y 0.000000 3.747250 0.000000 
#    z 0.074250 0.000000 3.814230 
# 
# 
# High freq. dielectric constant tensor:
#      x y z
#    x 1.903590 0.000000 0.010140 
#    y 0.000000 1.876340 0.000000 
#    z 0.010140 0.000000 1.873410 
# 
# From -- ./inp_files/29303.got.cif
#   From: 2010.06.25/outbox.cif.g09.slc.cpg/sg12_15_cif.got.tgz:29303.got - 2010.06.28 00:19:55.
