data_PCOD8112363
_publ_section_title
;
Structure prediction by ZEFSAII (Michael W. Deem and Ramdas Pophale) SiO2 
 PCOD8112363
Probable space group: C 2/M
;
_chemical_formula_sum "Si O2"
_cell_formula_units_Z 64
_cell_length_a 9.668311
_cell_length_b 14.067981
_cell_length_c 23.715452
_cell_angle_alpha 90.000000
_cell_angle_beta 96.672787
_cell_angle_gamma 90.000000
_cell_volume 3203.773831
_symmetry_space_group_name_H-M "C 2/M"
_symmetry_group_IT_number 12
_symmetry_cell_setting 'monoclinic'
loop_
_space_group_symop_operation_xyz
x,y,z
-x,y,-z
-x,-y,-z
x,-y,z
1/2+x,1/2+y,z
1/2-x,1/2+y,-z
1/2-x,1/2-y,-z
1/2+x,1/2-y,z
loop_
_atom_site_type_symbol
_atom_site_label
_atom_site_fract_x
_atom_site_fract_y
_atom_site_fract_z
Si Si1 0.948164 0.255724 0.833061
Si Si2 0.997941 0.111487 0.629183
Si Si3 0.335190 0.389424 0.989336
Si Si4 0.652698 0.610578 0.263154
Si Si5 0.032284 0.389457 0.741673
Si Si6 0.889236 0.262902 0.540310
Si Si7 0.317306 0.111622 0.639376
Si Si8 0.220954 0.770422 0.909177
O O1 0.059173 0.226478 0.885438
O O2 0.913692 0.166107 0.792117
O O3 0.015004 0.340604 0.800837
O O4 0.811308 0.294979 0.858148
O O5 0.918137 0.142789 0.681892
O O6 0.933101 0.164778 0.572547
O O7 0.158826 0.141184 0.644512
O O8 0.981463 0.000000 0.616301
O O9 0.299436 0.500000 0.980142
O O10 0.269162 0.333292 0.933453
O O11 0.500000 0.371425 0.000000
O O12 0.259329 0.350545 0.042062
O O13 0.624199 0.500000 0.249911
O O14 0.816354 0.632729 0.277005
O O15 0.010934 0.500000 0.751118
O O16 0.913955 0.348800 0.694265
O O17 0.750000 0.250000 0.500000
O O18 0.873065 0.346259 0.584214
O O19 0.000000 0.296999 0.500000
O O20 0.334744 0.000000 0.634750
#
# Coordination Sequence:
#
# PCOD8112363 Si02
#       8
#     8   8   8   8   8   8   8   8
#     4  12  23  39  63  93 130 159 196 256 304 352
#     4  10  23  43  64  86 121 164 201 243 301 369
#     4  10  22  43  67  88 121 168 209 247 299 361
#     4  10  23  41  63  90 121 164 204 238 299 372
#     4  10  23  41  62  90 124 161 200 245 302 362
#     4  12  25  40  62  91 118 155 205 254 303 360
#     4  10  23  43  63  87 123 161 199 248 303 361
#     4  11  24  40  62  96 124 159 206 253 301 353
#
# _framework density 19.976441000000001
#
# number of rings (size 3 to 8) (size 9 to 14) (size 15 to 20)
#    0.000    1.375    3.750    0.750    3.500    5.000 
#    0.000    0.625    0.000    0.000    0.000    0.000 
#    0.000    0.000    0.000    0.000    0.000    0.000 
#
# Total GULP energy -396967.495278 kJ/mol
# GULP energy per Si atom -12405.234227 kJ/mol
# Density = 1.993097 g / cm^3
# Si number density = 19.976441 Si / 1000 Ang^3
#
#
#
# Elastic Constant Matrix: (Units=GPa)
#
#
# Indices 1 2 3 4 5 6 
#
# 1 123.5082 44.4726 49.9857 0.0000 -1.8159 0.0000
# 2 44.4726 73.8096 38.3058 0.0000 -1.4897 0.0000
# 3 49.9857 38.3058 105.3842 0.0000 -10.0160 0.0000
# 4 0.0000 0.0000 0.0000 29.6538 0.0000 0.1581
# 5 -1.8159 -1.4897 -10.0160 0.0000 52.9407 0.0000
# 6 0.0000 0.0000 0.0000 0.1581 0.0000 27.5499
#
#
#
# Elastic Compliance Matrix: (Units=1/GPa)
#
#
# Indices 1 2 3 4 5 6 
#
# 1 0.011342 -0.004966 -0.003616 0.000000 -0.000435 0.000000
# 2 -0.004966 0.018898 -0.004561 0.000000 -0.000502 0.000000
# 3 -0.003616 -0.004561 0.013073 0.000000 0.002221 0.000000
# 4 0.000000 0.000000 0.000000 0.033723 0.000000 -0.000194
# 5 -0.000435 -0.000502 0.002221 0.000000 0.019280 0.000000
# 6 0.000000 0.000000 0.000000 -0.000194 0.000000 0.036299
#
#
# Mechanical properties :
#
#
# Convention : Reuss Voigt Hill
#
# Bulk Modulus (GPa) = 58.73235 63.13670 60.93452
# Shear Modulus (GPa) = 30.38095 33.35808 31.86952
#
# Velocity S-wave (km/s) = 3.90402 4.09084 3.99852
# Velocity P-wave (km/s) = 7.05596 7.34762 7.20326
#
# Compressibility (1/GPa) = 0.01702639
#
# Stress axis : x y z
#
# Youngs Moduli (GPa) = 88.16966 52.91681 76.49230
#
# Poissons Ratio (x) = 0.26278 0.27659
# Poissons Ratio (y) = 0.43785 0.34890
# Poissons Ratio (z) = 0.31881 0.24137
#
# Static dielectric constant tensor:
#      x y z
#    x 3.734020 0.000000 -0.170590 
#    y 0.000000 3.392210 0.000000 
#    z -0.170590 0.000000 3.345300 
# 
# 
# High freq. dielectric constant tensor:
#      x y z
#    x 1.792530 0.000000 -0.002830 
#    y 0.000000 1.778570 0.000000 
#    z -0.002830 0.000000 1.787910 
# 
# From -- ./inp_files/332920.got.cif
#   From: 2010.06.25/outbox.cif.g09.slc.cpg/sg12_167_cif.got.tgz:332920.got - 2010.06.28 00:19:55.
