data_PCOD8112123
_publ_section_title
;
Structure prediction by ZEFSAII (Michael W. Deem and Ramdas Pophale) SiO2 
 PCOD8112123
Probable space group: C 2/M
;
_chemical_formula_sum "Si O2"
_cell_formula_units_Z 56
_cell_length_a 9.698122
_cell_length_b 30.102944
_cell_length_c 20.206625
_cell_angle_alpha 90.000000
_cell_angle_beta 147.712460
_cell_angle_gamma 90.000000
_cell_volume 3151.147160
_symmetry_space_group_name_H-M "C 2/M"
_symmetry_group_IT_number 12
_symmetry_cell_setting 'monoclinic'
loop_
_space_group_symop_operation_xyz
x,y,z
-x,y,-z
-x,-y,-z
x,-y,z
1/2+x,1/2+y,z
1/2-x,1/2+y,-z
1/2-x,1/2-y,-z
1/2+x,1/2-y,z
loop_
_atom_site_type_symbol
_atom_site_label
_atom_site_fract_x
_atom_site_fract_y
_atom_site_fract_z
Si Si1 0.626602 0.167249 0.775206
Si Si2 0.469694 0.752005 0.915471
Si Si3 0.939871 0.000000 0.131897
Si Si4 0.014054 0.914728 0.081685
Si Si5 0.755178 0.328735 0.746902
Si Si6 0.179503 0.793800 0.511288
Si Si7 0.036815 0.406329 0.093789
Si Si8 0.166045 0.500000 0.141482
O O1 0.851438 0.203186 0.873578
O O2 0.758154 0.120194 0.812371
O O3 0.478876 0.163599 0.784324
O O4 0.434610 0.180355 0.638032
O O5 0.285451 0.781534 0.795177
O O6 0.500000 0.773962 0.000000
O O7 0.750000 0.750000 0.000000
O O8 0.067964 0.042790 0.150024
O O9 0.943900 0.000000 0.213672
O O10 0.628162 0.000000 0.006616
O O11 0.000000 0.930318 0.000000
O O12 0.739270 0.893279 0.988003
O O13 0.476573 0.328033 0.598819
O O14 0.764895 0.367450 0.805830
O O15 0.250000 0.750000 0.500000
O O16 0.000000 0.779254 0.500000
O O17 0.155569 0.452055 0.174377
O O18 0.000000 0.411238 0.000000
#
# Coordination Sequence:
#
# PCOD8112123 Si02
#       8
#     8   8   4   8   8   8   8   4
#     4  11  22  38  54  78 112 139 184 233 263 318
#     4  12  22  34  53  77 112 142 169 221 281 321
#     4   9  17  32  52  83 112 147 175 210 269 334
#     4  11  19  33  56  81 117 144 173 222 277 328
#     4  11  22  37  56  79 106 143 187 226 267 323
#     4  10  22  42  59  73 101 148 192 231 269 310
#     4  11  19  35  56  83 116 145 175 219 276 329
#     4   9  16  34  52  81 118 141 174 217 264 333
#
# _framework density 17.771305000000002
#
# number of rings (size 3 to 8) (size 9 to 14) (size 15 to 20)
#    0.000    1.286    7.143    1.929    0.000    0.000 
#    2.571    0.000    0.000    0.857    0.000    4.000 
#    0.000    0.000    0.000    0.000    0.000    0.000 
#
# Total GULP energy -346948.591305 kJ/mol
# GULP energy per Si atom -12391.021118 kJ/mol
# Density = 1.773086 g / cm^3
# Si number density = 17.771305 Si / 1000 Ang^3
#
#
#
# Elastic Constant Matrix: (Units=GPa)
#
#
# Indices 1 2 3 4 5 6 
#
# 1 81.1625 28.9758 33.2759 -0.0002 5.3777 0.0013
# 2 28.9758 122.6135 42.6442 0.0023 1.4319 -0.0003
# 3 33.2759 42.6442 86.3235 -0.0018 -2.3361 -0.0712
# 4 -0.0002 0.0023 -0.0018 12.2338 -0.0017 0.9571
# 5 5.3777 1.4319 -2.3361 -0.0017 21.9821 0.0044
# 6 0.0013 -0.0003 -0.0712 0.9571 0.0044 22.8097
#
#
#
# Elastic Compliance Matrix: (Units=1/GPa)
#
#
# Indices 1 2 3 4 5 6 
#
# 1 0.015346 -0.001788 -0.005146 0.000001 -0.004185 -0.000016
# 2 -0.001788 0.010086 -0.004311 -0.000002 -0.000678 -0.000013
# 3 -0.005146 -0.004311 0.015785 0.000000 0.003217 0.000049
# 4 0.000001 -0.000002 0.000000 0.082010 0.000007 -0.003441
# 5 -0.004185 -0.000678 0.003217 0.000007 0.046901 0.000001
# 6 -0.000016 -0.000013 0.000049 -0.003441 0.000001 0.043986
#
#
# Mechanical properties :
#
#
# Convention : Reuss Voigt Hill
#
# Bulk Modulus (GPa) = 53.40037 55.54348 54.47192
# Shear Modulus (GPa) = 20.58915 23.75201 22.17058
#
# Velocity S-wave (km/s) = 3.40746 3.65983 3.53590
# Velocity P-wave (km/s) = 6.75240 7.01296 6.88391
#
# Compressibility (1/GPa) = 0.01872646
#
# Stress axis : x y z
#
# Youngs Moduli (GPa) = 65.16258 99.15044 63.35210
#
# Poissons Ratio (x) = 0.17729 0.32598
# Poissons Ratio (y) = 0.11652 0.27314
# Poissons Ratio (z) = 0.33530 0.42748
#
# Static dielectric constant tensor:
#      x y z
#    x 3.681260 0.000080 -0.140240 
#    y 0.000080 3.522250 -0.000070 
#    z -0.140240 -0.000070 3.221340 
# 
# 
# High freq. dielectric constant tensor:
#      x y z
#    x 1.696520 0.000000 0.006860 
#    y 0.000000 1.690820 0.000000 
#    z 0.006860 0.000000 1.654650 
# 
# From -- ./inp_files/303095.got.cif
#   From: 2010.06.25/outbox.cif.g09.slc.cpg/sg12_152_cif.got.tgz:303095.got - 2010.06.28 00:19:55.
