data_PCOD8112810
_publ_section_title
;
Structure prediction by ZEFSAII (Michael W. Deem and Ramdas Pophale) SiO2 
 PCOD8112810
Probable space group: C 2/M
;
_chemical_formula_sum "Si O2"
_cell_formula_units_Z 48
_cell_length_a 7.511069
_cell_length_b 27.937693
_cell_length_c 11.332837
_cell_angle_alpha 90.000000
_cell_angle_beta 92.682855
_cell_angle_gamma 90.000000
_cell_volume 2375.497922
_symmetry_space_group_name_H-M "C 2/M"
_symmetry_group_IT_number 12
_symmetry_cell_setting 'monoclinic'
loop_
_space_group_symop_operation_xyz
x,y,z
-x,y,-z
-x,-y,-z
x,-y,z
1/2+x,1/2+y,z
1/2-x,1/2+y,-z
1/2-x,1/2-y,-z
1/2+x,1/2-y,z
loop_
_atom_site_type_symbol
_atom_site_label
_atom_site_fract_x
_atom_site_fract_y
_atom_site_fract_z
Si Si1 0.111381 0.446140 0.248815
Si Si2 0.193854 0.906595 0.534539
Si Si3 0.228975 0.611317 0.726055
Si Si4 0.469587 0.444428 0.132937
Si Si5 0.746131 0.194612 0.400426
Si Si6 0.339100 0.791567 0.346395
O O1 0.040477 0.500000 0.229146
O O2 0.192420 0.443125 0.383505
O O3 0.264552 0.434133 0.158455
O O4 0.946317 0.410880 0.218146
O O5 0.296452 0.896653 0.415482
O O6 0.169022 0.858022 0.613518
O O7 0.000000 0.928598 0.500000
O O8 0.406551 0.586834 0.778452
O O9 0.241071 0.669300 0.748315
O O10 0.518161 0.500000 0.153673
O O11 0.500000 0.428323 0.000000
O O12 0.782354 0.207694 0.538813
O O13 0.537660 0.190395 0.371118
O O14 0.831678 0.234631 0.313000
#
# Coordination Sequence:
#
# PCOD8112810 Si02
#       6
#     8   8   8   8   8   8
#     4  11  23  38  58  85 118 156 191 235 293 352
#     4  11  21  34  53  83 124 156 191 230 282 353
#     4  11  21  37  57  85 119 156 189 237 287 351
#     4  10  23  42  62  85 111 147 201 252 294 342
#     4   9  18  29  45  76 113 151 186 228 269 337
#     4   9  18  29  48  75 112 150 189 222 281 329
#
# _framework density 20.206289999999999
#
# number of rings (size 3 to 8) (size 9 to 14) (size 15 to 20)
#    0.000    1.833    3.333    1.000    7.000    3.000 
#    0.000    2.500    0.000    0.000    0.000    4.667 
#    0.000    0.000    0.000    0.000    0.000    0.000 
#
# Total GULP energy -297444.645484 kJ/mol
# GULP energy per Si atom -12393.526895 kJ/mol
# Density = 2.016030 g / cm^3
# Si number density = 20.206290 Si / 1000 Ang^3
#
#
#
# Elastic Constant Matrix: (Units=GPa)
#
#
# Indices 1 2 3 4 5 6 
#
# 1 63.3930 32.6677 6.0584 0.0000 -7.8073 0.0000
# 2 32.6677 113.3894 27.3421 0.0000 -2.3773 0.0000
# 3 6.0584 27.3421 47.9702 0.0000 -14.1291 0.0000
# 4 0.0000 0.0000 0.0000 15.1108 0.0000 0.5921
# 5 -7.8073 -2.3773 -14.1291 0.0000 19.7412 0.0000
# 6 0.0000 0.0000 0.0000 0.5921 0.0000 30.7081
#
#
#
# Elastic Compliance Matrix: (Units=1/GPa)
#
#
# Indices 1 2 3 4 5 6 
#
# 1 0.020002 -0.006562 0.004196 0.000000 0.010123 0.000000
# 2 -0.006562 0.012598 -0.008451 0.000000 -0.007127 0.000000
# 3 0.004196 -0.008451 0.032086 0.000000 0.023606 0.000000
# 4 0.000000 0.000000 0.000000 0.066228 0.000000 -0.001277
# 5 0.010123 -0.007127 0.023606 0.000000 0.070696 0.000000
# 6 0.000000 0.000000 0.000000 -0.001277 0.000000 0.032589
#
#
# Mechanical properties :
#
#
# Convention : Reuss Voigt Hill
#
# Bulk Modulus (GPa) = 23.22788 39.65434 31.44111
# Shear Modulus (GPa) = 18.50585 23.69099 21.09842
#
# Velocity S-wave (km/s) = 3.02958 3.42783 3.23484
# Velocity P-wave (km/s) = 4.87423 5.94424 5.43563
#
# Compressibility (1/GPa) = 0.04305171
#
# Stress axis : x y z
#
# Youngs Moduli (GPa) = 49.99516 79.37684 31.16598
#
# Poissons Ratio (x) = 0.52088 -0.13077
# Poissons Ratio (y) = 0.32807 0.26338
# Poissons Ratio (z) = -0.20977 0.67081
#
# Static dielectric constant tensor:
#      x y z
#    x 3.585620 0.000000 -0.070320 
#    y 0.000000 3.976060 0.000000 
#    z -0.070320 0.000000 3.172260 
# 
# 
# High freq. dielectric constant tensor:
#      x y z
#    x 1.800880 0.000000 0.001880 
#    y 0.000000 1.800290 0.000000 
#    z 0.001880 0.000000 1.711000 
# 
# From -- ./inp_files/123127.got.cif
#   From: 2010.06.25/outbox.cif.g09.slc.cpg/sg12_62_cif.got.tgz:123127.got - 2010.06.28 00:19:55.
