data_PCOD8112301
_publ_section_title
;
Structure prediction by ZEFSAII (Michael W. Deem and Ramdas Pophale) SiO2 
 PCOD8112301
Probable space group: C 2/M
;
_chemical_formula_sum "Si O2"
_cell_formula_units_Z 52
_cell_length_a 7.814854
_cell_length_b 18.454482
_cell_length_c 19.829859
_cell_angle_alpha 90.000000
_cell_angle_beta 127.108460
_cell_angle_gamma 90.000000
_cell_volume 2280.710928
_symmetry_space_group_name_H-M "C 2/M"
_symmetry_group_IT_number 12
_symmetry_cell_setting 'monoclinic'
loop_
_space_group_symop_operation_xyz
x,y,z
-x,y,-z
-x,-y,-z
x,-y,z
1/2+x,1/2+y,z
1/2-x,1/2+y,-z
1/2-x,1/2-y,-z
1/2+x,1/2-y,z
loop_
_atom_site_type_symbol
_atom_site_label
_atom_site_fract_x
_atom_site_fract_y
_atom_site_fract_z
Si Si1 0.333437 0.831724 0.210449
Si Si2 0.333630 0.668036 0.519233
Si Si3 0.885812 0.176409 0.176162
Si Si4 0.000000 0.366959 0.000000
Si Si5 0.990701 0.419703 0.367002
Si Si6 0.029481 0.918763 0.322010
Si Si7 0.756074 0.081832 0.937374
O O1 0.417650 0.750123 0.225121
O O2 0.493952 0.871259 0.300395
O O3 0.365200 0.868377 0.145319
O O4 0.086850 0.837023 0.174999
O O5 0.500000 0.658295 0.500000
O O6 0.250000 0.750000 0.500000
O O7 0.455051 0.640457 0.614921
O O8 0.133703 0.615504 0.459243
O O9 0.668119 0.182858 0.080789
O O10 0.865188 0.111639 0.226203
O O11 0.136608 0.415797 0.980984
O O12 0.077720 0.500000 0.370372
O O13 0.755238 0.424655 0.339691
O O14 0.957103 0.000000 0.328409
O O15 0.754417 0.000000 0.909816
O O16 0.000000 0.109790 0.000000
#
# Coordination Sequence:
#
# PCOD8112301 Si02
#       7
#     8   8   8   4   8   8   8
#     4  11  23  43  65  96 134 172 222 274 334 396
#     4  12  25  41  66  97 133 171 218 270 323 392
#     4  11  25  41  67  96 131 175 224 276 336 399
#     4  12  25  44  68  98 131 178 228 284 339 402
#     4  10  22  42  69  97 131 175 216 263 329 394
#     4  10  23  44  67  96 134 173 215 270 329 395
#     4  11  24  42  66  95 131 171 219 276 334 399
#
# _framework density 22.799910000000001
#
# number of rings (size 3 to 8) (size 9 to 14) (size 15 to 20)
#    0.000    1.077    1.538    4.385    1.077   10.462 
#    0.000    0.000    0.000    0.000    0.000    0.000 
#    0.000    0.000    0.000    0.000    0.000    0.000 
#
# Total GULP energy -322472.261762 kJ/mol
# GULP energy per Si atom -12402.779299 kJ/mol
# Density = 2.274802 g / cm^3
# Si number density = 22.799910 Si / 1000 Ang^3
#
#
#
# Elastic Constant Matrix: (Units=GPa)
#
#
# Indices 1 2 3 4 5 6 
#
# 1 71.8405 18.9758 31.8023 0.0000 -16.5070 0.0000
# 2 18.9758 153.4128 50.2012 0.0000 -12.6485 0.0000
# 3 31.8023 50.2012 120.6375 0.0000 -11.8356 0.0000
# 4 0.0000 0.0000 0.0000 31.7566 0.0000 -15.9978
# 5 -16.5070 -12.6485 -11.8356 0.0000 34.9689 0.0000
# 6 0.0000 0.0000 0.0000 -15.9978 0.0000 7.2830
#
#
#
# Elastic Compliance Matrix: (Units=1/GPa)
#
#
# Indices 1 2 3 4 5 6 
#
# 1 0.017211 -0.000353 -0.003730 0.000000 0.006735 0.000000
# 2 -0.000353 0.007655 -0.002935 0.000000 0.001609 0.000000
# 3 -0.003730 -0.002935 0.010568 0.000000 0.000755 0.000000
# 4 0.000000 0.000000 0.000000 -0.295506 0.000000 -0.649107
# 5 0.006735 0.001609 0.000755 0.000000 0.032613 0.000000
# 6 0.000000 0.000000 0.000000 -0.649107 0.000000 -1.288520
#
#
# Mechanical properties :
#
#
# Convention : Reuss Voigt Hill
#
# Bulk Modulus (GPa) = 46.73010 60.87217 53.80113
# Shear Modulus (GPa) = -3.34491 31.12913 13.89211
#
# Velocity S-wave (km/s) = -1.21254 3.69903 2.47109
# Velocity P-wave (km/s) = 4.31044 6.70821 5.63826
#
# Compressibility (1/GPa) = 0.02139948
#
# Stress axis : x y z
#
# Youngs Moduli (GPa) = 58.10092 130.63421 94.62826
#
# Poissons Ratio (x) = 0.04614 0.35292
# Poissons Ratio (y) = 0.02052 0.27769
# Poissons Ratio (z) = 0.21669 0.38335
#
# Static dielectric constant tensor:
#      x y z
#    x 4.012110 0.000000 -0.008220 
#    y 0.000000 4.248640 0.000000 
#    z -0.008220 0.000000 1.893240 
# 
# 
# High freq. dielectric constant tensor:
#      x y z
#    x 1.901400 0.000000 -0.005520 
#    y 0.000000 1.903670 0.000000 
#    z -0.005520 0.000000 1.905020 
# 
# From -- ./inp_files/301181.got.cif
#   From: 2010.06.25/outbox.cif.g09.slc.cpg/sg12_151_cif.got.tgz:301181.got - 2010.06.28 00:19:55.
