data_PCOD8112780
_publ_section_title
;
Structure prediction by ZEFSAII (Michael W. Deem and Ramdas Pophale) SiO2 
 PCOD8112780
Probable space group: C 2/M
;
_chemical_formula_sum "Si O2"
_cell_formula_units_Z 40
_cell_length_a 25.051037
_cell_length_b 16.835135
_cell_length_c 9.782807
_cell_angle_alpha 90.000000
_cell_angle_beta 28.774617
_cell_angle_gamma 90.000000
_cell_volume 1986.006544
_symmetry_space_group_name_H-M "C 2/M"
_symmetry_group_IT_number 12
_symmetry_cell_setting 'monoclinic'
loop_
_space_group_symop_operation_xyz
x,y,z
-x,y,-z
-x,-y,-z
x,-y,z
1/2+x,1/2+y,z
1/2-x,1/2+y,-z
1/2-x,1/2-y,-z
1/2+x,1/2-y,z
loop_
_atom_site_type_symbol
_atom_site_label
_atom_site_fract_x
_atom_site_fract_y
_atom_site_fract_z
Si Si1 0.232817 0.161735 0.096701
Si Si2 0.423075 0.087739 0.797794
Si Si3 0.774859 0.092863 0.167367
Si Si4 0.997417 0.191710 0.664243
Si Si5 0.046170 0.340175 0.746598
O O1 0.111332 0.143263 0.430089
O O2 0.250000 0.250000 0.000000
O O3 0.318585 0.147888 0.027962
O O4 0.254792 0.098737 0.926136
O O5 0.500000 0.114023 0.500000
O O6 0.486138 0.087869 0.801932
O O7 0.376556 0.000000 0.879416
O O8 0.677333 0.140737 0.465385
O O9 0.780892 0.000000 0.197532
O O10 0.891871 0.136590 0.936619
O O11 0.000000 0.220254 0.500000
O O12 0.008418 0.265839 0.739719
O O13 0.000000 0.327499 0.000000
#
# Coordination Sequence:
#
# PCOD8112780 Si02
#       5
#     8   8   8   8   8
#     4  11  19  37  65  92 126 160 205 258 313 371
#     4  11  21  36  61  90 121 156 202 260 311 359
#     4  11  23  40  65  98 130 161 205 266 320 371
#     4  10  23  41  67  92 125 165 210 258 313 373
#     4  12  25  41  65  90 127 170 216 254 311 373
#
# _framework density 20.140920999999999
#
# number of rings (size 3 to 8) (size 9 to 14) (size 15 to 20)
#    0.000    1.000    4.000    4.200    0.000    6.800 
#    0.000    0.000    0.000    0.600    0.000    0.000 
#    0.000    0.000    0.000    0.000    0.000    0.000 
#
# Total GULP energy -247848.052939 kJ/mol
# GULP energy per Si atom -12392.402647 kJ/mol
# Density = 2.009508 g / cm^3
# Si number density = 20.140921 Si / 1000 Ang^3
#
#
#
# Elastic Constant Matrix: (Units=GPa)
#
#
# Indices 1 2 3 4 5 6 
#
# 1 100.0079 39.7526 75.9694 0.0000 -7.9517 0.0000
# 2 39.7526 110.3240 55.2231 0.0000 -13.7504 0.0000
# 3 75.9694 55.2231 156.6974 0.0000 -19.6766 0.0000
# 4 0.0000 0.0000 0.0000 21.5037 0.0000 -11.5912
# 5 -7.9517 -13.7504 -19.6766 0.0000 42.3784 0.0000
# 6 0.0000 0.0000 0.0000 -11.5912 0.0000 6.0146
#
#
#
# Elastic Compliance Matrix: (Units=1/GPa)
#
#
# Indices 1 2 3 4 5 6 
#
# 1 0.016352 -0.002416 -0.007210 0.000000 -0.001063 0.000000
# 2 -0.002416 0.011505 -0.002625 0.000000 0.002061 0.000000
# 3 -0.007210 -0.002625 0.011177 0.000000 0.002985 0.000000
# 4 0.000000 0.000000 0.000000 -1.198133 0.000000 -2.309011
# 5 -0.001063 0.002061 0.002985 0.000000 0.025452 0.000000
# 6 0.000000 0.000000 0.000000 -2.309011 0.000000 -4.283604
#
#
# Mechanical properties :
#
#
# Convention : Reuss Voigt Hill
#
# Bulk Modulus (GPa) = 68.80517 78.76883 73.78700
# Shear Modulus (GPa) = -0.92800 27.05163 13.06181
#
# Velocity S-wave (km/s) = -0.67953 3.66883 2.54937
# Velocity P-wave (km/s) = 5.79831 7.55916 6.73651
#
# Compressibility (1/GPa) = 0.01453379
#
# Stress axis : x y z
#
# Youngs Moduli (GPa) = 61.15606 86.91625 89.46951
#
# Poissons Ratio (x) = 0.20995 0.64505
# Poissons Ratio (y) = 0.14773 0.23484
# Poissons Ratio (z) = 0.44092 0.22814
#
# Static dielectric constant tensor:
#      x y z
#    x 3.725630 0.000000 -0.434050 
#    y 0.000000 3.566190 0.000000 
#    z -0.434050 0.000000 3.843050 
# 
# 
# High freq. dielectric constant tensor:
#      x y z
#    x 1.769090 0.000000 -0.038340 
#    y 0.000000 1.786020 0.000000 
#    z -0.038340 0.000000 1.779720 
# 
# From -- ./inp_files/47149.got.cif
#   From: 2010.06.25/outbox.cif.g09.slc.cpg/sg12_24_cif.got.tgz:47149.got - 2010.06.28 00:19:55.
