data_PCOD8112385
_publ_section_title
;
Structure prediction by ZEFSAII (Michael W. Deem and Ramdas Pophale) SiO2 
 PCOD8112385
Probable space group: C 2/M
;
_chemical_formula_sum "Si O2"
_cell_formula_units_Z 40
_cell_length_a 9.734942
_cell_length_b 9.464843
_cell_length_c 21.164609
_cell_angle_alpha 90.000000
_cell_angle_beta 71.736022
_cell_angle_gamma 90.000000
_cell_volume 1851.859863
_symmetry_space_group_name_H-M "C 2/M"
_symmetry_group_IT_number 12
_symmetry_cell_setting 'monoclinic'
loop_
_space_group_symop_operation_xyz
x,y,z
-x,y,-z
-x,-y,-z
x,-y,z
1/2+x,1/2+y,z
1/2-x,1/2+y,-z
1/2-x,1/2-y,-z
1/2+x,1/2-y,z
loop_
_atom_site_type_symbol
_atom_site_label
_atom_site_fract_x
_atom_site_fract_y
_atom_site_fract_z
Si Si1 0.869564 0.835613 0.853272
Si Si2 0.139962 0.000000 0.437571
Si Si3 0.544778 0.159770 0.279632
Si Si4 0.328791 0.000000 0.527689
Si Si5 0.400299 0.338218 0.073152
Si Si6 0.762766 0.729490 0.635286
O O1 0.734402 0.767531 0.909237
O O2 0.890716 0.753707 0.785226
O O3 0.012382 0.817992 0.874594
O O4 0.836618 0.000000 0.844453
O O5 0.281017 0.000000 0.461809
O O6 0.140862 0.133154 0.391419
O O7 0.000000 0.000000 0.500000
O O8 0.401244 0.232003 0.326190
O O9 0.665515 0.148555 0.316611
O O10 0.512757 0.000000 0.260657
O O11 0.500000 0.000000 0.500000
O O12 0.265228 0.136318 0.571810
O O13 0.345786 0.500000 0.074834
O O14 0.500000 0.297026 0.000000
#
# Coordination Sequence:
#
# PCOD8112385 Si02
#       6
#     8   4   8   4   8   8
#     4  11  25  40  67 100 130 174 223 269 320 381
#     4  12  24  42  66 100 128 162 217 268 323 398
#     4  12  26  46  65  95 133 172 219 270 324 389
#     4  12  24  44  68  96 132 166 211 268 329 396
#     4  10  22  43  67  98 138 177 216 266 324 381
#     4  12  25  44  69  96 129 173 215 268 331 389
#
# _framework density 21.599909
#
# number of rings (size 3 to 8) (size 9 to 14) (size 15 to 20)
#    0.000    0.600    2.000    6.000    2.800    5.200 
#    0.000    0.000    0.000    0.000    0.000    0.000 
#    0.000    0.000    0.000    0.000    0.000    0.000 
#
# Total GULP energy -248153.417115 kJ/mol
# GULP energy per Si atom -12407.670856 kJ/mol
# Density = 2.155075 g / cm^3
# Si number density = 21.599909 Si / 1000 Ang^3
#
#
#
# Elastic Constant Matrix: (Units=GPa)
#
#
# Indices 1 2 3 4 5 6 
#
# 1 79.4143 27.8549 11.8248 0.0000 -9.9331 0.0000
# 2 27.8549 137.7964 33.2687 0.0000 -25.2848 0.0000
# 3 11.8248 33.2687 88.8409 0.0000 -13.7973 0.0000
# 4 0.0000 0.0000 0.0000 40.9797 0.0000 -9.0127
# 5 -9.9331 -25.2848 -13.7973 0.0000 37.0676 0.0000
# 6 0.0000 0.0000 0.0000 -9.0127 0.0000 33.3962
#
#
#
# Elastic Compliance Matrix: (Units=1/GPa)
#
#
# Indices 1 2 3 4 5 6 
#
# 1 0.013723 -0.002264 -0.000687 0.000000 0.001878 0.000000
# 2 -0.002264 0.009165 -0.002392 0.000000 0.004754 0.000000
# 3 -0.000687 -0.002392 0.012695 0.000000 0.002909 0.000000
# 4 0.000000 0.000000 0.000000 0.025942 0.000000 0.007001
# 5 0.001878 0.004754 0.002909 0.000000 0.031807 0.000000
# 6 0.000000 0.000000 0.000000 0.007001 0.000000 0.031833
#
#
# Mechanical properties :
#
#
# Convention : Reuss Voigt Hill
#
# Bulk Modulus (GPa) = 40.16582 50.21647 45.19114
# Shear Modulus (GPa) = 34.68597 37.82891 36.25744
#
# Velocity S-wave (km/s) = 4.01164 4.18945 4.10151
# Velocity P-wave (km/s) = 6.33193 6.83381 6.58765
#
# Compressibility (1/GPa) = 0.02489679
#
# Stress axis : x y z
#
# Youngs Moduli (GPa) = 72.86850 109.11497 78.76964
#
# Poissons Ratio (x) = 0.24700 0.05414
# Poissons Ratio (y) = 0.16495 0.18844
# Poissons Ratio (z) = 0.05008 0.26103
#
# Static dielectric constant tensor:
#      x y z
#    x 4.005280 0.000000 0.106210 
#    y 0.000000 4.063430 0.000000 
#    z 0.106210 0.000000 4.151930 
# 
# 
# High freq. dielectric constant tensor:
#      x y z
#    x 1.852410 0.000000 -0.005240 
#    y 0.000000 1.862910 0.000000 
#    z -0.005240 0.000000 1.859620 
# 
# From -- ./inp_files/331780.got.cif
#   From: 2010.06.25/outbox.cif.g09.slc.cpg/sg12_166_cif.got.tgz:331780.got - 2010.06.28 00:19:55.
