data_PCOD8112251
_publ_section_title
;
Structure prediction by ZEFSAII (Michael W. Deem and Ramdas Pophale) SiO2 
 PCOD8112251
Probable space group: C 2/M
;
_chemical_formula_sum "Si O2"
_cell_formula_units_Z 64
_cell_length_a 31.073113
_cell_length_b 13.696268
_cell_length_c 8.984164
_cell_angle_alpha 90.000000
_cell_angle_beta 49.365718
_cell_angle_gamma 90.000000
_cell_volume 2901.608490
_symmetry_space_group_name_H-M "C 2/M"
_symmetry_group_IT_number 12
_symmetry_cell_setting 'monoclinic'
loop_
_space_group_symop_operation_xyz
x,y,z
-x,y,-z
-x,-y,-z
x,-y,z
1/2+x,1/2+y,z
1/2-x,1/2+y,-z
1/2-x,1/2-y,-z
1/2+x,1/2-y,z
loop_
_atom_site_type_symbol
_atom_site_label
_atom_site_fract_x
_atom_site_fract_y
_atom_site_fract_z
Si Si1 0.067367 0.614641 0.713305
Si Si2 0.382605 0.387158 0.957483
Si Si3 0.159964 0.615271 0.028472
Si Si4 0.171534 0.704939 0.319649
Si Si5 0.224898 0.761612 0.719084
Si Si6 0.997152 0.115999 0.838077
Si Si7 0.444438 0.116146 0.929023
Si Si8 0.390930 0.611013 0.587184
O O1 0.058343 0.500000 0.734972
O O2 0.121213 0.639847 0.495764
O O3 0.009048 0.658320 0.770191
O O4 0.077741 0.651016 0.858740
O O5 0.374847 0.500000 0.019469
O O6 0.329857 0.330489 0.146355
O O7 0.439257 0.340275 0.901499
O O8 0.391797 0.376416 0.761446
O O9 0.164177 0.500000 0.042407
O O10 0.176926 0.673247 0.137671
O O11 0.098005 0.650908 0.107427
O O12 0.207578 0.651572 0.805147
O O13 0.229457 0.686473 0.276212
O O14 0.158424 0.820139 0.365242
O O15 0.250000 0.750000 0.500000
O O16 0.050717 0.149188 0.618358
O O17 0.993895 0.000000 0.839804
O O18 0.000000 0.155273 0.000000
O O19 0.444248 0.000000 0.921056
O O20 0.377685 0.500000 0.569562
#
# Coordination Sequence:
#
# PCOD8112251 Si02
#       8
#     8   8   8   8   8   8   8   8
#     4   9  18  37  65  94 130 167 208 260 316 381
#     4  10  22  43  69  94 129 175 215 265 330 390
#     4  11  24  44  68  93 128 167 212 274 334 384
#     4  12  25  42  61  97 125 168 220 264 318 392
#     4  12  28  46  65  93 132 170 229 277 317 395
#     4   9  19  38  67 102 132 162 211 266 327 402
#     4   8  17  37  64  95 127 166 209 257 321 383
#     4  10  22  42  67  94 131 169 206 265 331 397
#
# _framework density 22.056732
#
# number of rings (size 3 to 8) (size 9 to 14) (size 15 to 20)
#    0.000    1.875    1.250    2.625    1.750    5.000 
#    4.500    1.875    0.000    0.000    0.000    0.000 
#    0.000    0.000    0.000    0.000    0.000    0.000 
#
# Total GULP energy -396710.742855 kJ/mol
# GULP energy per Si atom -12397.210714 kJ/mol
# Density = 2.200653 g / cm^3
# Si number density = 22.056732 Si / 1000 Ang^3
#
#
#
# Elastic Constant Matrix: (Units=GPa)
#
#
# Indices 1 2 3 4 5 6 
#
# 1 120.6469 27.2381 37.5093 0.0000 -4.0745 0.0000
# 2 27.2381 51.4748 38.8153 0.0000 -2.7080 0.0000
# 3 37.5093 38.8153 127.6337 0.0000 -11.2342 0.0000
# 4 0.0000 0.0000 0.0000 38.4012 0.0000 -5.3944
# 5 -4.0745 -2.7080 -11.2342 0.0000 28.1669 0.0000
# 6 0.0000 0.0000 0.0000 -5.3944 0.0000 27.6319
#
#
#
# Elastic Compliance Matrix: (Units=1/GPa)
#
#
# Indices 1 2 3 4 5 6 
#
# 1 0.009684 -0.003871 -0.001635 0.000000 0.000376 0.000000
# 2 -0.003871 0.026767 -0.007074 0.000000 -0.000808 0.000000
# 3 -0.001635 -0.007074 0.010764 0.000000 0.003377 0.000000
# 4 0.000000 0.000000 0.000000 0.026775 0.000000 0.005227
# 5 0.000376 -0.000808 0.003377 0.000000 0.036826 0.000000
# 6 0.000000 0.000000 0.000000 0.005227 0.000000 0.037211
#
#
# Mechanical properties :
#
#
# Convention : Reuss Voigt Hill
#
# Bulk Modulus (GPa) = 45.34312 56.32007 50.83159
# Shear Modulus (GPa) = 27.69491 31.91951 29.80721
#
# Velocity S-wave (km/s) = 3.54732 3.80828 3.68011
# Velocity P-wave (km/s) = 6.11393 6.70275 6.41510
#
# Compressibility (1/GPa) = 0.02205406
#
# Stress axis : x y z
#
# Youngs Moduli (GPa) = 103.26501 37.35954 92.90249
#
# Poissons Ratio (x) = 0.14462 0.15194
# Poissons Ratio (y) = 0.39976 0.65716
# Poissons Ratio (z) = 0.16889 0.26427
#
# Static dielectric constant tensor:
#      x y z
#    x 4.223330 0.000000 -0.095490 
#    y 0.000000 4.021530 0.000000 
#    z -0.095490 0.000000 3.982070 
# 
# 
# High freq. dielectric constant tensor:
#      x y z
#    x 1.870870 0.000000 -0.002180 
#    y 0.000000 1.877820 0.000000 
#    z -0.002180 0.000000 1.866800 
# 
# From -- ./inp_files/111975.got.cif
#   From: 2010.06.25/outbox.cif.g09.slc.cpg/sg12_56_cif.got.tgz:111975.got - 2010.06.28 00:19:55.
