data_PCOD8112390
_publ_section_title
;
Structure prediction by ZEFSAII (Michael W. Deem and Ramdas Pophale) SiO2 
 PCOD8112390
Probable space group: C 2/M
;
_chemical_formula_sum "Si O2"
_cell_formula_units_Z 56
_cell_length_a 9.054733
_cell_length_b 28.015581
_cell_length_c 15.680196
_cell_angle_alpha 90.000000
_cell_angle_beta 43.567513
_cell_angle_gamma 90.000000
_cell_volume 2741.432759
_symmetry_space_group_name_H-M "C 2/M"
_symmetry_group_IT_number 12
_symmetry_cell_setting 'monoclinic'
loop_
_space_group_symop_operation_xyz
x,y,z
-x,y,-z
-x,-y,-z
x,-y,z
1/2+x,1/2+y,z
1/2-x,1/2+y,-z
1/2-x,1/2-y,-z
1/2+x,1/2-y,z
loop_
_atom_site_type_symbol
_atom_site_label
_atom_site_fract_x
_atom_site_fract_y
_atom_site_fract_z
Si Si1 0.028171 0.189896 0.299408
Si Si2 0.181399 0.130036 0.484809
Si Si3 0.229151 0.368396 0.940369
Si Si4 0.732567 0.293381 0.943000
Si Si5 0.162119 0.719808 0.680440
Si Si6 0.479897 0.054494 0.609346
Si Si7 0.976151 0.945008 0.109691
O O1 0.158032 0.172374 0.163225
O O2 0.196658 0.214933 0.293496
O O3 0.922297 0.141364 0.380210
O O4 0.832115 0.225849 0.357561
O O5 0.257347 0.182043 0.421836
O O6 0.363128 0.090634 0.409335
O O7 0.000000 0.108217 0.500000
O O8 0.362360 0.416514 0.897158
O O9 0.204965 0.343784 0.041803
O O10 0.000000 0.383672 0.000000
O O11 0.907915 0.287366 0.796782
O O12 0.500000 0.295599 0.000000
O O13 0.750000 0.250000 0.000000
O O14 0.500000 0.065215 0.500000
O O15 0.254217 0.063980 0.750203
O O16 0.551634 0.000000 0.595913
O O17 0.041556 0.000000 0.089037
O O18 0.000000 0.928900 0.000000
#
# Coordination Sequence:
#
# PCOD8112390 Si02
#       7
#     8   8   8   8   8   8   8
#     4  11  23  40  57  88 122 164 208 256 300 362
#     4  10  24  40  60  89 123 160 209 253 309 370
#     4  12  24  39  62  91 125 159 207 254 311 372
#     4  12  23  37  58  88 121 164 204 251 305 362
#     4  11  23  39  58  83 127 163 206 254 299 365
#     4  10  22  43  68  94 124 159 206 259 313 378
#     4  10  24  44  67  96 126 161 207 259 318 381
#
# _framework density 20.427274000000001
#
# number of rings (size 3 to 8) (size 9 to 14) (size 15 to 20)
#    0.000    1.143    2.857    3.000    4.000    1.714 
#    0.000    0.000    0.000    6.000    0.000    0.000 
#    0.000    0.000    0.000    0.000    0.000    0.000 
#
# Total GULP energy -347101.706322 kJ/mol
# GULP energy per Si atom -12396.489511 kJ/mol
# Density = 2.038078 g / cm^3
# Si number density = 20.427274 Si / 1000 Ang^3
#
#
#
# Elastic Constant Matrix: (Units=GPa)
#
#
# Indices 1 2 3 4 5 6 
#
# 1 119.9191 67.0277 38.0864 0.0000 -16.3870 0.0000
# 2 67.0277 105.6884 27.8764 0.0000 -15.1861 0.0000
# 3 38.0864 27.8764 95.9339 0.0000 -0.7045 0.0000
# 4 0.0000 0.0000 0.0000 27.2598 0.0000 -13.1822
# 5 -16.3870 -15.1861 -0.7045 0.0000 35.4269 0.0000
# 6 0.0000 0.0000 0.0000 -13.1822 0.0000 21.2344
#
#
#
# Elastic Compliance Matrix: (Units=1/GPa)
#
#
# Indices 1 2 3 4 5 6 
#
# 1 0.014084 -0.007586 -0.003364 0.000000 0.003196 0.000000
# 2 -0.007586 0.015044 -0.001339 0.000000 0.002913 0.000000
# 3 -0.003364 -0.001339 0.012134 0.000000 -0.001888 0.000000
# 4 0.000000 0.000000 0.000000 0.052421 0.000000 0.032543
# 5 0.003196 0.002913 -0.001888 0.000000 0.030917 0.000000
# 6 0.000000 0.000000 0.000000 0.032543 0.000000 0.067296
#
#
# Mechanical properties :
#
#
# Convention : Reuss Voigt Hill
#
# Bulk Modulus (GPa) = 59.92799 65.28025 62.60412
# Shear Modulus (GPa) = 22.51904 29.35427 25.93666
#
# Velocity S-wave (km/s) = 3.32384 3.79491 3.56716
# Velocity P-wave (km/s) = 6.64316 7.15741 6.90507
#
# Compressibility (1/GPa) = 0.01668669
#
# Stress axis : x y z
#
# Youngs Moduli (GPa) = 71.00299 66.47056 82.41049
#
# Poissons Ratio (x) = 0.50422 0.27721
# Poissons Ratio (y) = 0.53860 0.11032
# Poissons Ratio (z) = 0.23883 0.08898
#
# Static dielectric constant tensor:
#      x y z
#    x 3.725230 0.000000 -0.070230 
#    y 0.000000 3.645180 0.000000 
#    z -0.070230 0.000000 4.230700 
# 
# 
# High freq. dielectric constant tensor:
#      x y z
#    x 1.795110 0.000000 0.004700 
#    y 0.000000 1.797180 0.000000 
#    z 0.004700 0.000000 1.814950 
# 
# From -- ./inp_files/124364.got.cif
#   From: 2010.06.25/outbox.cif.g09.slc.cpg/sg12_63_cif.got.tgz:124364.got - 2010.06.28 00:19:55.
