data_PCOD8112720
_publ_section_title
;
Structure prediction by ZEFSAII (Michael W. Deem and Ramdas Pophale) SiO2 
 PCOD8112720
Probable space group: C 2/M
;
_chemical_formula_sum "Si O2"
_cell_formula_units_Z 56
_cell_length_a 9.604839
_cell_length_b 24.792585
_cell_length_c 16.040814
_cell_angle_alpha 90.000000
_cell_angle_beta 52.236223
_cell_angle_gamma 90.000000
_cell_volume 3019.697495
_symmetry_space_group_name_H-M "C 2/M"
_symmetry_group_IT_number 12
_symmetry_cell_setting 'monoclinic'
loop_
_space_group_symop_operation_xyz
x,y,z
-x,y,-z
-x,-y,-z
x,-y,z
1/2+x,1/2+y,z
1/2-x,1/2+y,-z
1/2-x,1/2-y,-z
1/2+x,1/2-y,z
loop_
_atom_site_type_symbol
_atom_site_label
_atom_site_fract_x
_atom_site_fract_y
_atom_site_fract_z
Si Si1 0.032041 0.404291 0.748079
Si Si2 0.970079 0.097184 0.254363
Si Si3 0.416718 0.563508 0.615242
Si Si4 0.541519 0.803259 0.120039
Si Si5 0.214273 0.804062 0.121752
Si Si6 0.588228 0.064530 0.380821
Si Si7 0.968204 0.000000 0.876226
Si Si8 0.786490 0.500000 0.876651
O O1 0.966711 0.346174 0.802220
O O2 0.037185 0.413920 0.646733
O O3 0.906263 0.447520 0.837419
O O4 0.230232 0.410654 0.706673
O O5 0.767339 0.098064 0.300673
O O6 0.957187 0.079914 0.355544
O O7 0.067498 0.153171 0.203146
O O8 0.073289 0.052120 0.163972
O O9 0.500000 0.587459 0.500000
O O10 0.394648 0.500000 0.614339
O O11 0.351704 0.793742 0.146443
O O12 0.606601 0.749469 0.140685
O O13 0.681265 0.823268 0.999152
O O14 0.500000 0.080640 0.500000
O O15 0.617858 0.000000 0.364684
O O16 0.170158 0.000000 0.834969
O O17 0.835886 0.000000 0.999739
#
# Coordination Sequence:
#
# PCOD8112720 Si02
#       8
#     8   8   8   8   8   8   4   4
#     4  12  20  39  58  88 120 154 193 243 298 343
#     4  12  20  39  58  88 120 154 193 243 298 343
#     4  11  22  36  59  88 121 155 194 238 292 356
#     4  10  23  41  62  88 117 155 199 241 291 356
#     4  10  23  41  62  88 117 155 199 241 291 356
#     4  11  22  38  61  88 121 159 206 244 282 348
#     4  11  22  35  54  87 123 159 193 233 290 355
#     4  11  22  35  54  87 123 159 193 233 290 355
#
# _framework density 18.544905
#
# number of rings (size 3 to 8) (size 9 to 14) (size 15 to 20)
#    0.000    1.000    5.714    1.714    2.000    2.286 
#    0.000    0.714    0.000    5.143    0.000    0.000 
#    0.000    0.000    0.000    0.000    0.000    0.000 
#
# Total GULP energy -347230.095391 kJ/mol
# GULP energy per Si atom -12401.074835 kJ/mol
# Density = 1.850270 g / cm^3
# Si number density = 18.544905 Si / 1000 Ang^3
#
#
#
# Elastic Constant Matrix: (Units=GPa)
#
#
# Indices 1 2 3 4 5 6 
#
# 1 67.4421 34.2609 17.8022 0.0000 3.3264 0.0000
# 2 34.2609 99.4797 46.2285 0.0000 -1.8757 0.0000
# 3 17.8022 46.2285 88.0535 0.0000 8.2681 0.0000
# 4 0.0000 0.0000 0.0000 33.2985 0.0000 -4.2941
# 5 3.3264 -1.8757 8.2681 0.0000 29.8101 0.0000
# 6 0.0000 0.0000 0.0000 -4.2941 0.0000 50.0086
#
#
#
# Elastic Compliance Matrix: (Units=1/GPa)
#
#
# Indices 1 2 3 4 5 6 
#
# 1 0.018147 -0.006207 -0.000188 0.000000 -0.002363 0.000000
# 2 -0.006207 0.015659 -0.007314 0.000000 0.003707 0.000000
# 3 -0.000188 -0.007314 0.015684 0.000000 -0.004789 0.000000
# 4 0.000000 0.000000 0.000000 0.030368 0.000000 0.002608
# 5 -0.002363 0.003707 -0.004789 0.000000 0.035371 0.000000
# 6 0.000000 0.000000 0.000000 0.002608 0.000000 0.020220
#
#
# Mechanical properties :
#
#
# Convention : Reuss Voigt Hill
#
# Bulk Modulus (GPa) = 45.30710 50.17317 47.74014
# Shear Modulus (GPa) = 29.37290 33.06900 31.22095
#
# Velocity S-wave (km/s) = 3.98412 4.22736 4.10754
# Velocity P-wave (km/s) = 6.75635 7.13730 6.94944
#
# Compressibility (1/GPa) = 0.02207159
#
# Stress axis : x y z
#
# Youngs Moduli (GPa) = 55.10571 63.86221 63.75750
#
# Poissons Ratio (x) = 0.39639 0.01201
# Poissons Ratio (y) = 0.34203 0.46633
# Poissons Ratio (z) = 0.01038 0.46709
#
# Static dielectric constant tensor:
#      x y z
#    x 3.565530 0.000000 0.048040 
#    y 0.000000 3.147820 0.000000 
#    z 0.048040 0.000000 3.468870 
# 
# 
# High freq. dielectric constant tensor:
#      x y z
#    x 1.733070 0.000000 0.002680 
#    y 0.000000 1.696280 0.000000 
#    z 0.002680 0.000000 1.729820 
# 
# From -- ./inp_files/198819.got.cif
#   From: 2010.06.25/outbox.cif.g09.slc.cpg/sg12_100_cif.got.tgz:198819.got - 2010.06.28 00:19:55.
