data_PCOD8112706
_publ_section_title
;
Structure prediction by ZEFSAII (Michael W. Deem and Ramdas Pophale) SiO2 
 PCOD8112706
Probable space group: C 2/M
;
_chemical_formula_sum "Si O2"
_cell_formula_units_Z 64
_cell_length_a 28.572640
_cell_length_b 8.899763
_cell_length_c 14.222494
_cell_angle_alpha 90.000000
_cell_angle_beta 54.918746
_cell_angle_gamma 90.000000
_cell_volume 2959.628387
_symmetry_space_group_name_H-M "C 2/M"
_symmetry_group_IT_number 12
_symmetry_cell_setting 'monoclinic'
loop_
_space_group_symop_operation_xyz
x,y,z
-x,y,-z
-x,-y,-z
x,-y,z
1/2+x,1/2+y,z
1/2-x,1/2+y,-z
1/2-x,1/2-y,-z
1/2+x,1/2-y,z
loop_
_atom_site_type_symbol
_atom_site_label
_atom_site_fract_x
_atom_site_fract_y
_atom_site_fract_z
Si Si1 0.599339 0.323091 0.433377
Si Si2 0.423089 0.176782 0.724482
Si Si3 0.788345 0.334561 0.672973
Si Si4 0.690584 0.823605 0.038623
Si Si5 0.328082 0.822446 0.151092
Si Si6 0.101702 0.825800 0.779174
Si Si7 0.026033 0.176057 0.697941
Si Si8 0.692258 0.834864 0.557722
O O1 0.601167 0.500000 0.423868
O O2 0.561151 0.256946 0.392353
O O3 0.663066 0.263287 0.332647
O O4 0.573305 0.273948 0.564735
O O5 0.359832 0.223041 0.832734
O O6 0.468437 0.230530 0.749835
O O7 0.428285 0.000000 0.705214
O O8 0.779968 0.500000 0.730903
O O9 0.727874 0.248869 0.734696
O O10 0.817948 0.361638 0.539281
O O11 0.700796 0.000000 0.025878
O O12 0.750000 0.750000 0.000000
O O13 0.671634 0.768134 0.956782
O O14 0.385776 0.766135 0.138932
O O15 0.325119 0.000000 0.162591
O O16 0.044069 0.788931 0.786268
O O17 0.148515 0.783515 0.648938
O O18 0.105247 0.000000 0.801510
O O19 0.013817 0.000000 0.700055
O O20 0.750000 0.750000 0.500000
O O21 0.690282 0.000000 0.611087
#
# Coordination Sequence:
#
# PCOD8112706 Si02
#       8
#     8   8   8   8   8   8   8   8
#     4  11  22  38  60  88 124 163 202 246 299 361
#     4  11  24  42  64  90 120 153 200 255 303 358
#     4  11  22  34  53  86 124 159 200 246 296 354
#     4  10  24  45  67  93 121 154 196 247 304 359
#     4  11  23  39  61  88 121 161 205 251 306 362
#     4  11  22  38  58  85 122 162 204 249 296 355
#     4  10  23  41  61  87 122 162 201 242 296 361
#     4  11  21  32  51  79 119 163 202 244 294 355
#
# _framework density 21.624336
#
# number of rings (size 3 to 8) (size 9 to 14) (size 15 to 20)
#    0.000    1.250    2.500    3.375    0.000    8.500 
#    0.000    0.625    0.000    3.750    0.000    0.000 
#    0.000    0.000    0.000    0.000    0.000    0.000 
#
# Total GULP energy -396539.459683 kJ/mol
# GULP energy per Si atom -12391.858115 kJ/mol
# Density = 2.157512 g / cm^3
# Si number density = 21.624336 Si / 1000 Ang^3
#
#
#
# Elastic Constant Matrix: (Units=GPa)
#
#
# Indices 1 2 3 4 5 6 
#
# 1 136.5582 61.5310 37.5884 0.0000 13.2451 0.0000
# 2 61.5310 83.4808 28.9305 0.0000 -0.5203 0.0000
# 3 37.5884 28.9305 63.5877 0.0000 15.8193 0.0000
# 4 0.0000 0.0000 0.0000 22.7054 0.0000 1.7828
# 5 13.2451 -0.5203 15.8193 0.0000 41.1666 0.0000
# 6 0.0000 0.0000 0.0000 1.7828 0.0000 41.1410
#
#
#
# Elastic Compliance Matrix: (Units=1/GPa)
#
#
# Indices 1 2 3 4 5 6 
#
# 1 0.011883 -0.007823 -0.002753 0.000000 -0.002864 0.000000
# 2 -0.007823 0.019702 -0.005559 0.000000 0.004902 0.000000
# 3 -0.002753 -0.005559 0.021760 0.000000 -0.007546 0.000000
# 4 0.000000 0.000000 0.000000 0.044193 0.000000 -0.001915
# 5 -0.002864 0.004902 -0.007546 0.000000 0.028175 0.000000
# 6 0.000000 0.000000 0.000000 -0.001915 0.000000 0.024390
#
#
# Mechanical properties :
#
#
# Convention : Reuss Voigt Hill
#
# Bulk Modulus (GPa) = 47.44717 59.96961 53.70839
# Shear Modulus (GPa) = 26.39965 31.37440 28.88702
#
# Velocity S-wave (km/s) = 3.49783 3.81318 3.65890
# Velocity P-wave (km/s) = 6.18888 6.86875 6.53766
#
# Compressibility (1/GPa) = 0.02107607
#
# Stress axis : x y z
#
# Youngs Moduli (GPa) = 84.15277 50.75733 45.95554
#
# Poissons Ratio (x) = 0.39705 0.12651
# Poissons Ratio (y) = 0.65829 0.25547
# Poissons Ratio (z) = 0.23166 0.28216
#
# Static dielectric constant tensor:
#      x y z
#    x 4.129820 0.000000 0.275440 
#    y 0.000000 4.283060 0.000000 
#    z 0.275440 0.000000 3.601370 
# 
# 
# High freq. dielectric constant tensor:
#      x y z
#    x 1.863890 0.000000 0.016010 
#    y 0.000000 1.853140 0.000000 
#    z 0.016010 0.000000 1.823290 
# 
# From -- ./inp_files/249778.got.cif
#   From: 2010.06.25/outbox.cif.g09.slc.cpg/sg12_125_cif.got.tgz:249778.got - 2010.06.28 00:19:55.
