data_PCOD8112095
_publ_section_title
;
Structure prediction by ZEFSAII (Michael W. Deem and Ramdas Pophale) SiO2 
 PCOD8112095
Probable space group: C 2/M
;
_chemical_formula_sum "Si O2"
_cell_formula_units_Z 48
_cell_length_a 17.151745
_cell_length_b 15.384043
_cell_length_c 17.261372
_cell_angle_alpha 90.000000
_cell_angle_beta 31.495387
_cell_angle_gamma 90.000000
_cell_volume 2379.480477
_symmetry_space_group_name_H-M "C 2/M"
_symmetry_group_IT_number 12
_symmetry_cell_setting 'monoclinic'
loop_
_space_group_symop_operation_xyz
x,y,z
-x,y,-z
-x,-y,-z
x,-y,z
1/2+x,1/2+y,z
1/2-x,1/2+y,-z
1/2-x,1/2-y,-z
1/2+x,1/2-y,z
loop_
_atom_site_type_symbol
_atom_site_label
_atom_site_fract_x
_atom_site_fract_y
_atom_site_fract_z
Si Si1 0.315382 0.000000 0.882223
Si Si2 0.679905 0.500000 0.630921
Si Si3 0.634359 0.000000 0.667274
Si Si4 0.714173 0.663916 0.382860
Si Si5 0.379937 0.335023 0.711840
Si Si6 0.617764 0.500000 0.192683
Si Si7 0.118818 0.835978 0.787215
Si Si8 0.713424 0.663504 0.881618
O O1 0.455511 0.000000 0.821495
O O2 0.310908 0.084550 0.831713
O O3 0.171660 0.000000 0.058833
O O4 0.833019 0.500000 0.452805
O O5 0.560689 0.500000 0.661954
O O6 0.668141 0.415416 0.692969
O O7 0.695093 0.084593 0.658765
O O8 0.685350 0.645721 0.317275
O O9 0.558188 0.676494 0.559523
O O10 0.812855 0.750044 0.309219
O O11 0.327798 0.415218 0.808163
O O12 0.309500 0.250261 0.810692
O O13 0.183870 0.854456 0.816721
O O14 0.940476 0.826318 0.940941
#
# Coordination Sequence:
#
# PCOD8112095 Si02
#       8
#     4   4   4   8   8   4   8   8
#     4  12  27  41  59  91 128 161 199 250 305 360
#     4  12  23  41  61  91 122 164 201 242 310 361
#     4  12  27  41  59  91 128 161 199 250 305 360
#     4  10  22  43  64  91 120 160 205 248 299 353
#     4  10  22  41  68  89 119 160 205 250 295 360
#     4  12  23  41  61  91 122 164 201 242 310 361
#     4  10  22  41  68  89 119 160 205 250 295 360
#     4  10  22  43  64  91 120 160 205 248 299 353
#
# _framework density 20.172470000000001
#
# number of rings (size 3 to 8) (size 9 to 14) (size 15 to 20)
#    0.000    1.333    3.333    1.000    4.667    5.333 
#    0.000    1.667    0.000    0.000    0.000    0.000 
#    0.000    0.000    0.000    0.000    0.000    0.000 
#
# Total GULP energy -297714.979621 kJ/mol
# GULP energy per Si atom -12404.790818 kJ/mol
# Density = 2.012656 g / cm^3
# Si number density = 20.172470 Si / 1000 Ang^3
#
#
#
# Elastic Constant Matrix: (Units=GPa)
#
#
# Indices 1 2 3 4 5 6 
#
# 1 70.2194 74.3941 30.4189 -0.0002 -13.0210 -0.0013
# 2 74.3941 197.0502 55.5240 0.0005 1.5653 -0.0035
# 3 30.4189 55.5240 69.4960 0.0004 -0.6923 -0.0067
# 4 -0.0002 0.0005 0.0004 32.5311 -0.0004 12.5647
# 5 -13.0210 1.5653 -0.6923 -0.0004 34.9848 0.0045
# 6 -0.0013 -0.0035 -0.0067 12.5647 0.0045 86.5444
#
#
#
# Elastic Compliance Matrix: (Units=1/GPa)
#
#
# Indices 1 2 3 4 5 6 
#
# 1 0.028309 -0.009438 -0.004743 0.000001 0.010865 -0.000001
# 2 -0.009438 0.009701 -0.003660 0.000000 -0.004019 0.000000
# 3 -0.004743 -0.003660 0.019377 -0.000001 -0.001218 0.000001
# 4 0.000001 0.000000 -0.000001 0.032566 0.000001 -0.004728
# 5 0.010865 -0.004019 -0.001218 0.000001 0.032783 -0.000002
# 6 -0.000001 0.000000 0.000001 -0.004728 -0.000002 0.012241
#
#
# Mechanical properties :
#
#
# Convention : Reuss Voigt Hill
#
# Bulk Modulus (GPa) = 46.06797 73.04882 59.55840
# Shear Modulus (GPa) = 28.10670 42.57396 35.34033
#
# Velocity S-wave (km/s) = 3.73677 4.59900 4.19012
# Velocity P-wave (km/s) = 6.44240 8.03068 7.27999
#
# Compressibility (1/GPa) = 0.02170706
#
# Stress axis : x y z
#
# Youngs Moduli (GPa) = 35.32443 103.08078 51.60743
#
# Poissons Ratio (x) = 0.97285 0.24475
# Poissons Ratio (y) = 0.33338 0.18887
# Poissons Ratio (z) = 0.16753 0.37726
#
# Static dielectric constant tensor:
#      x y z
#    x 3.590360 0.000020 -0.025140 
#    y 0.000020 1.796180 -0.000020 
#    z -0.025140 -0.000020 3.722080 
# 
# 
# High freq. dielectric constant tensor:
#      x y z
#    x 1.789550 0.000000 0.002390 
#    y 0.000000 1.801850 0.000000 
#    z 0.002390 0.000000 1.792470 
# 
# From -- ./inp_files/278100.got.cif
#   From: 2010.06.25/outbox.cif.g09.slc.cpg/sg12_140_cif.got.tgz:278100.got - 2010.06.28 00:19:55.
