data_PCOD8112837
_publ_section_title
;
Structure prediction by ZEFSAII (Michael W. Deem and Ramdas Pophale) SiO2 
 PCOD8112837
Probable space group: C 2/M
;
_chemical_formula_sum "Si O2"
_cell_formula_units_Z 64
_cell_length_a 15.413662
_cell_length_b 17.531820
_cell_length_c 21.577415
_cell_angle_alpha 90.000000
_cell_angle_beta 150.772078
_cell_angle_gamma 90.000000
_cell_volume 2847.119098
_symmetry_space_group_name_H-M "C 2/M"
_symmetry_group_IT_number 12
_symmetry_cell_setting 'monoclinic'
loop_
_space_group_symop_operation_xyz
x,y,z
-x,y,-z
-x,-y,-z
x,-y,z
1/2+x,1/2+y,z
1/2-x,1/2+y,-z
1/2-x,1/2-y,-z
1/2+x,1/2-y,z
loop_
_atom_site_type_symbol
_atom_site_label
_atom_site_fract_x
_atom_site_fract_y
_atom_site_fract_z
Si Si1 0.727778 0.807765 0.041650
Si Si2 0.440796 0.586365 0.753700
Si Si3 0.818736 0.677480 0.326969
Si Si4 0.623182 0.084894 0.472714
Si Si5 0.303525 0.322731 0.886538
Si Si6 0.065748 0.588836 0.111245
Si Si7 0.691689 0.652156 0.644128
Si Si8 0.023172 0.589278 0.273460
O O1 0.677074 0.760157 0.070777
O O2 0.899338 0.857937 0.160956
O O3 0.750000 0.750000 0.000000
O O4 0.569279 0.866346 0.927747
O O5 0.504922 0.500000 0.808665
O O6 0.326843 0.617534 0.740008
O O7 0.327324 0.587105 0.619966
O O8 0.782790 0.692222 0.233000
O O9 0.811988 0.756320 0.359604
O O10 0.016180 0.640873 0.452542
O O11 0.613532 0.108849 0.395451
O O12 0.541899 0.000000 0.430203
O O13 0.177175 0.375866 0.850899
O O14 0.500000 0.359626 0.000000
O O15 0.055461 0.500000 0.118758
O O16 0.260420 0.619096 0.256445
O O17 0.000000 0.605659 0.000000
O O18 0.500000 0.621344 0.500000
O O19 0.848581 0.626666 0.696591
O O20 0.006578 0.500000 0.249757
#
# Coordination Sequence:
#
# PCOD8112837 Si02
#       8
#     8   8   8   8   8   8   8   8
#     4  12  24  41  63  90 125 162 208 265 325 388
#     4  11  22  38  64  93 123 166 217 266 321 389
#     4  11  22  38  61  93 130 167 213 267 327 387
#     4   9  20  39  62  90 127 168 213 269 323 377
#     4  11  23  41  66  91 123 169 216 270 326 384
#     4  11  25  45  66  89 123 167 214 264 316 377
#     4  12  25  42  67 100 135 175 218 264 327 396
#     4  10  23  42  63  93 132 170 213 267 325 385
#
# _framework density 22.478864000000002
#
# number of rings (size 3 to 8) (size 9 to 14) (size 15 to 20)
#    0.000    1.125    0.000    7.125    0.000    4.750 
#    0.000    8.750    0.000    0.000    0.000    0.000 
#    0.000    0.000    0.000    0.000    0.000    0.000 
#
# Total GULP energy -396727.550452 kJ/mol
# GULP energy per Si atom -12397.735952 kJ/mol
# Density = 2.242770 g / cm^3
# Si number density = 22.478864 Si / 1000 Ang^3
#
#
#
# Elastic Constant Matrix: (Units=GPa)
#
#
# Indices 1 2 3 4 5 6 
#
# 1 86.9845 44.5013 47.2729 -0.0023 11.1130 -0.0010
# 2 44.5013 138.8490 53.9239 0.0156 7.0809 0.0027
# 3 47.2729 53.9239 143.5950 0.0279 8.9633 0.0141
# 4 -0.0023 0.0156 0.0279 35.9415 0.0026 6.2470
# 5 11.1130 7.0809 8.9633 0.0026 35.4671 -0.0010
# 6 -0.0010 0.0027 0.0141 6.2470 -0.0010 28.0877
#
#
#
# Elastic Compliance Matrix: (Units=1/GPa)
#
#
# Indices 1 2 3 4 5 6 
#
# 1 0.015662 -0.003429 -0.003663 0.000005 -0.003297 0.000001
# 2 -0.003429 0.009211 -0.002319 -0.000003 -0.000178 0.000001
# 3 -0.003663 -0.002319 0.009083 -0.000006 -0.000685 -0.000003
# 4 0.000005 -0.000003 -0.000006 0.028942 -0.000002 -0.006437
# 5 -0.003297 -0.000178 -0.000685 -0.000002 0.029437 0.000002
# 6 0.000001 0.000001 -0.000003 -0.006437 0.000002 0.037034
#
#
# Mechanical properties :
#
#
# Convention : Reuss Voigt Hill
#
# Bulk Modulus (GPa) = 66.07129 73.42498 69.74813
# Shear Modulus (GPa) = 32.62931 34.81461 33.72196
#
# Velocity S-wave (km/s) = 3.81406 3.93971 3.87740
# Velocity P-wave (km/s) = 6.98946 7.30958 7.15131
#
# Compressibility (1/GPa) = 0.01513517
#
# Stress axis : x y z
#
# Youngs Moduli (GPa) = 63.84678 108.56820 110.09148
#
# Poissons Ratio (x) = 0.37231 0.40323
# Poissons Ratio (y) = 0.21895 0.25528
# Poissons Ratio (z) = 0.23385 0.25175
#
# Static dielectric constant tensor:
#      x y z
#    x 4.068690 -0.000010 -0.132710 
#    y -0.000010 4.183150 -0.000040 
#    z -0.132710 -0.000040 4.408660 
# 
# 
# High freq. dielectric constant tensor:
#      x y z
#    x 1.886220 0.000000 -0.013950 
#    y 0.000000 1.894560 0.000000 
#    z -0.013950 0.000000 1.897440 
# 
# From -- ./inp_files/340850.got.cif
#   From: 2010.06.25/outbox.cif.g09.slc.cpg/sg12_171_cif.got.tgz:340850.got - 2010.06.28 00:19:55.
