data_PCOD8112544
_publ_section_title
;
Structure prediction by ZEFSAII (Michael W. Deem and Ramdas Pophale) SiO2 
 PCOD8112544
Probable space group: C 2/M
;
_chemical_formula_sum "Si O2"
_cell_formula_units_Z 52
_cell_length_a 8.576398
_cell_length_b 17.502854
_cell_length_c 21.424391
_cell_angle_alpha 90.000000
_cell_angle_beta 54.237388
_cell_angle_gamma 90.000000
_cell_volume 2609.645779
_symmetry_space_group_name_H-M "C 2/M"
_symmetry_group_IT_number 12
_symmetry_cell_setting 'monoclinic'
loop_
_space_group_symop_operation_xyz
x,y,z
-x,y,-z
-x,-y,-z
x,-y,z
1/2+x,1/2+y,z
1/2-x,1/2+y,-z
1/2-x,1/2-y,-z
1/2+x,1/2-y,z
loop_
_atom_site_type_symbol
_atom_site_label
_atom_site_fract_x
_atom_site_fract_y
_atom_site_fract_z
Si Si1 0.678357 0.500000 0.766548
Si Si2 0.476049 0.749553 0.838994
Si Si3 0.654509 0.841919 0.246355
Si Si4 0.894560 0.846147 0.428501
Si Si5 0.079330 0.000000 0.653911
Si Si6 0.116348 0.351232 0.911603
Si Si7 0.729201 0.500000 0.178012
Si Si8 0.223031 0.691401 0.597036
O O1 0.769475 0.427398 0.779046
O O2 0.719589 0.500000 0.681741
O O3 0.447285 0.500000 0.830586
O O4 0.413933 0.813772 0.804893
O O5 0.676049 0.713092 0.768057
O O6 0.323258 0.681929 0.881832
O O7 0.497438 0.787938 0.901526
O O8 0.480195 0.842598 0.335467
O O9 0.880248 0.926185 0.396975
O O10 0.793069 0.782482 0.409269
O O11 0.781476 0.852212 0.520077
O O12 0.116279 0.823168 0.387982
O O13 0.857971 0.000000 0.730975
O O14 0.141773 0.425328 0.862256
O O15 0.000000 0.374833 0.000000
#
# Coordination Sequence:
#
# PCOD8112544 Si02
#       8
#     4   8   8   8   4   8   4   8
#     4  10  24  40  58  91 123 158 202 265 297 356
#     4  10  23  38  66  96 120 163 205 253 300 367
#     4  11  22  39  62  89 125 160 212 251 301 364
#     4  10  23  42  60  92 125 162 205 262 308 369
#     4  10  24  40  64  87 129 161 207 262 308 359
#     4  11  22  42  66  95 127 159 200 250 312 375
#     4  10  23  39  62  90 121 165 200 246 315 357
#     4  10  23  38  66  88 123 163 211 253 313 357
#
# _framework density 19.926076999999999
#
# number of rings (size 3 to 8) (size 9 to 14) (size 15 to 20)
#    0.462    1.231    1.538    1.615   10.769    3.077 
#    0.000    0.769    0.000    0.923    0.000    0.000 
#    0.000    0.000    0.000    0.000    0.000    0.000 
#
# Total GULP energy -322451.906771 kJ/mol
# GULP energy per Si atom -12401.996414 kJ/mol
# Density = 1.988072 g / cm^3
# Si number density = 19.926077 Si / 1000 Ang^3
#
#
#
# Elastic Constant Matrix: (Units=GPa)
#
#
# Indices 1 2 3 4 5 6 
#
# 1 81.9802 32.1151 17.9595 0.0001 -6.2621 -0.0001
# 2 32.1151 128.1200 32.3857 0.0001 7.6772 0.0000
# 3 17.9595 32.3857 95.2133 -0.0001 -8.6010 0.0001
# 4 0.0001 0.0001 -0.0001 25.9638 0.0001 0.6485
# 5 -6.2621 7.6772 -8.6010 0.0001 21.9195 -0.0001
# 6 -0.0001 0.0000 0.0001 0.6485 -0.0001 30.1516
#
#
#
# Elastic Compliance Matrix: (Units=1/GPa)
#
#
# Indices 1 2 3 4 5 6 
#
# 1 0.014206 -0.003601 -0.001010 0.000000 0.004923 0.000000
# 2 -0.003601 0.009858 -0.003192 0.000000 -0.005734 0.000000
# 3 -0.001010 -0.003192 0.012290 0.000000 0.005652 0.000000
# 4 0.000000 0.000000 0.000000 0.038536 0.000000 -0.000829
# 5 0.004923 -0.005734 0.005652 0.000000 0.051254 0.000000
# 6 0.000000 0.000000 0.000000 -0.000829 0.000000 0.033184
#
#
# Mechanical properties :
#
#
# Convention : Reuss Voigt Hill
#
# Bulk Modulus (GPa) = 48.19688 52.24823 50.22256
# Shear Modulus (GPa) = 27.49546 30.46387 28.97967
#
# Velocity S-wave (km/s) = 3.71869 3.91429 3.81774
# Velocity P-wave (km/s) = 6.53289 6.83424 6.68526
#
# Compressibility (1/GPa) = 0.02074823
#
# Stress axis : x y z
#
# Youngs Moduli (GPa) = 70.39321 101.43883 81.37014
#
# Poissons Ratio (x) = 0.36524 0.08220
# Poissons Ratio (y) = 0.25346 0.25973
# Poissons Ratio (z) = 0.07111 0.32379
#
# Static dielectric constant tensor:
#      x y z
#    x 3.654210 0.000000 -0.156610 
#    y 0.000000 3.475210 0.000000 
#    z -0.156610 0.000000 3.498930 
# 
# 
# High freq. dielectric constant tensor:
#      x y z
#    x 1.776390 0.000000 -0.007280 
#    y 0.000000 1.778440 0.000000 
#    z -0.007280 0.000000 1.770430 
# 
# From -- ./inp_files/301078.got.cif
#   From: 2010.06.25/outbox.cif.g09.slc.cpg/sg12_151_cif.got.tgz:301078.got - 2010.06.28 00:19:55.
