data_PCOD8112509
_publ_section_title
;
Structure prediction by ZEFSAII (Michael W. Deem and Ramdas Pophale) SiO2 
 PCOD8112509
Probable space group: C 2/M
;
_chemical_formula_sum "Si O2"
_cell_formula_units_Z 64
_cell_length_a 17.271549
_cell_length_b 20.728795
_cell_length_c 9.584960
_cell_angle_alpha 90.000000
_cell_angle_beta 99.763262
_cell_angle_gamma 90.000000
_cell_volume 3381.891713
_symmetry_space_group_name_H-M "C 2/M"
_symmetry_group_IT_number 12
_symmetry_cell_setting 'monoclinic'
loop_
_space_group_symop_operation_xyz
x,y,z
-x,y,-z
-x,-y,-z
x,-y,z
1/2+x,1/2+y,z
1/2-x,1/2+y,-z
1/2-x,1/2-y,-z
1/2+x,1/2-y,z
loop_
_atom_site_type_symbol
_atom_site_label
_atom_site_fract_x
_atom_site_fract_y
_atom_site_fract_z
Si Si1 0.120681 0.640312 0.499042
Si Si2 0.448725 0.745664 0.110100
Si Si3 0.904424 0.574351 0.782523
Si Si4 0.443884 0.720073 0.606188
Si Si5 0.070405 0.377415 0.780390
Si Si6 0.202328 0.194302 0.058258
Si Si7 0.200638 0.573187 0.995126
Si Si8 0.220726 0.194488 0.387864
O O1 0.125481 0.585781 0.383122
O O2 0.086304 0.706186 0.422015
O O3 0.065038 0.618371 0.610525
O O4 0.210370 0.641876 0.584071
O O5 0.506345 0.711417 0.237936
O O6 0.402536 0.804853 0.170276
O O7 0.500000 0.773833 0.000000
O O8 0.386314 0.695164 0.028452
O O9 0.920769 0.500000 0.814388
O O10 0.986544 0.611079 0.826371
O O11 0.839182 0.598721 0.872963
O O12 0.500000 0.697007 0.500000
O O13 0.366577 0.673780 0.585398
O O14 0.133234 0.428248 0.856509
O O15 0.231566 0.122293 0.030271
O O16 0.207597 0.212992 0.222686
O O17 0.250000 0.250000 0.000000
O O18 0.233971 0.500000 0.020286
O O19 0.250000 0.250000 0.500000
#
# Coordination Sequence:
#
# PCOD8112509 Si02
#       8
#     8   8   8   8   8   8   8   8
#     4  11  21  37  55  81 121 160 200 242 292 355
#     4  12  22  35  59  89 121 152 191 251 303 356
#     4  11  24  38  56  84 119 166 206 239 288 355
#     4  11  21  36  55  84 121 153 188 244 311 357
#     4  12  21  36  58  85 122 165 199 240 291 359
#     4  12  24  39  61  92 117 159 210 249 304 362
#     4  11  25  42  59  84 123 163 207 253 300 354
#     4  10  23  37  56  84 122 156 192 249 303 350
#
# _framework density 18.924320000000002
#
# number of rings (size 3 to 8) (size 9 to 14) (size 15 to 20)
#    0.000    0.750    6.250    1.875    5.250    2.500 
#    0.000    0.000    0.000    0.375    0.000    0.000 
#    0.000    3.500    0.000    0.000    0.000    0.000 
#
# Total GULP energy -396646.944205 kJ/mol
# GULP energy per Si atom -12395.217006 kJ/mol
# Density = 1.888125 g / cm^3
# Si number density = 18.924320 Si / 1000 Ang^3
#
#
#
# Elastic Constant Matrix: (Units=GPa)
#
#
# Indices 1 2 3 4 5 6 
#
# 1 106.4117 28.1400 47.2707 0.0000 5.7608 0.0000
# 2 28.1400 53.9782 23.3832 0.0000 -2.8242 0.0000
# 3 47.2707 23.3832 137.8423 0.0000 0.2202 0.0000
# 4 0.0000 0.0000 0.0000 21.7681 0.0000 0.0518
# 5 5.7608 -2.8242 0.2202 0.0000 38.7750 0.0000
# 6 0.0000 0.0000 0.0000 0.0518 0.0000 22.3709
#
#
#
# Elastic Compliance Matrix: (Units=1/GPa)
#
#
# Indices 1 2 3 4 5 6 
#
# 1 0.012362 -0.005099 -0.003371 0.000000 -0.002189 0.000000
# 2 -0.005099 0.022183 -0.002018 0.000000 0.002385 0.000000
# 3 -0.003371 -0.002018 0.008753 0.000000 0.000304 0.000000
# 4 0.000000 0.000000 0.000000 0.045939 0.000000 -0.000106
# 5 -0.002189 0.002385 0.000304 0.000000 0.026287 0.000000
# 6 0.000000 0.000000 0.000000 -0.000106 0.000000 0.044701
#
#
# Mechanical properties :
#
#
# Convention : Reuss Voigt Hill
#
# Bulk Modulus (GPa) = 44.79965 55.09112 49.94539
# Shear Modulus (GPa) = 26.50537 29.87867 28.19202
#
# Velocity S-wave (km/s) = 3.74652 3.97779 3.86388
# Velocity P-wave (km/s) = 6.51457 7.09024 6.80849
#
# Compressibility (1/GPa) = 0.02232160
#
# Stress axis : x y z
#
# Youngs Moduli (GPa) = 80.89516 45.07917 114.25268
#
# Poissons Ratio (x) = 0.22985 0.38512
# Poissons Ratio (y) = 0.41246 0.23061
# Poissons Ratio (z) = 0.27268 0.09099
#
# Static dielectric constant tensor:
#      x y z
#    x 3.874500 0.000000 0.001350 
#    y 0.000000 3.123050 0.000000 
#    z 0.001350 0.000000 3.895170 
# 
# 
# High freq. dielectric constant tensor:
#      x y z
#    x 1.741250 0.000000 -0.001280 
#    y 0.000000 1.676030 0.000000 
#    z -0.001280 0.000000 1.761660 
# 
# From -- ./inp_files/78791.got.cif
#   From: 2010.06.25/outbox.cif.g09.slc.cpg/sg12_40_cif.got.tgz:78791.got - 2010.06.28 00:19:55.
