data_PCOD8112751
_publ_section_title
;
Structure prediction by ZEFSAII (Michael W. Deem and Ramdas Pophale) SiO2 
 PCOD8112751
Probable space group: C 2/M
;
_chemical_formula_sum "Si O2"
_cell_formula_units_Z 56
_cell_length_a 19.246819
_cell_length_b 21.571782
_cell_length_c 16.019806
_cell_angle_alpha 90.000000
_cell_angle_beta 155.659670
_cell_angle_gamma 90.000000
_cell_volume 2741.344638
_symmetry_space_group_name_H-M "C 2/M"
_symmetry_group_IT_number 12
_symmetry_cell_setting 'monoclinic'
loop_
_space_group_symop_operation_xyz
x,y,z
-x,y,-z
-x,-y,-z
x,-y,z
1/2+x,1/2+y,z
1/2-x,1/2+y,-z
1/2-x,1/2-y,-z
1/2+x,1/2-y,z
loop_
_atom_site_type_symbol
_atom_site_label
_atom_site_fract_x
_atom_site_fract_y
_atom_site_fract_z
Si Si1 0.163705 0.670621 0.631871
Si Si2 0.552743 0.715916 0.965010
Si Si3 0.398927 0.928715 0.568573
Si Si4 0.894165 0.868143 0.657479
Si Si5 0.764172 0.073062 0.040188
Si Si6 0.367095 0.298831 0.464430
Si Si7 0.231446 0.172327 0.821451
O O1 0.302310 0.664647 0.856721
O O2 0.146729 0.606355 0.566290
O O3 0.206890 0.728630 0.616633
O O4 0.000000 0.692747 0.500000
O O5 0.617849 0.779245 0.992368
O O6 0.500000 0.736441 0.000000
O O7 0.420358 0.680794 0.761297
O O8 0.589694 0.910498 0.802383
O O9 0.255340 0.915001 0.480456
O O10 0.390061 0.000000 0.535916
O O11 0.813455 0.832538 0.490476
O O12 0.070469 0.902682 0.828418
O O13 0.783164 0.000000 0.076155
O O14 0.744427 0.105783 0.108761
O O15 0.291970 0.337497 0.303592
O O16 0.568238 0.295205 0.682096
#
# Coordination Sequence:
#
# PCOD8112751 Si02
#       7
#     8   8   8   8   8   8   8
#     4  11  20  39  61  85 125 155 200 255 299 367
#     4  11  21  36  58  94 119 153 199 253 315 355
#     4  11  25  42  60  88 125 164 207 249 294 362
#     4  11  23  40  65  90 122 159 206 255 305 356
#     4  10  23  41  64  90 123 166 206 244 298 364
#     4   9  19  36  63  93 120 159 196 252 319 353
#     4   9  19  38  59  90 128 153 201 255 299 366
#
# _framework density 20.427931000000001
#
# number of rings (size 3 to 8) (size 9 to 14) (size 15 to 20)
#    0.000    1.714    4.286    1.286    2.000    4.286 
#    0.000    8.571    0.000    2.143    0.000    0.000 
#    0.000    0.000    0.000    0.000    0.000    0.000 
#
# Total GULP energy -346914.327558 kJ/mol
# GULP energy per Si atom -12389.797413 kJ/mol
# Density = 2.038144 g / cm^3
# Si number density = 20.427931 Si / 1000 Ang^3
#
#
#
# Elastic Constant Matrix: (Units=GPa)
#
#
# Indices 1 2 3 4 5 6 
#
# 1 74.6827 49.6326 26.6020 0.0000 -2.3804 0.0000
# 2 49.6326 106.2012 32.0219 0.0000 -7.2598 0.0000
# 3 26.6020 32.0219 64.7431 0.0000 8.5440 0.0000
# 4 0.0000 0.0000 0.0000 28.7360 0.0000 -0.3081
# 5 -2.3804 -7.2598 8.5440 0.0000 35.5178 0.0000
# 6 0.0000 0.0000 0.0000 -0.3081 0.0000 35.8013
#
#
#
# Elastic Compliance Matrix: (Units=1/GPa)
#
#
# Indices 1 2 3 4 5 6 
#
# 1 0.020416 -0.008142 -0.004464 0.000000 0.000778 0.000000
# 2 -0.008142 0.014804 -0.004445 0.000000 0.003550 0.000000
# 3 -0.004464 -0.004445 0.020282 0.000000 -0.006087 0.000000
# 4 0.000000 0.000000 0.000000 0.034803 0.000000 0.000299
# 5 0.000778 0.003550 -0.006087 0.000000 0.030397 0.000000
# 6 0.000000 0.000000 0.000000 0.000299 0.000000 0.027935
#
#
# Mechanical properties :
#
#
# Convention : Reuss Voigt Hill
#
# Bulk Modulus (GPa) = 46.73096 51.34888 49.03992
# Shear Modulus (GPa) = 26.33356 29.16906 27.75131
#
# Velocity S-wave (km/s) = 3.59429 3.78286 3.68978
# Velocity P-wave (km/s) = 6.33648 6.65366 6.49700
#
# Compressibility (1/GPa) = 0.02139909
#
# Stress axis : x y z
#
# Youngs Moduli (GPa) = 48.98129 67.54852 49.30543
#
# Poissons Ratio (x) = 0.54998 0.22011
# Poissons Ratio (y) = 0.39881 0.21917
# Poissons Ratio (z) = 0.21866 0.30026
#
# Static dielectric constant tensor:
#      x y z
#    x 3.870330 0.000000 0.120390 
#    y 0.000000 3.508030 0.000000 
#    z 0.120390 0.000000 4.245240 
# 
# 
# High freq. dielectric constant tensor:
#      x y z
#    x 1.803910 0.000000 0.014920 
#    y 0.000000 1.778890 0.000000 
#    z 0.014920 0.000000 1.812850 
# 
# From -- ./inp_files/227638.got.cif
#   From: 2010.06.25/outbox.cif.g09.slc.cpg/sg12_114_cif.got.tgz:227638.got - 2010.06.28 00:19:55.
