data_PCOD8112297
_publ_section_title
;
Structure prediction by ZEFSAII (Michael W. Deem and Ramdas Pophale) SiO2 
 PCOD8112297
Probable space group: C 2/M
;
_chemical_formula_sum "Si O2"
_cell_formula_units_Z 48
_cell_length_a 14.839282
_cell_length_b 27.634263
_cell_length_c 9.221192
_cell_angle_alpha 90.000000
_cell_angle_beta 38.742035
_cell_angle_gamma 90.000000
_cell_volume 2366.430982
_symmetry_space_group_name_H-M "C 2/M"
_symmetry_group_IT_number 12
_symmetry_cell_setting 'monoclinic'
loop_
_space_group_symop_operation_xyz
x,y,z
-x,y,-z
-x,-y,-z
x,-y,z
1/2+x,1/2+y,z
1/2-x,1/2+y,-z
1/2-x,1/2-y,-z
1/2+x,1/2-y,z
loop_
_atom_site_type_symbol
_atom_site_label
_atom_site_fract_x
_atom_site_fract_y
_atom_site_fract_z
Si Si1 0.614421 0.945214 0.728569
Si Si2 0.148295 0.851373 0.229219
Si Si3 0.628684 0.681159 0.935948
Si Si4 0.591009 0.794081 0.022481
Si Si5 0.422000 0.142023 0.450793
Si Si6 0.829228 0.948377 0.695647
O O1 0.601131 0.905608 0.618113
O O2 0.775122 0.941534 0.597123
O O3 0.590860 0.000000 0.696626
O O4 0.500000 0.934136 0.000000
O O5 0.231020 0.903126 0.137794
O O6 0.000000 0.851693 0.500000
O O7 0.124268 0.846760 0.090796
O O8 0.243976 0.811117 0.188536
O O9 0.774490 0.670497 0.667016
O O10 0.500000 0.660880 0.000000
O O11 0.599386 0.736690 0.013091
O O12 0.520680 0.816624 0.254240
O O13 0.500000 0.813305 0.000000
O O14 0.500000 0.125122 0.500000
O O15 0.000000 0.949143 0.500000
O O16 0.766758 0.000000 0.831896
#
# Coordination Sequence:
#
# PCOD8112297 Si02
#       6
#     8   8   8   8   8   8
#     4  10  22  42  69  97 128 168 215 260 315 389
#     4  11  23  39  66  92 124 168 212 266 312 385
#     4  11  28  42  61  95 130 169 214 266 329 373
#     4  11  25  43  64  90 124 174 219 259 315 383
#     4  12  25  42  67  94 134 169 212 272 323 381
#     4   9  19  36  62  91 118 158 208 252 300 370
#
# _framework density 20.283709999999999
#
# number of rings (size 3 to 8) (size 9 to 14) (size 15 to 20)
#    0.000    1.333    1.667    3.000    9.333    1.667 
#    0.000    0.833    0.000    1.000    0.000    0.000 
#    0.000    0.000    0.000    0.000    0.000    0.000 
#
# Total GULP energy -297425.436819 kJ/mol
# GULP energy per Si atom -12392.726534 kJ/mol
# Density = 2.023754 g / cm^3
# Si number density = 20.283710 Si / 1000 Ang^3
#
#
#
# Elastic Constant Matrix: (Units=GPa)
#
#
# Indices 1 2 3 4 5 6 
#
# 1 154.6315 61.9367 41.4861 0.0000 4.0410 0.0000
# 2 61.9367 118.5975 47.5876 0.0000 19.5349 0.0000
# 3 41.4861 47.5876 93.7104 0.0000 3.9087 0.0000
# 4 0.0000 0.0000 0.0000 27.1124 0.0000 -9.5981
# 5 4.0410 19.5349 3.9087 0.0000 34.1972 0.0000
# 6 0.0000 0.0000 0.0000 -9.5981 0.0000 42.4630
#
#
#
# Elastic Compliance Matrix: (Units=1/GPa)
#
#
# Indices 1 2 3 4 5 6 
#
# 1 0.008498 -0.003949 -0.001818 0.000000 0.001460 0.000000
# 2 -0.003949 0.013547 -0.004851 0.000000 -0.006718 0.000000
# 3 -0.001818 -0.004851 0.013881 0.000000 0.001399 0.000000
# 4 0.000000 0.000000 0.000000 0.040092 0.000000 0.009062
# 5 0.001460 -0.006718 0.001399 0.000000 0.032747 0.000000
# 6 0.000000 0.000000 0.000000 0.009062 0.000000 0.025598
#
#
# Mechanical properties :
#
#
# Convention : Reuss Voigt Hill
#
# Bulk Modulus (GPa) = 68.06990 74.32893 71.19941
# Shear Modulus (GPa) = 31.15336 35.14979 33.15158
#
# Velocity S-wave (km/s) = 3.92328 4.16734 4.04715
# Velocity P-wave (km/s) = 7.35898 7.73820 7.55097
#
# Compressibility (1/GPa) = 0.01469078
#
# Stress axis : x y z
#
# Youngs Moduli (GPa) = 117.66968 73.81525 72.04154
#
# Poissons Ratio (x) = 0.29152 0.13095
# Poissons Ratio (y) = 0.46471 0.34947
# Poissons Ratio (z) = 0.21388 0.35808
#
# Static dielectric constant tensor:
#      x y z
#    x 4.244200 0.000000 -0.370790 
#    y 0.000000 4.284900 0.000000 
#    z -0.370790 0.000000 3.785980 
# 
# 
# High freq. dielectric constant tensor:
#      x y z
#    x 1.818200 0.000000 -0.019930 
#    y 0.000000 1.810090 0.000000 
#    z -0.019930 0.000000 1.767000 
# 
# From -- ./inp_files/67317.got.cif
#   From: 2010.06.25/outbox.cif.g09.slc.cpg/sg12_34_cif.got.tgz:67317.got - 2010.06.28 00:19:55.
