data_PCOD8112023
_publ_section_title
;
Structure prediction by ZEFSAII (Michael W. Deem and Ramdas Pophale) SiO2 
 PCOD8112023
Probable space group: C 2/M
;
_chemical_formula_sum "Si O2"
_cell_formula_units_Z 40
_cell_length_a 19.924151
_cell_length_b 14.504364
_cell_length_c 18.549882
_cell_angle_alpha 90.000000
_cell_angle_beta 20.232469
_cell_angle_gamma 90.000000
_cell_volume 1853.882925
_symmetry_space_group_name_H-M "C 2/M"
_symmetry_group_IT_number 12
_symmetry_cell_setting 'monoclinic'
loop_
_space_group_symop_operation_xyz
x,y,z
-x,y,-z
-x,-y,-z
x,-y,z
1/2+x,1/2+y,z
1/2-x,1/2+y,-z
1/2-x,1/2-y,-z
1/2+x,1/2-y,z
loop_
_atom_site_type_symbol
_atom_site_label
_atom_site_fract_x
_atom_site_fract_y
_atom_site_fract_z
Si Si1 0.107809 0.391023 0.737308
Si Si2 0.900658 0.221006 0.530477
Si Si3 0.877891 0.102264 0.342707
Si Si4 0.804141 0.823519 0.886754
Si Si5 0.162011 0.892126 0.776875
O O1 0.143958 0.500000 0.709865
O O2 0.212894 0.339785 0.697865
O O3 0.203580 0.352235 0.565824
O O4 0.880053 0.369415 0.966232
O O5 0.842979 0.325810 0.610845
O O6 0.000000 0.174123 0.500000
O O7 0.061483 0.226327 0.306683
O O8 0.909730 0.144499 0.230558
O O9 0.073820 0.099980 0.192494
O O10 0.808600 0.000000 0.396647
O O11 0.750000 0.750000 0.000000
O O12 0.223225 0.000000 0.716765
O O13 0.000000 0.873172 0.000000
#
# Coordination Sequence:
#
# PCOD8112023 Si02
#       5
#     8   8   8   8   8
#     4  10  22  42  67  93 127 168 212 263 318 373
#     4  11  26  41  62  93 131 165 211 267 314 373
#     4   9  19  38  61  91 124 155 204 260 307 371
#     4  11  22  37  64  94 121 168 210 258 312 378
#     4  10  22  41  66  92 128 170 208 256 319 384
#
# _framework density 21.576335
#
# number of rings (size 3 to 8) (size 9 to 14) (size 15 to 20)
#    0.000    1.800    0.000    3.000    5.600    4.800 
#    0.000    2.000    0.000    0.000    0.000    0.000 
#    0.000    0.000    0.000    0.000    0.000    0.000 
#
# Total GULP energy -247863.723587 kJ/mol
# GULP energy per Si atom -12393.186179 kJ/mol
# Density = 2.152723 g / cm^3
# Si number density = 21.576335 Si / 1000 Ang^3
#
#
#
# Elastic Constant Matrix: (Units=GPa)
#
#
# Indices 1 2 3 4 5 6 
#
# 1 115.8929 28.0064 41.7128 -0.0791 -7.1796 0.0954
# 2 28.0064 81.8159 41.1598 0.0718 1.3328 -0.0563
# 3 41.7128 41.1598 114.2700 -0.0329 -7.1356 0.0269
# 4 -0.0791 0.0718 -0.0329 29.3479 -0.0038 0.1944
# 5 -7.1796 1.3328 -7.1356 -0.0038 39.2836 0.0020
# 6 0.0954 -0.0563 0.0269 0.1944 0.0020 24.3209
#
#
#
# Elastic Compliance Matrix: (Units=1/GPa)
#
#
# Indices 1 2 3 4 5 6 
#
# 1 0.010265 -0.002072 -0.002912 0.000030 0.001417 -0.000042
# 2 -0.002072 0.015434 -0.004915 -0.000049 -0.001795 0.000050
# 3 -0.002912 -0.004915 0.011695 0.000018 0.001759 -0.000013
# 4 0.000030 -0.000049 0.000018 0.034076 0.000014 -0.000273
# 5 0.001417 -0.001795 0.001759 0.000014 0.026095 -0.000014
# 6 -0.000042 0.000050 -0.000013 -0.000273 -0.000014 0.041119
#
#
# Mechanical properties :
#
#
# Convention : Reuss Voigt Hill
#
# Bulk Modulus (GPa) = 56.83418 59.30409 58.06914
# Shear Modulus (GPa) = 30.42319 31.99713 31.21016
#
# Velocity S-wave (km/s) = 3.75910 3.85512 3.80741
# Velocity P-wave (km/s) = 6.72602 6.88195 6.80443
#
# Compressibility (1/GPa) = 0.01759505
#
# Stress axis : x y z
#
# Youngs Moduli (GPa) = 97.41385 64.79304 85.50994
#
# Poissons Ratio (x) = 0.13425 0.24904
# Poissons Ratio (y) = 0.20184 0.42028
# Poissons Ratio (z) = 0.28371 0.31846
#
# Static dielectric constant tensor:
#      x y z
#    x 4.425640 0.003200 -0.144400 
#    y 0.003200 4.421180 -0.001030 
#    z -0.144400 -0.001030 4.293110 
# 
# 
# High freq. dielectric constant tensor:
#      x y z
#    x 1.852570 -0.000010 0.006600 
#    y -0.000010 1.842710 0.000010 
#    z 0.006600 0.000010 1.846790 
# 
# From -- ./inp_files/15121.got.cif
#   From: 2010.06.25/outbox.cif.g09.slc.cpg/sg12_8_cif.got.tgz:15121.got - 2010.06.28 00:19:55.
