data_PCOD8112976
_publ_section_title
;
Structure prediction by ZEFSAII (Michael W. Deem and Ramdas Pophale) SiO2 
 PCOD8112976
Probable space group: C 2/M
;
_chemical_formula_sum "Si O2"
_cell_formula_units_Z 32
_cell_length_a 11.976923
_cell_length_b 11.639825
_cell_length_c 11.606102
_cell_angle_alpha 90.000000
_cell_angle_beta 73.316642
_cell_angle_gamma 90.000000
_cell_volume 1549.890260
_symmetry_space_group_name_H-M "C 2/M"
_symmetry_group_IT_number 12
_symmetry_cell_setting 'monoclinic'
loop_
_space_group_symop_operation_xyz
x,y,z
-x,y,-z
-x,-y,-z
x,-y,z
1/2+x,1/2+y,z
1/2-x,1/2+y,-z
1/2-x,1/2-y,-z
1/2+x,1/2-y,z
loop_
_atom_site_type_symbol
_atom_site_label
_atom_site_fract_x
_atom_site_fract_y
_atom_site_fract_z
Si Si1 0.552342 0.000000 0.809792
Si Si2 0.326224 0.213084 0.301094
Si Si3 0.627382 0.627342 0.921182
Si Si4 0.804943 0.500000 0.001645
Si Si5 0.623268 0.632281 0.498718
O O1 0.572651 0.115814 0.729999
O O2 0.419689 0.000000 0.888642
O O3 0.652003 0.000000 0.880280
O O4 0.321879 0.280424 0.182136
O O5 0.339290 0.303144 0.398421
O O6 0.205250 0.148939 0.363005
O O7 0.610473 0.500000 0.868856
O O8 0.723799 0.612251 0.996070
O O9 0.500000 0.672192 0.000000
O O10 0.500000 0.683566 0.500000
O O11 0.616245 0.500000 0.534925
#
# Coordination Sequence:
#
# PCOD8112976 Si02
#       5
#     4   8   8   4   8
#     4  11  24  40  57  97 130 161 201 250 310 368
#     4  11  23  40  64  90 126 160 203 254 305 368
#     4   9  21  42  64  92 118 167 208 248 302 362
#     4   9  23  42  59  92 129 163 204 247 303 371
#     4  10  23  43  63  91 118 160 210 256 303 355
#
# _framework density 20.646622000000001
#
# number of rings (size 3 to 8) (size 9 to 14) (size 15 to 20)
#    0.750    1.250    1.250    0.750    7.000    3.000 
#    0.000    0.625    0.000    0.000    0.000    0.000 
#    0.000    0.000    0.000    0.000    0.000    0.000 
#
# Total GULP energy -198265.650107 kJ/mol
# GULP energy per Si atom -12391.603132 kJ/mol
# Density = 2.059963 g / cm^3
# Si number density = 20.646622 Si / 1000 Ang^3
#
#
#
# Elastic Constant Matrix: (Units=GPa)
#
#
# Indices 1 2 3 4 5 6 
#
# 1 116.7002 0.7014 31.8635 0.0000 -19.1935 0.0000
# 2 0.7014 61.5240 17.6718 0.0000 -1.6698 0.0000
# 3 31.8635 17.6718 80.9160 0.0000 -14.8223 0.0000
# 4 0.0000 0.0000 0.0000 32.9524 0.0000 -17.4538
# 5 -19.1935 -1.6698 -14.8223 0.0000 28.8992 0.0000
# 6 0.0000 0.0000 0.0000 -17.4538 0.0000 -5.1283
#
#
#
# Elastic Compliance Matrix: (Units=1/GPa)
#
#
# Indices 1 2 3 4 5 6 
#
# 1 0.010328 0.000979 -0.003327 0.000000 0.005210 0.000000
# 2 0.000979 0.017463 -0.004299 0.000000 -0.000546 0.000000
# 3 -0.003327 -0.004299 0.015625 0.000000 0.005556 0.000000
# 4 0.000000 0.000000 0.000000 0.010828 0.000000 -0.036852
# 5 0.005210 -0.000546 0.005556 0.000000 0.040881 0.000000
# 6 0.000000 0.000000 0.000000 -0.036852 0.000000 -0.069575
#
#
# Mechanical properties :
#
#
# Convention : Reuss Voigt Hill
#
# Bulk Modulus (GPa) = 33.19764 39.95706 36.57735
# Shear Modulus (GPa) = 102.28136 25.27157 63.77646
#
# Velocity S-wave (km/s) = 7.04603 3.50237 5.56387
# Velocity P-wave (km/s) = 9.07245 5.97916 7.68309
#
# Compressibility (1/GPa) = 0.03012262
#
# Stress axis : x y z
#
# Youngs Moduli (GPa) = 96.82197 57.26463 63.99893
#
# Poissons Ratio (x) = -0.05607 0.21290
# Poissons Ratio (y) = -0.09480 0.27516
# Poissons Ratio (z) = 0.32209 0.24620
#
# Static dielectric constant tensor:
#      x y z
#    x 3.821070 0.000000 -0.325570 
#    y 0.000000 3.796810 0.000000 
#    z -0.325570 0.000000 3.682080 
# 
# 
# High freq. dielectric constant tensor:
#      x y z
#    x 1.800290 0.000000 -0.022900 
#    y 0.000000 1.818250 0.000000 
#    z -0.022900 0.000000 1.800720 
# 
# From -- ./inp_files/127709.got.cif
#   From: 2010.06.25/outbox.cif.g09.slc.cpg/sg12_64_cif.got.tgz:127709.got - 2010.06.28 00:19:55.
