data_PCOD8112564
_publ_section_title
;
Structure prediction by ZEFSAII (Michael W. Deem and Ramdas Pophale) SiO2 
 PCOD8112564
Probable space group: C 2/M
;
_chemical_formula_sum "Si O2"
_cell_formula_units_Z 48
_cell_length_a 11.195111
_cell_length_b 22.273542
_cell_length_c 12.362016
_cell_angle_alpha 90.000000
_cell_angle_beta 131.093611
_cell_angle_gamma 90.000000
_cell_volume 2323.105990
_symmetry_space_group_name_H-M "C 2/M"
_symmetry_group_IT_number 12
_symmetry_cell_setting 'monoclinic'
loop_
_space_group_symop_operation_xyz
x,y,z
-x,y,-z
-x,-y,-z
x,-y,z
1/2+x,1/2+y,z
1/2-x,1/2+y,-z
1/2-x,1/2-y,-z
1/2+x,1/2-y,z
loop_
_atom_site_type_symbol
_atom_site_label
_atom_site_fract_x
_atom_site_fract_y
_atom_site_fract_z
Si Si1 0.311616 0.246342 0.412914
Si Si2 0.727763 0.570188 0.861046
Si Si3 0.182402 0.386151 0.636338
Si Si4 0.378257 0.929750 0.174542
Si Si5 0.391020 0.431871 0.578156
Si Si6 0.184884 0.368444 0.289066
O O1 0.500000 0.255392 0.500000
O O2 0.250000 0.250000 0.500000
O O3 0.255668 0.182295 0.333347
O O4 0.209954 0.297312 0.290902
O O5 0.748686 0.500000 0.855395
O O6 0.553046 0.593180 0.726179
O O7 0.844725 0.602976 0.846584
O O8 0.767519 0.587676 0.007422
O O9 0.219870 0.413917 0.776321
O O10 0.263952 0.428469 0.597624
O O11 0.000000 0.388329 0.500000
O O12 0.532456 0.886953 0.268867
O O13 0.427424 0.000000 0.201100
O O14 0.408440 0.500000 0.549264
O O15 0.341264 0.393903 0.443151
#
# Coordination Sequence:
#
# PCOD8112564 Si02
#       6
#     8   8   8   8   8   8
#     4  11  22  40  64  95 132 171 216 267 328 381
#     4  10  23  39  58  90 129 165 201 252 327 389
#     4  11  22  39  62  92 120 163 215 261 314 376
#     4  11  23  41  64  91 128 168 207 261 323 383
#     4  11  21  35  61  93 121 153 205 267 315 364
#     4  12  21  37  65  92 121 163 211 262 309 377
#
# _framework density 20.661992999999999
#
# number of rings (size 3 to 8) (size 9 to 14) (size 15 to 20)
#    0.000    1.000    3.333    5.000    0.000    4.000 
#    0.000    3.333    3.667    0.000    0.000    0.000 
#    0.000    0.000    0.000    0.000    0.000    0.000 
#
# Total GULP energy -297596.283989 kJ/mol
# GULP energy per Si atom -12399.845166 kJ/mol
# Density = 2.061497 g / cm^3
# Si number density = 20.661993 Si / 1000 Ang^3
#
#
#
# Elastic Constant Matrix: (Units=GPa)
#
#
# Indices 1 2 3 4 5 6 
#
# 1 80.7221 15.7027 19.7100 0.0000 -20.1596 0.0000
# 2 15.7027 67.5534 29.9440 0.0000 -1.7770 0.0000
# 3 19.7100 29.9440 103.7968 0.0000 -23.5871 0.0000
# 4 0.0000 0.0000 0.0000 17.2630 0.0000 -3.8227
# 5 -20.1596 -1.7770 -23.5871 0.0000 39.3013 0.0000
# 6 0.0000 0.0000 0.0000 -3.8227 0.0000 34.0780
#
#
#
# Elastic Compliance Matrix: (Units=1/GPa)
#
#
# Indices 1 2 3 4 5 6 
#
# 1 0.014899 -0.003160 -0.000247 0.000000 0.007351 0.000000
# 2 -0.003160 0.017861 -0.005486 0.000000 -0.004106 0.000000
# 3 -0.000247 -0.005486 0.012944 0.000000 0.007394 0.000000
# 4 0.000000 0.000000 0.000000 0.059403 0.000000 0.006664
# 5 0.007351 -0.004106 0.007394 0.000000 0.033467 0.000000
# 6 0.000000 0.000000 0.000000 0.006664 0.000000 0.030092
#
#
# Mechanical properties :
#
#
# Convention : Reuss Voigt Hill
#
# Bulk Modulus (GPa) = 35.81876 42.53175 39.17525
# Shear Modulus (GPa) = 25.54168 30.57617 28.05893
#
# Velocity S-wave (km/s) = 3.51973 3.85103 3.68910
# Velocity P-wave (km/s) = 5.82162 6.35634 6.09485
#
# Compressibility (1/GPa) = 0.02791833
#
# Stress axis : x y z
#
# Youngs Moduli (GPa) = 67.11758 55.98693 77.25726
#
# Poissons Ratio (x) = 0.17695 0.01907
# Poissons Ratio (y) = 0.21212 0.42380
# Poissons Ratio (z) = 0.01657 0.30712
#
# Static dielectric constant tensor:
#      x y z
#    x 4.059520 0.000000 -0.138700 
#    y 0.000000 3.881720 0.000000 
#    z -0.138700 0.000000 3.698110 
# 
# 
# High freq. dielectric constant tensor:
#      x y z
#    x 1.822240 0.000000 -0.014030 
#    y 0.000000 1.803540 0.000000 
#    z -0.014030 0.000000 1.792670 
# 
# From -- ./inp_files/50817.got.cif
#   From: 2010.06.25/outbox.cif.g09.slc.cpg/sg12_26_cif.got.tgz:50817.got - 2010.06.28 00:19:55.
