data_PCOD8112351
_publ_section_title
;
Structure prediction by ZEFSAII (Michael W. Deem and Ramdas Pophale) SiO2 
 PCOD8112351
Probable space group: C 2/M
;
_chemical_formula_sum "Si O2"
_cell_formula_units_Z 32
_cell_length_a 13.866486
_cell_length_b 10.550722
_cell_length_c 9.024068
_cell_angle_alpha 90.000000
_cell_angle_beta 85.434834
_cell_angle_gamma 90.000000
_cell_volume 1316.045628
_symmetry_space_group_name_H-M "C 2/M"
_symmetry_group_IT_number 12
_symmetry_cell_setting 'monoclinic'
loop_
_space_group_symop_operation_xyz
x,y,z
-x,y,-z
-x,-y,-z
x,-y,z
1/2+x,1/2+y,z
1/2-x,1/2+y,-z
1/2-x,1/2-y,-z
1/2+x,1/2-y,z
loop_
_atom_site_type_symbol
_atom_site_label
_atom_site_fract_x
_atom_site_fract_y
_atom_site_fract_z
Si Si1 0.737301 0.214618 0.832497
Si Si2 0.034141 0.361084 0.835692
Si Si3 0.440650 0.641509 0.666176
Si Si4 0.311374 0.638992 0.423501
O O1 0.649444 0.116155 0.824855
O O2 0.833919 0.156729 0.750885
O O3 0.696397 0.340887 0.751993
O O4 0.750000 0.250000 0.000000
O O5 0.987567 0.500000 0.805413
O O6 0.006012 0.256804 0.716885
O O7 0.000000 0.311297 0.000000
O O8 0.479290 0.500000 0.706264
O O9 0.420119 0.647898 0.486190
O O10 0.269201 0.500000 0.466648
O O11 0.250000 0.750000 0.500000
#
# Coordination Sequence:
#
# PCOD8112351 Si02
#       4
#     8   8   8   8
#     4  11  22  41  65  97 128 170 213 266 323 385
#     4  11  24  42  63  95 130 168 216 269 323 383
#     4  10  22  43  65  94 129 166 213 267 322 387
#     4   9  21  40  66  96 130 170 216 266 324 386
#
# _framework density 24.315266000000001
#
# number of rings (size 3 to 8) (size 9 to 14) (size 15 to 20)
#    0.000    1.750    2.500    0.750    0.000    9.500 
#    0.000    3.750    0.000    0.000    0.000    0.000 
#    0.000    0.000    0.000    0.000    0.000    0.000 
#
# Total GULP energy -198229.292416 kJ/mol
# GULP energy per Si atom -12389.330776 kJ/mol
# Density = 2.425992 g / cm^3
# Si number density = 24.315266 Si / 1000 Ang^3
#
#
#
# Elastic Constant Matrix: (Units=GPa)
#
#
# Indices 1 2 3 4 5 6 
#
# 1 119.0771 46.0299 32.2187 0.0000 15.7252 0.0000
# 2 46.0299 204.9996 91.9584 0.0000 26.1729 0.0000
# 3 32.2187 91.9584 175.0589 0.0000 23.7842 0.0000
# 4 0.0000 0.0000 0.0000 23.5311 0.0000 0.7777
# 5 15.7252 26.1729 23.7842 0.0000 38.4894 0.0000
# 6 0.0000 0.0000 0.0000 0.7777 0.0000 31.3892
#
#
#
# Elastic Compliance Matrix: (Units=1/GPa)
#
#
# Indices 1 2 3 4 5 6 
#
# 1 0.009482 -0.001547 -0.000599 0.000000 -0.002451 0.000000
# 2 -0.001547 0.006858 -0.003024 0.000000 -0.002163 0.000000
# 3 -0.000599 -0.003024 0.007749 0.000000 -0.002487 0.000000
# 4 0.000000 0.000000 0.000000 0.042532 0.000000 -0.001054
# 5 -0.002451 -0.002163 -0.002487 0.000000 0.029990 0.000000
# 6 0.000000 0.000000 0.000000 -0.001054 0.000000 0.031884
#
#
# Mechanical properties :
#
#
# Convention : Reuss Voigt Hill
#
# Bulk Modulus (GPa) = 72.73699 93.28329 83.01014
# Shear Modulus (GPa) = 34.86288 40.61052 37.73670
#
# Velocity S-wave (km/s) = 3.79064 4.09120 3.94379
# Velocity P-wave (km/s) = 7.00983 7.79516 7.41290
#
# Compressibility (1/GPa) = 0.01374816
#
# Stress axis : x y z
#
# Youngs Moduli (GPa) = 105.46413 145.81361 129.04769
#
# Poissons Ratio (x) = 0.22561 0.07733
# Poissons Ratio (y) = 0.16318 0.39023
# Poissons Ratio (z) = 0.06320 0.44093
#
# Static dielectric constant tensor:
#      x y z
#    x 4.884160 0.000000 0.127760 
#    y 0.000000 4.348110 0.000000 
#    z 0.127760 0.000000 5.491020 
# 
# 
# High freq. dielectric constant tensor:
#      x y z
#    x 1.993150 0.000000 -0.011660 
#    y 0.000000 1.965330 0.000000 
#    z -0.011660 0.000000 1.980040 
# 
# From -- ./inp_files/56895.got.cif
#   From: 2010.06.25/outbox.cif.g09.slc.cpg/sg12_29_cif.got.tgz:56895.got - 2010.06.28 00:19:55.
