data_PCOD8112129
_publ_section_title
;
Structure prediction by ZEFSAII (Michael W. Deem and Ramdas Pophale) SiO2 
 PCOD8112129
Probable space group: C 2/M
;
_chemical_formula_sum "Si O2"
_cell_formula_units_Z 48
_cell_length_a 9.967950
_cell_length_b 10.047564
_cell_length_c 28.750480
_cell_angle_alpha 90.000000
_cell_angle_beta 60.066051
_cell_angle_gamma 90.000000
_cell_volume 2495.347502
_symmetry_space_group_name_H-M "C 2/M"
_symmetry_group_IT_number 12
_symmetry_cell_setting 'monoclinic'
loop_
_space_group_symop_operation_xyz
x,y,z
-x,y,-z
-x,-y,-z
x,-y,z
1/2+x,1/2+y,z
1/2-x,1/2+y,-z
1/2-x,1/2-y,-z
1/2+x,1/2-y,z
loop_
_atom_site_type_symbol
_atom_site_label
_atom_site_fract_x
_atom_site_fract_y
_atom_site_fract_z
Si Si1 0.905305 0.653677 0.150845
Si Si2 0.061521 0.237980 0.212782
Si Si3 0.666487 0.000000 0.406463
Si Si4 0.673605 0.733816 0.463541
Si Si5 0.370615 0.000000 0.392780
Si Si6 0.623872 0.500000 0.716605
Si Si7 0.604885 0.846454 0.026138
Si Si8 0.419225 0.000000 0.730194
O O1 0.921097 0.500000 0.162258
O O2 0.729761 0.688126 0.168399
O O3 0.961204 0.743992 0.183760
O O4 0.007158 0.687836 0.088596
O O5 0.072460 0.372676 0.239079
O O6 0.980979 0.129974 0.259586
O O7 0.675130 0.126396 0.437673
O O8 0.505256 0.000000 0.407449
O O9 0.811293 0.000000 0.346700
O O10 0.500000 0.680090 0.500000
O O11 0.750000 0.750000 0.500000
O O12 0.766720 0.630363 0.416036
O O13 0.435813 0.000000 0.329531
O O14 0.759698 0.500000 0.730376
O O15 0.660736 0.000000 0.016422
O O16 0.500000 0.815604 0.000000
O O17 0.750000 0.750000 0.000000
#
# Coordination Sequence:
#
# PCOD8112129 Si02
#       8
#     8   8   4   8   4   4   8   4
#     4  11  23  39  64  92 128 161 207 262 309 367
#     4  12  22  42  62  94 122 165 210 254 315 367
#     4  11  24  44  62  96 130 162 203 263 312 361
#     4  12  23  43  68  93 125 165 206 255 311 366
#     4  11  24  43  63  94 128 166 206 254 310 373
#     4  11  24  41  66  90 128 167 205 253 318 371
#     4  10  22  42  62  91 125 165 207 257 312 368
#     4  11  24  41  63  93 130 160 208 261 306 369
#
# _framework density 19.235797000000002
#
# number of rings (size 3 to 8) (size 9 to 14) (size 15 to 20)
#    0.000    0.833    5.000    3.000    0.000    0.333 
#    3.000    1.667    0.000    0.000    0.000    0.000 
#    0.000    0.000    0.000    0.000    0.000    0.000 
#
# Total GULP energy -297753.802671 kJ/mol
# GULP energy per Si atom -12406.408445 kJ/mol
# Density = 1.919202 g / cm^3
# Si number density = 19.235797 Si / 1000 Ang^3
#
#
#
# Elastic Constant Matrix: (Units=GPa)
#
#
# Indices 1 2 3 4 5 6 
#
# 1 94.5362 25.6828 39.7916 0.0000 -20.5063 0.0000
# 2 25.6828 102.1786 47.4447 0.0000 -22.6180 0.0000
# 3 39.7916 47.4447 113.1565 0.0000 -17.6511 0.0000
# 4 0.0000 0.0000 0.0000 95.6858 0.0000 31.3739
# 5 -20.5063 -22.6180 -17.6511 0.0000 39.1903 0.0000
# 6 0.0000 0.0000 0.0000 31.3739 0.0000 62.3758
#
#
#
# Elastic Compliance Matrix: (Units=1/GPa)
#
#
# Indices 1 2 3 4 5 6 
#
# 1 0.013367 -0.000533 -0.003694 0.000000 0.005023 0.000000
# 2 -0.000533 0.013191 -0.004517 0.000000 0.005300 0.000000
# 3 -0.003694 -0.004517 0.012177 0.000000 0.000945 0.000000
# 4 0.000000 0.000000 0.000000 0.012515 0.000000 -0.006295
# 5 0.005023 0.005300 0.000945 0.000000 0.031629 0.000000
# 6 0.000000 0.000000 0.000000 -0.006295 0.000000 0.019198
#
#
# Mechanical properties :
#
#
# Convention : Reuss Voigt Hill
#
# Bulk Modulus (GPa) = 47.06046 59.52326 53.29186
# Shear Modulus (GPa) = 39.47979 52.58053 46.03016
#
# Velocity S-wave (km/s) = 4.53527 5.23393 4.89708
# Velocity P-wave (km/s) = 7.20715 8.21807 7.72915
#
# Compressibility (1/GPa) = 0.02124926
#
# Stress axis : x y z
#
# Youngs Moduli (GPa) = 74.81116 75.80837 82.11941
#
# Poissons Ratio (x) = 0.04040 0.30331
# Poissons Ratio (y) = 0.03987 0.37091
# Poissons Ratio (z) = 0.27632 0.34241
#
# Static dielectric constant tensor:
#      x y z
#    x 3.625900 0.000000 -0.092890 
#    y 0.000000 3.575330 0.000000 
#    z -0.092890 0.000000 3.655610 
# 
# 
# High freq. dielectric constant tensor:
#      x y z
#    x 1.758170 0.000000 -0.004520 
#    y 0.000000 1.761310 0.000000 
#    z -0.004520 0.000000 1.763740 
# 
# From -- ./inp_files/332265.got.cif
#   From: 2010.06.25/outbox.cif.g09.slc.cpg/sg12_167_cif.got.tgz:332265.got - 2010.06.28 00:19:55.
