data_PCOD8112538
_publ_section_title
;
Structure prediction by ZEFSAII (Michael W. Deem and Ramdas Pophale) SiO2 
 PCOD8112538
Probable space group: C 2/M
;
_chemical_formula_sum "Si O2"
_cell_formula_units_Z 36
_cell_length_a 5.427747
_cell_length_b 27.581134
_cell_length_c 11.398670
_cell_angle_alpha 90.000000
_cell_angle_beta 73.356400
_cell_angle_gamma 90.000000
_cell_volume 1634.929219
_symmetry_space_group_name_H-M "C 2/M"
_symmetry_group_IT_number 12
_symmetry_cell_setting 'monoclinic'
loop_
_space_group_symop_operation_xyz
x,y,z
-x,y,-z
-x,-y,-z
x,-y,z
1/2+x,1/2+y,z
1/2-x,1/2+y,-z
1/2-x,1/2-y,-z
1/2+x,1/2-y,z
loop_
_atom_site_type_symbol
_atom_site_label
_atom_site_fract_x
_atom_site_fract_y
_atom_site_fract_z
Si Si1 0.896088 0.122657 0.266216
Si Si2 0.500000 0.610807 0.500000
Si Si3 0.794808 0.055831 0.926070
Si Si4 0.544482 0.946927 0.631288
Si Si5 0.089800 0.223873 0.854843
O O1 0.660566 0.086276 0.274695
O O2 0.854767 0.169966 0.195134
O O3 0.882082 0.140781 0.406581
O O4 0.148392 0.092695 0.189513
O O5 0.678614 0.576837 0.395764
O O6 0.828474 0.000000 0.881336
O O7 0.500000 0.066145 0.000000
O O8 0.000000 0.068300 0.000000
O O9 0.500000 0.951717 0.500000
O O10 0.538868 0.000000 0.692609
O O11 0.360961 0.252705 0.807593
O O12 0.000000 0.221857 0.000000
#
# Coordination Sequence:
#
# PCOD8112538 Si02
#       5
#     8   4   8   8   8
#     4  11  23  40  67  93 132 173 222 273 332 398
#     4  10  23  38  62  96 134 176 224 262 327 396
#     4  10  23  40  61  95 133 172 217 267 328 391
#     4   9  19  36  58  90 131 174 219 261 310 380
#     4  10  24  45  71  99 127 165 221 280 338 397
#
# _framework density 22.019302
#
# number of rings (size 3 to 8) (size 9 to 14) (size 15 to 20)
#    0.000    2.000    0.000    1.667    6.222    5.333 
#    0.000    1.111    0.000    0.000    0.000    0.000 
#    0.000    0.000    0.000    0.000    0.000    0.000 
#
# Total GULP energy -223020.074414 kJ/mol
# GULP energy per Si atom -12390.004134 kJ/mol
# Density = 2.196919 g / cm^3
# Si number density = 22.019302 Si / 1000 Ang^3
#
#
#
# Elastic Constant Matrix: (Units=GPa)
#
#
# Indices 1 2 3 4 5 6 
#
# 1 129.4677 33.7738 38.6020 0.0000 -22.7350 0.0000
# 2 33.7738 115.1783 30.4919 0.0000 -28.0509 0.0000
# 3 38.6020 30.4919 69.6194 0.0000 -7.1564 0.0000
# 4 0.0000 0.0000 0.0000 35.2357 0.0000 -7.6973
# 5 -22.7350 -28.0509 -7.1564 0.0000 38.0817 0.0000
# 6 0.0000 0.0000 0.0000 -7.6973 0.0000 16.5231
#
#
#
# Elastic Compliance Matrix: (Units=1/GPa)
#
#
# Indices 1 2 3 4 5 6 
#
# 1 0.010161 -0.000518 -0.004918 0.000000 0.004760 0.000000
# 2 -0.000518 0.011764 -0.004085 0.000000 0.007588 0.000000
# 3 -0.004918 -0.004085 0.018628 0.000000 -0.002444 0.000000
# 4 0.000000 0.000000 0.000000 0.031596 0.000000 0.014719
# 5 0.004760 0.007588 -0.002444 0.000000 0.034231 0.000000
# 6 0.000000 0.000000 0.000000 0.014719 0.000000 0.067378
#
#
# Mechanical properties :
#
#
# Convention : Reuss Voigt Hill
#
# Bulk Modulus (GPa) = 46.48694 57.77788 52.13241
# Shear Modulus (GPa) = 25.00365 32.06128 28.53247
#
# Velocity S-wave (km/s) = 3.37342 3.81997 3.60362
# Velocity P-wave (km/s) = 6.02752 6.76408 6.40640
#
# Compressibility (1/GPa) = 0.02151142
#
# Stress axis : x y z
#
# Youngs Moduli (GPa) = 98.41153 85.00816 53.68127
#
# Poissons Ratio (x) = 0.04406 0.26400
# Poissons Ratio (y) = 0.05101 0.21928
# Poissons Ratio (z) = 0.48397 0.34724
#
# Static dielectric constant tensor:
#      x y z
#    x 4.552090 0.000000 0.540440 
#    y 0.000000 3.767440 0.000000 
#    z 0.540440 0.000000 4.973000 
# 
# 
# High freq. dielectric constant tensor:
#      x y z
#    x 1.877490 0.000000 0.001630 
#    y 0.000000 1.838620 0.000000 
#    z 0.001630 0.000000 1.873630 
# 
# From -- ./inp_files/115366.got.cif
#   From: 2010.06.25/outbox.cif.g09.slc.cpg/sg12_58_cif.got.tgz:115366.got - 2010.06.28 00:19:55.
