data_PCOD8112777
_publ_section_title
;
Structure prediction by ZEFSAII (Michael W. Deem and Ramdas Pophale) SiO2 
 PCOD8112777
Probable space group: C 2/M
;
_chemical_formula_sum "Si O2"
_cell_formula_units_Z 48
_cell_length_a 29.864584
_cell_length_b 13.235402
_cell_length_c 9.272219
_cell_angle_alpha 90.000000
_cell_angle_beta 38.540670
_cell_angle_gamma 90.000000
_cell_volume 2283.568925
_symmetry_space_group_name_H-M "C 2/M"
_symmetry_group_IT_number 12
_symmetry_cell_setting 'monoclinic'
loop_
_space_group_symop_operation_xyz
x,y,z
-x,y,-z
-x,-y,-z
x,-y,z
1/2+x,1/2+y,z
1/2-x,1/2+y,-z
1/2-x,1/2-y,-z
1/2+x,1/2-y,z
loop_
_atom_site_type_symbol
_atom_site_label
_atom_site_fract_x
_atom_site_fract_y
_atom_site_fract_z
Si Si1 0.180461 0.881943 0.322529
Si Si2 0.531028 0.886648 0.266091
Si Si3 0.797607 0.887472 0.065491
Si Si4 0.450829 0.249486 0.246128
Si Si5 0.316709 0.190556 0.159289
Si Si6 0.836399 0.613123 0.410364
O O1 0.105093 0.829845 0.550195
O O2 0.243997 0.838028 0.259583
O O3 0.172246 0.000000 0.373596
O O4 0.198870 0.858642 0.110635
O O5 0.500000 0.864683 0.500000
O O6 0.500362 0.797993 0.244278
O O7 0.509280 0.000000 0.269952
O O8 0.617599 0.880977 0.052317
O O9 0.839178 0.805564 0.059039
O O10 0.714243 0.884056 0.321963
O O11 0.829868 0.000000 0.012197
O O12 0.412815 0.155817 0.262999
O O13 0.500000 0.303452 0.000000
O O14 0.302642 0.180219 0.366109
O O15 0.847165 0.500000 0.324825
#
# Coordination Sequence:
#
# PCOD8112777 Si02
#       6
#     8   8   8   8   8   8
#     4  11  25  44  67  96 128 170 222 271 319 380
#     4  11  25  41  64  97 132 172 217 268 326 385
#     4  10  23  41  66  97 128 165 213 267 326 382
#     4  12  25  43  64  92 133 180 211 265 324 387
#     4  12  22  42  66  97 131 167 214 272 322 377
#     4  11  23  39  64  97 133 168 208 262 324 387
#
# _framework density 21.019728000000001
#
# number of rings (size 3 to 8) (size 9 to 14) (size 15 to 20)
#    0.000    0.833    3.333    4.000    2.333    1.000 
#    0.000    0.833    0.000    3.000    0.000    0.000 
#    0.000    0.000    0.000    0.000    0.000    0.000 
#
# Total GULP energy -297606.432110 kJ/mol
# GULP energy per Si atom -12400.268005 kJ/mol
# Density = 2.097189 g / cm^3
# Si number density = 21.019728 Si / 1000 Ang^3
#
#
#
# Elastic Constant Matrix: (Units=GPa)
#
#
# Indices 1 2 3 4 5 6 
#
# 1 69.0171 42.2419 42.6812 0.0000 13.2262 0.0000
# 2 42.2419 115.1073 37.0187 0.0000 9.3748 0.0000
# 3 42.6812 37.0187 146.5936 0.0000 17.0984 0.0000
# 4 0.0000 0.0000 0.0000 33.9518 0.0000 -4.2330
# 5 13.2262 9.3748 17.0984 0.0000 32.6059 0.0000
# 6 0.0000 0.0000 0.0000 -4.2330 0.0000 36.5796
#
#
#
# Elastic Compliance Matrix: (Units=1/GPa)
#
#
# Indices 1 2 3 4 5 6 
#
# 1 0.021866 -0.006273 -0.004216 0.000000 -0.004855 0.000000
# 2 -0.006273 0.011330 -0.001014 0.000000 -0.000182 0.000000
# 3 -0.004216 -0.001014 0.008597 0.000000 -0.002507 0.000000
# 4 0.000000 0.000000 0.000000 0.029885 0.000000 0.003458
# 5 -0.004855 -0.000182 -0.002507 0.000000 0.034006 0.000000
# 6 0.000000 0.000000 0.000000 0.003458 0.000000 0.027738
#
#
# Mechanical properties :
#
#
# Convention : Reuss Voigt Hill
#
# Bulk Modulus (GPa) = 53.22356 63.84461 58.53409
# Shear Modulus (GPa) = 30.73314 34.54586 32.63950
#
# Velocity S-wave (km/s) = 3.82790 4.05840 3.94484
# Velocity P-wave (km/s) = 6.70170 7.23882 6.97543
#
# Compressibility (1/GPa) = 0.01878867
#
# Stress axis : x y z
#
# Youngs Moduli (GPa) = 45.73234 88.25796 116.31361
#
# Poissons Ratio (x) = 0.55366 0.49038
# Poissons Ratio (y) = 0.28689 0.11790
# Poissons Ratio (z) = 0.19281 0.08946
#
# Static dielectric constant tensor:
#      x y z
#    x 3.628610 0.000000 0.171950 
#    y 0.000000 4.090800 0.000000 
#    z 0.171950 0.000000 3.953410 
# 
# 
# High freq. dielectric constant tensor:
#      x y z
#    x 1.810970 0.000000 0.015780 
#    y 0.000000 1.831590 0.000000 
#    z 0.015780 0.000000 1.841090 
# 
# From -- ./inp_files/104940.got.cif
#   From: 2010.06.25/outbox.cif.g09.slc.cpg/sg12_53_cif.got.tgz:104940.got - 2010.06.28 00:19:55.
