data_PCOD8112936
_publ_section_title
;
Structure prediction by ZEFSAII (Michael W. Deem and Ramdas Pophale) SiO2 
 PCOD8112936
Probable space group: C 2/M
;
_chemical_formula_sum "Si O2"
_cell_formula_units_Z 40
_cell_length_a 9.513282
_cell_length_b 18.359597
_cell_length_c 10.759819
_cell_angle_alpha 90.000000
_cell_angle_beta 97.635338
_cell_angle_gamma 90.000000
_cell_volume 1862.647864
_symmetry_space_group_name_H-M "C 2/M"
_symmetry_group_IT_number 12
_symmetry_cell_setting 'monoclinic'
loop_
_space_group_symop_operation_xyz
x,y,z
-x,y,-z
-x,-y,-z
x,-y,z
1/2+x,1/2+y,z
1/2-x,1/2+y,-z
1/2-x,1/2-y,-z
1/2+x,1/2-y,z
loop_
_atom_site_type_symbol
_atom_site_label
_atom_site_fract_x
_atom_site_fract_y
_atom_site_fract_z
Si Si1 0.584329 0.853281 0.387701
Si Si2 0.481899 0.283870 0.265143
Si Si3 0.730085 0.292727 0.122238
Si Si4 0.381944 0.580386 0.385149
Si Si5 0.931989 0.415854 0.126827
O O1 0.500000 0.881059 0.500000
O O2 0.570757 0.764758 0.375886
O O3 0.745036 0.879434 0.426590
O O4 0.530803 0.886829 0.250258
O O5 0.567813 0.286994 0.145862
O O6 0.330663 0.244946 0.235979
O O7 0.456494 0.367760 0.294124
O O8 0.779518 0.376223 0.112241
O O9 0.750000 0.250000 0.000000
O O10 0.500000 0.567195 0.500000
O O11 0.341165 0.500000 0.324983
O O12 0.902378 0.500000 0.144406
O O13 0.000000 0.399998 0.000000
#
# Coordination Sequence:
#
# PCOD8112936 Si02
#       5
#     8   8   8   8   8
#     4  11  24  44  72  98 132 176 230 275 327 404
#     4  11  23  41  67  95 131 175 220 279 327 401
#     4  11  22  41  66  95 129 173 228 272 328 399
#     4  11  26  43  63  97 139 174 213 277 343 394
#     4  10  23  42  67  98 133 173 221 277 336 402
#
# _framework density 21.474805
#
# number of rings (size 3 to 8) (size 9 to 14) (size 15 to 20)
#    0.000    1.200    2.000    4.200    5.600    4.000 
#    0.000    0.000    0.000    2.400    0.000    0.000 
#    0.000    0.000    0.000    0.000    0.000    0.000 
#
# Total GULP energy -247889.759718 kJ/mol
# GULP energy per Si atom -12394.487986 kJ/mol
# Density = 2.142593 g / cm^3
# Si number density = 21.474805 Si / 1000 Ang^3
#
#
#
# Elastic Constant Matrix: (Units=GPa)
#
#
# Indices 1 2 3 4 5 6 
#
# 1 102.3627 41.4505 35.2310 0.0000 -17.8506 0.0000
# 2 41.4505 159.0215 33.0750 0.0000 -13.0497 0.0000
# 3 35.2310 33.0750 105.7306 0.0000 -21.0600 0.0000
# 4 0.0000 0.0000 0.0000 28.4219 0.0000 -5.2988
# 5 -17.8506 -13.0497 -21.0600 0.0000 33.3827 0.0000
# 6 0.0000 0.0000 0.0000 -5.2988 0.0000 68.8985
#
#
#
# Elastic Compliance Matrix: (Units=1/GPa)
#
#
# Indices 1 2 3 4 5 6 
#
# 1 0.012305 -0.002343 -0.002561 0.000000 0.004049 0.000000
# 2 -0.002343 0.007237 -0.001337 0.000000 0.000733 0.000000
# 3 -0.002561 -0.001337 0.011841 0.000000 0.005578 0.000000
# 4 0.000000 0.000000 0.000000 0.035696 0.000000 0.002745
# 5 0.004049 0.000733 0.005578 0.000000 0.035926 0.000000
# 6 0.000000 0.000000 0.000000 0.002745 0.000000 0.014725
#
#
# Mechanical properties :
#
#
# Convention : Reuss Voigt Hill
#
# Bulk Modulus (GPa) = 52.90687 65.18086 59.04386
# Shear Modulus (GPa) = 36.62656 43.29783 39.96219
#
# Velocity S-wave (km/s) = 4.13432 4.49510 4.31848
# Velocity P-wave (km/s) = 6.89060 7.57360 7.24016
#
# Compressibility (1/GPa) = 0.01890114
#
# Stress axis : x y z
#
# Youngs Moduli (GPa) = 81.26609 138.17135 84.45397
#
# Poissons Ratio (x) = 0.32368 0.21629
# Poissons Ratio (y) = 0.19037 0.11296
# Poissons Ratio (z) = 0.20813 0.18480
#
# Static dielectric constant tensor:
#      x y z
#    x 6.669820 0.000000 0.792100 
#    y 0.000000 4.369530 0.000000 
#    z 0.792100 0.000000 4.017620 
# 
# 
# High freq. dielectric constant tensor:
#      x y z
#    x 1.845890 0.000000 -0.004370 
#    y 0.000000 1.854040 0.000000 
#    z -0.004370 0.000000 1.834410 
# 
# From -- ./inp_files/119071.got.cif
#   From: 2010.06.25/outbox.cif.g09.slc.cpg/sg12_60_cif.got.tgz:119071.got - 2010.06.28 00:19:55.
