data_PCOD8112153
_publ_section_title
;
Structure prediction by ZEFSAII (Michael W. Deem and Ramdas Pophale) SiO2 
 PCOD8112153
Probable space group: C 2/M
;
_chemical_formula_sum "Si O2"
_cell_formula_units_Z 48
_cell_length_a 24.786855
_cell_length_b 8.657265
_cell_length_c 11.032889
_cell_angle_alpha 90.000000
_cell_angle_beta 102.786749
_cell_angle_gamma 90.000000
_cell_volume 2308.794778
_symmetry_space_group_name_H-M "C 2/M"
_symmetry_group_IT_number 12
_symmetry_cell_setting 'monoclinic'
loop_
_space_group_symop_operation_xyz
x,y,z
-x,y,-z
-x,-y,-z
x,-y,z
1/2+x,1/2+y,z
1/2-x,1/2+y,-z
1/2-x,1/2-y,-z
1/2+x,1/2-y,z
loop_
_atom_site_type_symbol
_atom_site_label
_atom_site_fract_x
_atom_site_fract_y
_atom_site_fract_z
Si Si1 0.190574 0.826204 0.489392
Si Si2 0.019183 0.181788 0.643230
Si Si3 0.863798 0.319134 0.319024
Si Si4 0.853928 0.827094 0.793788
Si Si5 0.968513 0.680698 0.863176
Si Si6 0.754889 0.317129 0.132529
O O1 0.250000 0.750000 0.500000
O O2 0.152353 0.717765 0.552003
O O3 0.153934 0.835529 0.352440
O O4 0.198637 0.000000 0.545745
O O5 0.082722 0.225670 0.696022
O O6 0.000000 0.246817 0.500000
O O7 0.986153 0.244599 0.743558
O O8 0.010986 0.000000 0.639346
O O9 0.875398 0.500000 0.308277
O O10 0.812421 0.256840 0.214973
O O11 0.904264 0.716665 0.854658
O O12 0.797534 0.754472 0.818991
O O13 0.865361 0.000000 0.850498
O O14 0.978757 0.500000 0.855227
O O15 0.000000 0.743022 0.000000
O O16 0.754743 0.500000 0.134996
O O17 0.750000 0.250000 0.000000
#
# Coordination Sequence:
#
# PCOD8112153 Si02
#       6
#     8   8   8   8   8   8
#     4  11  21  37  61  92 127 162 204 251 307 373
#     4  11  25  45  68  96 129 170 218 267 319 381
#     4  11  23  41  64  94 130 163 203 259 314 373
#     4  10  22  42  64  90 126 164 205 256 311 373
#     4  11  26  45  66  96 129 167 216 269 322 380
#     4  10  23  41  60  89 126 164 205 253 310 369
#
# _framework density 20.790067000000001
#
# number of rings (size 3 to 8) (size 9 to 14) (size 15 to 20)
#    0.000    1.333    1.667    3.000    2.333   10.000 
#    0.000    0.000    0.000    0.000    0.000    0.000 
#    0.000    0.000    0.000    0.000    0.000    0.000 
#
# Total GULP energy -297558.783485 kJ/mol
# GULP energy per Si atom -12398.282645 kJ/mol
# Density = 2.074275 g / cm^3
# Si number density = 20.790067 Si / 1000 Ang^3
#
#
#
# Elastic Constant Matrix: (Units=GPa)
#
#
# Indices 1 2 3 4 5 6 
#
# 1 127.9893 21.4589 54.9888 0.0000 17.7349 0.0000
# 2 21.4589 46.5630 33.4508 0.0000 6.7171 0.0000
# 3 54.9888 33.4508 136.4828 0.0000 1.1803 0.0000
# 4 0.0000 0.0000 0.0000 33.9183 0.0000 -1.1933
# 5 17.7349 6.7171 1.1803 0.0000 33.7803 0.0000
# 6 0.0000 0.0000 0.0000 -1.1933 0.0000 39.1767
#
#
#
# Elastic Compliance Matrix: (Units=1/GPa)
#
#
# Indices 1 2 3 4 5 6 
#
# 1 0.010371 -0.001311 -0.003814 0.000000 -0.005051 0.000000
# 2 -0.001311 0.027090 -0.006072 0.000000 -0.004486 0.000000
# 3 -0.003814 -0.006072 0.010327 0.000000 0.002849 0.000000
# 4 0.000000 0.000000 0.000000 0.029514 0.000000 0.000899
# 5 -0.005051 -0.004486 0.002849 0.000000 0.033047 0.000000
# 6 0.000000 0.000000 0.000000 0.000899 0.000000 0.025553
#
#
# Mechanical properties :
#
#
# Convention : Reuss Voigt Hill
#
# Bulk Modulus (GPa) = 39.37953 58.98133 49.18043
# Shear Modulus (GPa) = 29.98279 34.78417 32.38348
#
# Velocity S-wave (km/s) = 3.80171 4.09481 3.95098
# Velocity P-wave (km/s) = 6.18492 7.12658 6.67239
#
# Compressibility (1/GPa) = 0.02539391
#
# Stress axis : x y z
#
# Youngs Moduli (GPa) = 96.41950 36.91370 96.83309
#
# Poissons Ratio (x) = 0.04841 0.36927
# Poissons Ratio (y) = 0.12645 0.58801
# Poissons Ratio (z) = 0.36770 0.22415
#
# Static dielectric constant tensor:
#      x y z
#    x 4.680390 0.000000 0.177860 
#    y 0.000000 3.682000 0.000000 
#    z 0.177860 0.000000 3.958690 
# 
# 
# High freq. dielectric constant tensor:
#      x y z
#    x 1.828950 0.000000 0.002460 
#    y 0.000000 1.809410 0.000000 
#    z 0.002460 0.000000 1.819770 
# 
# From -- ./inp_files/173065.got.cif
#   From: 2010.06.25/outbox.cif.g09.slc.cpg/sg12_87_cif.got.tgz:173065.got - 2010.06.28 00:19:55.
