data_PCOD8112354
_publ_section_title
;
Structure prediction by ZEFSAII (Michael W. Deem and Ramdas Pophale) SiO2 
 PCOD8112354
Probable space group: C 2/M
;
_chemical_formula_sum "Si O2"
_cell_formula_units_Z 56
_cell_length_a 13.610915
_cell_length_b 18.008066
_cell_length_c 16.869175
_cell_angle_alpha 90.000000
_cell_angle_beta 42.991903
_cell_angle_gamma 90.000000
_cell_volume 2819.458746
_symmetry_space_group_name_H-M "C 2/M"
_symmetry_group_IT_number 12
_symmetry_cell_setting 'monoclinic'
loop_
_space_group_symop_operation_xyz
x,y,z
-x,y,-z
-x,-y,-z
x,-y,z
1/2+x,1/2+y,z
1/2-x,1/2+y,-z
1/2-x,1/2-y,-z
1/2+x,1/2-y,z
loop_
_atom_site_type_symbol
_atom_site_label
_atom_site_fract_x
_atom_site_fract_y
_atom_site_fract_z
Si Si1 0.599922 0.818016 0.165951
Si Si2 0.277487 0.916778 0.037317
Si Si3 0.580829 0.412242 0.604284
Si Si4 0.352489 0.715703 0.129951
Si Si5 0.844016 0.583780 0.339373
Si Si6 0.240629 0.872672 0.233481
Si Si7 0.017398 0.154902 0.798374
O O1 0.745893 0.822904 0.130460
O O2 0.473577 0.861242 0.286889
O O3 0.557611 0.733700 0.175113
O O4 0.623552 0.858118 0.067544
O O5 0.303338 0.907392 0.115787
O O6 0.109983 0.904420 0.115441
O O7 0.320186 0.000000 0.986190
O O8 0.571222 0.500000 0.622840
O O9 0.703664 0.389658 0.469871
O O10 0.430580 0.382198 0.658946
O O11 0.615986 0.371571 0.666785
O O12 0.277243 0.785824 0.215255
O O13 0.385134 0.657140 0.180761
O O14 0.500000 0.739114 0.000000
O O15 0.886287 0.500000 0.338134
O O16 0.813845 0.586263 0.263547
#
# Coordination Sequence:
#
# PCOD8112354 Si02
#       7
#     8   8   8   8   8   8   8
#     4  12  23  41  61  93 130 163 208 252 311 371
#     4  11  22  38  63  93 126 163 205 253 306 372
#     4  10  22  43  66  90 125 166 210 257 311 369
#     4  12  23  40  63  95 129 163 203 255 315 366
#     4  11  24  41  62  92 131 166 202 261 317 365
#     4  11  21  37  66  97 123 160 205 256 315 378
#     4  11  21  40  65  90 122 165 208 254 304 367
#
# _framework density 19.861969999999999
#
# number of rings (size 3 to 8) (size 9 to 14) (size 15 to 20)
#    0.000    0.857    5.714    4.714    0.000    1.714 
#    0.000    5.714    0.000    1.714    0.000    0.000 
#    0.000    0.000    0.000    0.000    0.000    0.000 
#
# Total GULP energy -347318.496989 kJ/mol
# GULP energy per Si atom -12404.232035 kJ/mol
# Density = 1.981676 g / cm^3
# Si number density = 19.861970 Si / 1000 Ang^3
#
#
#
# Elastic Constant Matrix: (Units=GPa)
#
#
# Indices 1 2 3 4 5 6 
#
# 1 95.8894 22.9131 45.1912 0.0000 2.5866 -0.0002
# 2 22.9131 71.7320 48.4356 0.0000 -0.4575 -0.0003
# 3 45.1912 48.4356 115.2380 -0.0004 -3.7693 -0.0005
# 4 0.0000 0.0000 -0.0004 35.8002 0.0000 1.2951
# 5 2.5866 -0.4575 -3.7693 0.0000 28.9964 0.0005
# 6 -0.0002 -0.0003 -0.0005 1.2951 0.0005 19.2330
#
#
#
# Elastic Compliance Matrix: (Units=1/GPa)
#
#
# Indices 1 2 3 4 5 6 
#
# 1 0.012933 -0.000947 -0.004732 0.000000 -0.001784 0.000000
# 2 -0.000947 0.019551 -0.007867 0.000000 -0.000630 0.000000
# 3 -0.004732 -0.007867 0.013909 0.000000 0.002106 0.000000
# 4 0.000000 0.000000 0.000000 0.028001 0.000000 -0.001886
# 5 -0.001784 -0.000630 0.002106 0.000000 0.034910 -0.000001
# 6 0.000000 0.000000 0.000000 -0.001886 -0.000001 0.052121
#
#
# Mechanical properties :
#
#
# Convention : Reuss Voigt Hill
#
# Bulk Modulus (GPa) = 51.81053 57.32656 54.56855
# Shear Modulus (GPa) = 25.64749 27.89389 26.77069
#
# Velocity S-wave (km/s) = 3.59735 3.75158 3.67527
# Velocity P-wave (km/s) = 6.58760 6.90586 6.74861
#
# Compressibility (1/GPa) = 0.01930109
#
# Stress axis : x y z
#
# Youngs Moduli (GPa) = 77.31979 51.14789 71.89766
#
# Poissons Ratio (x) = 0.04846 0.34022
# Poissons Ratio (y) = 0.07325 0.56559
# Poissons Ratio (z) = 0.36588 0.40236
#
# Static dielectric constant tensor:
#      x y z
#    x 3.702680 0.000000 0.014310 
#    y 0.000000 3.590700 0.000000 
#    z 0.014310 0.000000 3.774260 
# 
# 
# High freq. dielectric constant tensor:
#      x y z
#    x 1.766650 0.000000 -0.000410 
#    y 0.000000 1.773090 0.000000 
#    z -0.000410 0.000000 1.778190 
# 
# From -- ./inp_files/271382.got.cif
#   From: 2010.06.25/outbox.cif.g09.slc.cpg/sg12_136_cif.got.tgz:271382.got - 2010.06.28 00:19:55.
