data_PCOD8112693
_publ_section_title
;
Structure prediction by ZEFSAII (Michael W. Deem and Ramdas Pophale) SiO2 
 PCOD8112693
Probable space group: C 2/M
;
_chemical_formula_sum "Si O2"
_cell_formula_units_Z 40
_cell_length_a 22.384463
_cell_length_b 9.705351
_cell_length_c 10.164355
_cell_angle_alpha 90.000000
_cell_angle_beta 110.621767
_cell_angle_gamma 90.000000
_cell_volume 2066.708243
_symmetry_space_group_name_H-M "C 2/M"
_symmetry_group_IT_number 12
_symmetry_cell_setting 'monoclinic'
loop_
_space_group_symop_operation_xyz
x,y,z
-x,y,-z
-x,-y,-z
x,-y,z
1/2+x,1/2+y,z
1/2-x,1/2+y,-z
1/2-x,1/2-y,-z
1/2+x,1/2-y,z
loop_
_atom_site_type_symbol
_atom_site_label
_atom_site_fract_x
_atom_site_fract_y
_atom_site_fract_z
Si Si1 0.919217 0.000000 0.694506
Si Si2 0.382617 0.500000 0.102203
Si Si3 0.699046 0.500000 0.199613
Si Si4 0.107775 0.500000 0.531218
Si Si5 0.516620 0.278294 0.864235
Si Si6 0.156621 0.000000 0.632889
Si Si7 0.024037 0.500000 0.718236
Si Si8 0.214596 0.720286 0.607806
O O1 0.893849 0.000000 0.525668
O O2 0.961012 0.137316 0.746726
O O3 0.862648 0.000000 0.755477
O O4 0.418890 0.364313 0.084795
O O5 0.378683 0.500000 0.255892
O O6 0.316856 0.500000 0.968233
O O7 0.740090 0.635855 0.259811
O O8 0.081523 0.500000 0.658739
O O9 0.149179 0.636379 0.533071
O O10 0.047226 0.500000 0.391078
O O11 0.532498 0.135592 0.809192
O O12 0.500000 0.245592 0.000000
O O13 0.200871 0.133875 0.663528
O O14 0.250000 0.750000 0.500000
#
# Coordination Sequence:
#
# PCOD8112693 Si02
#       8
#     4   4   4   4   8   4   4   8
#     4  11  20  40  66  86 121 162 209 250 312 371
#     4  11  24  41  63  87 128 164 205 254 319 373
#     4  11  22  42  63  84 125 172 195 258 321 362
#     4  10  23  41  59  92 134 168 195 259 331 363
#     4  11  22  39  62  91 120 165 208 252 307 383
#     4  12  23  38  63  97 115 152 216 265 298 375
#     4  11  23  38  62  93 132 161 203 262 321 369
#     4  11  22  40  66  91 122 164 219 258 303 373
#
# _framework density 19.354448000000001
#
# number of rings (size 3 to 8) (size 9 to 14) (size 15 to 20)
#    0.000    1.000    4.000    3.900    0.000    4.000 
#    0.000    1.000    0.000    0.000    0.000    0.000 
#    0.000    0.000    0.000    0.000    0.000    0.000 
#
# Total GULP energy -248045.406196 kJ/mol
# GULP energy per Si atom -12402.270310 kJ/mol
# Density = 1.931040 g / cm^3
# Si number density = 19.354448 Si / 1000 Ang^3
#
#
#
# Elastic Constant Matrix: (Units=GPa)
#
#
# Indices 1 2 3 4 5 6 
#
# 1 101.0565 43.0786 36.3520 0.0000 -3.6126 0.0000
# 2 43.0786 160.7142 40.6462 0.0000 7.4133 0.0000
# 3 36.3520 40.6462 131.1598 0.0000 -3.6214 0.0000
# 4 0.0000 0.0000 0.0000 122.8551 0.0000 -22.8476
# 5 -3.6126 7.4133 -3.6214 0.0000 35.8061 0.0000
# 6 0.0000 0.0000 0.0000 -22.8476 0.0000 76.6540
#
#
#
# Elastic Compliance Matrix: (Units=1/GPa)
#
#
# Indices 1 2 3 4 5 6 
#
# 1 0.011963 -0.002657 -0.002451 0.000000 0.001509 0.000000
# 2 -0.002657 0.007436 -0.001622 0.000000 -0.001972 0.000000
# 3 -0.002451 -0.001622 0.008833 0.000000 0.000982 0.000000
# 4 0.000000 0.000000 0.000000 0.008617 0.000000 0.002568
# 5 0.001509 -0.001972 0.000982 0.000000 0.028588 0.000000
# 6 0.000000 0.000000 0.000000 0.002568 0.000000 0.013811
#
#
# Mechanical properties :
#
#
# Convention : Reuss Voigt Hill
#
# Bulk Modulus (GPa) = 67.69154 70.34267 69.01710
# Shear Modulus (GPa) = 51.21224 65.25327 58.23275
#
# Velocity S-wave (km/s) = 5.14953 5.81275 5.49116
# Velocity P-wave (km/s) = 8.39091 9.02630 8.71440
#
# Compressibility (1/GPa) = 0.01477289
#
# Stress axis : x y z
#
# Youngs Moduli (GPa) = 83.58790 134.48886 113.20582
#
# Poissons Ratio (x) = 0.35727 0.27745
# Poissons Ratio (y) = 0.22205 0.18367
# Poissons Ratio (z) = 0.20486 0.21820
#
# Static dielectric constant tensor:
#      x y z
#    x 4.054040 0.000000 -0.109080 
#    y 0.000000 3.369510 0.000000 
#    z -0.109080 0.000000 3.583260 
# 
# 
# High freq. dielectric constant tensor:
#      x y z
#    x 1.762150 0.000000 -0.001360 
#    y 0.000000 1.769690 0.000000 
#    z -0.001360 0.000000 1.752110 
# 
# From -- ./inp_files/172634.got.cif
#   From: 2010.06.25/outbox.cif.g09.slc.cpg/sg12_87_cif.got.tgz:172634.got - 2010.06.28 00:19:55.
