data_PCOD8112964
_publ_section_title
;
Structure prediction by ZEFSAII (Michael W. Deem and Ramdas Pophale) SiO2 
 PCOD8112964
Probable space group: C 2/M
;
_chemical_formula_sum "Si O2"
_cell_formula_units_Z 28
_cell_length_a 15.718011
_cell_length_b 10.345397
_cell_length_c 8.899709
_cell_angle_alpha 90.000000
_cell_angle_beta 49.835768
_cell_angle_gamma 90.000000
_cell_volume 1105.928165
_symmetry_space_group_name_H-M "C 2/M"
_symmetry_group_IT_number 12
_symmetry_cell_setting 'monoclinic'
loop_
_space_group_symop_operation_xyz
x,y,z
-x,y,-z
-x,-y,-z
x,-y,z
1/2+x,1/2+y,z
1/2-x,1/2+y,-z
1/2-x,1/2-y,-z
1/2+x,1/2-y,z
loop_
_atom_site_type_symbol
_atom_site_label
_atom_site_fract_x
_atom_site_fract_y
_atom_site_fract_z
Si Si1 0.378650 0.000000 0.066132
Si Si2 0.911378 0.732737 0.817853
Si Si3 0.529786 0.500000 0.139743
Si Si4 0.783745 0.000000 0.471840
Si Si5 0.638663 0.856249 0.434948
O O1 0.282382 0.000000 0.298597
O O2 0.500000 0.000000 0.000000
O O3 0.362285 0.871361 0.987748
O O4 0.841366 0.723706 0.741466
O O5 0.042592 0.711617 0.641342
O O6 0.895863 0.875877 0.903546
O O7 0.413451 0.500000 0.363954
O O8 0.500000 0.500000 0.000000
O O9 0.749623 0.128126 0.411905
O O10 0.595700 0.000000 0.439413
#
# Coordination Sequence:
#
# PCOD8112964 Si02
#       5
#     4   8   4   4   8
#     4  12  17  37  75 104 119 180 246 272 311 416
#     4  11  20  41  71  97 136 180 222 276 343 406
#     4  12  30  44  60 105 154 173 203 302 374 381
#     4  10  23  42  72 105 132 173 237 287 328 403
#     4   9  18  39  73  99 121 178 241 270 311 408
#
# _framework density 25.318100000000001
#
# number of rings (size 3 to 8) (size 9 to 14) (size 15 to 20)
#    0.857    0.571    5.714    1.714    0.000    3.429 
#    0.000    1.429   18.857    1.714    0.000    0.000 
#    0.000    0.000    0.000    0.000    0.000    0.000 
#
# Total GULP energy -173539.640524 kJ/mol
# GULP energy per Si atom -12395.688609 kJ/mol
# Density = 2.526047 g / cm^3
# Si number density = 25.318100 Si / 1000 Ang^3
#
#
#
# Elastic Constant Matrix: (Units=GPa)
#
#
# Indices 1 2 3 4 5 6 
#
# 1 49.0350 36.7489 36.4364 0.0000 0.8950 0.0000
# 2 36.7489 202.8493 53.0228 0.0000 29.2233 0.0000
# 3 36.4364 53.0228 134.6102 0.0000 31.4675 0.0000
# 4 0.0000 0.0000 0.0000 10.4042 0.0000 11.9370
# 5 0.8950 29.2233 31.4675 0.0000 40.3097 0.0000
# 6 0.0000 0.0000 0.0000 11.9370 0.0000 28.2193
#
#
#
# Elastic Compliance Matrix: (Units=1/GPa)
#
#
# Indices 1 2 3 4 5 6 
#
# 1 0.029920 -0.004537 -0.008471 0.000000 0.009238 0.000000
# 2 -0.004537 0.006456 -0.000299 0.000000 -0.004346 0.000000
# 3 -0.008471 -0.000299 0.011920 0.000000 -0.008901 0.000000
# 4 0.000000 0.000000 0.000000 0.186750 0.000000 -0.078997
# 5 0.009238 -0.004346 -0.008901 0.000000 0.034702 0.000000
# 6 0.000000 0.000000 0.000000 -0.078997 0.000000 0.068853
#
#
# Mechanical properties :
#
#
# Convention : Reuss Voigt Hill
#
# Bulk Modulus (GPa) = 46.12098 70.99007 58.55552
# Shear Modulus (GPa) = 13.42493 33.13909 23.28201
#
# Velocity S-wave (km/s) = 2.30521 3.62181 3.03575
# Velocity P-wave (km/s) = 5.03403 6.75205 5.95532
#
# Compressibility (1/GPa) = 0.02168211
#
# Stress axis : x y z
#
# Youngs Moduli (GPa) = 33.42281 154.89531 83.89093
#
# Poissons Ratio (x) = 0.70275 0.71064
# Poissons Ratio (y) = 0.15164 0.02508
# Poissons Ratio (z) = 0.28313 0.04630
#
# Static dielectric constant tensor:
#      x y z
#    x 4.366800 0.000000 0.120670 
#    y 0.000000 4.513580 0.000000 
#    z 0.120670 0.000000 4.541210 
# 
# 
# High freq. dielectric constant tensor:
#      x y z
#    x 1.999990 0.000000 0.010400 
#    y 0.000000 2.006070 0.000000 
#    z 0.010400 0.000000 2.012490 
# 
# From -- ./inp_files/56313.got.cif
#   From: 2010.06.25/outbox.cif.g09.slc.cpg/sg12_29_cif.got.tgz:56313.got - 2010.06.28 00:19:55.
