data_PCOD8112593
_publ_section_title
;
Structure prediction by ZEFSAII (Michael W. Deem and Ramdas Pophale) SiO2 
 PCOD8112593
Probable space group: C 2/M
;
_chemical_formula_sum "Si O2"
_cell_formula_units_Z 40
_cell_length_a 15.951937
_cell_length_b 26.785315
_cell_length_c 9.150878
_cell_angle_alpha 90.000000
_cell_angle_beta 149.998170
_cell_angle_gamma 90.000000
_cell_volume 1955.091008
_symmetry_space_group_name_H-M "C 2/M"
_symmetry_group_IT_number 12
_symmetry_cell_setting 'monoclinic'
loop_
_space_group_symop_operation_xyz
x,y,z
-x,y,-z
-x,-y,-z
x,-y,z
1/2+x,1/2+y,z
1/2-x,1/2+y,-z
1/2-x,1/2-y,-z
1/2+x,1/2-y,z
loop_
_atom_site_type_symbol
_atom_site_label
_atom_site_fract_x
_atom_site_fract_y
_atom_site_fract_z
Si Si1 0.835351 0.942484 0.839256
Si Si2 0.107079 0.788912 0.807129
Si Si3 0.576974 0.776412 0.265723
Si Si4 0.480451 0.876414 0.643605
Si Si5 0.160144 0.898884 0.845770
O O1 0.670817 0.912675 0.537558
O O2 0.804225 0.000000 0.753875
O O3 0.857700 0.937759 0.048384
O O4 0.000000 0.923051 0.000000
O O5 0.167909 0.844463 0.932359
O O6 0.000000 0.790016 0.500000
O O7 0.017551 0.771853 0.817769
O O8 0.250000 0.750000 0.000000
O O9 0.750000 0.750000 0.500000
O O10 0.564890 0.822039 0.360841
O O11 0.500000 0.797138 0.000000
O O12 0.500000 0.871446 0.500000
O O13 0.659620 0.900820 0.968937
O O14 0.000000 0.907471 0.500000
#
# Coordination Sequence:
#
# PCOD8112593 Si02
#       5
#     8   8   8   8   8
#     4  10  24  45  70  95 124 160 208 269 329 375
#     4  11  22  39  60  84 129 171 213 244 306 367
#     4  12  27  36  57  93 128 170 210 261 306 369
#     4  10  23  43  65  89 126 169 217 255 311 377
#     4  10  23  39  67  93 126 169 209 264 304 378
#
# _framework density 20.459406000000001
#
# number of rings (size 3 to 8) (size 9 to 14) (size 15 to 20)
#    0.000    1.400    2.000    1.800   14.000    4.000 
#    0.000    0.000    0.000    3.000    0.000    0.000 
#    0.000    0.000    0.000    0.000    0.000    0.000 
#
# Total GULP energy -247826.085407 kJ/mol
# GULP energy per Si atom -12391.304270 kJ/mol
# Density = 2.041284 g / cm^3
# Si number density = 20.459406 Si / 1000 Ang^3
#
#
#
# Elastic Constant Matrix: (Units=GPa)
#
#
# Indices 1 2 3 4 5 6 
#
# 1 105.4779 33.8938 39.5668 0.0000 36.9043 0.0000
# 2 33.8938 79.4871 33.1433 0.0000 16.0484 0.0000
# 3 39.5668 33.1433 125.2364 0.0000 36.2292 0.0000
# 4 0.0000 0.0000 0.0000 30.1237 0.0000 5.6239
# 5 36.9043 16.0484 36.2292 0.0000 43.9483 0.0000
# 6 0.0000 0.0000 0.0000 5.6239 0.0000 36.8873
#
#
#
# Elastic Compliance Matrix: (Units=1/GPa)
#
#
# Indices 1 2 3 4 5 6 
#
# 1 0.014560 -0.003879 -0.000586 0.000000 -0.010327 0.000000
# 2 -0.003879 0.015428 -0.002850 0.000000 -0.000027 0.000000
# 3 -0.000586 -0.002850 0.011137 0.000000 -0.007648 0.000000
# 4 0.000000 0.000000 0.000000 0.034169 0.000000 -0.005209
# 5 -0.010327 -0.000027 -0.007648 0.000000 0.037740 0.000000
# 6 0.000000 0.000000 0.000000 -0.005209 0.000000 0.027904
#
#
# Mechanical properties :
#
#
# Convention : Reuss Voigt Hill
#
# Bulk Modulus (GPa) = 37.74221 58.15657 47.94939
# Shear Modulus (GPa) = 30.41368 35.76503 33.08936
#
# Velocity S-wave (km/s) = 3.85975 4.18556 4.02595
# Velocity P-wave (km/s) = 6.19281 7.20039 6.71553
#
# Compressibility (1/GPa) = 0.02649554
#
# Stress axis : x y z
#
# Youngs Moduli (GPa) = 68.68083 64.81520 89.79396
#
# Poissons Ratio (x) = 0.25143 0.05263
# Poissons Ratio (y) = 0.26643 0.25587
# Poissons Ratio (z) = 0.04025 0.18469
#
# Static dielectric constant tensor:
#      x y z
#    x 3.780320 0.000000 0.358260 
#    y 0.000000 3.774700 0.000000 
#    z 0.358260 0.000000 3.830250 
# 
# 
# High freq. dielectric constant tensor:
#      x y z
#    x 1.801420 0.000000 0.020870 
#    y 0.000000 1.792890 0.000000 
#    z 0.020870 0.000000 1.813940 
# 
# From -- ./inp_files/68460.got.cif
#   From: 2010.06.25/outbox.cif.g09.slc.cpg/sg12_35_cif.got.tgz:68460.got - 2010.06.28 00:19:55.
