data_PCOD8112467
_publ_section_title
;
Structure prediction by ZEFSAII (Michael W. Deem and Ramdas Pophale) SiO2 
 PCOD8112467
Probable space group: C 2/M
;
_chemical_formula_sum "Si O2"
_cell_formula_units_Z 40
_cell_length_a 12.336286
_cell_length_b 17.315306
_cell_length_c 7.813498
_cell_angle_alpha 90.000000
_cell_angle_beta 107.296658
_cell_angle_gamma 90.000000
_cell_volume 1593.538550
_symmetry_space_group_name_H-M "C 2/M"
_symmetry_group_IT_number 12
_symmetry_cell_setting 'monoclinic'
loop_
_space_group_symop_operation_xyz
x,y,z
-x,y,-z
-x,-y,-z
x,-y,z
1/2+x,1/2+y,z
1/2-x,1/2+y,-z
1/2-x,1/2-y,-z
1/2+x,1/2-y,z
loop_
_atom_site_type_symbol
_atom_site_label
_atom_site_fract_x
_atom_site_fract_y
_atom_site_fract_z
Si Si1 0.902021 0.282083 0.322277
Si Si2 0.610388 0.635711 0.863618
Si Si3 0.639707 0.586754 0.242155
Si Si4 0.513633 0.911267 0.208584
Si Si5 0.250620 0.338010 0.383705
O O1 0.918363 0.227333 0.163250
O O2 0.785017 0.253797 0.366253
O O3 0.000000 0.260874 0.500000
O O4 0.906188 0.371268 0.257373
O O5 0.495977 0.586372 0.797165
O O6 0.692457 0.611837 0.744035
O O7 0.673303 0.622244 0.072944
O O8 0.684612 0.500000 0.269799
O O9 0.702944 0.634378 0.414727
O O10 0.616794 0.856082 0.318226
O O11 0.526434 0.000000 0.276173
O O12 0.500000 0.907922 0.000000
#
# Coordination Sequence:
#
# PCOD8112467 Si02
#       5
#     8   8   8   8   8
#     4  10  22  45  70 104 142 188 239 297 354 433
#     4   9  20  39  63 104 143 184 235 289 353 429
#     4  11  20  34  66 107 149 186 233 298 360 423
#     4  11  27  48  72 103 145 189 243 305 359 421
#     4  10  22  45  71 101 139 194 238 290 359 432
#
# _framework density 25.101369999999999
#
# number of rings (size 3 to 8) (size 9 to 14) (size 15 to 20)
#    1.200    0.600    2.000    2.400    2.800    6.000 
#    3.600    0.000    0.000    0.000    0.000    2.800 
#    0.000    0.000    0.000    0.000    0.000    0.000 
#
# Total GULP energy -247828.674435 kJ/mol
# GULP energy per Si atom -12391.433722 kJ/mol
# Density = 2.504424 g / cm^3
# Si number density = 25.101370 Si / 1000 Ang^3
#
#
#
# Elastic Constant Matrix: (Units=GPa)
#
#
# Indices 1 2 3 4 5 6 
#
# 1 74.1770 70.3646 51.8835 0.0000 -9.2024 0.0000
# 2 70.3646 194.6329 65.2544 0.0000 -11.4868 0.0000
# 3 51.8835 65.2544 174.0240 0.0000 -17.3478 0.0000
# 4 0.0000 0.0000 0.0000 41.2234 0.0000 2.2055
# 5 -9.2024 -11.4868 -17.3478 0.0000 30.7764 0.0000
# 6 0.0000 0.0000 0.0000 2.2055 0.0000 4.1807
#
#
#
# Elastic Compliance Matrix: (Units=1/GPa)
#
#
# Indices 1 2 3 4 5 6 
#
# 1 0.023119 -0.006857 -0.004119 0.000000 0.002032 0.000000
# 2 -0.006857 0.007940 -0.000892 0.000000 0.000410 0.000000
# 3 -0.004119 -0.000892 0.007579 0.000000 0.002707 0.000000
# 4 0.000000 0.000000 0.000000 0.024963 0.000000 -0.013169
# 5 0.002032 0.000410 0.002707 0.000000 0.034779 0.000000
# 6 0.000000 0.000000 0.000000 -0.013169 0.000000 0.246145
#
#
# Mechanical properties :
#
#
# Convention : Reuss Voigt Hill
#
# Bulk Modulus (GPa) = 67.10665 90.87099 78.98882
# Shear Modulus (GPa) = 13.39662 32.25819 22.82740
#
# Velocity S-wave (km/s) = 2.31270 3.58874 3.01891
# Velocity P-wave (km/s) = 5.82441 7.31111 6.60969
#
# Compressibility (1/GPa) = 0.01490165
#
# Stress axis : x y z
#
# Youngs Moduli (GPa) = 43.25409 125.94045 131.94830
#
# Poissons Ratio (x) = 0.86361 0.54348
# Poissons Ratio (y) = 0.29661 0.11770
# Poissons Ratio (z) = 0.17816 0.11234
#
# Static dielectric constant tensor:
#      x y z
#    x 4.333430 0.000000 -0.840890 
#    y 0.000000 4.428460 0.000000 
#    z -0.840890 0.000000 3.080370 
# 
# 
# High freq. dielectric constant tensor:
#      x y z
#    x 2.002800 0.000000 -0.015700 
#    y 0.000000 1.994560 0.000000 
#    z -0.015700 0.000000 2.015330 
# 
# From -- ./inp_files/61378.got.cif
#   From: 2010.06.25/outbox.cif.g09.slc.cpg/sg12_31_cif.got.tgz:61378.got - 2010.06.28 00:19:55.
