data_PCOD8112410
_publ_section_title
;
Structure prediction by ZEFSAII (Michael W. Deem and Ramdas Pophale) SiO2 
 PCOD8112410
Probable space group: C 2/M
;
_chemical_formula_sum "Si O2"
_cell_formula_units_Z 44
_cell_length_a 9.746590
_cell_length_b 23.060747
_cell_length_c 11.955413
_cell_angle_alpha 90.000000
_cell_angle_beta 126.639995
_cell_angle_gamma 90.000000
_cell_volume 2156.165839
_symmetry_space_group_name_H-M "C 2/M"
_symmetry_group_IT_number 12
_symmetry_cell_setting 'monoclinic'
loop_
_space_group_symop_operation_xyz
x,y,z
-x,y,-z
-x,-y,-z
x,-y,z
1/2+x,1/2+y,z
1/2-x,1/2+y,-z
1/2-x,1/2-y,-z
1/2+x,1/2-y,z
loop_
_atom_site_type_symbol
_atom_site_label
_atom_site_fract_x
_atom_site_fract_y
_atom_site_fract_z
Si Si1 0.811483 0.736568 0.179777
Si Si2 0.504893 0.000000 0.866909
Si Si3 0.186628 0.220277 0.356983
Si Si4 0.547288 0.875834 0.814319
Si Si5 0.158247 0.605294 0.498587
Si Si6 0.000000 0.689783 0.000000
Si Si7 0.808085 0.000000 0.450031
O O1 0.794873 0.743782 0.305168
O O2 0.796594 0.668292 0.136460
O O3 0.990612 0.765835 0.233357
O O4 0.660346 0.770424 0.041865
O O5 0.602666 0.057284 0.866091
O O6 0.315328 0.000000 0.719469
O O7 0.500000 0.000000 0.000000
O O8 0.250000 0.250000 0.500000
O O9 0.219864 0.151323 0.380845
O O10 0.418629 0.866629 0.650060
O O11 0.445635 0.852135 0.872565
O O12 0.278038 0.553150 0.518799
O O13 0.000000 0.584641 0.500000
O O14 0.000000 0.000000 0.500000
#
# Coordination Sequence:
#
# PCOD8112410 Si02
#       7
#     8   4   8   8   8   4   4
#     4  12  24  40  62  97 133 172 211 268 325 395
#     4  10  22  43  70  86 127 175 221 269 321 396
#     4  12  22  38  63  94 131 166 211 261 327 390
#     4  11  22  40  67  94 122 170 221 266 321 386
#     4  11  21  42  65  94 129 168 212 266 329 391
#     4  12  24  41  62  97 134 168 222 266 330 392
#     4  10  25  41  64 101 128 164 223 275 329 381
#
# _framework density 20.406593000000001
#
# number of rings (size 3 to 8) (size 9 to 14) (size 15 to 20)
#    0.000    0.727    6.364    1.364    0.000    4.364 
#    0.000    0.000    0.000    0.545    0.000    0.000 
#    0.000    0.000    0.000    0.000    0.000    0.000 
#
# Total GULP energy -272704.242879 kJ/mol
# GULP energy per Si atom -12395.647404 kJ/mol
# Density = 2.036015 g / cm^3
# Si number density = 20.406593 Si / 1000 Ang^3
#
#
#
# Elastic Constant Matrix: (Units=GPa)
#
#
# Indices 1 2 3 4 5 6 
#
# 1 124.4904 58.1658 25.7481 0.0000 -1.3297 0.0000
# 2 58.1658 142.2570 35.0606 0.0000 8.6009 0.0000
# 3 25.7481 35.0606 76.4367 0.0000 -4.6864 0.0000
# 4 0.0000 0.0000 0.0000 29.2333 0.0000 -10.3417
# 5 -1.3297 8.6009 -4.6864 0.0000 31.0149 0.0000
# 6 0.0000 0.0000 0.0000 -10.3417 0.0000 35.2749
#
#
#
# Elastic Compliance Matrix: (Units=1/GPa)
#
#
# Indices 1 2 3 4 5 6 
#
# 1 0.010170 -0.003844 -0.001585 0.000000 0.001262 0.000000
# 2 -0.003844 0.009622 -0.003323 0.000000 -0.003335 0.000000
# 3 -0.001585 -0.003323 0.015335 0.000000 0.003171 0.000000
# 4 0.000000 0.000000 0.000000 0.038166 0.000000 0.011189
# 5 0.001262 -0.003335 0.003171 0.000000 0.033701 0.000000
# 6 0.000000 0.000000 0.000000 0.011189 0.000000 0.031629
#
#
# Mechanical properties :
#
#
# Convention : Reuss Voigt Hill
#
# Bulk Modulus (GPa) = 56.74475 64.57036 60.65756
# Shear Modulus (GPa) = 30.86380 34.05194 32.45787
#
# Velocity S-wave (km/s) = 3.89323 4.08937 3.99251
# Velocity P-wave (km/s) = 6.93377 7.34901 7.14440
#
# Compressibility (1/GPa) = 0.01762277
#
# Stress axis : x y z
#
# Youngs Moduli (GPa) = 98.32705 103.92961 65.20867
#
# Poissons Ratio (x) = 0.39950 0.10337
# Poissons Ratio (y) = 0.37797 0.21669
# Poissons Ratio (z) = 0.15588 0.34537
#
# Static dielectric constant tensor:
#      x y z
#    x 3.696890 0.000000 -0.288490 
#    y 0.000000 4.092090 0.000000 
#    z -0.288490 0.000000 3.779190 
# 
# 
# High freq. dielectric constant tensor:
#      x y z
#    x 1.785780 0.000000 -0.035950 
#    y 0.000000 1.806600 0.000000 
#    z -0.035950 0.000000 1.804300 
# 
# From -- ./inp_files/122694.got.cif
#   From: 2010.06.25/outbox.cif.g09.slc.cpg/sg12_62_cif.got.tgz:122694.got - 2010.06.28 00:19:55.
