data_PCOD8112906
_publ_section_title
;
Structure prediction by ZEFSAII (Michael W. Deem and Ramdas Pophale) SiO2 
 PCOD8112906
Probable space group: C 2/M
;
_chemical_formula_sum "Si O2"
_cell_formula_units_Z 40
_cell_length_a 10.848130
_cell_length_b 18.953251
_cell_length_c 14.990697
_cell_angle_alpha 90.000000
_cell_angle_beta 33.858735
_cell_angle_gamma 90.000000
_cell_volume 1717.237480
_symmetry_space_group_name_H-M "C 2/M"
_symmetry_group_IT_number 12
_symmetry_cell_setting 'monoclinic'
loop_
_space_group_symop_operation_xyz
x,y,z
-x,y,-z
-x,-y,-z
x,-y,z
1/2+x,1/2+y,z
1/2-x,1/2+y,-z
1/2-x,1/2-y,-z
1/2+x,1/2-y,z
loop_
_atom_site_type_symbol
_atom_site_label
_atom_site_fract_x
_atom_site_fract_y
_atom_site_fract_z
Si Si1 0.685127 0.668865 0.243411
Si Si2 0.442671 0.576885 0.159722
Si Si3 0.857626 0.677440 0.755727
Si Si4 0.230363 0.081330 0.541726
Si Si5 0.864599 0.352120 0.946798
O O1 0.625633 0.749060 0.309948
O O2 0.479407 0.617218 0.380288
O O3 0.878792 0.631689 0.185060
O O4 0.759025 0.683737 0.097203
O O5 0.395399 0.500000 0.146536
O O6 0.368373 0.637304 0.135509
O O7 0.297673 0.585979 0.335676
O O8 0.706870 0.580397 0.021760
O O9 0.857453 0.695252 0.861748
O O10 0.055598 0.624732 0.614100
O O11 0.250940 0.000000 0.497821
#
# Coordination Sequence:
#
# PCOD8112906 Si02
#       5
#     8   8   8   8   8
#     4  10  24  42  64  92 130 167 210 259 321 373
#     4  10  23  42  65  95 132 168 206 258 320 377
#     4  12  23  37  67  95 128 164 215 263 310 372
#     4  10  23  45  65  91 130 170 210 257 318 379
#     4  10  24  40  64  94 125 167 209 261 315 373
#
# _framework density 23.293226000000001
#
# number of rings (size 3 to 8) (size 9 to 14) (size 15 to 20)
#    0.000    1.600    0.000    3.000   11.200    5.600 
#    3.600    5.000    0.000    0.000    0.000    0.000 
#    0.000    0.000    0.000    0.000    0.000    0.000 
#
# Total GULP energy -247808.184058 kJ/mol
# GULP energy per Si atom -12390.409203 kJ/mol
# Density = 2.324021 g / cm^3
# Si number density = 23.293226 Si / 1000 Ang^3
#
#
#
# Elastic Constant Matrix: (Units=GPa)
#
#
# Indices 1 2 3 4 5 6 
#
# 1 121.9973 50.8946 41.2953 -0.0463 -25.3842 -0.0151
# 2 50.8946 123.8675 44.3970 0.0243 -30.2817 -0.0201
# 3 41.2953 44.3970 99.6438 0.0564 -29.8093 0.0615
# 4 -0.0463 0.0243 0.0564 1.7382 -0.0179 -6.4144
# 5 -25.3842 -30.2817 -29.8093 -0.0179 35.7160 -0.0362
# 6 -0.0151 -0.0201 0.0615 -6.4144 -0.0362 25.1068
#
#
#
# Elastic Compliance Matrix: (Units=1/GPa)
#
#
# Indices 1 2 3 4 5 6 
#
# 1 0.010847 -0.002815 -0.002203 0.008560 0.003490 0.002202
# 2 -0.002815 0.011449 -0.002171 -0.000446 0.005894 -0.000093
# 3 -0.002203 -0.002171 0.014529 -0.008847 0.008713 -0.002286
# 4 0.008560 -0.000446 -0.008847 10.071297 0.005971 2.573095
# 5 0.003490 0.005894 0.008713 0.005971 0.042753 0.001572
# 6 0.002202 -0.000093 -0.002286 2.573095 0.001572 0.697225
#
#
# Mechanical properties :
#
#
# Convention : Reuss Voigt Hill
#
# Bulk Modulus (GPa) = 44.55062 68.74249 56.64655
# Shear Modulus (GPa) = 0.45998 26.44030 13.45014
#
# Velocity S-wave (km/s) = 0.44486 3.37279 2.40558
# Velocity P-wave (km/s) = 4.40810 6.68906 5.66458
#
# Compressibility (1/GPa) = 0.02244638
#
# Stress axis : x y z
#
# Youngs Moduli (GPa) = 92.19352 87.34455 68.82765
#
# Poissons Ratio (x) = 0.24589 0.15163
# Poissons Ratio (y) = 0.25955 0.14942
# Poissons Ratio (z) = 0.20310 0.18962
#
# Static dielectric constant tensor:
#      x y z
#    x 4.406430 -0.000070 -0.117110 
#    y -0.000070 3.954240 0.000010 
#    z -0.117110 0.000010 4.159590 
# 
# 
# High freq. dielectric constant tensor:
#      x y z
#    x 1.922260 0.000000 -0.008660 
#    y 0.000000 1.908100 0.000000 
#    z -0.008660 0.000000 1.926670 
# 
# From -- ./inp_files/47163.got.cif
#   From: 2010.06.25/outbox.cif.g09.slc.cpg/sg12_24_cif.got.tgz:47163.got - 2010.06.28 00:19:55.
