data_PCOD8112929
_publ_section_title
;
Structure prediction by ZEFSAII (Michael W. Deem and Ramdas Pophale) SiO2 
 PCOD8112929
Probable space group: C 2/M
;
_chemical_formula_sum "Si O2"
_cell_formula_units_Z 40
_cell_length_a 26.902296
_cell_length_b 7.592140
_cell_length_c 9.345944
_cell_angle_alpha 90.000000
_cell_angle_beta 80.110790
_cell_angle_gamma 90.000000
_cell_volume 1880.509042
_symmetry_space_group_name_H-M "C 2/M"
_symmetry_group_IT_number 12
_symmetry_cell_setting 'monoclinic'
loop_
_space_group_symop_operation_xyz
x,y,z
-x,y,-z
-x,-y,-z
x,-y,z
1/2+x,1/2+y,z
1/2-x,1/2+y,-z
1/2-x,1/2-y,-z
1/2+x,1/2-y,z
loop_
_atom_site_type_symbol
_atom_site_label
_atom_site_fract_x
_atom_site_fract_y
_atom_site_fract_z
Si Si1 0.455056 0.000000 0.722543
Si Si2 0.263082 0.703097 0.334752
Si Si3 0.903321 0.206262 0.920785
Si Si4 0.071102 0.500000 0.586473
Si Si5 0.378099 0.295792 0.255189
Si Si6 0.202605 0.806989 0.113059
O O1 0.444924 0.176034 0.820614
O O2 0.513624 0.000000 0.660726
O O3 0.423745 0.000000 0.588676
O O4 0.255784 0.500000 0.303558
O O5 0.250000 0.750000 0.500000
O O6 0.319609 0.761844 0.265688
O O7 0.219884 0.804314 0.268282
O O8 0.849996 0.291199 0.891582
O O9 0.912170 0.000000 0.876623
O O10 0.906460 0.233037 0.090424
O O11 0.097304 0.675847 0.634767
O O12 0.381444 0.500000 0.302657
O O13 0.188518 0.000000 0.066695
O O14 0.250000 0.750000 0.000000
#
# Coordination Sequence:
#
# PCOD8112929 Si02
#       6
#     4   8   8   4   8   8
#     4  11  27  47  69  97 125 169 219 279 340 389
#     4  11  24  38  57  92 133 173 212 253 312 378
#     4  10  23  42  66  98 131 169 220 268 321 388
#     4  11  27  47  69  95 129 167 219 277 342 391
#     4  10  23  43  66  96 133 170 216 271 323 387
#     4  11  22  36  59  92 129 171 210 253 309 373
#
# _framework density 21.270837
#
# number of rings (size 3 to 8) (size 9 to 14) (size 15 to 20)
#    0.000    1.400    2.000    1.800    8.400    3.200 
#    0.000    4.000    0.000    0.000    0.000    0.000 
#    0.000    0.000    0.000    0.000    0.000    0.000 
#
# Total GULP energy -247936.646740 kJ/mol
# GULP energy per Si atom -12396.832337 kJ/mol
# Density = 2.122242 g / cm^3
# Si number density = 21.270837 Si / 1000 Ang^3
#
#
#
# Elastic Constant Matrix: (Units=GPa)
#
#
# Indices 1 2 3 4 5 6 
#
# 1 47.7073 24.9940 -0.9629 0.0000 3.0627 0.0000
# 2 24.9940 100.3928 31.4532 0.0000 -0.0413 0.0000
# 3 -0.9629 31.4532 97.4994 0.0000 -0.0301 0.0000
# 4 0.0000 0.0000 0.0000 33.6637 0.0000 -0.6423
# 5 3.0627 -0.0413 -0.0301 0.0000 37.4652 0.0000
# 6 0.0000 0.0000 0.0000 -0.6423 0.0000 28.7403
#
#
#
# Elastic Compliance Matrix: (Units=1/GPa)
#
#
# Indices 1 2 3 4 5 6 
#
# 1 0.024783 -0.006950 0.002486 0.000000 -0.002032 0.000000
# 2 -0.006950 0.013030 -0.004272 0.000000 0.000579 0.000000
# 3 0.002486 -0.004272 0.011659 0.000000 -0.000199 0.000000
# 4 0.000000 0.000000 0.000000 0.029718 0.000000 0.000664
# 5 -0.002032 0.000579 -0.000199 0.000000 0.026858 0.000000
# 6 0.000000 0.000000 0.000000 0.000664 0.000000 0.034809
#
#
# Mechanical properties :
#
#
# Convention : Reuss Voigt Hill
#
# Bulk Modulus (GPa) = 31.24941 39.61867 35.43404
# Shear Modulus (GPa) = 29.58675 32.64818 31.11746
#
# Velocity S-wave (km/s) = 3.73360 3.92200 3.82896
# Velocity P-wave (km/s) = 5.77143 6.25905 6.02018
#
# Compressibility (1/GPa) = 0.03200061
#
# Stress axis : x y z
#
# Youngs Moduli (GPa) = 40.35075 76.74784 85.77026
#
# Poissons Ratio (x) = 0.53337 -0.21323
# Poissons Ratio (y) = 0.28042 0.36639
# Poissons Ratio (z) = -0.10032 0.32785
#
# Static dielectric constant tensor:
#      x y z
#    x 4.220150 0.000000 0.432360 
#    y 0.000000 3.496730 0.000000 
#    z 0.432360 0.000000 4.154200 
# 
# 
# High freq. dielectric constant tensor:
#      x y z
#    x 1.829610 0.000000 0.004020 
#    y 0.000000 1.838800 0.000000 
#    z 0.004020 0.000000 1.840860 
# 
# From -- ./inp_files/101042.got.cif
#   From: 2010.06.25/outbox.cif.g09.slc.cpg/sg12_51_cif.got.tgz:101042.got - 2010.06.28 00:19:55.
