data_PCOD8112218
_publ_section_title
;
Structure prediction by ZEFSAII (Michael W. Deem and Ramdas Pophale) SiO2 
 PCOD8112218
Probable space group: C 2/M
;
_chemical_formula_sum "Si O2"
_cell_formula_units_Z 48
_cell_length_a 28.184217
_cell_length_b 8.419539
_cell_length_c 15.756894
_cell_angle_alpha 90.000000
_cell_angle_beta 142.191502
_cell_angle_gamma 90.000000
_cell_volume 2292.147435
_symmetry_space_group_name_H-M "C 2/M"
_symmetry_group_IT_number 12
_symmetry_cell_setting 'monoclinic'
loop_
_space_group_symop_operation_xyz
x,y,z
-x,y,-z
-x,-y,-z
x,-y,z
1/2+x,1/2+y,z
1/2-x,1/2+y,-z
1/2-x,1/2-y,-z
1/2+x,1/2-y,z
loop_
_atom_site_type_symbol
_atom_site_label
_atom_site_fract_x
_atom_site_fract_y
_atom_site_fract_z
Si Si1 0.311090 0.184782 0.152413
Si Si2 0.101996 0.185283 0.076276
Si Si3 0.560452 0.815881 0.191793
Si Si4 0.734406 0.314387 0.734228
Si Si5 0.896934 0.316020 0.560390
Si Si6 0.971772 0.815853 0.368263
O O1 0.305060 0.279807 0.231667
O O2 0.396546 0.214538 0.235603
O O3 0.296445 0.000000 0.148040
O O4 0.250000 0.250000 0.000000
O O5 0.102732 0.215382 0.178366
O O6 0.178441 0.252102 0.140494
O O7 0.095219 0.000000 0.048234
O O8 0.030004 0.272660 0.930399
O O9 0.601999 0.774514 0.338641
O O10 0.568881 0.000000 0.180372
O O11 0.732326 0.500000 0.712487
O O12 0.687888 0.225518 0.594121
O O13 0.915841 0.500000 0.571129
O O14 0.961129 0.210999 0.604807
O O15 0.000000 0.757026 0.500000
O O16 0.949064 0.000000 0.337765
#
# Coordination Sequence:
#
# PCOD8112218 Si02
#       6
#     8   8   8   8   8   8
#     4  12  26  44  66  93 128 166 211 260 312 371
#     4  11  23  41  66  94 126 164 209 258 314 375
#     4  10  22  42  66  94 127 163 207 257 315 376
#     4  12  25  43  65  92 128 166 209 260 316 371
#     4  11  24  41  65  95 126 165 212 259 313 374
#     4  11  23  41  65  93 128 168 209 255 310 370
#
# _framework density 20.94106
#
# number of rings (size 3 to 8) (size 9 to 14) (size 15 to 20)
#    0.000    0.833    1.667    7.000    2.333    4.000 
#    0.000    0.000    0.000    0.000    0.000    0.000 
#    0.000    0.000    0.000    0.000    0.000    0.000 
#
# Total GULP energy -297807.152228 kJ/mol
# GULP energy per Si atom -12408.631343 kJ/mol
# Density = 2.089340 g / cm^3
# Si number density = 20.941060 Si / 1000 Ang^3
#
#
#
# Elastic Constant Matrix: (Units=GPa)
#
#
# Indices 1 2 3 4 5 6 
#
# 1 40.1106 7.1865 1.5657 0.0000 7.7888 0.0000
# 2 7.1865 68.1591 18.5889 0.0000 -10.1863 0.0000
# 3 1.5657 18.5889 98.1685 0.0000 -10.3189 0.0000
# 4 0.0000 0.0000 0.0000 33.5707 0.0000 3.9526
# 5 7.7888 -10.1863 -10.3189 0.0000 38.5042 0.0000
# 6 0.0000 0.0000 0.0000 3.9526 0.0000 37.3810
#
#
#
# Elastic Compliance Matrix: (Units=1/GPa)
#
#
# Indices 1 2 3 4 5 6 
#
# 1 0.026877 -0.003696 -0.000415 0.000000 -0.006526 0.000000
# 2 -0.003696 0.016425 -0.002589 0.000000 0.004399 0.000000
# 3 -0.000415 -0.002589 0.010928 0.000000 0.002328 0.000000
# 4 0.000000 0.000000 0.000000 0.030163 0.000000 -0.003189
# 5 -0.006526 0.004399 0.002328 0.000000 0.029079 0.000000
# 6 0.000000 0.000000 0.000000 -0.003189 0.000000 0.027089
#
#
# Mechanical properties :
#
#
# Convention : Reuss Voigt Hill
#
# Bulk Modulus (GPa) = 24.49150 29.01336 26.75243
# Shear Modulus (GPa) = 29.83837 33.83099 31.83468
#
# Velocity S-wave (km/s) = 3.77885 4.02373 3.90321
# Velocity P-wave (km/s) = 5.54621 5.95584 5.75467
#
# Compressibility (1/GPa) = 0.04083049
#
# Stress axis : x y z
#
# Youngs Moduli (GPa) = 37.20706 60.88389 91.50755
#
# Poissons Ratio (x) = 0.22502 0.03795
# Poissons Ratio (y) = 0.13751 0.23689
# Poissons Ratio (z) = 0.01543 0.15762
#
# Static dielectric constant tensor:
#      x y z
#    x 3.811820 0.000000 -0.027020 
#    y 0.000000 3.845210 0.000000 
#    z -0.027020 0.000000 3.854690 
# 
# 
# High freq. dielectric constant tensor:
#      x y z
#    x 1.817760 0.000000 0.002490 
#    y 0.000000 1.834030 0.000000 
#    z 0.002490 0.000000 1.829140 
# 
# From -- ./inp_files/244894.got.cif
#   From: 2010.06.25/outbox.cif.g09.slc.cpg/sg12_123_cif.got.tgz:244894.got - 2010.06.28 00:19:55.
