data_PCOD8112055
_publ_section_title
;
Structure prediction by ZEFSAII (Michael W. Deem and Ramdas Pophale) SiO2 
 PCOD8112055
Probable space group: C 2/M
;
_chemical_formula_sum "Si O2"
_cell_formula_units_Z 64
_cell_length_a 8.627097
_cell_length_b 28.202098
_cell_length_c 17.786151
_cell_angle_alpha 90.000000
_cell_angle_beta 135.496907
_cell_angle_gamma 90.000000
_cell_volume 3033.288579
_symmetry_space_group_name_H-M "C 2/M"
_symmetry_group_IT_number 12
_symmetry_cell_setting 'monoclinic'
loop_
_space_group_symop_operation_xyz
x,y,z
-x,y,-z
-x,-y,-z
x,-y,z
1/2+x,1/2+y,z
1/2-x,1/2+y,-z
1/2-x,1/2-y,-z
1/2+x,1/2-y,z
loop_
_atom_site_type_symbol
_atom_site_label
_atom_site_fract_x
_atom_site_fract_y
_atom_site_fract_z
Si Si1 0.130130 0.713267 0.734013
Si Si2 0.063378 0.945811 0.607926
Si Si3 0.757848 0.273528 0.387313
Si Si4 0.256988 0.382274 0.604293
Si Si5 0.060852 0.444442 0.819550
Si Si6 0.670121 0.613316 0.201718
Si Si7 0.839467 0.622918 0.015663
Si Si8 0.757886 0.787417 0.936550
O O1 0.277196 0.730865 0.715318
O O2 0.161833 0.657136 0.754578
O O3 0.180014 0.737442 0.831850
O O4 0.885064 0.731042 0.626134
O O5 0.316445 0.929960 0.707451
O O6 0.000000 0.939984 0.500000
O O7 0.903261 0.911627 0.597773
O O8 0.028325 0.000000 0.622716
O O9 0.682592 0.326634 0.384247
O O10 0.000000 0.263122 0.500000
O O11 0.310899 0.402369 0.705500
O O12 0.000000 0.390899 0.500000
O O13 0.086468 0.500000 0.836288
O O14 0.245208 0.427890 0.823578
O O15 0.107906 0.423837 0.918595
O O16 0.415325 0.625558 0.097775
O O17 0.887710 0.667830 0.086921
O O18 0.000000 0.625056 0.000000
O O19 0.750000 0.750000 0.000000
O O20 0.000000 0.806977 0.000000
#
# Coordination Sequence:
#
# PCOD8112055 Si02
#       8
#     8   8   8   8   8   8   8   8
#     4  11  22  41  64  91 129 169 219 274 323 388
#     4  10  22  42  68 101 135 170 221 277 333 400
#     4  10  23  41  63  93 133 174 220 270 324 393
#     4  10  22  41  66  98 136 175 221 274 332 393
#     4  11  24  44  69  97 131 172 217 272 340 404
#     4  11  23  43  66  93 130 171 221 276 331 402
#     4  12  25  44  65  93 132 171 219 277 332 400
#     4  12  23  41  63  94 129 170 224 277 331 390
#
# _framework density 21.099212999999999
#
# number of rings (size 3 to 8) (size 9 to 14) (size 15 to 20)
#    0.000    1.125    2.500    3.375    1.750    3.000 
#    2.250    1.250    0.000    0.000    0.000    0.000 
#    0.000    0.000    0.000    0.000    0.000    0.000 
#
# Total GULP energy -396698.288162 kJ/mol
# GULP energy per Si atom -12396.821505 kJ/mol
# Density = 2.105119 g / cm^3
# Si number density = 21.099213 Si / 1000 Ang^3
#
#
#
# Elastic Constant Matrix: (Units=GPa)
#
#
# Indices 1 2 3 4 5 6 
#
# 1 138.3053 74.0467 51.4116 0.0000 5.1868 0.0000
# 2 74.0467 99.5559 43.5955 0.0000 11.6280 -0.0001
# 3 51.4116 43.5955 99.8311 0.0002 -2.3336 0.0010
# 4 0.0000 0.0000 0.0002 27.3066 0.0002 -4.1146
# 5 5.1868 11.6280 -2.3336 0.0002 35.7764 0.0006
# 6 0.0000 -0.0001 0.0010 -4.1146 0.0006 14.3024
#
#
#
# Elastic Compliance Matrix: (Units=1/GPa)
#
#
# Indices 1 2 3 4 5 6 
#
# 1 0.012710 -0.008246 -0.002929 0.000000 0.000646 0.000000
# 2 -0.008246 0.018501 -0.003951 0.000000 -0.005075 0.000001
# 3 -0.002929 -0.003951 0.013311 0.000000 0.002577 -0.000001
# 4 0.000000 0.000000 0.000000 0.038281 0.000000 0.011013
# 5 0.000646 -0.005075 0.002577 0.000000 0.029675 -0.000002
# 6 0.000000 0.000001 -0.000001 0.011013 -0.000002 0.073087
#
#
# Mechanical properties :
#
#
# Convention : Reuss Voigt Hill
#
# Bulk Modulus (GPa) = 70.08319 75.08888 72.58603
# Shear Modulus (GPa) = 22.66817 26.71965 24.69391
#
# Velocity S-wave (km/s) = 3.28130 3.56249 3.42478
# Velocity P-wave (km/s) = 6.90247 7.25172 7.07925
#
# Compressibility (1/GPa) = 0.01426876
#
# Stress axis : x y z
#
# Youngs Moduli (GPa) = 78.67951 54.05201 75.12472
#
# Poissons Ratio (x) = 0.44571 0.22007
# Poissons Ratio (y) = 0.64878 0.29683
# Poissons Ratio (z) = 0.23048 0.21357
#
# Static dielectric constant tensor:
#      x y z
#    x 3.989540 0.000000 -0.147050 
#    y 0.000000 3.715180 0.000000 
#    z -0.147050 0.000000 4.311780 
# 
# 
# High freq. dielectric constant tensor:
#      x y z
#    x 1.839070 0.000000 -0.010230 
#    y 0.000000 1.814770 0.000000 
#    z -0.010230 0.000000 1.843680 
# 
# From -- ./inp_files/260407.got.cif
#   From: 2010.06.25/outbox.cif.g09.slc.cpg/sg12_131_cif.got.tgz:260407.got - 2010.06.28 00:19:55.
