data_PCOD8112687
_publ_section_title
;
Structure prediction by ZEFSAII (Michael W. Deem and Ramdas Pophale) SiO2 
 PCOD8112687
Probable space group: C 2/M
;
_chemical_formula_sum "Si O2"
_cell_formula_units_Z 48
_cell_length_a 14.660874
_cell_length_b 8.920605
_cell_length_c 29.506009
_cell_angle_alpha 90.000000
_cell_angle_beta 39.346891
_cell_angle_gamma 90.000000
_cell_volume 2446.602813
_symmetry_space_group_name_H-M "C 2/M"
_symmetry_group_IT_number 12
_symmetry_cell_setting 'monoclinic'
loop_
_space_group_symop_operation_xyz
x,y,z
-x,y,-z
-x,-y,-z
x,-y,z
1/2+x,1/2+y,z
1/2-x,1/2+y,-z
1/2-x,1/2-y,-z
1/2+x,1/2-y,z
loop_
_atom_site_type_symbol
_atom_site_label
_atom_site_fract_x
_atom_site_fract_y
_atom_site_fract_z
Si Si1 0.857771 0.329322 0.154341
Si Si2 0.637487 0.322736 0.009749
Si Si3 0.150232 0.175500 0.500501
Si Si4 0.699393 0.669805 0.127675
Si Si5 0.324987 0.323593 0.612339
Si Si6 0.373217 0.323238 0.239517
O O1 0.908182 0.500000 0.143546
O O2 0.721183 0.323284 0.173358
O O3 0.806783 0.254994 0.220742
O O4 0.982039 0.236685 0.082288
O O5 0.637888 0.500000 0.014149
O O6 0.682554 0.275122 0.941762
O O7 0.750000 0.250000 0.000000
O O8 0.250000 0.250000 0.500000
O O9 0.198149 0.220997 0.431325
O O10 0.983147 0.222939 0.569763
O O11 0.166057 0.000000 0.501117
O O12 0.721062 0.500000 0.101518
O O13 0.539462 0.726190 0.178247
O O14 0.301845 0.500000 0.627960
O O15 0.207360 0.232177 0.685077
O O16 0.355907 0.500000 0.242074
#
# Coordination Sequence:
#
# PCOD8112687 Si02
#       6
#     8   8   8   8   8   8
#     4  11  23  40  61  84 114 155 194 240 300 351
#     4  12  23  37  60  86 113 149 195 246 297 348
#     4   9  19  37  62  89 117 152 191 234 281 336
#     4  10  23  41  59  82 115 152 193 242 297 349
#     4   9  20  39  59  83 119 157 190 229 285 345
#     4  11  23  39  59  85 118 154 194 241 285 341
#
# _framework density 19.619040999999999
#
# number of rings (size 3 to 8) (size 9 to 14) (size 15 to 20)
#    0.000    1.667    1.667    4.000    0.000    6.667 
#    0.000    6.667    0.000    0.000    0.000    0.000 
#    0.000    0.000    0.000    0.000    0.000    0.000 
#
# Total GULP energy -297634.764981 kJ/mol
# GULP energy per Si atom -12401.448541 kJ/mol
# Density = 1.957439 g / cm^3
# Si number density = 19.619041 Si / 1000 Ang^3
#
#
#
# Elastic Constant Matrix: (Units=GPa)
#
#
# Indices 1 2 3 4 5 6 
#
# 1 106.9960 39.0165 28.3781 -0.0003 20.7546 -0.0006
# 2 39.0165 109.6546 51.4525 -0.0001 8.4475 0.0000
# 3 28.3781 51.4525 106.6833 0.0000 18.0297 -0.0001
# 4 -0.0003 -0.0001 0.0000 37.4100 0.0002 2.7908
# 5 20.7546 8.4475 18.0297 0.0002 22.4347 0.0002
# 6 -0.0006 0.0000 -0.0001 2.7908 0.0002 32.3363
#
#
#
# Elastic Compliance Matrix: (Units=1/GPa)
#
#
# Indices 1 2 3 4 5 6 
#
# 1 0.012718 -0.003828 0.000241 0.000000 -0.010518 0.000000
# 2 -0.003828 0.012940 -0.005783 0.000000 0.003317 0.000000
# 3 0.000241 -0.005783 0.013618 0.000000 -0.008989 0.000000
# 4 0.000000 0.000000 0.000000 0.026904 0.000000 -0.002322
# 5 -0.010518 0.003317 -0.008989 0.000000 0.060279 -0.000001
# 6 0.000000 0.000000 0.000000 -0.002322 -0.000001 0.031125
#
#
# Mechanical properties :
#
#
# Convention : Reuss Voigt Hill
#
# Bulk Modulus (GPa) = 48.69677 62.33643 55.51660
# Shear Modulus (GPa) = 27.29700 32.06865 29.68282
#
# Velocity S-wave (km/s) = 3.73413 4.04736 3.89390
# Velocity P-wave (km/s) = 6.59293 7.32693 6.96960
#
# Compressibility (1/GPa) = 0.02053524
#
# Stress axis : x y z
#
# Youngs Moduli (GPa) = 78.62596 77.28228 73.43352
#
# Poissons Ratio (x) = 0.29584 -0.01767
# Poissons Ratio (y) = 0.30098 0.42466
# Poissons Ratio (z) = -0.01892 0.44692
#
# Static dielectric constant tensor:
#      x y z
#    x 3.797010 0.000000 0.079370 
#    y 0.000000 3.599750 0.000000 
#    z 0.079370 0.000000 3.559610 
# 
# 
# High freq. dielectric constant tensor:
#      x y z
#    x 1.774360 0.000000 0.009850 
#    y 0.000000 1.766280 0.000000 
#    z 0.009850 0.000000 1.758280 
# 
# From -- ./inp_files/308586.got.cif
#   From: 2010.06.25/outbox.cif.g09.slc.cpg/sg12_155_cif.got.tgz:308586.got - 2010.06.28 00:19:55.
