data_PCOD8112453
_publ_section_title
;
Structure prediction by ZEFSAII (Michael W. Deem and Ramdas Pophale) SiO2 
 PCOD8112453
Probable space group: C 2/M
;
_chemical_formula_sum "Si O2"
_cell_formula_units_Z 48
_cell_length_a 15.259346
_cell_length_b 11.545706
_cell_length_c 30.673771
_cell_angle_alpha 90.000000
_cell_angle_beta 26.960688
_cell_angle_gamma 90.000000
_cell_volume 2450.106916
_symmetry_space_group_name_H-M "C 2/M"
_symmetry_group_IT_number 12
_symmetry_cell_setting 'monoclinic'
loop_
_space_group_symop_operation_xyz
x,y,z
-x,y,-z
-x,-y,-z
x,-y,z
1/2+x,1/2+y,z
1/2-x,1/2+y,-z
1/2-x,1/2-y,-z
1/2+x,1/2-y,z
loop_
_atom_site_type_symbol
_atom_site_label
_atom_site_fract_x
_atom_site_fract_y
_atom_site_fract_z
Si Si1 0.782689 0.864107 0.600987
Si Si2 0.928381 0.770195 0.232419
Si Si3 0.883495 0.772472 0.400144
Si Si4 0.797933 0.500000 0.653621
Si Si5 0.198709 0.366163 0.888491
Si Si6 0.706871 0.137785 0.783126
Si Si7 0.203166 0.500000 0.448668
O O1 0.697139 0.815480 0.683039
O O2 0.647663 0.832039 0.619855
O O3 0.000000 0.812596 0.500000
O O4 0.790820 0.000000 0.601676
O O5 0.813455 0.890245 0.277812
O O6 0.957192 0.702909 0.173261
O O7 0.135429 0.789578 0.163011
O O8 0.750000 0.750000 0.500000
O O9 0.833455 0.888881 0.397172
O O10 0.103262 0.792244 0.317222
O O11 0.833618 0.500000 0.586254
O O12 0.028098 0.500000 0.562500
O O13 0.255540 0.500000 0.869934
O O14 0.172400 0.337393 0.849275
O O15 0.000000 0.334667 0.000000
O O16 0.713833 0.000000 0.770457
#
# Coordination Sequence:
#
# PCOD8112453 Si02
#       7
#     8   8   8   4   8   8   4
#     4  11  23  38  56  86 131 174 211 259 317 374
#     4  12  22  40  65  94 127 166 212 265 321 385
#     4  12  23  36  56  87 125 172 219 258 307 379
#     4  11  20  34  57  90 120 166 214 268 310 367
#     4  10  22  44  71  97 125 163 214 272 328 387
#     4  11  23  42  65  93 128 170 215 260 320 385
#     4  11  20  34  56  78 126 171 223 257 308 362
#
# _framework density 19.590982
#
# number of rings (size 3 to 8) (size 9 to 14) (size 15 to 20)
#    0.000    0.833    5.000    3.500    1.167    2.000 
#    1.500    0.000    0.000    2.000    0.000    0.000 
#    0.000    0.000    0.000    0.000    0.000    0.000 
#
# Total GULP energy -297550.349980 kJ/mol
# GULP energy per Si atom -12397.931249 kJ/mol
# Density = 1.954639 g / cm^3
# Si number density = 19.590982 Si / 1000 Ang^3
#
#
#
# Elastic Constant Matrix: (Units=GPa)
#
#
# Indices 1 2 3 4 5 6 
#
# 1 120.5913 52.4066 46.0814 -0.0010 7.7000 0.0001
# 2 52.4066 90.2807 40.8918 -0.0019 0.9211 0.0000
# 3 46.0814 40.8918 97.2037 -0.0062 8.3328 -0.0027
# 4 -0.0010 -0.0019 -0.0062 20.8902 -0.0013 1.7105
# 5 7.7000 0.9211 8.3328 -0.0013 25.2868 -0.0002
# 6 0.0001 0.0000 -0.0027 1.7105 -0.0002 32.4330
#
#
#
# Elastic Compliance Matrix: (Units=1/GPa)
#
#
# Indices 1 2 3 4 5 6 
#
# 1 0.012072 -0.005541 -0.003184 -0.000001 -0.002425 0.000000
# 2 -0.005541 0.016278 -0.004440 0.000000 0.002557 0.000000
# 3 -0.003184 -0.004440 0.013963 0.000003 -0.003470 0.000001
# 4 -0.000001 0.000000 0.000003 0.048077 0.000002 -0.002536
# 5 -0.002425 0.002557 -0.003470 0.000002 0.041335 0.000000
# 6 0.000000 0.000000 0.000001 -0.002536 0.000000 0.030966
#
#
# Mechanical properties :
#
#
# Convention : Reuss Voigt Hill
#
# Bulk Modulus (GPa) = 62.57028 65.20392 63.88710
# Shear Modulus (GPa) = 25.72693 26.96840 26.34766
#
# Velocity S-wave (km/s) = 3.62774 3.71424 3.67125
# Velocity P-wave (km/s) = 7.03953 7.19368 7.11702
#
# Compressibility (1/GPa) = 0.01598203
#
# Stress axis : x y z
#
# Youngs Moduli (GPa) = 82.83685 61.43280 71.61934
#
# Poissons Ratio (x) = 0.34037 0.22805
# Poissons Ratio (y) = 0.45896 0.31802
# Poissons Ratio (z) = 0.26377 0.27279
#
# Static dielectric constant tensor:
#      x y z
#    x 3.853210 0.000000 -0.101480 
#    y 0.000000 3.641270 0.000010 
#    z -0.101480 0.000010 3.508880 
# 
# 
# High freq. dielectric constant tensor:
#      x y z
#    x 1.772570 0.000000 0.001790 
#    y 0.000000 1.765830 0.000000 
#    z 0.001790 0.000000 1.744050 
# 
# From -- ./inp_files/212573.got.cif
#   From: 2010.06.25/outbox.cif.g09.slc.cpg/sg12_107_cif.got.tgz:212573.got - 2010.06.28 00:19:55.
