data_PCOD8112266
_publ_section_title
;
Structure prediction by ZEFSAII (Michael W. Deem and Ramdas Pophale) SiO2 
 PCOD8112266
Probable space group: C 2/M
;
_chemical_formula_sum "Si O2"
_cell_formula_units_Z 44
_cell_length_a 7.769111
_cell_length_b 27.232627
_cell_length_c 14.738367
_cell_angle_alpha 90.000000
_cell_angle_beta 41.229411
_cell_angle_gamma 90.000000
_cell_volume 2055.159182
_symmetry_space_group_name_H-M "C 2/M"
_symmetry_group_IT_number 12
_symmetry_cell_setting 'monoclinic'
loop_
_space_group_symop_operation_xyz
x,y,z
-x,y,-z
-x,-y,-z
x,-y,z
1/2+x,1/2+y,z
1/2-x,1/2+y,-z
1/2-x,1/2-y,-z
1/2+x,1/2-y,z
loop_
_atom_site_type_symbol
_atom_site_label
_atom_site_fract_x
_atom_site_fract_y
_atom_site_fract_z
Si Si1 0.500000 0.645511 0.000000
Si Si2 0.741436 0.708204 0.752701
Si Si3 0.143023 0.363073 0.532108
Si Si4 0.801194 0.554309 0.354079
Si Si5 0.475491 0.899873 0.908380
Si Si6 0.866958 0.817097 0.741307
O O1 0.683094 0.682700 0.871501
O O2 0.677945 0.609322 0.992010
O O3 0.768231 0.766483 0.738110
O O4 0.509848 0.692774 0.778440
O O5 0.018788 0.688785 0.608311
O O6 0.069199 0.403373 0.636820
O O7 0.449501 0.350334 0.397879
O O8 0.000000 0.384106 0.500000
O O9 0.500000 0.555086 0.500000
O O10 0.913907 0.500000 0.331985
O O11 0.864428 0.564988 0.223675
O O12 0.606699 0.846764 0.863309
O O13 0.500000 0.923683 0.000000
#
# Coordination Sequence:
#
# PCOD8112266 Si02
#       6
#     4   8   8   8   8   8
#     4  12  24  40  65  94 136 184 227 270 328 408
#     4  11  23  37  61  97 138 179 227 266 329 403
#     4  10  22  42  67  97 134 175 221 286 338 396
#     4  11  24  45  74 100 125 171 229 287 347 398
#     4  12  25  44  69  95 140 180 222 282 339 399
#     4  11  23  39  62  96 134 183 222 273 330 393
#
# _framework density 21.409534000000001
#
# number of rings (size 3 to 8) (size 9 to 14) (size 15 to 20)
#    0.000    0.909    5.455    1.636    1.273    2.182 
#    0.000    0.455    0.000    0.000    0.000    0.000 
#    0.000    0.000    0.000    0.000    0.000    0.000 
#
# Total GULP energy -272756.758918 kJ/mol
# GULP energy per Si atom -12398.034496 kJ/mol
# Density = 2.136080 g / cm^3
# Si number density = 21.409534 Si / 1000 Ang^3
#
#
#
# Elastic Constant Matrix: (Units=GPa)
#
#
# Indices 1 2 3 4 5 6 
#
# 1 80.4184 19.8513 44.9542 0.0000 3.3468 0.0000
# 2 19.8513 96.0914 28.0636 0.0000 11.5727 0.0000
# 3 44.9542 28.0636 103.2123 0.0000 18.9183 0.0000
# 4 0.0000 0.0000 0.0000 -19.6315 0.0000 11.7467
# 5 3.3468 11.5727 18.9183 0.0000 41.3585 0.0000
# 6 0.0000 0.0000 0.0000 11.7467 0.0000 8.6219
#
#
#
# Elastic Compliance Matrix: (Units=1/GPa)
#
#
# Indices 1 2 3 4 5 6 
#
# 1 0.016838 -0.001630 -0.007340 0.000000 0.002451 0.000000
# 2 -0.001630 0.011603 -0.002046 0.000000 -0.002179 0.000000
# 3 -0.007340 -0.002046 0.014439 0.000000 -0.005438 0.000000
# 4 0.000000 0.000000 0.000000 -0.028062 0.000000 0.038232
# 5 0.002451 -0.002179 -0.005438 0.000000 0.027078 0.000000
# 6 0.000000 0.000000 0.000000 0.038232 0.000000 0.063895
#
#
# Mechanical properties :
#
#
# Convention : Reuss Voigt Hill
#
# Bulk Modulus (GPa) = 47.96359 51.71783 49.84071
# Shear Modulus (GPa) = 37.09958 18.52665 27.81311
#
# Velocity S-wave (km/s) = 4.16727 2.94487 3.60821
# Velocity P-wave (km/s) = 6.75325 5.98096 6.37880
#
# Compressibility (1/GPa) = 0.02084915
#
# Stress axis : x y z
#
# Youngs Moduli (GPa) = 59.38782 86.18178 69.25832
#
# Poissons Ratio (x) = 0.14049 0.50836
# Poissons Ratio (y) = 0.09681 0.14167
# Poissons Ratio (z) = 0.43591 0.17629
#
# Static dielectric constant tensor:
#      x y z
#    x 3.973040 0.000000 0.227950 
#    y 0.000000 3.850460 0.000000 
#    z 0.227950 0.000000 4.053020 
# 
# 
# High freq. dielectric constant tensor:
#      x y z
#    x 1.839920 0.000000 0.004930 
#    y 0.000000 1.823030 0.000000 
#    z 0.004930 0.000000 1.852760 
# 
# From -- ./inp_files/199579.got.cif
#   From: 2010.06.25/outbox.cif.g09.slc.cpg/sg12_100_cif.got.tgz:199579.got - 2010.06.28 00:19:55.
