data_PCOD8112057
_publ_section_title
;
Structure prediction by ZEFSAII (Michael W. Deem and Ramdas Pophale) SiO2 
 PCOD8112057
Probable space group: C 2/M
;
_chemical_formula_sum "Si O2"
_cell_formula_units_Z 36
_cell_length_a 13.499241
_cell_length_b 23.239955
_cell_length_c 13.050225
_cell_angle_alpha 90.000000
_cell_angle_beta 158.398632
_cell_angle_gamma 90.000000
_cell_volume 1507.244148
_symmetry_space_group_name_H-M "C 2/M"
_symmetry_group_IT_number 12
_symmetry_cell_setting 'monoclinic'
loop_
_space_group_symop_operation_xyz
x,y,z
-x,y,-z
-x,-y,-z
x,-y,z
1/2+x,1/2+y,z
1/2-x,1/2+y,-z
1/2-x,1/2-y,-z
1/2+x,1/2-y,z
loop_
_atom_site_type_symbol
_atom_site_label
_atom_site_fract_x
_atom_site_fract_y
_atom_site_fract_z
Si Si1 0.278083 0.643130 0.715651
Si Si2 0.020939 0.747308 0.196159
Si Si3 0.000000 0.654018 0.000000
Si Si4 0.327276 0.565781 0.206935
Si Si5 0.140146 0.435236 0.394376
O O1 0.452748 0.697886 0.850514
O O2 0.182690 0.604745 0.531159
O O3 0.000000 0.663318 0.500000
O O4 0.500000 0.609636 0.000000
O O5 0.250000 0.750000 0.500000
O O6 0.045675 0.691368 0.146917
O O7 0.750000 0.750000 0.000000
O O8 0.252971 0.611124 0.224585
O O9 0.282993 0.500000 0.203832
O O10 0.635677 0.576657 0.475595
O O11 0.147709 0.577558 0.933177
O O12 0.157744 0.500000 0.452613
#
# Coordination Sequence:
#
# PCOD8112057 Si02
#       5
#     8   8   4   8   8
#     4  12  24  42  64  94 134 170 227 282 323 388
#     4  12  27  45  67  95 134 178 227 275 332 395
#     4  12  25  44  72  98 133 180 226 268 348 394
#     4  10  22  41  66  99 132 167 216 273 332 404
#     4  10  22  42  66  95 133 174 216 270 338 395
#
# _framework density 23.884650000000001
#
# number of rings (size 3 to 8) (size 9 to 14) (size 15 to 20)
#    0.000    0.889    1.111    5.667    0.000    3.556 
#    0.000    3.333    0.000    0.000    0.000    0.000 
#    0.000    0.000    0.000    0.000    0.000    0.000 
#
# Total GULP energy -223186.174197 kJ/mol
# GULP energy per Si atom -12399.231900 kJ/mol
# Density = 2.383029 g / cm^3
# Si number density = 23.884650 Si / 1000 Ang^3
#
#
#
# Elastic Constant Matrix: (Units=GPa)
#
#
# Indices 1 2 3 4 5 6 
#
# 1 135.9156 72.9453 46.3242 0.0014 -2.7716 -0.0002
# 2 72.9453 118.4691 8.0483 -0.0027 5.6045 -0.0006
# 3 46.3242 8.0483 119.9129 -0.0130 -2.3857 -0.0011
# 4 0.0014 -0.0027 -0.0130 10.3683 -0.0017 -6.9883
# 5 -2.7716 5.6045 -2.3857 -0.0017 43.6138 -0.0001
# 6 -0.0002 -0.0006 -0.0011 -6.9883 -0.0001 46.4297
#
#
#
# Elastic Compliance Matrix: (Units=1/GPa)
#
#
# Indices 1 2 3 4 5 6 
#
# 1 0.013154 -0.007868 -0.004522 -0.000010 0.001600 -0.000002
# 2 -0.007868 0.013241 0.002109 0.000008 -0.002086 0.000001
# 3 -0.004522 0.002109 0.009944 0.000015 -0.000014 0.000003
# 4 -0.000010 0.000008 0.000015 0.107337 0.000003 0.016156
# 5 0.001600 -0.002086 -0.000014 0.000003 0.023297 0.000001
# 6 -0.000002 0.000001 0.000003 0.016156 0.000001 0.023970
#
#
# Mechanical properties :
#
#
# Convention : Reuss Voigt Hill
#
# Bulk Modulus (GPa) = 63.37662 69.88148 66.62905
# Shear Modulus (GPa) = 23.06665 36.54767 29.80716
#
# Velocity S-wave (km/s) = 3.11103 3.91599 3.53648
# Velocity P-wave (km/s) = 6.28464 7.05465 6.68075
#
# Compressibility (1/GPa) = 0.01577869
#
# Stress axis : x y z
#
# Youngs Moduli (GPa) = 76.02359 75.52388 100.56005
#
# Poissons Ratio (x) = 0.59420 0.45470
# Poissons Ratio (y) = 0.59813 -0.21210
# Poissons Ratio (z) = 0.34375 -0.15930
#
# Static dielectric constant tensor:
#      x y z
#    x 4.503220 0.000000 0.054440 
#    y 0.000000 4.535780 -0.000010 
#    z 0.054440 -0.000010 4.477780 
# 
# 
# High freq. dielectric constant tensor:
#      x y z
#    x 1.956970 0.000000 -0.005750 
#    y 0.000000 1.949760 0.000000 
#    z -0.005750 0.000000 1.969160 
# 
# From -- ./inp_files/218599.got.cif
#   From: 2010.06.25/outbox.cif.g09.slc.cpg/sg12_110_cif.got.tgz:218599.got - 2010.06.28 00:19:55.
