data_PCOD8112107
_publ_section_title
;
Structure prediction by ZEFSAII (Michael W. Deem and Ramdas Pophale) SiO2 
 PCOD8112107
Probable space group: C 2/M
;
_chemical_formula_sum "Si O2"
_cell_formula_units_Z 28
_cell_length_a 5.437191
_cell_length_b 28.285857
_cell_length_c 7.607447
_cell_angle_alpha 90.000000
_cell_angle_beta 61.575989
_cell_angle_gamma 90.000000
_cell_volume 1028.948438
_symmetry_space_group_name_H-M "C 2/M"
_symmetry_group_IT_number 12
_symmetry_cell_setting 'monoclinic'
loop_
_space_group_symop_operation_xyz
x,y,z
-x,y,-z
-x,-y,-z
x,-y,z
1/2+x,1/2+y,z
1/2-x,1/2+y,-z
1/2-x,1/2-y,-z
1/2+x,1/2-y,z
loop_
_atom_site_type_symbol
_atom_site_label
_atom_site_fract_x
_atom_site_fract_y
_atom_site_fract_z
Si Si1 0.269983 0.052124 0.286985
Si Si2 0.437282 0.362011 0.821229
Si Si3 0.694220 0.768671 0.778887
Si Si4 0.000000 0.390898 0.500000
O O1 0.205741 0.086015 0.141847
O O2 0.510577 0.075788 0.323437
O O3 0.000000 0.048291 0.500000
O O4 0.360862 0.000000 0.189562
O O5 0.229497 0.324895 0.796942
O O6 0.721769 0.359112 0.608571
O O7 0.500000 0.348109 0.000000
O O8 0.503541 0.756547 0.670815
O O9 0.500000 0.746346 0.000000
#
# Coordination Sequence:
#
# PCOD8112107 Si02
#       4
#     8   8   8   4
#     4   9  20  40  65  94 134 178 222 275 340 404
#     4  11  24  40  69  98 134 174 227 282 340 401
#     4  10  22  41  69 101 136 180 227 277 344 412
#     4  10  23  42  64  96 136 178 224 278 335 406
#
# _framework density 27.212246
#
# number of rings (size 3 to 8) (size 9 to 14) (size 15 to 20)
#    0.000    2.000    0.000    3.000    8.000    1.714 
#    0.000    2.857    0.000    0.000    0.000    0.000 
#    0.000    0.000    0.000    0.000    0.000    0.000 
#
# Total GULP energy -173538.415771 kJ/mol
# GULP energy per Si atom -12395.601126 kJ/mol
# Density = 2.715031 g / cm^3
# Si number density = 27.212246 Si / 1000 Ang^3
#
#
#
# Elastic Constant Matrix: (Units=GPa)
#
#
# Indices 1 2 3 4 5 6 
#
# 1 180.0449 64.0544 26.7274 0.0000 -4.4177 0.0000
# 2 64.0544 183.8372 12.6259 0.0000 11.7164 0.0000
# 3 26.7274 12.6259 53.3531 0.0000 -0.4459 0.0000
# 4 0.0000 0.0000 0.0000 18.2638 0.0000 13.9538
# 5 -4.4177 11.7164 -0.4459 0.0000 38.0992 0.0000
# 6 0.0000 0.0000 0.0000 13.9538 0.0000 66.6362
#
#
#
# Elastic Compliance Matrix: (Units=1/GPa)
#
#
# Indices 1 2 3 4 5 6 
#
# 1 0.006825 -0.002274 -0.002869 0.000000 0.001457 0.000000
# 2 -0.002274 0.006402 -0.000395 0.000000 -0.002237 0.000000
# 3 -0.002869 -0.000395 0.020274 0.000000 0.000026 0.000000
# 4 0.000000 0.000000 0.000000 0.065181 0.000000 -0.013649
# 5 0.001457 -0.002237 0.000026 0.000000 0.027104 0.000000
# 6 0.000000 0.000000 0.000000 -0.013649 0.000000 0.017865
#
#
# Mechanical properties :
#
#
# Convention : Reuss Voigt Hill
#
# Bulk Modulus (GPa) = 44.59097 69.33895 56.96496
# Shear Modulus (GPa) = 30.82623 45.52166 38.17394
#
# Velocity S-wave (km/s) = 3.36937 4.09447 3.74949
# Velocity P-wave (km/s) = 5.61772 6.92019 6.30269
#
# Compressibility (1/GPa) = 0.02242606
#
# Stress axis : x y z
#
# Youngs Moduli (GPa) = 146.52661 156.21319 49.32502
#
# Poissons Ratio (x) = 0.35519 0.14149
# Poissons Ratio (y) = 0.33317 0.01946
# Poissons Ratio (z) = 0.42033 0.06163
#
# Static dielectric constant tensor:
#      x y z
#    x 5.292940 0.000000 -0.144940 
#    y 0.000000 5.026330 0.000000 
#    z -0.144940 0.000000 4.528280 
# 
# 
# High freq. dielectric constant tensor:
#      x y z
#    x 2.108220 0.000000 -0.009560 
#    y 0.000000 2.090500 0.000000 
#    z -0.009560 0.000000 2.075350 
# 
# From -- ./inp_files/34234.got.cif
#   From: 2010.06.25/outbox.cif.g09.slc.cpg/sg12_18_cif.got.tgz:34234.got - 2010.06.28 00:19:55.
