data_PCOD8112139
_publ_section_title
;
Structure prediction by ZEFSAII (Michael W. Deem and Ramdas Pophale) SiO2 
 PCOD8112139
Probable space group: C 2/M
;
_chemical_formula_sum "Si O2"
_cell_formula_units_Z 40
_cell_length_a 13.633898
_cell_length_b 15.433637
_cell_length_c 16.100334
_cell_angle_alpha 90.000000
_cell_angle_beta 146.140602
_cell_angle_gamma 90.000000
_cell_volume 1887.559434
_symmetry_space_group_name_H-M "C 2/M"
_symmetry_group_IT_number 12
_symmetry_cell_setting 'monoclinic'
loop_
_space_group_symop_operation_xyz
x,y,z
-x,y,-z
-x,-y,-z
x,-y,z
1/2+x,1/2+y,z
1/2-x,1/2+y,-z
1/2-x,1/2-y,-z
1/2+x,1/2-y,z
loop_
_atom_site_type_symbol
_atom_site_label
_atom_site_fract_x
_atom_site_fract_y
_atom_site_fract_z
Si Si1 0.196686 0.598265 0.634856
Si Si2 0.167929 0.000000 0.563871
Si Si3 0.715456 0.146746 0.467150
Si Si4 0.615118 0.146496 0.869407
Si Si5 0.483374 0.295174 0.080025
Si Si6 0.516977 0.000000 0.913053
O O1 0.192124 0.500000 0.664778
O O2 0.257275 0.601494 0.582850
O O3 0.338074 0.649897 0.788481
O O4 0.000000 0.640100 0.500000
O O5 0.162230 0.908691 0.509384
O O6 0.000000 0.000000 0.500000
O O7 0.325922 0.000000 0.739530
O O8 0.750000 0.250000 0.500000
O O9 0.515794 0.124614 0.298345
O O10 0.534372 0.232503 0.853947
O O11 0.624801 0.081407 0.953812
O O12 0.805789 0.148167 0.960773
O O13 0.500000 0.250752 0.000000
O O14 0.500000 0.000000 0.000000
#
# Coordination Sequence:
#
# PCOD8112139 Si02
#       6
#     8   4   8   8   8   4
#     4  11  24  41  65  94 123 163 212 262 319 385
#     4  10  24  42  63  98 129 162 223 270 312 396
#     4  11  21  43  66  91 129 169 211 269 326 375
#     4  10  23  41  64  92 124 168 211 257 318 380
#     4  11  23  42  62  92 128 162 211 262 311 381
#     4  10  22  42  63  90 127 166 207 258 320 378
#
# _framework density 21.191385
#
# number of rings (size 3 to 8) (size 9 to 14) (size 15 to 20)
#    0.000    1.400    3.000    1.800    1.400    2.800 
#    7.200    0.000    0.000    0.000    0.000    0.000 
#    0.000    0.000    0.000    0.000    0.000    0.000 
#
# Total GULP energy -247808.336542 kJ/mol
# GULP energy per Si atom -12390.416827 kJ/mol
# Density = 2.114315 g / cm^3
# Si number density = 21.191385 Si / 1000 Ang^3
#
#
#
# Elastic Constant Matrix: (Units=GPa)
#
#
# Indices 1 2 3 4 5 6 
#
# 1 103.1573 22.4015 31.2938 -0.0026 8.3401 -0.0015
# 2 22.4015 99.1466 19.0547 -0.0030 11.3555 -0.0017
# 3 31.2938 19.0547 74.3068 -0.0097 7.5328 -0.0061
# 4 -0.0026 -0.0030 -0.0097 22.7830 -0.0047 4.4746
# 5 8.3401 11.3555 7.5328 -0.0047 48.1340 -0.0029
# 6 -0.0015 -0.0017 -0.0061 4.4746 -0.0029 30.4005
#
#
#
# Elastic Compliance Matrix: (Units=1/GPa)
#
#
# Indices 1 2 3 4 5 6 
#
# 1 0.011430 -0.001652 -0.004297 -0.000001 -0.000918 0.000000
# 2 -0.001652 0.011063 -0.001936 0.000000 -0.002021 0.000000
# 3 -0.004297 -0.001936 0.015894 0.000005 -0.001286 0.000002
# 4 -0.000001 0.000000 0.000005 0.045199 0.000003 -0.006653
# 5 -0.000918 -0.002021 -0.001286 0.000003 0.021612 0.000001
# 6 0.000000 0.000000 0.000002 -0.006653 0.000001 0.033873
#
#
# Mechanical properties :
#
#
# Convention : Reuss Voigt Hill
#
# Bulk Modulus (GPa) = 44.21432 46.90120 45.55776
# Shear Modulus (GPa) = 30.79158 33.85421 32.32290
#
# Velocity S-wave (km/s) = 3.81599 4.00127 3.90973
# Velocity P-wave (km/s) = 6.35022 6.59751 6.47504
#
# Compressibility (1/GPa) = 0.02261711
#
# Stress axis : x y z
#
# Youngs Moduli (GPa) = 87.48560 90.39279 62.91521
#
# Poissons Ratio (x) = 0.14929 0.27036
# Poissons Ratio (y) = 0.14449 0.12183
# Poissons Ratio (z) = 0.37595 0.17504
#
# Static dielectric constant tensor:
#      x y z
#    x 3.776870 0.000000 -0.028470 
#    y 0.000000 3.955100 0.000000 
#    z -0.028470 0.000000 3.878290 
# 
# 
# High freq. dielectric constant tensor:
#      x y z
#    x 1.839170 0.000000 -0.007850 
#    y 0.000000 1.823310 0.000000 
#    z -0.007850 0.000000 1.835750 
# 
# From -- ./inp_files/270812.got.cif
#   From: 2010.06.25/outbox.cif.g09.slc.cpg/sg12_136_cif.got.tgz:270812.got - 2010.06.28 00:19:55.
