data_PCOD8112393
_publ_section_title
;
Structure prediction by ZEFSAII (Michael W. Deem and Ramdas Pophale) SiO2 
 PCOD8112393
Probable space group: C 2/M
;
_chemical_formula_sum "Si O2"
_cell_formula_units_Z 40
_cell_length_a 26.270531
_cell_length_b 11.890812
_cell_length_c 10.594349
_cell_angle_alpha 90.000000
_cell_angle_beta 148.404959
_cell_angle_gamma 90.000000
_cell_volume 1733.856455
_symmetry_space_group_name_H-M "C 2/M"
_symmetry_group_IT_number 12
_symmetry_cell_setting 'monoclinic'
loop_
_space_group_symop_operation_xyz
x,y,z
-x,y,-z
-x,-y,-z
x,-y,z
1/2+x,1/2+y,z
1/2-x,1/2+y,-z
1/2-x,1/2-y,-z
1/2+x,1/2-y,z
loop_
_atom_site_type_symbol
_atom_site_label
_atom_site_fract_x
_atom_site_fract_y
_atom_site_fract_z
Si Si1 0.181504 0.734047 0.473065
Si Si2 0.852942 0.266222 0.009032
Si Si3 0.023613 0.131757 0.246393
Si Si4 0.108872 0.879150 0.684955
Si Si5 0.455895 0.000000 0.266011
Si Si6 0.419938 0.000000 0.720617
O O1 0.250000 0.750000 0.500000
O O2 0.084054 0.813095 0.257620
O O3 0.149286 0.605914 0.410095
O O4 0.245110 0.768278 0.728099
O O5 0.839882 0.213405 0.120649
O O6 0.889946 0.391754 0.105595
O O7 0.922913 0.195494 0.062679
O O8 0.100195 0.155605 0.521103
O O9 0.002440 0.000000 0.178267
O O10 0.000000 0.895183 0.500000
O O11 0.163292 0.000000 0.814048
O O12 0.500000 0.000000 0.500000
O O13 0.537858 0.000000 0.331607
O O14 0.500000 0.000000 0.000000
#
# Coordination Sequence:
#
# PCOD8112393 Si02
#       6
#     8   8   8   8   4   4
#     4  12  29  45  70 100 132 186 243 289 354 424
#     4  11  23  42  69 101 142 178 232 291 347 428
#     4  10  22  43  68  96 136 179 224 282 352 413
#     4   8  16  35  64  94 131 173 213 272 346 411
#     4  12  24  46  76 109 150 196 235 297 371 427
#     4  12  28  54  76  98 148 196 238 299 372 435
#
# _framework density 23.069959999999998
#
# number of rings (size 3 to 8) (size 9 to 14) (size 15 to 20)
#    0.000    1.400    2.000    4.800    5.600    0.800 
#    0.000    1.000    0.000    0.000    0.000    0.000 
#    0.000    0.000    0.000    0.000    0.000    0.000 
#
# Total GULP energy -247897.699190 kJ/mol
# GULP energy per Si atom -12394.884960 kJ/mol
# Density = 2.301745 g / cm^3
# Si number density = 23.069960 Si / 1000 Ang^3
#
#
#
# Elastic Constant Matrix: (Units=GPa)
#
#
# Indices 1 2 3 4 5 6 
#
# 1 83.1021 18.1517 8.7474 0.0000 21.6093 0.0000
# 2 18.1517 163.3201 43.9145 0.0000 25.6060 0.0000
# 3 8.7474 43.9145 92.4467 0.0000 10.5762 0.0000
# 4 0.0000 0.0000 0.0000 27.3426 0.0000 4.7102
# 5 21.6093 25.6060 10.5762 0.0000 29.4847 0.0000
# 6 0.0000 0.0000 0.0000 4.7102 0.0000 12.1019
#
#
#
# Elastic Compliance Matrix: (Units=1/GPa)
#
#
# Indices 1 2 3 4 5 6 
#
# 1 0.014871 0.000117 -0.000213 0.000000 -0.010924 0.000000
# 2 0.000117 0.007845 -0.003075 0.000000 -0.005796 0.000000
# 3 -0.000213 -0.003075 0.012487 0.000000 -0.001653 0.000000
# 4 0.000000 0.000000 0.000000 0.039201 0.000000 -0.015257
# 5 -0.010924 -0.005796 -0.001653 0.000000 0.047549 0.000000
# 6 0.000000 0.000000 0.000000 -0.015257 0.000000 0.088570
#
#
# Mechanical properties :
#
#
# Convention : Reuss Voigt Hill
#
# Bulk Modulus (GPa) = 34.64748 53.38846 44.01797
# Shear Modulus (GPa) = 22.07654 31.65621 26.86638
#
# Velocity S-wave (km/s) = 3.09680 3.70832 3.41627
# Velocity P-wave (km/s) = 5.27617 6.44420 5.88921
#
# Compressibility (1/GPa) = 0.02886213
#
# Stress axis : x y z
#
# Youngs Moduli (GPa) = 67.24557 127.46231 80.08427
#
# Poissons Ratio (x) = -0.01495 0.01706
# Poissons Ratio (y) = -0.00788 0.24624
# Poissons Ratio (z) = 0.01433 0.39191
#
# Static dielectric constant tensor:
#      x y z
#    x 4.816530 0.000000 -0.357250 
#    y 0.000000 4.589840 0.000000 
#    z -0.357250 0.000000 4.121360 
# 
# 
# High freq. dielectric constant tensor:
#      x y z
#    x 1.924890 0.000000 0.000220 
#    y 0.000000 1.923830 0.000000 
#    z 0.000220 0.000000 1.903860 
# 
# From -- ./inp_files/182799.got.cif
#   From: 2010.06.25/outbox.cif.g09.slc.cpg/sg12_92_cif.got.tgz:182799.got - 2010.06.28 00:19:55.
