data_PCOD8112039
_publ_section_title
;
Structure prediction by ZEFSAII (Michael W. Deem and Ramdas Pophale) SiO2 
 PCOD8112039
Probable space group: C 2/M
;
_chemical_formula_sum "Si O2"
_cell_formula_units_Z 64
_cell_length_a 19.838499
_cell_length_b 8.529801
_cell_length_c 30.832555
_cell_angle_alpha 90.000000
_cell_angle_beta 143.240286
_cell_angle_gamma 90.000000
_cell_volume 3122.429704
_symmetry_space_group_name_H-M "C 2/M"
_symmetry_group_IT_number 12
_symmetry_cell_setting 'monoclinic'
loop_
_space_group_symop_operation_xyz
x,y,z
-x,y,-z
-x,-y,-z
x,-y,z
1/2+x,1/2+y,z
1/2-x,1/2+y,-z
1/2-x,1/2-y,-z
1/2+x,1/2-y,z
loop_
_atom_site_type_symbol
_atom_site_label
_atom_site_fract_x
_atom_site_fract_y
_atom_site_fract_z
Si Si1 0.229389 0.181764 0.920265
Si Si2 0.246659 0.816427 0.403771
Si Si3 0.417773 0.181524 0.085072
Si Si4 0.205022 0.818981 0.660870
Si Si5 0.688341 0.818319 0.808077
Si Si6 0.974215 0.818353 0.657689
Si Si7 0.343675 0.681215 0.808893
Si Si8 0.021478 0.682024 0.433363
O O1 0.117972 0.220775 0.890845
O O2 0.234520 0.283605 0.879556
O O3 0.228021 0.000000 0.907016
O O4 0.339842 0.229876 0.004381
O O5 0.235443 0.720214 0.353695
O O6 0.140764 0.769755 0.378278
O O7 0.357386 0.763348 0.486909
O O8 0.248357 0.000000 0.393669
O O9 0.545998 0.214091 0.139204
O O10 0.401495 0.000000 0.087903
O O11 0.257566 0.714014 0.725726
O O12 0.072749 0.778818 0.589158
O O13 0.223394 0.000000 0.681727
O O14 0.577257 0.715010 0.743021
O O15 0.784813 0.771570 0.823586
O O16 0.656507 0.000000 0.786894
O O17 0.987679 0.712902 0.622312
O O18 0.973560 0.000000 0.643847
O O19 0.378594 0.500000 0.826260
O O20 0.000753 0.500000 0.431945
#
# Coordination Sequence:
#
# PCOD8112039 Si02
#       8
#     8   8   8   8   8   8   8   8
#     4  10  22  41  66  95 129 166 202 251 305 359
#     4  10  24  42  62  89 122 162 205 253 312 374
#     4  10  22  41  66  96 128 163 206 251 302 361
#     4  12  25  40  62  91 123 160 207 260 308 364
#     4  11  24  41  63  90 124 166 208 254 306 366
#     4  11  23  40  63  91 123 160 205 257 310 367
#     4  11  24  42  64  89 124 166 206 253 309 366
#     4  11  22  41  65  88 122 163 203 252 312 373
#
# _framework density 20.496860000000002
#
# number of rings (size 3 to 8) (size 9 to 14) (size 15 to 20)
#    0.000    1.250    1.250    4.125    1.750    7.000 
#    0.000    2.500    0.000    0.000    0.000    0.000 
#    0.000    0.000    0.000    0.000    0.000    0.000 
#
# Total GULP energy -397079.472866 kJ/mol
# GULP energy per Si atom -12408.733527 kJ/mol
# Density = 2.045021 g / cm^3
# Si number density = 20.496860 Si / 1000 Ang^3
#
#
#
# Elastic Constant Matrix: (Units=GPa)
#
#
# Indices 1 2 3 4 5 6 
#
# 1 85.0039 21.1266 36.3878 0.0002 2.5562 -0.0003
# 2 21.1266 44.5678 14.7631 0.0002 1.0316 -0.0003
# 3 36.3878 14.7631 76.1393 0.0001 1.8575 -0.0002
# 4 0.0002 0.0002 0.0001 31.4441 0.0000 0.5688
# 5 2.5562 1.0316 1.8575 0.0000 40.6845 0.0000
# 6 -0.0003 -0.0003 -0.0002 0.5688 0.0000 34.6899
#
#
#
# Elastic Compliance Matrix: (Units=1/GPa)
#
#
# Indices 1 2 3 4 5 6 
#
# 1 0.015920 -0.005362 -0.006555 0.000000 -0.000565 0.000000
# 2 -0.005362 0.025790 -0.002433 0.000000 -0.000206 0.000000
# 3 -0.006555 -0.002433 0.016745 0.000000 -0.000291 0.000000
# 4 0.000000 0.000000 0.000000 0.031812 0.000000 -0.000522
# 5 -0.000565 -0.000206 -0.000291 0.000000 0.024633 0.000000
# 6 0.000000 0.000000 0.000000 -0.000522 0.000000 0.028835
#
#
# Mechanical properties :
#
#
# Convention : Reuss Voigt Hill
#
# Bulk Modulus (GPa) = 33.60717 38.91842 36.26279
# Shear Modulus (GPa) = 27.41918 30.25928 28.83923
#
# Velocity S-wave (km/s) = 3.66146 3.84642 3.75508
# Velocity P-wave (km/s) = 5.85721 6.22538 6.04410
#
# Compressibility (1/GPa) = 0.02975556
#
# Stress axis : x y z
#
# Youngs Moduli (GPa) = 62.81508 38.77432 59.71852
#
# Poissons Ratio (x) = 0.20791 0.39144
# Poissons Ratio (y) = 0.33682 0.14529
# Poissons Ratio (z) = 0.41174 0.09434
#
# Static dielectric constant tensor:
#      x y z
#    x 3.755310 0.000000 0.040450 
#    y 0.000000 3.630420 0.000000 
#    z 0.040450 0.000000 3.707000 
# 
# 
# High freq. dielectric constant tensor:
#      x y z
#    x 1.811010 0.000000 0.000720 
#    y 0.000000 1.805570 0.000000 
#    z 0.000720 0.000000 1.804510 
# 
# From -- ./inp_files/378457.got.cif
#   From: 2010.06.25/outbox.cif.g09.slc.cpg/sg12_190_cif.got.tgz:378457.got - 2010.06.28 00:19:55.
