data_PCOD8112042
_publ_section_title
;
Structure prediction by ZEFSAII (Michael W. Deem and Ramdas Pophale) SiO2 
 PCOD8112042
Probable space group: C 2/M
;
_chemical_formula_sum "Si O2"
_cell_formula_units_Z 64
_cell_length_a 13.825301
_cell_length_b 27.655986
_cell_length_c 12.124092
_cell_angle_alpha 90.000000
_cell_angle_beta 135.059713
_cell_angle_gamma 90.000000
_cell_volume 3274.499125
_symmetry_space_group_name_H-M "C 2/M"
_symmetry_group_IT_number 12
_symmetry_cell_setting 'monoclinic'
loop_
_space_group_symop_operation_xyz
x,y,z
-x,y,-z
-x,-y,-z
x,-y,z
1/2+x,1/2+y,z
1/2-x,1/2+y,-z
1/2-x,1/2-y,-z
1/2+x,1/2-y,z
loop_
_atom_site_type_symbol
_atom_site_label
_atom_site_fract_x
_atom_site_fract_y
_atom_site_fract_z
Si Si1 0.160802 0.321639 0.613355
Si Si2 0.359453 0.636251 0.949913
Si Si3 0.273465 0.131490 0.564011
Si Si4 0.160274 0.788783 0.634011
Si Si5 0.459792 0.444455 0.590242
Si Si6 0.958742 0.619739 0.093299
Si Si7 0.254055 0.696761 0.049817
Si Si8 0.290361 0.444528 0.043619
O O1 0.232213 0.345923 0.775580
O O2 0.206578 0.349761 0.542601
O O3 0.206296 0.265710 0.643313
O O4 0.000000 0.326158 0.500000
O O5 0.334636 0.580661 0.964370
O O6 0.500000 0.643321 0.000000
O O7 0.365448 0.667212 0.068068
O O8 0.231660 0.176555 0.604889
O O9 0.411883 0.108618 0.724937
O O10 0.161852 0.089372 0.466304
O O11 0.204226 0.804493 0.790426
O O12 0.000000 0.795267 0.500000
O O13 0.500000 0.428573 0.500000
O O14 0.409303 0.500000 0.553051
O O15 0.591975 0.436698 0.771749
O O16 0.848972 0.577234 0.020026
O O17 0.000000 0.621969 0.000000
O O18 0.894220 0.671131 0.079466
O O19 0.250000 0.750000 0.000000
O O20 0.264716 0.500000 0.995038
#
# Coordination Sequence:
#
# PCOD8112042 Si02
#       8
#     8   8   8   8   8   8   8   8
#     4  11  24  44  58  89 130 172 210 255 312 365
#     4  11  24  40  65  91 122 168 214 259 311 370
#     4  12  24  40  66  93 130 161 213 261 315 379
#     4  11  25  39  63  92 125 170 213 264 313 371
#     4  10  22  41  66  96 128 161 203 265 328 378
#     4  11  23  39  63  95 124 163 208 259 318 372
#     4  11  23  42  61  88 132 168 212 260 312 371
#     4  10  23  43  66  92 125 164 210 260 319 383
#
# _framework density 19.544972999999999
#
# number of rings (size 3 to 8) (size 9 to 14) (size 15 to 20)
#    0.000    1.125    2.500    3.750    8.750    2.500 
#    0.000    0.625    0.000    1.500    0.000    0.000 
#    0.000    0.000    0.000    0.000    0.000    0.000 
#
# Total GULP energy -396935.410416 kJ/mol
# GULP energy per Si atom -12404.231575 kJ/mol
# Density = 1.950049 g / cm^3
# Si number density = 19.544973 Si / 1000 Ang^3
#
#
#
# Elastic Constant Matrix: (Units=GPa)
#
#
# Indices 1 2 3 4 5 6 
#
# 1 118.4947 62.9158 24.8467 0.0000 0.5036 0.0000
# 2 62.9158 143.5553 48.9393 0.0000 8.4811 0.0000
# 3 24.8467 48.9393 83.3536 0.0000 10.4553 0.0000
# 4 0.0000 0.0000 0.0000 34.6787 0.0000 0.7181
# 5 0.5036 8.4811 10.4553 0.0000 30.8526 0.0000
# 6 0.0000 0.0000 0.0000 0.7181 0.0000 15.3155
#
#
#
# Elastic Compliance Matrix: (Units=1/GPa)
#
#
# Indices 1 2 3 4 5 6 
#
# 1 0.011073 -0.004688 -0.000718 0.000000 0.001351 0.000000
# 2 -0.004688 0.010708 -0.004731 0.000000 -0.001264 0.000000
# 3 -0.000718 -0.004731 0.015482 0.000000 -0.003934 0.000000
# 4 0.000000 0.000000 0.000000 0.028864 0.000000 -0.001353
# 5 0.001351 -0.001264 -0.003934 0.000000 0.034071 0.000000
# 6 0.000000 0.000000 0.000000 -0.001353 0.000000 0.065357
#
#
# Mechanical properties :
#
#
# Convention : Reuss Voigt Hill
#
# Bulk Modulus (GPa) = 58.85912 68.75633 63.80772
# Shear Modulus (GPa) = 26.11070 30.08282 28.09676
#
# Velocity S-wave (km/s) = 3.65900 3.92747 3.79561
# Velocity P-wave (km/s) = 6.93045 7.47138 7.20599
#
# Compressibility (1/GPa) = 0.01698972
#
# Stress axis : x y z
#
# Youngs Moduli (GPa) = 90.30830 93.38668 64.59012
#
# Poissons Ratio (x) = 0.43781 0.04636
# Poissons Ratio (y) = 0.42338 0.30558
# Poissons Ratio (z) = 0.06481 0.44182
#
# Static dielectric constant tensor:
#      x y z
#    x 3.631670 0.000000 -0.038740 
#    y 0.000000 3.747580 0.000000 
#    z -0.038740 0.000000 3.715430 
# 
# 
# High freq. dielectric constant tensor:
#      x y z
#    x 1.771160 0.000000 -0.003690 
#    y 0.000000 1.766300 0.000000 
#    z -0.003690 0.000000 1.773110 
# 
# From -- ./inp_files/149778.got.cif
#   From: 2010.06.25/outbox.cif.g09.slc.cpg/sg12_75_cif.got.tgz:149778.got - 2010.06.28 00:19:55.
