data_PCOD8112783
_publ_section_title
;
Structure prediction by ZEFSAII (Michael W. Deem and Ramdas Pophale) SiO2 
 PCOD8112783
Probable space group: C 2/M
;
_chemical_formula_sum "Si O2"
_cell_formula_units_Z 56
_cell_length_a 12.090029
_cell_length_b 14.770547
_cell_length_c 13.860538
_cell_angle_alpha 90.000000
_cell_angle_beta 89.820154
_cell_angle_gamma 90.000000
_cell_volume 2475.151975
_symmetry_space_group_name_H-M "C 2/M"
_symmetry_group_IT_number 12
_symmetry_cell_setting 'monoclinic'
loop_
_space_group_symop_operation_xyz
x,y,z
-x,y,-z
-x,-y,-z
x,-y,z
1/2+x,1/2+y,z
1/2-x,1/2+y,-z
1/2-x,1/2-y,-z
1/2+x,1/2-y,z
loop_
_atom_site_type_symbol
_atom_site_label
_atom_site_fract_x
_atom_site_fract_y
_atom_site_fract_z
Si Si1 0.452365 0.896326 0.399287
Si Si2 0.226037 0.650622 0.099057
Si Si3 0.605614 0.603840 0.276128
Si Si4 0.349475 0.400693 0.275779
Si Si5 0.222516 0.354228 0.884899
Si Si6 0.244815 0.731946 0.611814
Si Si7 0.984414 0.601218 0.806284
O O1 0.500000 0.857087 0.500000
O O2 0.348898 0.839808 0.364444
O O3 0.537319 0.887177 0.309421
O O4 0.415513 0.000000 0.415226
O O5 0.293610 0.587196 0.171467
O O6 0.285121 0.747054 0.103495
O O7 0.098470 0.665114 0.134057
O O8 0.229969 0.605430 0.992993
O O9 0.619856 0.500000 0.314436
O O10 0.476995 0.627357 0.261341
O O11 0.671481 0.612813 0.175435
O O12 0.644856 0.681425 0.351206
O O13 0.341564 0.500000 0.326750
O O14 0.280762 0.326505 0.335741
O O15 0.111905 0.384329 0.831462
O O16 0.250000 0.750000 0.500000
O O17 0.951323 0.500000 0.836231
#
# Coordination Sequence:
#
# PCOD8112783 Si02
#       7
#     8   8   8   8   8   8   8
#     4  10  23  41  68 104 134 169 226 289 347 405
#     4  11  25  42  66 105 140 179 231 289 346 407
#     4  11  25  48  73 100 141 187 232 282 345 420
#     4  11  27  47  69 103 145 186 229 285 350 418
#     4  11  24  41  70 102 137 182 234 285 345 414
#     4  12  27  44  74 100 134 182 230 282 346 419
#     4  11  23  43  69  97 137 179 225 288 349 407
#
# _framework density 22.624872
#
# number of rings (size 3 to 8) (size 9 to 14) (size 15 to 20)
#    0.000    1.000    2.857    1.714    8.000    4.571 
#    0.000    2.857    0.000    0.000    0.000    0.000 
#    0.000    0.000    0.000    0.000    0.000    0.000 
#
# Total GULP energy -347140.074852 kJ/mol
# GULP energy per Si atom -12397.859816 kJ/mol
# Density = 2.257338 g / cm^3
# Si number density = 22.624872 Si / 1000 Ang^3
#
#
#
# Elastic Constant Matrix: (Units=GPa)
#
#
# Indices 1 2 3 4 5 6 
#
# 1 111.9862 38.8019 47.4234 0.0000 7.4007 0.0000
# 2 38.8019 96.2889 42.1154 0.0000 1.8672 0.0000
# 3 47.4234 42.1154 176.1962 0.0000 1.4034 0.0000
# 4 0.0000 0.0000 0.0000 24.9267 0.0000 3.1495
# 5 7.4007 1.8672 1.4034 0.0000 28.0484 0.0000
# 6 0.0000 0.0000 0.0000 3.1495 0.0000 30.5810
#
#
#
# Elastic Compliance Matrix: (Units=1/GPa)
#
#
# Indices 1 2 3 4 5 6 
#
# 1 0.011243 -0.003535 -0.002160 0.000000 -0.002623 0.000000
# 2 -0.003535 0.012721 -0.002091 0.000000 0.000190 0.000000
# 3 -0.002160 -0.002091 0.006754 0.000000 0.000371 0.000000
# 4 0.000000 0.000000 0.000000 0.040647 0.000000 -0.004186
# 5 -0.002623 0.000190 0.000371 0.000000 0.036313 0.000000
# 6 0.000000 0.000000 0.000000 -0.004186 0.000000 0.033131
#
#
# Mechanical properties :
#
#
# Convention : Reuss Voigt Hill
#
# Bulk Modulus (GPa) = 66.02580 71.23921 68.63251
# Shear Modulus (GPa) = 30.97362 33.78660 32.38011
#
# Velocity S-wave (km/s) = 3.70402 3.86857 3.78719
# Velocity P-wave (km/s) = 6.89487 7.17704 7.03737
#
# Compressibility (1/GPa) = 0.01514559
#
# Stress axis : x y z
#
# Youngs Moduli (GPa) = 88.94789 78.61281 148.06774
#
# Poissons Ratio (x) = 0.27788 0.31985
# Poissons Ratio (y) = 0.31441 0.30956
# Poissons Ratio (z) = 0.19214 0.16435
#
# Static dielectric constant tensor:
#      x y z
#    x 4.058120 0.000000 0.086580 
#    y 0.000000 4.221520 0.000000 
#    z 0.086580 0.000000 4.374060 
# 
# 
# High freq. dielectric constant tensor:
#      x y z
#    x 1.892030 0.000000 0.003460 
#    y 0.000000 1.904020 0.000000 
#    z 0.003460 0.000000 1.894710 
# 
# From -- ./inp_files/205012.got.cif
#   From: 2010.06.25/outbox.cif.g09.slc.cpg/sg12_103_cif.got.tgz:205012.got - 2010.06.28 00:19:55.
