data_PCOD8112190
_publ_section_title
;
Structure prediction by ZEFSAII (Michael W. Deem and Ramdas Pophale) SiO2 
 PCOD8112190
Probable space group: C 2/M
;
_chemical_formula_sum "Si O2"
_cell_formula_units_Z 36
_cell_length_a 12.873257
_cell_length_b 17.809797
_cell_length_c 11.454334
_cell_angle_alpha 90.000000
_cell_angle_beta 146.260841
_cell_angle_gamma 90.000000
_cell_volume 1458.589940
_symmetry_space_group_name_H-M "C 2/M"
_symmetry_group_IT_number 12
_symmetry_cell_setting 'monoclinic'
loop_
_space_group_symop_operation_xyz
x,y,z
-x,y,-z
-x,-y,-z
x,-y,z
1/2+x,1/2+y,z
1/2-x,1/2+y,-z
1/2-x,1/2-y,-z
1/2+x,1/2-y,z
loop_
_atom_site_type_symbol
_atom_site_label
_atom_site_fract_x
_atom_site_fract_y
_atom_site_fract_z
Si Si1 0.813011 0.581197 0.496332
Si Si2 0.907265 0.414901 0.031882
Si Si3 0.047717 0.848680 0.809093
Si Si4 0.352241 0.756070 0.452754
Si Si5 0.500000 0.720169 0.000000
O O1 0.855822 0.500000 0.475649
O O2 0.591210 0.580072 0.322208
O O3 0.854417 0.652519 0.453039
O O4 0.932279 0.588715 0.723499
O O5 0.832800 0.500000 0.945932
O O6 0.733839 0.361722 0.907832
O O7 0.000000 0.384329 0.000000
O O8 0.910260 0.780972 0.631246
O O9 0.104066 0.829442 0.995983
O O10 0.500000 0.724138 0.500000
O O11 0.152259 0.729946 0.212116
#
# Coordination Sequence:
#
# PCOD8112190 Si02
#       5
#     8   8   8   8   4
#     4  10  22  42  65  96 137 177 226 276 334 407
#     4  10  23  42  68 100 137 181 226 276 338 406
#     4  11  24  44  69 103 136 179 227 279 341 399
#     4  11  25  42  66 103 135 181 224 281 340 397
#     4  10  22  44  67  94 143 172 226 278 334 406
#
# _framework density 24.681370999999999
#
# number of rings (size 3 to 8) (size 9 to 14) (size 15 to 20)
#    0.000    1.556    0.000    4.667    3.111    5.778 
#    2.000   19.444    0.000    0.000    0.000    0.000 
#    0.000    0.000    0.000    0.000    0.000    0.000 
#
# Total GULP energy -223014.928779 kJ/mol
# GULP energy per Si atom -12389.718266 kJ/mol
# Density = 2.462520 g / cm^3
# Si number density = 24.681371 Si / 1000 Ang^3
#
#
#
# Elastic Constant Matrix: (Units=GPa)
#
#
# Indices 1 2 3 4 5 6 
#
# 1 143.5186 19.2294 58.8818 0.0000 2.6221 0.0000
# 2 19.2294 95.0450 23.0229 0.0000 -22.1561 0.0000
# 3 58.8818 23.0229 138.2931 0.0000 -10.3528 0.0000
# 4 0.0000 0.0000 0.0000 14.6964 0.0000 -15.6682
# 5 2.6221 -22.1561 -10.3528 0.0000 26.7259 0.0000
# 6 0.0000 0.0000 0.0000 -15.6682 0.0000 12.8377
#
#
#
# Elastic Compliance Matrix: (Units=1/GPa)
#
#
# Indices 1 2 3 4 5 6 
#
# 1 0.008806 -0.001754 -0.003739 0.000000 -0.003766 0.000000
# 2 -0.001754 0.013661 -0.000687 0.000000 0.011231 0.000000
# 3 -0.003739 -0.000687 0.009189 0.000000 0.003357 0.000000
# 4 0.000000 0.000000 0.000000 -0.225926 0.000000 -0.275738
# 5 -0.003766 0.011231 0.003357 0.000000 0.048397 0.000000
# 6 0.000000 0.000000 0.000000 -0.275738 0.000000 -0.258637
#
#
# Mechanical properties :
#
#
# Convention : Reuss Voigt Hill
#
# Bulk Modulus (GPa) = 51.82559 64.34723 58.08641
# Shear Modulus (GPa) = -12.96279 29.23351 8.13536
#
# Velocity S-wave (km/s) = -2.29422 3.44530 1.81750
# Velocity P-wave (km/s) = 3.74506 6.47723 5.29056
#
# Compressibility (1/GPa) = 0.01929549
#
# Stress axis : x y z
#
# Youngs Moduli (GPa) = 113.56386 73.20355 108.82913
#
# Poissons Ratio (x) = 0.12838 0.40693
# Poissons Ratio (y) = 0.19916 0.07474
# Poissons Ratio (z) = 0.42464 0.05027
#
# Static dielectric constant tensor:
#      x y z
#    x 4.361770 0.000000 0.044840 
#    y 0.000000 4.566140 0.000000 
#    z 0.044840 0.000000 4.605580 
# 
# 
# High freq. dielectric constant tensor:
#      x y z
#    x 1.983940 0.000000 0.002550 
#    y 0.000000 1.973890 0.000000 
#    z 0.002550 0.000000 1.996950 
# 
# From -- ./inp_files/147862.got.cif
#   From: 2010.06.25/outbox.cif.g09.slc.cpg/sg12_74_cif.got.tgz:147862.got - 2010.06.28 00:19:55.
