data_PCOD8112586
_publ_section_title
;
Structure prediction by ZEFSAII (Michael W. Deem and Ramdas Pophale) SiO2 
 PCOD8112586
Probable space group: C 2/M
;
_chemical_formula_sum "Si O2"
_cell_formula_units_Z 36
_cell_length_a 20.335452
_cell_length_b 8.995290
_cell_length_c 17.738342
_cell_angle_alpha 90.000000
_cell_angle_beta 32.751246
_cell_angle_gamma 90.000000
_cell_volume 1755.389423
_symmetry_space_group_name_H-M "C 2/M"
_symmetry_group_IT_number 12
_symmetry_cell_setting 'monoclinic'
loop_
_space_group_symop_operation_xyz
x,y,z
-x,y,-z
-x,-y,-z
x,-y,z
1/2+x,1/2+y,z
1/2-x,1/2+y,-z
1/2-x,1/2-y,-z
1/2+x,1/2-y,z
loop_
_atom_site_type_symbol
_atom_site_label
_atom_site_fract_x
_atom_site_fract_y
_atom_site_fract_z
Si Si1 0.009550 0.500000 0.215236
Si Si2 0.363071 0.500000 0.052334
Si Si3 0.922139 0.000000 0.498509
Si Si4 0.000000 0.753773 0.000000
Si Si5 0.891601 0.500000 0.665370
Si Si6 0.204374 0.000000 0.057326
Si Si7 0.457351 0.745148 0.710960
Si Si8 0.859534 0.500000 0.208444
O O1 0.974230 0.350340 0.294878
O O2 0.927825 0.500000 0.221284
O O3 0.153596 0.500000 0.059084
O O4 0.446380 0.644880 0.984683
O O5 0.250906 0.500000 0.222357
O O6 0.313494 0.500000 0.015116
O O7 0.945455 0.144258 0.425320
O O8 0.783215 0.000000 0.651693
O O9 0.000000 0.000000 0.500000
O O10 0.107555 0.649808 0.866910
O O11 0.000000 0.500000 0.500000
O O12 0.895855 0.350397 0.709190
O O13 0.146347 0.147324 0.149257
#
# Coordination Sequence:
#
# PCOD8112586 Si02
#       8
#     4   4   4   4   4   4   8   4
#     4  11  22  39  63  95 126 165 206 268 319 373
#     4  11  23  43  68  96 133 166 214 266 319 380
#     4  11  26  42  64  91 125 176 215 263 315 384
#     4  10  26  42  62  98 126 172 206 266 328 374
#     4  11  24  38  66  97 129 170 214 261 314 379
#     4  11  21  38  70  97 126 163 216 266 314 377
#     4  10  23  39  64  97 126 166 216 261 314 376
#     4  11  26  42  65  88 133 164 216 263 323 383
#
# _framework density 20.50827
#
# number of rings (size 3 to 8) (size 9 to 14) (size 15 to 20)
#    0.000    1.333    2.222    2.667    9.333    2.667 
#    0.000    0.000    0.000    0.000    0.000    0.000 
#    0.000    0.000    0.000    0.000    0.000    0.000 
#
# Total GULP energy -223145.731331 kJ/mol
# GULP energy per Si atom -12396.985074 kJ/mol
# Density = 2.046159 g / cm^3
# Si number density = 20.508270 Si / 1000 Ang^3
#
#
#
# Elastic Constant Matrix: (Units=GPa)
#
#
# Indices 1 2 3 4 5 6 
#
# 1 110.4750 46.2190 55.7796 0.0000 -5.7606 0.0000
# 2 46.2190 166.9707 70.3542 0.0001 3.0612 0.0001
# 3 55.7796 70.3542 161.5440 0.0000 -8.4494 0.0000
# 4 0.0000 0.0001 0.0000 -24.9952 0.0000 -35.4586
# 5 -5.7606 3.0612 -8.4494 0.0000 33.6680 0.0000
# 6 0.0000 0.0001 0.0000 -35.4586 0.0000 -10.5881
#
#
#
# Elastic Compliance Matrix: (Units=1/GPa)
#
#
# Indices 1 2 3 4 5 6 
#
# 1 0.011465 -0.001912 -0.003055 0.000000 0.001369 0.000000
# 2 -0.001912 0.007728 -0.002796 0.000000 -0.001731 0.000000
# 3 -0.003055 -0.002796 0.008561 0.000000 0.001880 0.000000
# 4 0.000000 0.000000 0.000000 0.010666 0.000000 -0.035721
# 5 0.001369 -0.001731 0.001880 0.000000 0.030565 0.000000
# 6 0.000000 0.000000 0.000000 -0.035721 0.000000 0.025180
#
#
# Mechanical properties :
#
#
# Convention : Reuss Voigt Hill
#
# Bulk Modulus (GPa) = 81.76957 87.07725 84.42341
# Shear Modulus (GPa) = 43.94912 17.39273 30.67092
#
# Velocity S-wave (km/s) = 4.63427 2.91535 3.87142
# Velocity P-wave (km/s) = 8.28211 7.34058 7.82552
#
# Compressibility (1/GPa) = 0.01222949
#
# Stress axis : x y z
#
# Youngs Moduli (GPa) = 87.21942 129.39648 116.80702
#
# Poissons Ratio (x) = 0.24737 0.35681
# Poissons Ratio (y) = 0.16674 0.32661
# Poissons Ratio (z) = 0.26643 0.36182
#
# Static dielectric constant tensor:
#      x y z
#    x 3.559280 0.000000 0.217540 
#    y 0.000000 3.999890 0.000000 
#    z 0.217540 0.000000 3.932050 
# 
# 
# High freq. dielectric constant tensor:
#      x y z
#    x 1.788140 0.000000 0.007690 
#    y 0.000000 1.834060 0.000000 
#    z 0.007690 0.000000 1.802660 
# 
# From -- ./inp_files/152121.got.cif
#   From: 2010.06.25/outbox.cif.g09.slc.cpg/sg12_77_cif.got.tgz:152121.got - 2010.06.28 00:19:55.
