data_PCOD8112942
_publ_section_title
;
Structure prediction by ZEFSAII (Michael W. Deem and Ramdas Pophale) SiO2 
 PCOD8112942
Probable space group: C 2/M
;
_chemical_formula_sum "Si O2"
_cell_formula_units_Z 40
_cell_length_a 11.978050
_cell_length_b 20.100167
_cell_length_c 11.946988
_cell_angle_alpha 90.000000
_cell_angle_beta 36.852451
_cell_angle_gamma 90.000000
_cell_volume 1725.119105
_symmetry_space_group_name_H-M "C 2/M"
_symmetry_group_IT_number 12
_symmetry_cell_setting 'monoclinic'
loop_
_space_group_symop_operation_xyz
x,y,z
-x,y,-z
-x,-y,-z
x,-y,z
1/2+x,1/2+y,z
1/2-x,1/2+y,-z
1/2-x,1/2-y,-z
1/2+x,1/2-y,z
loop_
_atom_site_type_symbol
_atom_site_label
_atom_site_fract_x
_atom_site_fract_y
_atom_site_fract_z
Si Si1 0.794192 0.425078 0.210359
Si Si2 0.066529 0.199223 0.323053
Si Si3 0.910846 0.140772 0.246224
Si Si4 0.223428 0.664892 0.168759
Si Si5 0.625767 0.925763 0.602938
O O1 0.713019 0.500000 0.258309
O O2 0.670283 0.372045 0.243729
O O3 0.795762 0.404909 0.339009
O O4 0.000000 0.421057 0.000000
O O5 0.193733 0.257096 0.166690
O O6 0.000000 0.220758 0.500000
O O7 0.903990 0.189752 0.360452
O O8 0.793313 0.169588 0.239309
O O9 0.800342 0.074964 0.376261
O O10 0.124949 0.130418 0.035035
O O11 0.033641 0.624105 0.310421
O O12 0.541728 0.000000 0.674142
#
# Coordination Sequence:
#
# PCOD8112942 Si02
#       5
#     8   8   8   8   8
#     4  10  23  42  68 102 139 181 227 283 349 412
#     4  12  24  41  71 100 138 183 225 293 342 410
#     4  11  25  45  65 101 137 184 232 279 344 408
#     4  11  27  43  67 103 142 183 234 282 343 413
#     4  11  24  46  72  99 140 185 233 286 341 414
#
# _framework density 23.186803999999999
#
# number of rings (size 3 to 8) (size 9 to 14) (size 15 to 20)
#    0.000    1.000    2.000    3.600    5.600    5.200 
#    0.000    2.000    0.000    0.000    0.000    0.000 
#    0.000    0.000    0.000    0.000    0.000    0.000 
#
# Total GULP energy -247856.236468 kJ/mol
# GULP energy per Si atom -12392.811823 kJ/mol
# Density = 2.313403 g / cm^3
# Si number density = 23.186804 Si / 1000 Ang^3
#
#
#
# Elastic Constant Matrix: (Units=GPa)
#
#
# Indices 1 2 3 4 5 6 
#
# 1 109.3952 51.5623 24.0759 0.0005 16.6681 -0.0005
# 2 51.5623 129.9105 46.6904 -0.0002 -10.5915 0.0005
# 3 24.0759 46.6904 127.9646 -0.0319 8.5616 -0.0065
# 4 0.0005 -0.0002 -0.0319 29.1799 0.0178 -2.0645
# 5 16.6681 -10.5915 8.5616 0.0178 31.8980 0.0034
# 6 -0.0005 0.0005 -0.0065 -2.0645 0.0034 22.0449
#
#
#
# Elastic Compliance Matrix: (Units=1/GPa)
#
#
# Indices 1 2 3 4 5 6 
#
# 1 0.013365 -0.006174 0.000349 0.000006 -0.009128 0.000002
# 2 -0.006174 0.012210 -0.003849 -0.000009 0.008314 -0.000004
# 3 0.000349 -0.003849 0.009420 0.000013 -0.003989 0.000005
# 4 0.000006 -0.000009 0.000013 0.034499 -0.000029 0.003231
# 5 -0.009128 0.008314 -0.003989 -0.000029 0.039951 -0.000011
# 6 0.000002 -0.000004 0.000005 0.003231 -0.000011 0.045664
#
#
# Mechanical properties :
#
#
# Convention : Reuss Voigt Hill
#
# Bulk Modulus (GPa) = 63.91589 67.99195 65.95392
# Shear Modulus (GPa) = 27.82809 32.95401 30.39105
#
# Velocity S-wave (km/s) = 3.46810 3.77402 3.62429
# Velocity P-wave (km/s) = 6.60776 6.95544 6.78383
#
# Compressibility (1/GPa) = 0.01564556
#
# Stress axis : x y z
#
# Youngs Moduli (GPa) = 74.82013 81.90290 106.15195
#
# Poissons Ratio (x) = 0.50570 -0.03704
# Poissons Ratio (y) = 0.46197 0.40863
# Poissons Ratio (z) = -0.02611 0.31528
#
# Static dielectric constant tensor:
#      x y z
#    x 4.406380 -0.000010 0.299240 
#    y -0.000010 4.036190 0.000040 
#    z 0.299240 0.000040 4.449610 
# 
# 
# High freq. dielectric constant tensor:
#      x y z
#    x 1.932570 0.000000 0.012390 
#    y 0.000000 1.903020 0.000000 
#    z 0.012390 0.000000 1.925230 
# 
# From -- ./inp_files/133635.got.cif
#   From: 2010.06.25/outbox.cif.g09.slc.cpg/sg12_67_cif.got.tgz:133635.got - 2010.06.28 00:19:55.
