data_PCOD8112865
_publ_section_title
;
Structure prediction by ZEFSAII (Michael W. Deem and Ramdas Pophale) SiO2 
 PCOD8112865
Probable space group: C 2/M
;
_chemical_formula_sum "Si O2"
_cell_formula_units_Z 56
_cell_length_a 23.714887
_cell_length_b 8.692479
_cell_length_c 30.981400
_cell_angle_alpha 90.000000
_cell_angle_beta 154.505145
_cell_angle_gamma 90.000000
_cell_volume 2748.959412
_symmetry_space_group_name_H-M "C 2/M"
_symmetry_group_IT_number 12
_symmetry_cell_setting 'monoclinic'
loop_
_space_group_symop_operation_xyz
x,y,z
-x,y,-z
-x,-y,-z
x,-y,z
1/2+x,1/2+y,z
1/2-x,1/2+y,-z
1/2-x,1/2-y,-z
1/2+x,1/2-y,z
loop_
_atom_site_type_symbol
_atom_site_label
_atom_site_fract_x
_atom_site_fract_y
_atom_site_fract_z
Si Si1 0.273417 0.678528 0.635771
Si Si2 0.646392 0.180922 0.087112
Si Si3 0.346947 0.318506 0.531412
Si Si4 0.681425 0.181289 0.015341
Si Si5 0.116248 0.318531 0.697775
Si Si6 0.635995 0.673360 0.618258
Si Si7 0.937025 0.177727 0.144392
O O1 0.235217 0.500000 0.603698
O O2 0.200531 0.777362 0.549367
O O3 0.238096 0.734964 0.659199
O O4 0.428190 0.705867 0.737301
O O5 0.661150 0.246914 0.049050
O O6 0.747529 0.270321 0.186946
O O7 0.676299 0.000000 0.111204
O O8 0.500000 0.220431 0.000000
O O9 0.350094 0.500000 0.539413
O O10 0.250000 0.250000 0.500000
O O11 0.494092 0.255208 0.639444
O O12 0.821404 0.242763 0.094846
O O13 0.676166 0.000000 0.013750
O O14 0.565774 0.237709 0.903817
O O15 0.099521 0.500000 0.687399
O O16 0.116311 0.263086 0.648787
O O17 0.500000 0.667213 0.500000
O O18 0.687342 0.500000 0.662736
O O19 0.914645 0.000000 0.118933
#
# Coordination Sequence:
#
# PCOD8112865 Si02
#       7
#     8   8   8   8   8   8   8
#     4  11  23  39  63  96 128 164 209 263 320 380
#     4  10  23  42  64  92 126 169 217 264 319 384
#     4  12  26  45  67  96 132 172 216 264 317 386
#     4   9  19  38  61  86 119 163 208 255 310 372
#     4  12  26  44  67  96 128 169 214 268 327 384
#     4  11  23  41  65  91 123 166 209 258 313 375
#     4   9  20  37  59  89 122 159 201 255 315 369
#
# _framework density 20.371345000000002
#
# number of rings (size 3 to 8) (size 9 to 14) (size 15 to 20)
#    0.000    1.429    1.429    3.429    4.000    2.571 
#    0.000    0.000    0.000    0.000    0.000    0.000 
#    0.000    0.000    0.000    0.000    0.000    0.000 
#
# Total GULP energy -347305.603974 kJ/mol
# GULP energy per Si atom -12403.771571 kJ/mol
# Density = 2.032498 g / cm^3
# Si number density = 20.371345 Si / 1000 Ang^3
#
#
#
# Elastic Constant Matrix: (Units=GPa)
#
#
# Indices 1 2 3 4 5 6 
#
# 1 136.3352 47.5803 44.9358 0.0018 2.5436 0.0008
# 2 47.5803 118.9178 50.7726 -0.0026 4.2756 0.0011
# 3 44.9358 50.7726 106.4994 -0.0117 3.5301 -0.0026
# 4 0.0018 -0.0026 -0.0117 45.2882 0.0004 2.1006
# 5 2.5436 4.2756 3.5301 0.0004 28.4173 0.0003
# 6 0.0008 0.0011 -0.0026 2.1006 0.0003 37.1111
#
#
#
# Elastic Compliance Matrix: (Units=1/GPa)
#
#
# Indices 1 2 3 4 5 6 
#
# 1 0.009079 -0.002504 -0.002633 -0.000001 -0.000109 0.000000
# 2 -0.002504 0.011276 -0.004288 0.000000 -0.000940 -0.000001
# 3 -0.002633 -0.004288 0.012567 0.000003 -0.000680 0.000001
# 4 -0.000001 0.000000 0.000003 0.022139 0.000000 -0.001253
# 5 -0.000109 -0.000940 -0.000680 0.000000 0.035426 0.000000
# 6 0.000000 -0.000001 0.000001 -0.001253 0.000000 0.027017
#
#
# Mechanical properties :
#
#
# Convention : Reuss Voigt Hill
#
# Bulk Modulus (GPa) = 71.06614 72.03667 71.55140
# Shear Modulus (GPa) = 35.44986 36.72754 36.08870
#
# Velocity S-wave (km/s) = 4.17607 4.25067 4.21354
# Velocity P-wave (km/s) = 7.62980 7.71553 7.67279
#
# Compressibility (1/GPa) = 0.01407140
#
# Stress axis : x y z
#
# Youngs Moduli (GPa) = 110.14695 88.68662 79.57082
#
# Poissons Ratio (x) = 0.22211 0.20952
# Poissons Ratio (y) = 0.27585 0.34118
# Poissons Ratio (z) = 0.29003 0.38026
#
# Static dielectric constant tensor:
#      x y z
#    x 4.285860 -0.000020 -0.084750 
#    y -0.000020 3.757440 0.000010 
#    z -0.084750 0.000010 3.917660 
# 
# 
# High freq. dielectric constant tensor:
#      x y z
#    x 1.805420 0.000000 0.003910 
#    y 0.000000 1.796360 0.000000 
#    z 0.003910 0.000000 1.801770 
# 
# From -- ./inp_files/380710.got.cif
#   From: 2010.06.25/outbox.cif.g09.slc.cpg/sg12_191_cif.got.tgz:380710.got - 2010.06.28 00:19:55.
