data_PCOD8112847
_publ_section_title
;
Structure prediction by ZEFSAII (Michael W. Deem and Ramdas Pophale) SiO2 
 PCOD8112847
Probable space group: C 2/M
;
_chemical_formula_sum "Si O2"
_cell_formula_units_Z 64
_cell_length_a 15.424849
_cell_length_b 8.595345
_cell_length_c 30.626128
_cell_angle_alpha 90.000000
_cell_angle_beta 50.715074
_cell_angle_gamma 90.000000
_cell_volume 3142.831627
_symmetry_space_group_name_H-M "C 2/M"
_symmetry_group_IT_number 12
_symmetry_cell_setting 'monoclinic'
loop_
_space_group_symop_operation_xyz
x,y,z
-x,y,-z
-x,-y,-z
x,-y,z
1/2+x,1/2+y,z
1/2-x,1/2+y,-z
1/2-x,1/2-y,-z
1/2+x,1/2-y,z
loop_
_atom_site_type_symbol
_atom_site_label
_atom_site_fract_x
_atom_site_fract_y
_atom_site_fract_z
Si Si1 0.505739 0.178506 0.172437
Si Si2 0.435006 0.681010 0.755874
Si Si3 0.615994 0.319861 0.940477
Si Si4 0.676686 0.684895 0.443061
Si Si5 0.927117 0.317642 0.365223
Si Si6 0.499359 0.684018 0.430761
Si Si7 0.820820 0.679221 0.165850
Si Si8 0.201290 0.818276 0.059655
O O1 0.523878 0.287344 0.208244
O O2 0.379677 0.199833 0.194247
O O3 0.587425 0.228910 0.107224
O O4 0.529018 0.000000 0.178184
O O5 0.447982 0.500000 0.741149
O O6 0.511966 0.777838 0.698949
O O7 0.307179 0.736140 0.790053
O O8 0.644608 0.500000 0.940067
O O9 0.611796 0.284607 0.890380
O O10 0.712017 0.209796 0.928988
O O11 0.500000 0.273874 0.000000
O O12 0.679566 0.500000 0.441566
O O13 0.801734 0.755776 0.404287
O O14 0.611280 0.741580 0.420320
O O15 0.609526 0.741783 0.507420
O O16 0.917435 0.500000 0.373194
O O17 0.998548 0.254010 0.382832
O O18 0.499350 0.500000 0.426718
O O19 0.826350 0.500000 0.148897
O O20 0.176340 0.000000 0.062070
O O21 0.250000 0.750000 0.000000
#
# Coordination Sequence:
#
# PCOD8112847 Si02
#       8
#     8   8   8   8   8   8   8   8
#     4  11  23  42  66  91 117 152 195 248 307 360
#     4  11  24  43  62  85 117 161 206 249 296 359
#     4  11  23  38  60  91 123 154 194 243 296 353
#     4   8  17  34  58  85 118 158 199 242 299 359
#     4  11  22  36  56  86 120 155 197 250 303 353
#     4   9  17  35  60  85 115 157 202 245 293 359
#     4  10  23  42  64  87 116 154 196 243 302 362
#     4  12  24  39  60  89 124 159 195 240 295 359
#
# _framework density 20.363802
#
# number of rings (size 3 to 8) (size 9 to 14) (size 15 to 20)
#    0.000    1.625    1.250    4.500    0.000    5.500 
#    0.000    8.125    0.000    0.000    0.000    0.000 
#    0.000    0.000    0.000    0.000    0.000    0.000 
#
# Total GULP energy -396906.040755 kJ/mol
# GULP energy per Si atom -12403.313774 kJ/mol
# Density = 2.031745 g / cm^3
# Si number density = 20.363802 Si / 1000 Ang^3
#
#
#
# Elastic Constant Matrix: (Units=GPa)
#
#
# Indices 1 2 3 4 5 6 
#
# 1 114.6271 19.2945 37.9681 0.0000 2.9883 -0.0005
# 2 19.2945 46.6555 9.6292 -0.0011 -4.7251 -0.0011
# 3 37.9681 9.6292 92.8403 0.0002 4.1103 0.0002
# 4 0.0000 -0.0011 0.0002 30.6702 -0.0002 3.3925
# 5 2.9883 -4.7251 4.1103 -0.0002 28.5835 -0.0005
# 6 -0.0005 -0.0011 0.0002 3.3925 -0.0005 30.3424
#
#
#
# Elastic Compliance Matrix: (Units=1/GPa)
#
#
# Indices 1 2 3 4 5 6 
#
# 1 0.010684 -0.003725 -0.003931 0.000000 -0.001167 0.000000
# 2 -0.003725 0.023659 -0.001128 0.000001 0.004463 0.000001
# 3 -0.003931 -0.001128 0.012566 0.000000 -0.001582 0.000000
# 4 0.000000 0.000001 0.000000 0.033013 0.000000 -0.003691
# 5 -0.001167 0.004463 -0.001582 0.000000 0.036073 0.000001
# 6 0.000000 0.000001 0.000000 -0.003691 0.000001 0.033370
#
#
# Mechanical properties :
#
#
# Convention : Reuss Voigt Hill
#
# Bulk Modulus (GPa) = 34.08318 43.10073 38.59196
# Shear Modulus (GPa) = 28.29454 30.40128 29.34791
#
# Velocity S-wave (km/s) = 3.73158 3.86801 3.80041
# Velocity P-wave (km/s) = 5.94472 6.41560 6.18465
#
# Compressibility (1/GPa) = 0.02933999
#
# Stress axis : x y z
#
# Youngs Moduli (GPa) = 93.60224 42.26722 79.58042
#
# Poissons Ratio (x) = 0.15745 0.31284
# Poissons Ratio (y) = 0.34868 0.08977
# Poissons Ratio (z) = 0.36796 0.04768
#
# Static dielectric constant tensor:
#      x y z
#    x 4.003680 0.000000 -0.135840 
#    y 0.000000 3.489700 0.000000 
#    z -0.135840 0.000000 3.747410 
# 
# 
# High freq. dielectric constant tensor:
#      x y z
#    x 1.809200 0.000000 0.000030 
#    y 0.000000 1.783370 0.000000 
#    z 0.000030 0.000000 1.790690 
# 
# From -- ./inp_files/375374.got.cif
#   From: 2010.06.25/outbox.cif.g09.slc.cpg/sg12_188_cif.got.tgz:375374.got - 2010.06.28 00:19:55.
