data_PCOD8112368
_publ_section_title
;
Structure prediction by ZEFSAII (Michael W. Deem and Ramdas Pophale) SiO2 
 PCOD8112368
Probable space group: C 2/M
;
_chemical_formula_sum "Si O2"
_cell_formula_units_Z 64
_cell_length_a 9.544413
_cell_length_b 27.773062
_cell_length_c 24.277527
_cell_angle_alpha 90.000000
_cell_angle_beta 150.710876
_cell_angle_gamma 90.000000
_cell_volume 3148.320149
_symmetry_space_group_name_H-M "C 2/M"
_symmetry_group_IT_number 12
_symmetry_cell_setting 'monoclinic'
loop_
_space_group_symop_operation_xyz
x,y,z
-x,y,-z
-x,-y,-z
x,-y,z
1/2+x,1/2+y,z
1/2-x,1/2+y,-z
1/2-x,1/2-y,-z
1/2+x,1/2-y,z
loop_
_atom_site_type_symbol
_atom_site_label
_atom_site_fract_x
_atom_site_fract_y
_atom_site_fract_z
Si Si1 0.161704 0.137317 0.875578
Si Si2 0.304391 0.862792 0.574821
Si Si3 0.792763 0.550399 0.132530
Si Si4 0.283869 0.300191 0.208991
Si Si5 0.840210 0.351604 0.118326
Si Si6 0.752547 0.704258 0.459930
Si Si7 0.255146 0.943380 0.248845
Si Si8 0.279613 0.809606 0.208466
O O1 0.076407 0.171078 0.794122
O O2 0.023694 0.083885 0.821166
O O3 0.018607 0.163444 0.879361
O O4 0.500000 0.132630 0.000000
O O5 0.277158 0.845780 0.502204
O O6 0.463110 0.914709 0.633166
O O7 0.490504 0.819301 0.664863
O O8 0.000000 0.867763 0.500000
O O9 0.968131 0.500000 0.188576
O O10 0.962379 0.593551 0.161236
O O11 0.731977 0.562512 0.175350
O O12 0.500000 0.543736 0.000000
O O13 0.462988 0.302035 0.326322
O O14 0.220235 0.245375 0.173136
O O15 0.975837 0.324614 0.113467
O O16 0.937215 0.329270 0.208869
O O17 0.500000 0.350037 0.000000
O O18 0.750000 0.750000 0.500000
O O19 0.000000 0.711356 0.500000
O O20 0.263540 0.000000 0.269484
#
# Coordination Sequence:
#
# PCOD8112368 Si02
#       8
#     8   8   8   8   8   8   8   8
#     4  11  24  41  61  93 128 167 211 252 308 383
#     4  11  22  40  65  93 125 157 210 263 315 375
#     4   9  18  35  63  89 115 150 197 254 313 361
#     4  12  26  37  63  90 129 167 211 257 306 372
#     4  11  22  37  60  89 123 164 202 252 310 369
#     4  12  25  40  64  90 122 167 214 265 312 364
#     4  10  22  43  67  90 125 165 206 263 317 372
#     4  11  22  40  58  85 129 167 206 251 302 373
#
# _framework density 20.328302000000001
#
# number of rings (size 3 to 8) (size 9 to 14) (size 15 to 20)
#    0.000    1.125    3.750    4.125    3.500    3.500 
#    0.000    0.625    0.000    3.375    0.000    0.000 
#    0.000    0.000    0.000    0.000    0.000    0.000 
#
# Total GULP energy -396529.179378 kJ/mol
# GULP energy per Si atom -12391.536856 kJ/mol
# Density = 2.028203 g / cm^3
# Si number density = 20.328302 Si / 1000 Ang^3
#
#
#
# Elastic Constant Matrix: (Units=GPa)
#
#
# Indices 1 2 3 4 5 6 
#
# 1 76.4056 38.9542 26.3119 -0.0052 10.3731 0.0000
# 2 38.9542 179.3614 37.6191 -0.0055 8.0360 -0.0007
# 3 26.3119 37.6191 78.8890 -0.0137 11.2485 -0.0054
# 4 -0.0052 -0.0055 -0.0137 49.0465 -0.0040 -17.4129
# 5 10.3731 8.0360 11.2485 -0.0040 36.8043 0.0019
# 6 0.0000 -0.0007 -0.0054 -17.4129 0.0019 22.1447
#
#
#
# Elastic Compliance Matrix: (Units=1/GPa)
#
#
# Indices 1 2 3 4 5 6 
#
# 1 0.016072 -0.002582 -0.003726 0.000000 -0.002827 -0.000001
# 2 -0.002582 0.006618 -0.002292 0.000000 -0.000017 -0.000001
# 3 -0.003726 -0.002292 0.015465 0.000007 -0.003176 0.000009
# 4 0.000000 0.000000 0.000007 0.028285 0.000000 0.022241
# 5 -0.002827 -0.000017 -0.003176 0.000000 0.028942 -0.000003
# 6 -0.000001 -0.000001 0.000009 0.022241 -0.000003 0.062646
#
#
# Mechanical properties :
#
#
# Convention : Reuss Voigt Hill
#
# Bulk Modulus (GPa) = 47.72521 60.04739 53.88630
# Shear Modulus (GPa) = 27.44060 37.05048 32.24554
#
# Velocity S-wave (km/s) = 3.67805 4.27383 3.98708
# Velocity P-wave (km/s) = 6.44714 7.34555 6.91096
#
# Compressibility (1/GPa) = 0.02095329
#
# Stress axis : x y z
#
# Youngs Moduli (GPa) = 62.22191 151.11100 64.66400
#
# Poissons Ratio (x) = 0.39022 0.24093
# Poissons Ratio (y) = 0.16068 0.14821
# Poissons Ratio (z) = 0.23183 0.34635
#
# Static dielectric constant tensor:
#      x y z
#    x 3.846460 0.000010 -0.031190 
#    y 0.000010 4.177860 0.000010 
#    z -0.031190 0.000010 3.826070 
# 
# 
# High freq. dielectric constant tensor:
#      x y z
#    x 1.789020 0.000000 -0.011710 
#    y 0.000000 1.801180 0.000000 
#    z -0.011710 0.000000 1.789960 
# 
# From -- ./inp_files/334367.got.cif
#   From: 2010.06.25/outbox.cif.g09.slc.cpg/sg12_168_cif.got.tgz:334367.got - 2010.06.28 00:19:55.
