data_PCOD8112084
_publ_section_title
;
Structure prediction by ZEFSAII (Michael W. Deem and Ramdas Pophale) SiO2 
 PCOD8112084
Probable space group: C 2/M
;
_chemical_formula_sum "Si O2"
_cell_formula_units_Z 48
_cell_length_a 8.880399
_cell_length_b 13.037509
_cell_length_c 28.853534
_cell_angle_alpha 90.000000
_cell_angle_beta 39.674171
_cell_angle_gamma 90.000000
_cell_volume 2132.716920
_symmetry_space_group_name_H-M "C 2/M"
_symmetry_group_IT_number 12
_symmetry_cell_setting 'monoclinic'
loop_
_space_group_symop_operation_xyz
x,y,z
-x,y,-z
-x,-y,-z
x,-y,z
1/2+x,1/2+y,z
1/2-x,1/2+y,-z
1/2-x,1/2-y,-z
1/2+x,1/2-y,z
loop_
_atom_site_type_symbol
_atom_site_label
_atom_site_fract_x
_atom_site_fract_y
_atom_site_fract_z
Si Si1 0.190011 0.880868 0.914842
Si Si2 0.999186 0.112489 0.269054
Si Si3 0.620914 0.266005 0.840009
Si Si4 0.400378 0.884177 0.699727
Si Si5 0.181476 0.883575 0.592055
Si Si6 0.585221 0.700154 0.432196
O O1 0.407113 0.808198 0.876917
O O2 0.066647 0.833258 0.898419
O O3 0.269595 0.000000 0.887667
O O4 0.000000 0.876826 0.000000
O O5 0.155436 0.193000 0.204235
O O6 0.721014 0.126866 0.322000
O O7 0.020850 0.120207 0.319964
O O8 0.082257 0.000000 0.232928
O O9 0.697139 0.344866 0.782291
O O10 0.643948 0.823321 0.644867
O O11 0.465466 0.000000 0.697317
O O12 0.410508 0.822665 0.557534
O O13 0.086635 0.825667 0.568979
O O14 0.251613 0.000000 0.563547
O O15 0.500000 0.642840 0.500000
#
# Coordination Sequence:
#
# PCOD8112084 Si02
#       6
#     8   8   8   8   8   8
#     4  11  26  46  71 106 144 183 225 272 336 409
#     4  10  22  41  67  99 132 172 226 284 339 399
#     4  12  22  44  71 100 137 180 227 280 335 394
#     4  11  24  42  68  99 133 176 234 288 337 406
#     4  11  25  44  68  97 131 175 227 284 348 409
#     4  12  26  46  69  98 137 183 229 287 352 412
#
# _framework density 22.506505000000001
#
# number of rings (size 3 to 8) (size 9 to 14) (size 15 to 20)
#    0.000    0.833    3.333    3.500    2.333    1.667 
#    0.000    2.500    0.000    4.000    0.000    0.000 
#    0.000    0.000    0.000    0.000    0.000    0.000 
#
# Total GULP energy -297444.745888 kJ/mol
# GULP energy per Si atom -12393.531079 kJ/mol
# Density = 2.245528 g / cm^3
# Si number density = 22.506505 Si / 1000 Ang^3
#
#
#
# Elastic Constant Matrix: (Units=GPa)
#
#
# Indices 1 2 3 4 5 6 
#
# 1 112.5134 63.5982 30.2921 -0.0010 14.5537 0.0003
# 2 63.5982 154.9734 24.2215 -0.0016 9.1547 0.0016
# 3 30.2921 24.2215 82.9504 -0.0019 16.1622 0.0023
# 4 -0.0010 -0.0016 -0.0019 19.0595 0.0009 6.4682
# 5 14.5537 9.1547 16.1622 0.0009 37.9531 -0.0009
# 6 0.0003 0.0016 0.0023 6.4682 -0.0009 34.3815
#
#
#
# Elastic Compliance Matrix: (Units=1/GPa)
#
#
# Indices 1 2 3 4 5 6 
#
# 1 0.012537 -0.004565 -0.002751 0.000000 -0.002535 0.000000
# 2 -0.004565 0.008450 -0.000811 0.000001 0.000058 0.000000
# 3 -0.002751 -0.000811 0.014234 0.000002 -0.004811 -0.000001
# 4 0.000000 0.000001 0.000002 0.056045 -0.000003 -0.010544
# 5 -0.002535 0.000058 -0.004811 -0.000003 0.029355 0.000002
# 6 0.000000 0.000000 -0.000001 -0.010544 0.000002 0.031069
#
#
# Mechanical properties :
#
#
# Convention : Reuss Voigt Hill
#
# Bulk Modulus (GPa) = 52.72889 65.18454 58.95671
# Shear Modulus (GPa) = 28.69142 33.76717 31.22930
#
# Velocity S-wave (km/s) = 3.57432 3.87761 3.72905
# Velocity P-wave (km/s) = 6.36502 7.00523 6.69278
#
# Compressibility (1/GPa) = 0.01896494
#
# Stress axis : x y z
#
# Youngs Moduli (GPa) = 79.76453 118.34911 70.25203
#
# Poissons Ratio (x) = 0.54028 0.19329
# Poissons Ratio (y) = 0.36414 0.05701
# Poissons Ratio (z) = 0.21946 0.09604
#
# Static dielectric constant tensor:
#      x y z
#    x 4.001020 0.000000 0.182660 
#    y 0.000000 4.391530 0.000000 
#    z 0.182660 0.000000 3.995500 
# 
# 
# High freq. dielectric constant tensor:
#      x y z
#    x 1.884370 0.000000 0.012660 
#    y 0.000000 1.906710 0.000000 
#    z 0.012660 0.000000 1.883660 
# 
# From -- ./inp_files/356299.got.cif
#   From: 2010.06.25/outbox.cif.g09.slc.cpg/sg12_179_cif.got.tgz:356299.got - 2010.06.28 00:19:55.
