data_PCOD8112221
_publ_section_title
;
Structure prediction by ZEFSAII (Michael W. Deem and Ramdas Pophale) SiO2 
 PCOD8112221
Probable space group: C 2/M
;
_chemical_formula_sum "Si O2"
_cell_formula_units_Z 64
_cell_length_a 9.492682
_cell_length_b 15.251839
_cell_length_c 29.291491
_cell_angle_alpha 90.000000
_cell_angle_beta 49.119149
_cell_angle_gamma 90.000000
_cell_volume 3206.386873
_symmetry_space_group_name_H-M "C 2/M"
_symmetry_group_IT_number 12
_symmetry_cell_setting 'monoclinic'
loop_
_space_group_symop_operation_xyz
x,y,z
-x,y,-z
-x,-y,-z
x,-y,z
1/2+x,1/2+y,z
1/2-x,1/2+y,-z
1/2-x,1/2-y,-z
1/2+x,1/2-y,z
loop_
_atom_site_type_symbol
_atom_site_label
_atom_site_fract_x
_atom_site_fract_y
_atom_site_fract_z
Si Si1 0.788793 0.400997 0.123346
Si Si2 0.505672 0.402882 0.636407
Si Si3 0.960789 0.160491 0.742749
Si Si4 0.791691 0.259417 0.543354
Si Si5 0.533257 0.744486 0.044385
Si Si6 0.795771 0.400850 0.374118
Si Si7 0.307729 0.840443 0.735810
Si Si8 0.053140 0.902250 0.868573
O O1 0.865177 0.500000 0.108531
O O2 0.692980 0.379400 0.191446
O O3 0.644984 0.387398 0.112918
O O4 0.960739 0.338034 0.077060
O O5 0.574579 0.500000 0.607244
O O6 0.474912 0.405474 0.697310
O O7 0.661228 0.330876 0.594091
O O8 0.316131 0.379516 0.649042
O O9 0.885641 0.250131 0.738134
O O10 0.158693 0.173489 0.726509
O O11 0.750000 0.250000 0.500000
O O12 0.771588 0.166038 0.572731
O O13 0.000000 0.295210 0.500000
O O14 0.430700 0.669067 0.095202
O O15 0.500000 0.720411 0.000000
O O16 0.750000 0.750000 0.000000
O O17 0.751946 0.500000 0.399887
O O18 0.017420 0.395006 0.319740
O O19 0.215977 0.892660 0.796950
O O20 0.067791 0.000000 0.886287
#
# Coordination Sequence:
#
# PCOD8112221 Si02
#       8
#     8   8   8   8   8   8   8   8
#     4  10  22  42  67  94 126 170 213 259 319 387
#     4  11  25  45  68  99 133 167 212 270 325 382
#     4  11  22  39  69  99 130 166 211 265 326 388
#     4  12  26  45  67  94 128 172 224 264 310 375
#     4  12  24  41  65  92 126 168 218 265 313 374
#     4  11  25  45  69  98 132 171 213 264 327 386
#     4  11  22  39  69  98 129 169 210 261 330 386
#     4  10  22  42  66  94 129 166 211 264 320 382
#
# _framework density 19.960160999999999
#
# number of rings (size 3 to 8) (size 9 to 14) (size 15 to 20)
#    0.000    1.000    5.000    1.500    1.750    3.500 
#    2.250    0.000    0.000    0.000    0.000    0.000 
#    0.000    0.000    0.000    0.000    0.000    0.000 
#
# Total GULP energy -396789.459328 kJ/mol
# GULP energy per Si atom -12399.670604 kJ/mol
# Density = 1.991473 g / cm^3
# Si number density = 19.960161 Si / 1000 Ang^3
#
#
#
# Elastic Constant Matrix: (Units=GPa)
#
#
# Indices 1 2 3 4 5 6 
#
# 1 131.4767 44.5211 55.8491 0.0001 5.0889 0.0001
# 2 44.5211 140.5489 48.9920 -0.0004 4.4081 -0.0002
# 3 55.8491 48.9920 102.1688 -0.0023 3.3883 -0.0008
# 4 0.0001 -0.0004 -0.0023 9.7180 -0.0001 -2.6236
# 5 5.0889 4.4081 3.3883 -0.0001 44.3732 0.0002
# 6 0.0001 -0.0002 -0.0008 -2.6236 0.0002 26.9211
#
#
#
# Elastic Compliance Matrix: (Units=1/GPa)
#
#
# Indices 1 2 3 4 5 6 
#
# 1 0.010196 -0.001530 -0.004818 -0.000001 -0.000649 0.000000
# 2 -0.001530 0.008785 -0.003362 0.000000 -0.000441 0.000000
# 3 -0.004818 -0.003362 0.014040 0.000003 -0.000186 0.000001
# 4 -0.000001 0.000000 0.000003 0.105682 0.000000 0.010299
# 5 -0.000649 -0.000441 -0.000186 0.000000 0.022669 0.000000
# 6 0.000000 0.000000 0.000001 0.010299 0.000000 0.038149
#
#
# Mechanical properties :
#
#
# Convention : Reuss Voigt Hill
#
# Bulk Modulus (GPa) = 73.52411 74.76879 74.14645
# Shear Modulus (GPa) = 22.37390 31.19125 26.78258
#
# Velocity S-wave (km/s) = 3.35166 3.95736 3.66704
# Velocity P-wave (km/s) = 7.20372 7.64338 7.42680
#
# Compressibility (1/GPa) = 0.01360098
#
# Stress axis : x y z
#
# Youngs Moduli (GPa) = 98.07963 113.82754 71.22609
#
# Poissons Ratio (x) = 0.17413 0.34319
# Poissons Ratio (y) = 0.15004 0.23945
# Poissons Ratio (z) = 0.47258 0.38267
#
# Static dielectric constant tensor:
#      x y z
#    x 3.710040 0.000000 0.088400 
#    y 0.000000 3.837940 0.000010 
#    z 0.088400 0.000010 3.147990 
# 
# 
# High freq. dielectric constant tensor:
#      x y z
#    x 1.782900 0.000000 0.001770 
#    y 0.000000 1.790250 0.000000 
#    z 0.001770 0.000000 1.785610 
# 
# From -- ./inp_files/372535.got.cif
#   From: 2010.06.25/outbox.cif.g09.slc.cpg/sg12_187_cif.got.tgz:372535.got - 2010.06.28 00:19:55.
