data_PCOD8112435
_publ_section_title
;
Structure prediction by ZEFSAII (Michael W. Deem and Ramdas Pophale) SiO2 
 PCOD8112435
Probable space group: C 2/M
;
_chemical_formula_sum "Si O2"
_cell_formula_units_Z 56
_cell_length_a 29.083330
_cell_length_b 10.706229
_cell_length_c 9.842012
_cell_angle_alpha 90.000000
_cell_angle_beta 109.653016
_cell_angle_gamma 90.000000
_cell_volume 2886.015346
_symmetry_space_group_name_H-M "C 2/M"
_symmetry_group_IT_number 12
_symmetry_cell_setting 'monoclinic'
loop_
_space_group_symop_operation_xyz
x,y,z
-x,y,-z
-x,-y,-z
x,-y,z
1/2+x,1/2+y,z
1/2-x,1/2+y,-z
1/2-x,1/2-y,-z
1/2+x,1/2-y,z
loop_
_atom_site_type_symbol
_atom_site_label
_atom_site_fract_x
_atom_site_fract_y
_atom_site_fract_z
Si Si1 0.104980 0.739664 0.366245
Si Si2 0.491782 0.357813 0.841972
Si Si3 0.851221 0.645603 0.865655
Si Si4 0.144268 0.141538 0.659571
Si Si5 0.247531 0.142786 0.883558
Si Si6 0.535315 0.000000 0.726097
Si Si7 0.414695 0.752588 0.160894
Si Si8 0.430474 0.000000 0.545782
O O1 0.050199 0.782863 0.277570
O O2 0.136324 0.709247 0.264802
O O3 0.132843 0.839692 0.488528
O O4 0.102781 0.618534 0.458359
O O5 0.473917 0.500000 0.833766
O O6 0.544158 0.353522 0.818544
O O7 0.500000 0.300287 0.000000
O O8 0.868811 0.500000 0.889528
O O9 0.793449 0.653213 0.829328
O O10 0.874970 0.736298 0.002343
O O11 0.200871 0.169850 0.743392
O O12 0.111386 0.230486 0.721649
O O13 0.131503 0.000000 0.686485
O O14 0.245526 0.000000 0.943595
O O15 0.250000 0.250000 0.000000
O O16 0.556285 0.119411 0.820111
O O17 0.477360 0.000000 0.691080
O O18 0.550904 0.000000 0.586919
#
# Coordination Sequence:
#
# PCOD8112435 Si02
#       8
#     8   8   8   8   8   4   8   4
#     4  12  23  41  62  90 130 165 207 255 314 374
#     4  11  24  39  57  88 127 168 210 253 300 371
#     4  11  23  38  66  97 124 160 206 263 324 374
#     4  11  25  43  64  89 127 170 207 257 316 374
#     4  10  22  44  68  97 128 160 212 269 319 382
#     4  11  22  35  59  95 125 161 205 263 311 362
#     4  12  21  38  64  91 124 159 210 257 313 376
#     4  11  22  37  57  89 131 161 199 259 313 362
#
# _framework density 19.403915999999999
#
# number of rings (size 3 to 8) (size 9 to 14) (size 15 to 20)
#    0.000    0.857    7.143    0.857    0.000    1.143 
#    1.286    5.000    0.000    0.000    0.000    0.000 
#    0.000    0.000    0.000    0.000    0.000    0.000 
#
# Total GULP energy -347181.413367 kJ/mol
# GULP energy per Si atom -12399.336192 kJ/mol
# Density = 1.935975 g / cm^3
# Si number density = 19.403916 Si / 1000 Ang^3
#
#
#
# Elastic Constant Matrix: (Units=GPa)
#
#
# Indices 1 2 3 4 5 6 
#
# 1 109.1274 20.6367 41.4448 0.0000 3.0258 0.0000
# 2 20.6367 67.8200 26.9604 0.0000 2.9851 0.0000
# 3 41.4448 26.9604 112.6078 0.0000 3.7848 0.0000
# 4 0.0000 0.0000 0.0000 30.6237 0.0000 0.1970
# 5 3.0258 2.9851 3.7848 0.0000 34.6248 0.0000
# 6 0.0000 0.0000 0.0000 0.1970 0.0000 25.6479
#
#
#
# Elastic Compliance Matrix: (Units=1/GPa)
#
#
# Indices 1 2 3 4 5 6 
#
# 1 0.010875 -0.001885 -0.003538 0.000000 -0.000401 0.000000
# 2 -0.001885 0.016656 -0.003263 0.000000 -0.000915 0.000000
# 3 -0.003538 -0.003263 0.010984 0.000000 -0.000610 0.000000
# 4 0.000000 0.000000 0.000000 0.032656 0.000000 -0.000251
# 5 -0.000401 -0.000915 -0.000610 0.000000 0.029062 0.000000
# 6 0.000000 0.000000 0.000000 -0.000251 0.000000 0.038992
#
#
# Mechanical properties :
#
#
# Convention : Reuss Voigt Hill
#
# Bulk Modulus (GPa) = 47.29680 51.95991 49.62835
# Shear Modulus (GPa) = 30.55420 31.54682 31.05051
#
# Velocity S-wave (km/s) = 3.97248 4.03649 4.00461
# Velocity P-wave (km/s) = 6.74304 6.96854 6.85672
#
# Compressibility (1/GPa) = 0.02114308
#
# Stress axis : x y z
#
# Youngs Moduli (GPa) = 91.95638 60.03845 91.04025
#
# Poissons Ratio (x) = 0.11318 0.32206
# Poissons Ratio (y) = 0.17335 0.29708
# Poissons Ratio (z) = 0.32530 0.19592
#
# Static dielectric constant tensor:
#      x y z
#    x 3.518660 0.000000 0.128710 
#    y 0.000000 3.830090 0.000000 
#    z 0.128710 0.000000 3.457840 
# 
# 
# High freq. dielectric constant tensor:
#      x y z
#    x 1.757210 0.000000 0.005080 
#    y 0.000000 1.761580 0.000000 
#    z 0.005080 0.000000 1.751710 
# 
# From -- ./inp_files/110585.got.cif
#   From: 2010.06.25/outbox.cif.g09.slc.cpg/sg12_56_cif.got.tgz:110585.got - 2010.06.28 00:19:55.
