data_PCOD8112939
_publ_section_title
;
Structure prediction by ZEFSAII (Michael W. Deem and Ramdas Pophale) SiO2 
 PCOD8112939
Probable space group: C 2/M
;
_chemical_formula_sum "Si O2"
_cell_formula_units_Z 56
_cell_length_a 8.009503
_cell_length_b 26.028314
_cell_length_c 13.321150
_cell_angle_alpha 90.000000
_cell_angle_beta 108.235961
_cell_angle_gamma 90.000000
_cell_volume 2637.633429
_symmetry_space_group_name_H-M "C 2/M"
_symmetry_group_IT_number 12
_symmetry_cell_setting 'monoclinic'
loop_
_space_group_symop_operation_xyz
x,y,z
-x,y,-z
-x,-y,-z
x,-y,z
1/2+x,1/2+y,z
1/2-x,1/2+y,-z
1/2-x,1/2-y,-z
1/2+x,1/2-y,z
loop_
_atom_site_type_symbol
_atom_site_label
_atom_site_fract_x
_atom_site_fract_y
_atom_site_fract_z
Si Si1 0.621645 0.354729 0.612851
Si Si2 0.439415 0.939973 0.883378
Si Si3 0.555178 0.439948 0.746099
Si Si4 0.768300 0.396472 0.202154
Si Si5 0.991505 0.664437 0.615851
Si Si6 0.855729 0.204634 0.890869
Si Si7 0.566709 0.734546 0.750811
O O1 0.500000 0.334502 0.500000
O O2 0.529078 0.405641 0.641521
O O3 0.649515 0.309353 0.698020
O O4 0.815300 0.367215 0.608262
O O5 0.242841 0.919725 0.823830
O O6 0.578605 0.929341 0.821277
O O7 0.424277 0.000000 0.895033
O O8 0.500000 0.914403 0.000000
O O9 0.558244 0.500000 0.717635
O O10 0.399266 0.430902 0.797579
O O11 0.845176 0.369873 0.316742
O O12 0.710037 0.353905 0.108673
O O13 0.990512 0.719424 0.670065
O O14 0.000000 0.674500 0.500000
O O15 0.698175 0.245850 0.864255
O O16 0.913291 0.207824 0.784909
O O17 0.000000 0.219156 0.000000
#
# Coordination Sequence:
#
# PCOD8112939 Si02
#       7
#     8   8   8   8   8   8   8
#     4  12  24  41  68  95 131 172 218 277 335 396
#     4  10  23  42  67  99 133 176 226 276 330 385
#     4  11  24  44  68  97 137 176 221 274 330 393
#     4  11  23  42  67  99 133 177 221 272 328 393
#     4  11  24  42  65  96 128 169 219 275 332 396
#     4  11  24  40  63  97 135 175 217 263 327 394
#     4  11  23  42  63  93 132 170 218 268 326 389
#
# _framework density 21.231152000000002
#
# number of rings (size 3 to 8) (size 9 to 14) (size 15 to 20)
#    0.000    1.000    4.286    2.143    4.000    1.429 
#    0.000    4.286    0.000    2.143    0.000    0.000 
#    0.000    0.000    0.000    0.000    0.000    0.000 
#
# Total GULP energy -347173.410612 kJ/mol
# GULP energy per Si atom -12399.050379 kJ/mol
# Density = 2.118283 g / cm^3
# Si number density = 21.231152 Si / 1000 Ang^3
#
#
#
# Elastic Constant Matrix: (Units=GPa)
#
#
# Indices 1 2 3 4 5 6 
#
# 1 135.5802 18.2056 24.2972 0.0000 -3.5296 0.0000
# 2 18.2056 66.7679 16.6228 0.0000 2.6302 0.0000
# 3 24.2972 16.6228 94.8430 0.0000 3.2509 0.0000
# 4 0.0000 0.0000 0.0000 15.5402 0.0000 -2.1169
# 5 -3.5296 2.6302 3.2509 0.0000 30.7431 0.0000
# 6 0.0000 0.0000 0.0000 -2.1169 0.0000 32.4516
#
#
#
# Elastic Compliance Matrix: (Units=1/GPa)
#
#
# Indices 1 2 3 4 5 6 
#
# 1 0.007965 -0.001780 -0.001771 0.000000 0.001254 0.000000
# 2 -0.001780 0.016093 -0.002319 0.000000 -0.001336 0.000000
# 3 -0.001771 -0.002319 0.011446 0.000000 -0.001215 0.000000
# 4 0.000000 0.000000 0.000000 0.064926 0.000000 0.004235
# 5 0.001254 -0.001336 -0.001215 0.000000 0.032914 0.000000
# 6 0.000000 0.000000 0.000000 0.004235 0.000000 0.031091
#
#
# Mechanical properties :
#
#
# Convention : Reuss Voigt Hill
#
# Bulk Modulus (GPa) = 42.08313 46.16027 44.12170
# Shear Modulus (GPa) = 27.15968 31.61801 29.38884
#
# Velocity S-wave (km/s) = 3.58052 3.86324 3.72456
# Velocity P-wave (km/s) = 6.07931 6.45666 6.27082
#
# Compressibility (1/GPa) = 0.02376249
#
# Stress axis : x y z
#
# Youngs Moduli (GPa) = 125.55160 62.14059 87.36987
#
# Poissons Ratio (x) = 0.11062 0.15477
# Poissons Ratio (y) = 0.22350 0.20258
# Poissons Ratio (z) = 0.22241 0.14408
#
# Static dielectric constant tensor:
#      x y z
#    x 4.046100 0.000000 0.113870 
#    y 0.000000 3.670330 0.000000 
#    z 0.113870 0.000000 3.773310 
# 
# 
# High freq. dielectric constant tensor:
#      x y z
#    x 1.851650 0.000000 0.004590 
#    y 0.000000 1.822260 0.000000 
#    z 0.004590 0.000000 1.826580 
# 
# From -- ./inp_files/124340.got.cif
#   From: 2010.06.25/outbox.cif.g09.slc.cpg/sg12_63_cif.got.tgz:124340.got - 2010.06.28 00:19:55.
