data_PCOD8112542
_publ_section_title
;
Structure prediction by ZEFSAII (Michael W. Deem and Ramdas Pophale) SiO2 
 PCOD8112542
Probable space group: C 2/M
;
_chemical_formula_sum "Si O2"
_cell_formula_units_Z 64
_cell_length_a 10.813959
_cell_length_b 16.108688
_cell_length_c 25.209162
_cell_angle_alpha 90.000000
_cell_angle_beta 138.139094
_cell_angle_gamma 90.000000
_cell_volume 2930.491020
_symmetry_space_group_name_H-M "C 2/M"
_symmetry_group_IT_number 12
_symmetry_cell_setting 'monoclinic'
loop_
_space_group_symop_operation_xyz
x,y,z
-x,y,-z
-x,-y,-z
x,-y,z
1/2+x,1/2+y,z
1/2-x,1/2+y,-z
1/2-x,1/2-y,-z
1/2+x,1/2-y,z
loop_
_atom_site_type_symbol
_atom_site_label
_atom_site_fract_x
_atom_site_fract_y
_atom_site_fract_z
Si Si1 0.291788 0.597737 0.182985
Si Si2 0.186765 0.174170 0.320083
Si Si3 0.829051 0.592192 0.197424
Si Si4 0.287909 0.728535 0.451006
Si Si5 0.569584 0.807130 0.201596
Si Si6 0.493451 0.092126 0.633470
Si Si7 0.239978 0.312889 0.060768
Si Si8 0.024974 0.834626 0.952642
O O1 0.252727 0.500000 0.178615
O O2 0.512413 0.613675 0.254187
O O3 0.199828 0.654369 0.198381
O O4 0.203167 0.626146 0.098194
O O5 0.181072 0.206310 0.378887
O O6 0.188443 0.249467 0.278661
O O7 0.382744 0.127685 0.375131
O O8 0.758326 0.500000 0.159613
O O9 0.878464 0.594814 0.274257
O O10 0.669291 0.661584 0.140202
O O11 0.998406 0.615520 0.213618
O O12 0.500000 0.723136 0.500000
O O13 0.250000 0.750000 0.500000
O O14 0.196712 0.638826 0.414824
O O15 0.396657 0.756621 0.122380
O O16 0.433414 0.000000 0.598632
O O17 0.315043 0.369103 0.035198
O O18 0.063167 0.262150 0.981328
O O19 0.000000 0.886261 0.000000
#
# Coordination Sequence:
#
# PCOD8112542 Si02
#       8
#     8   8   8   8   8   8   8   8
#     4  11  24  42  67  98 135 174 224 285 345 396
#     4  11  23  41  72 100 134 181 237 272 328 407
#     4  11  23  39  63  97 133 169 222 288 341 391
#     4  12  25  45  74 108 143 185 227 275 336 421
#     4  11  21  38  65  95 128 174 226 273 330 401
#     4  11  24  45  70 103 140 177 225 288 342 394
#     4  10  23  38  64  90 125 167 228 272 335 401
#     4  11  21  39  61  92 119 171 221 273 329 404
#
# _framework density 21.839344000000001
#
# number of rings (size 3 to 8) (size 9 to 14) (size 15 to 20)
#    0.000    1.000    3.750    3.750    3.500    2.000 
#    0.000    1.875    0.000    3.375    0.000    0.000 
#    0.000    0.000    0.000    0.000    0.000    0.000 
#
# Total GULP energy -396591.429742 kJ/mol
# GULP energy per Si atom -12393.482179 kJ/mol
# Density = 2.178964 g / cm^3
# Si number density = 21.839344 Si / 1000 Ang^3
#
#
#
# Elastic Constant Matrix: (Units=GPa)
#
#
# Indices 1 2 3 4 5 6 
#
# 1 133.4470 51.3444 13.9374 0.0000 -20.2054 0.0000
# 2 51.3444 109.1854 55.3885 0.0000 -0.0132 0.0000
# 3 13.9374 55.3885 67.1204 0.0000 -10.7700 0.0000
# 4 0.0000 0.0000 0.0000 21.3197 0.0000 -0.2440
# 5 -20.2054 -0.0132 -10.7700 0.0000 44.1984 0.0000
# 6 0.0000 0.0000 0.0000 -0.2440 0.0000 29.5630
#
#
#
# Elastic Compliance Matrix: (Units=1/GPa)
#
#
# Indices 1 2 3 4 5 6 
#
# 1 0.010857 -0.007681 0.005079 0.000000 0.006199 0.000000
# 2 -0.007681 0.021662 -0.017528 0.000000 -0.007776 0.000000
# 3 0.005079 -0.017528 0.029847 0.000000 0.009590 0.000000
# 4 0.000000 0.000000 0.000000 0.046909 0.000000 0.000387
# 5 0.006199 -0.007776 0.009590 0.000000 0.027793 0.000000
# 6 0.000000 0.000000 0.000000 0.000387 0.000000 0.033829
#
#
# Mechanical properties :
#
#
# Convention : Reuss Voigt Hill
#
# Bulk Modulus (GPa) = 45.23921 61.23259 53.23590
# Shear Modulus (GPa) = 22.88036 31.62171 27.25103
#
# Velocity S-wave (km/s) = 3.24028 3.80929 3.53625
# Velocity P-wave (km/s) = 5.89565 6.88812 6.41112
#
# Compressibility (1/GPa) = 0.02210472
#
# Stress axis : x y z
#
# Youngs Moduli (GPa) = 92.10560 46.16421 33.50384
#
# Poissons Ratio (x) = 0.35460 -0.17016
# Poissons Ratio (y) = 0.70748 0.58727
# Poissons Ratio (z) = -0.46779 0.80918
#
# Static dielectric constant tensor:
#      x y z
#    x 4.440380 0.000000 -0.161570 
#    y 0.000000 3.914200 0.000000 
#    z -0.161570 0.000000 3.996220 
# 
# 
# High freq. dielectric constant tensor:
#      x y z
#    x 1.887920 0.000000 -0.009180 
#    y 0.000000 1.833970 0.000000 
#    z -0.009180 0.000000 1.852000 
# 
# From -- ./inp_files/358470.got.cif
#   From: 2010.06.25/outbox.cif.g09.slc.cpg/sg12_180_cif.got.tgz:358470.got - 2010.06.28 00:19:55.
