data_PCOD8112562
_publ_section_title
;
Structure prediction by ZEFSAII (Michael W. Deem and Ramdas Pophale) SiO2 
 PCOD8112562
Probable space group: C 2/M
;
_chemical_formula_sum "Si O2"
_cell_formula_units_Z 56
_cell_length_a 15.851182
_cell_length_b 18.009649
_cell_length_c 18.397304
_cell_angle_alpha 90.000000
_cell_angle_beta 30.810236
_cell_angle_gamma 90.000000
_cell_volume 2690.032535
_symmetry_space_group_name_H-M "C 2/M"
_symmetry_group_IT_number 12
_symmetry_cell_setting 'monoclinic'
loop_
_space_group_symop_operation_xyz
x,y,z
-x,y,-z
-x,-y,-z
x,-y,z
1/2+x,1/2+y,z
1/2-x,1/2+y,-z
1/2-x,1/2-y,-z
1/2+x,1/2-y,z
loop_
_atom_site_type_symbol
_atom_site_label
_atom_site_fract_x
_atom_site_fract_y
_atom_site_fract_z
Si Si1 0.008505 0.626108 0.634908
Si Si2 0.914981 0.589280 0.984179
Si Si3 0.924563 0.780205 0.480822
Si Si4 0.434776 0.331054 0.767786
Si Si5 0.165670 0.914196 0.846353
Si Si6 0.053883 0.313023 0.749710
Si Si7 0.692079 0.418605 0.669428
O O1 0.001633 0.701031 0.593703
O O2 0.131226 0.573020 0.500260
O O3 0.823158 0.596168 0.781349
O O4 0.079571 0.631611 0.663393
O O5 0.910258 0.500000 0.970227
O O6 0.009052 0.637134 0.852810
O O7 0.735870 0.626152 0.116047
O O8 0.000000 0.601967 0.000000
O O9 0.727910 0.772867 0.634660
O O10 0.000000 0.810729 0.500000
O O11 0.980048 0.832713 0.374115
O O12 0.421865 0.249566 0.817655
O O13 0.554734 0.376648 0.728247
O O14 0.210314 0.879529 0.734780
O O15 0.126593 0.000000 0.867425
O O16 0.000000 0.874368 0.000000
O O17 0.620224 0.500000 0.733909
#
# Coordination Sequence:
#
# PCOD8112562 Si02
#       7
#     8   8   8   8   8   8   8
#     4  11  21  39  62  94 128 166 213 264 322 385
#     4  11  26  47  67  94 134 179 225 274 333 396
#     4  11  21  40  67  94 129 164 212 272 328 387
#     4  11  22  43  65  98 130 169 220 272 331 394
#     4  10  23  39  57  89 131 170 210 255 312 392
#     4  11  23  43  67  98 128 166 222 273 331 392
#     4  11  21  37  62  90 129 172 212 264 328 389
#
# _framework density 20.817592000000001
#
# number of rings (size 3 to 8) (size 9 to 14) (size 15 to 20)
#    0.000    1.143    2.857    4.286    2.000    2.286 
#    0.000    0.000    0.000    3.000    0.000    0.000 
#    0.000    0.000    0.000    0.000    0.000    0.000 
#
# Total GULP energy -346906.122518 kJ/mol
# GULP energy per Si atom -12389.504376 kJ/mol
# Density = 2.077021 g / cm^3
# Si number density = 20.817592 Si / 1000 Ang^3
#
#
#
# Elastic Constant Matrix: (Units=GPa)
#
#
# Indices 1 2 3 4 5 6 
#
# 1 137.0015 41.7585 48.5867 -0.0056 1.6951 0.0002
# 2 41.7585 75.0594 40.9419 -0.0115 6.4044 0.0050
# 3 48.5867 40.9419 127.1308 0.0025 -6.9181 0.0074
# 4 -0.0056 -0.0115 0.0025 26.3047 0.0087 -5.2146
# 5 1.6951 6.4044 -6.9181 0.0087 33.1238 -0.0034
# 6 0.0002 0.0050 0.0074 -5.2146 -0.0034 31.7573
#
#
#
# Elastic Compliance Matrix: (Units=1/GPa)
#
#
# Indices 1 2 3 4 5 6 
#
# 1 0.009311 -0.003901 -0.002314 0.000001 -0.000205 0.000001
# 2 -0.003901 0.018413 -0.004675 0.000009 -0.004337 -0.000001
# 3 -0.002314 -0.004675 0.010430 -0.000005 0.003201 -0.000002
# 4 0.000001 0.000009 -0.000005 0.039295 -0.000012 0.006452
# 5 -0.000205 -0.004337 0.003201 -0.000012 0.031707 0.000001
# 6 0.000001 -0.000001 -0.000002 0.006452 0.000001 0.032548
#
#
# Mechanical properties :
#
#
# Convention : Reuss Voigt Hill
#
# Bulk Modulus (GPa) = 61.06698 66.86286 63.96492
# Shear Modulus (GPa) = 29.59600 32.09746 30.84673
#
# Velocity S-wave (km/s) = 3.77461 3.93089 3.85354
# Velocity P-wave (km/s) = 6.95665 7.26572 7.11286
#
# Compressibility (1/GPa) = 0.01637546
#
# Stress axis : x y z
#
# Youngs Moduli (GPa) = 107.39816 54.30943 95.87870
#
# Poissons Ratio (x) = 0.21184 0.22182
# Poissons Ratio (y) = 0.41893 0.44824
# Poissons Ratio (z) = 0.24847 0.25390
#
# Static dielectric constant tensor:
#      x y z
#    x 3.929640 -0.000010 0.214000 
#    y -0.000010 3.811550 0.000230 
#    z 0.214000 0.000230 3.244850 
# 
# 
# High freq. dielectric constant tensor:
#      x y z
#    x 1.829830 0.000000 0.003280 
#    y 0.000000 1.802450 0.000010 
#    z 0.003280 0.000010 1.819250 
# 
# From -- ./inp_files/272332.got.cif
#   From: 2010.06.25/outbox.cif.g09.slc.cpg/sg12_137_cif.got.tgz:272332.got - 2010.06.28 00:19:55.
