data_PCOD8112746
_publ_section_title
;
Structure prediction by ZEFSAII (Michael W. Deem and Ramdas Pophale) SiO2 
 PCOD8112746
Probable space group: C 2/M
;
_chemical_formula_sum "Si O2"
_cell_formula_units_Z 56
_cell_length_a 14.424848
_cell_length_b 16.745286
_cell_length_c 12.767040
_cell_angle_alpha 90.000000
_cell_angle_beta 61.889701
_cell_angle_gamma 90.000000
_cell_volume 2720.090736
_symmetry_space_group_name_H-M "C 2/M"
_symmetry_group_IT_number 12
_symmetry_cell_setting 'monoclinic'
loop_
_space_group_symop_operation_xyz
x,y,z
-x,y,-z
-x,-y,-z
x,-y,z
1/2+x,1/2+y,z
1/2-x,1/2+y,-z
1/2-x,1/2-y,-z
1/2+x,1/2-y,z
loop_
_atom_site_type_symbol
_atom_site_label
_atom_site_fract_x
_atom_site_fract_y
_atom_site_fract_z
Si Si1 0.425979 0.287547 0.140565
Si Si2 0.413820 0.794689 0.810433
Si Si3 0.391439 0.090906 0.002561
Si Si4 0.098108 0.588968 0.372487
Si Si5 0.734082 0.676569 0.210174
Si Si6 0.823751 0.907434 0.338576
Si Si7 0.377745 0.592767 0.542728
O O1 0.474653 0.228056 0.200261
O O2 0.315288 0.249636 0.169200
O O3 0.401090 0.370945 0.210239
O O4 0.500000 0.302018 0.000000
O O5 0.358084 0.852914 0.923844
O O6 0.428802 0.844700 0.697857
O O7 0.354544 0.711022 0.820843
O O8 0.405066 0.000000 0.957976
O O9 0.500000 0.120913 0.000000
O O10 0.293417 0.098400 0.133905
O O11 0.112876 0.500000 0.315181
O O12 0.202459 0.613778 0.380145
O O13 0.000000 0.587664 0.500000
O O14 0.686776 0.650692 0.346197
O O15 0.851591 0.876561 0.440077
O O16 0.847351 0.000000 0.320396
O O17 0.500000 0.604543 0.500000
O O18 0.344992 0.500000 0.575987
#
# Coordination Sequence:
#
# PCOD8112746 Si02
#       7
#     8   8   8   8   8   8   8
#     4  12  25  43  63  95 133 165 217 269 319 377
#     4  12  23  41  64  91 133 167 212 268 320 379
#     4  11  23  41  65  96 129 169 216 263 323 385
#     4  10  23  41  63  95 128 167 213 262 324 389
#     4  12  23  41  66  95 129 169 209 266 327 378
#     4  10  23  45  68  93 129 170 215 264 317 385
#     4  10  23  44  66  95 129 169 219 264 314 385
#
# _framework density 20.587548000000002
#
# number of rings (size 3 to 8) (size 9 to 14) (size 15 to 20)
#    0.000    1.000    4.286    2.143    2.000    2.571 
#    0.000    0.714    0.000    0.000    0.000    0.000 
#    0.000    0.000    0.000    0.000    0.000    0.000 
#
# Total GULP energy -347167.795078 kJ/mol
# GULP energy per Si atom -12398.849824 kJ/mol
# Density = 2.054069 g / cm^3
# Si number density = 20.587548 Si / 1000 Ang^3
#
#
#
# Elastic Constant Matrix: (Units=GPa)
#
#
# Indices 1 2 3 4 5 6 
#
# 1 83.6254 30.1505 48.1835 0.0000 12.7923 0.0000
# 2 30.1505 70.5323 53.6862 0.0000 3.2437 0.0000
# 3 48.1835 53.6862 131.5297 0.0000 -1.0087 0.0000
# 4 0.0000 0.0000 0.0000 43.8909 0.0000 8.3457
# 5 12.7923 3.2437 -1.0087 0.0000 31.0393 0.0000
# 6 0.0000 0.0000 0.0000 8.3457 0.0000 21.6198
#
#
#
# Elastic Compliance Matrix: (Units=1/GPa)
#
#
# Indices 1 2 3 4 5 6 
#
# 1 0.017025 -0.003156 -0.005001 0.000000 -0.006849 0.000000
# 2 -0.003156 0.021337 -0.007562 0.000000 -0.001175 0.000000
# 3 -0.005001 -0.007562 0.012546 0.000000 0.003259 0.000000
# 4 0.000000 0.000000 0.000000 0.024589 0.000000 -0.009492
# 5 -0.006849 -0.001175 0.003259 0.000000 0.035269 0.000000
# 6 0.000000 0.000000 0.000000 -0.009492 0.000000 0.049918
#
#
# Mechanical properties :
#
#
# Convention : Reuss Voigt Hill
#
# Bulk Modulus (GPa) = 51.36032 61.08087 56.22059
# Shear Modulus (GPa) = 25.17468 29.55450 27.36459
#
# Velocity S-wave (km/s) = 3.50066 3.79298 3.64975
# Velocity P-wave (km/s) = 6.42969 6.99396 6.71776
#
# Compressibility (1/GPa) = 0.01947029
#
# Stress axis : x y z
#
# Youngs Moduli (GPa) = 58.73572 46.86738 79.70382
#
# Poissons Ratio (x) = 0.14792 0.39862
# Poissons Ratio (y) = 0.18538 0.60271
# Poissons Ratio (z) = 0.29375 0.35440
#
# Static dielectric constant tensor:
#      x y z
#    x 3.864630 0.000000 0.080820 
#    y 0.000000 3.816610 0.000000 
#    z 0.080820 0.000000 3.796240 
# 
# 
# High freq. dielectric constant tensor:
#      x y z
#    x 1.813550 0.000000 0.003680 
#    y 0.000000 1.808710 0.000000 
#    z 0.003680 0.000000 1.804000 
# 
# From -- ./inp_files/146057.got.cif
#   From: 2010.06.25/outbox.cif.g09.slc.cpg/sg12_74_cif.got.tgz:146057.got - 2010.06.28 00:19:55.
