data_PCOD8112376
_publ_section_title
;
Structure prediction by ZEFSAII (Michael W. Deem and Ramdas Pophale) SiO2 
 PCOD8112376
Probable space group: C 2/M
;
_chemical_formula_sum "Si O2"
_cell_formula_units_Z 52
_cell_length_a 14.656130
_cell_length_b 17.855982
_cell_length_c 15.024757
_cell_angle_alpha 90.000000
_cell_angle_beta 41.191959
_cell_angle_gamma 90.000000
_cell_volume 2589.533817
_symmetry_space_group_name_H-M "C 2/M"
_symmetry_group_IT_number 12
_symmetry_cell_setting 'monoclinic'
loop_
_space_group_symop_operation_xyz
x,y,z
-x,y,-z
-x,-y,-z
x,-y,z
1/2+x,1/2+y,z
1/2-x,1/2+y,-z
1/2-x,1/2-y,-z
1/2+x,1/2-y,z
loop_
_atom_site_type_symbol
_atom_site_label
_atom_site_fract_x
_atom_site_fract_y
_atom_site_fract_z
Si Si1 0.771694 0.336966 0.999651
Si Si2 0.336269 0.083327 0.612160
Si Si3 0.237224 0.734162 0.406627
Si Si4 0.000000 0.165133 0.500000
Si Si5 0.941701 0.319583 0.136213
Si Si6 0.705143 0.411889 0.226755
Si Si7 0.650419 0.586609 0.916455
O O1 0.691948 0.366251 0.144896
O O2 0.750000 0.250000 0.000000
O O3 0.709264 0.377525 0.961548
O O4 0.934729 0.354178 0.894952
O O5 0.500000 0.088380 0.500000
O O6 0.284033 0.144803 0.581096
O O7 0.265702 0.102316 0.757737
O O8 0.291970 0.000000 0.612088
O O9 0.250000 0.750000 0.500000
O O10 0.369653 0.755703 0.248924
O O11 0.107821 0.779739 0.466024
O O12 0.066095 0.109183 0.380297
O O13 0.837840 0.386978 0.187822
O O14 0.000000 0.284427 0.000000
O O15 0.714545 0.500000 0.201503
O O16 0.630815 0.500000 0.951283
O O17 0.500000 0.620561 0.000000
#
# Coordination Sequence:
#
# PCOD8112376 Si02
#       7
#     8   8   8   4   8   8   8
#     4  11  25  36  66  96 128 164 215 263 319 380
#     4  10  23  42  65  91 128 171 213 266 327 384
#     4  11  24  39  67  94 129 169 216 264 326 385
#     4  10  23  42  63  96 130 172 212 266 315 392
#     4   9  23  41  61  96 124 169 213 266 323 382
#     4  10  22  43  67  94 129 170 215 266 324 378
#     4  10  24  42  63  92 128 170 211 264 324 385
#
# _framework density 20.080835
#
# number of rings (size 3 to 8) (size 9 to 14) (size 15 to 20)
#    0.000    1.846    0.769    0.692   12.923    3.385 
#    0.000    5.385    0.000    0.000    0.000    0.000 
#    0.000    0.000    0.000    0.000    0.000    0.000 
#
# Total GULP energy -322368.951057 kJ/mol
# GULP energy per Si atom -12398.805810 kJ/mol
# Density = 2.003513 g / cm^3
# Si number density = 20.080835 Si / 1000 Ang^3
#
#
#
# Elastic Constant Matrix: (Units=GPa)
#
#
# Indices 1 2 3 4 5 6 
#
# 1 140.6739 49.0101 68.9901 0.0008 11.8844 -0.0001
# 2 49.0101 120.7995 60.6773 0.0002 22.4461 0.0000
# 3 68.9901 60.6773 165.3794 0.0022 1.4976 -0.0007
# 4 0.0008 0.0002 0.0022 90.9599 -0.0014 -0.5800
# 5 11.8844 22.4461 1.4976 -0.0014 29.2918 0.0003
# 6 -0.0001 0.0000 -0.0007 -0.5800 0.0003 33.7776
#
#
#
# Elastic Compliance Matrix: (Units=1/GPa)
#
#
# Indices 1 2 3 4 5 6 
#
# 1 0.009549 -0.001776 -0.003311 0.000000 -0.002344 0.000000
# 2 -0.001776 0.012501 -0.003768 0.000000 -0.008667 0.000000
# 3 -0.003311 -0.003768 0.008776 0.000000 0.003782 0.000000
# 4 0.000000 0.000000 0.000000 0.010995 0.000001 0.000189
# 5 -0.002344 -0.008667 0.003782 0.000001 0.041538 0.000000
# 6 0.000000 0.000000 0.000000 0.000189 0.000000 0.029609
#
#
# Mechanical properties :
#
#
# Convention : Reuss Voigt Hill
#
# Bulk Modulus (GPa) = 76.22841 87.13420 81.68131
# Shear Modulus (GPa) = 37.02362 47.35088 42.18725
#
# Velocity S-wave (km/s) = 4.29852 4.86121 4.58850
# Velocity P-wave (km/s) = 7.91705 8.65993 8.29681
#
# Compressibility (1/GPa) = 0.01311847
#
# Stress axis : x y z
#
# Youngs Moduli (GPa) = 104.72300 79.99136 113.94820
#
# Poissons Ratio (x) = 0.14203 0.37726
# Poissons Ratio (y) = 0.18594 0.42931
# Poissons Ratio (z) = 0.34672 0.30137
#
# Static dielectric constant tensor:
#      x y z
#    x 4.405610 -0.000010 -0.445000 
#    y -0.000010 3.531390 0.000000 
#    z -0.445000 0.000000 4.160210 
# 
# 
# High freq. dielectric constant tensor:
#      x y z
#    x 1.782160 0.000000 -0.005970 
#    y 0.000000 1.787630 0.000000 
#    z -0.005970 0.000000 1.799750 
# 
# From -- ./inp_files/216717.got.cif
#   From: 2010.06.25/outbox.cif.g09.slc.cpg/sg12_109_cif.got.tgz:216717.got - 2010.06.28 00:19:55.
