data_PCOD8112642
_publ_section_title
;
Structure prediction by ZEFSAII (Michael W. Deem and Ramdas Pophale) SiO2 
 PCOD8112642
Probable space group: C 2/M
;
_chemical_formula_sum "Si O2"
_cell_formula_units_Z 32
_cell_length_a 13.513068
_cell_length_b 5.287848
_cell_length_c 20.566018
_cell_angle_alpha 90.000000
_cell_angle_beta 70.820340
_cell_angle_gamma 90.000000
_cell_volume 1387.975841
_symmetry_space_group_name_H-M "C 2/M"
_symmetry_group_IT_number 12
_symmetry_cell_setting 'monoclinic'
loop_
_space_group_symop_operation_xyz
x,y,z
-x,y,-z
-x,-y,-z
x,-y,z
1/2+x,1/2+y,z
1/2-x,1/2+y,-z
1/2-x,1/2-y,-z
1/2+x,1/2-y,z
loop_
_atom_site_type_symbol
_atom_site_label
_atom_site_fract_x
_atom_site_fract_y
_atom_site_fract_z
Si Si1 0.820696 0.500000 0.000000
Si Si2 0.908374 0.000000 0.759342
Si Si3 0.096277 0.000000 0.394463
Si Si4 0.552692 0.000000 0.894616
Si Si5 0.332287 0.000000 0.759342
Si Si6 0.598188 0.500000 0.803625
Si Si7 0.272933 0.000000 0.454128
Si Si8 0.990747 0.500000 0.605538
O O1 0.928566 0.500000 0.935958
O O2 0.750000 0.250000 0.000000
O O3 0.864523 0.500000 0.064042
O O4 0.850049 0.250000 0.799904
O O5 0.893755 0.000000 0.685182
O O6 0.029515 0.000000 0.752994
O O7 0.034252 0.750000 0.431485
O O8 0.209605 0.000000 0.401180
O O9 0.575080 0.252136 0.849842
O O10 0.217494 0.000000 0.752994
O O11 0.421066 0.000000 0.685182
O O12 0.250000 0.250000 0.500000
O O13 0.389209 0.000000 0.401176
#
# Coordination Sequence:
#
# PCOD8112642 Si02
#       8
#     4   4   4   4   4   4   4   4
#     4  11  24  45  70  94 134 181 218 263 330 378
#     4  10  23  40  63  93 127 171 213 257 322 388
#     4  10  23  42  65  91 126 165 209 261 325 391
#     4  11  26  42  65 102 133 171 222 269 316 385
#     4  10  23  40  63  93 127 171 213 257 322 388
#     4  12  24  41  65  98 136 165 217 275 316 377
#     4  12  26  42  66  96 125 164 215 273 324 377
#     4  10  23  42  65  91 126 165 209 261 325 391
#
# _framework density 23.055154000000002
#
# number of rings (size 3 to 8) (size 9 to 14) (size 15 to 20)
#    0.000    1.250    0.000    4.500    0.000   19.000 
#    0.000    0.000    0.000    0.000    0.000    0.000 
#    0.000    0.000    0.000    0.000    0.000    0.000 
#
# Total GULP energy -198275.479758 kJ/mol
# GULP energy per Si atom -12392.217485 kJ/mol
# Density = 2.300268 g / cm^3
# Si number density = 23.055154 Si / 1000 Ang^3
#
#
#
# Elastic Constant Matrix: (Units=GPa)
#
#
# Indices 1 2 3 4 5 6 
#
# 1 253.2067 92.2501 58.0964 0.0004 -6.0018 0.0002
# 2 92.2501 268.3960 32.8896 0.0010 -3.3016 0.0013
# 3 58.0964 32.8896 77.6584 0.0002 -3.7657 0.0003
# 4 0.0004 0.0010 0.0002 7.1048 0.0000 -2.1038
# 5 -6.0018 -3.3016 -3.7657 0.0000 43.7453 0.0007
# 6 0.0002 0.0013 0.0003 -2.1038 0.0007 44.9101
#
#
#
# Elastic Compliance Matrix: (Units=1/GPa)
#
#
# Indices 1 2 3 4 5 6 
#
# 1 0.005219 -0.001385 -0.003302 0.000000 0.000327 0.000000
# 2 -0.001385 0.004298 -0.000781 -0.000001 0.000067 0.000000
# 3 -0.003302 -0.000781 0.015719 0.000000 0.000841 0.000000
# 4 0.000000 -0.000001 0.000000 0.142729 0.000000 0.006686
# 5 0.000327 0.000067 0.000841 0.000000 0.022982 0.000000
# 6 0.000000 0.000000 0.000000 0.006686 0.000000 0.022580
#
#
# Mechanical properties :
#
#
# Convention : Reuss Voigt Hill
#
# Bulk Modulus (GPa) = 69.92967 107.30369 88.61668
# Shear Modulus (GPa) = 21.81209 46.88705 34.34957
#
# Velocity S-wave (km/s) = 3.07918 4.51454 3.86409
# Velocity P-wave (km/s) = 6.56042 8.59174 7.64386
#
# Compressibility (1/GPa) = 0.01430008
#
# Stress axis : x y z
#
# Youngs Moduli (GPa) = 191.59111 232.63966 63.61838
#
# Poissons Ratio (x) = 0.32228 0.21008
# Poissons Ratio (y) = 0.26541 0.04968
# Poissons Ratio (z) = 0.63266 0.18166
#
# Static dielectric constant tensor:
#      x y z
#    x 4.488930 0.000000 -0.041680 
#    y 0.000000 5.683940 0.000000 
#    z -0.041680 0.000000 3.740090 
# 
# 
# High freq. dielectric constant tensor:
#      x y z
#    x 1.932310 0.000000 -0.002780 
#    y 0.000000 1.955080 0.000000 
#    z -0.002780 0.000000 1.882350 
# 
# From -- ./inp_files/334424.got.cif
#   From: 2010.06.25/outbox.cif.g09.slc.cpg/sg12_168_cif.got.tgz:334424.got - 2010.06.28 00:19:55.
