data_PCOD8112324
_publ_section_title
;
Structure prediction by ZEFSAII (Michael W. Deem and Ramdas Pophale) SiO2 
 PCOD8112324
Probable space group: C 2/M
;
_chemical_formula_sum "Si O2"
_cell_formula_units_Z 36
_cell_length_a 21.825603
_cell_length_b 13.538321
_cell_length_c 9.131205
_cell_angle_alpha 90.000000
_cell_angle_beta 140.165593
_cell_angle_gamma 90.000000
_cell_volume 1728.328896
_symmetry_space_group_name_H-M "C 2/M"
_symmetry_group_IT_number 12
_symmetry_cell_setting 'monoclinic'
loop_
_space_group_symop_operation_xyz
x,y,z
-x,y,-z
-x,-y,-z
x,-y,z
1/2+x,1/2+y,z
1/2-x,1/2+y,-z
1/2-x,1/2-y,-z
1/2+x,1/2-y,z
loop_
_atom_site_type_symbol
_atom_site_label
_atom_site_fract_x
_atom_site_fract_y
_atom_site_fract_z
Si Si1 0.766518 0.500000 0.379948
Si Si2 0.993279 0.183563 0.324120
Si Si3 0.666219 0.186005 0.670384
Si Si4 0.540053 0.500000 0.917581
Si Si5 0.167313 0.325705 0.005266
Si Si6 0.605685 0.000000 0.108572
O O1 0.808679 0.599424 0.392329
O O2 0.803774 0.500000 0.615639
O O3 0.654230 0.500000 0.139658
O O4 0.061475 0.278223 0.430974
O O5 0.000000 0.140842 0.500000
O O6 0.009996 0.093322 0.248469
O O7 0.888875 0.222845 0.093604
O O8 0.726950 0.287502 0.758933
O O9 0.668316 0.138411 0.837638
O O10 0.500000 0.500000 0.000000
O O11 0.120866 0.405106 0.030685
O O12 0.500000 0.000000 0.000000
#
# Coordination Sequence:
#
# PCOD8112324 Si02
#       6
#     4   8   8   4   8   4
#     4  12  25  44  65 101 132 176 213 268 335 393
#     4  10  22  43  69  95 124 169 220 271 325 382
#     4  10  22  42  72  94 126 167 226 278 322 379
#     4  12  27  42  60  97 139 172 211 264 332 403
#     4  10  22  43  66  97 126 171 223 275 321 383
#     4  12  27  42  64  98 140 178 217 264 337 406
#
# _framework density 20.829369
#
# number of rings (size 3 to 8) (size 9 to 14) (size 15 to 20)
#    0.000    1.333    2.222    2.333    3.111    3.556 
#    0.000    4.444    0.000    0.000    0.000    0.000 
#    0.000    0.000    0.000    0.000    0.000    0.000 
#
# Total GULP energy -223015.126689 kJ/mol
# GULP energy per Si atom -12389.729260 kJ/mol
# Density = 2.078196 g / cm^3
# Si number density = 20.829369 Si / 1000 Ang^3
#
#
#
# Elastic Constant Matrix: (Units=GPa)
#
#
# Indices 1 2 3 4 5 6 
#
# 1 123.8921 58.4260 32.1979 0.0000 -19.4281 0.0000
# 2 58.4260 95.9598 35.8687 0.0000 -29.6294 0.0000
# 3 32.1979 35.8687 90.0444 0.0000 -15.3667 0.0000
# 4 0.0000 0.0000 0.0000 588.8103 0.0000 -164.8693
# 5 -19.4281 -29.6294 -15.3667 0.0000 33.7708 0.0000
# 6 0.0000 0.0000 0.0000 -164.8693 0.0000 100.1541
#
#
#
# Elastic Compliance Matrix: (Units=1/GPa)
#
#
# Indices 1 2 3 4 5 6 
#
# 1 0.011509 -0.006316 -0.001534 0.000000 0.000381 0.000000
# 2 -0.006316 0.019108 -0.003374 0.000000 0.011596 0.000000
# 3 -0.001534 -0.003374 0.013382 0.000000 0.002246 0.000000
# 4 0.000000 0.000000 0.000000 0.003151 0.000000 0.005186
# 5 0.000381 0.011596 0.002246 0.000000 0.041027 0.000000
# 6 0.000000 0.000000 0.000000 0.005186 0.000000 0.018522
#
#
# Mechanical properties :
#
#
# Convention : Reuss Voigt Hill
#
# Bulk Modulus (GPa) = 46.40439 62.54239 54.47339
# Shear Modulus (GPa) = 36.67579 156.77396 96.72487
#
# Velocity S-wave (km/s) = 4.20071 8.68500 6.82185
# Velocity P-wave (km/s) = 6.77161 11.43082 9.39463
#
# Compressibility (1/GPa) = 0.02154968
#
# Stress axis : x y z
#
# Youngs Moduli (GPa) = 86.89199 52.33334 74.72909
#
# Poissons Ratio (x) = 0.33053 0.11465
# Poissons Ratio (y) = 0.54880 0.25216
# Poissons Ratio (z) = 0.13331 0.17659
#
# Static dielectric constant tensor:
#      x y z
#    x 3.850620 0.000000 -0.074770 
#    y 0.000000 3.531450 0.000000 
#    z -0.074770 0.000000 3.631250 
# 
# 
# High freq. dielectric constant tensor:
#      x y z
#    x 1.818190 0.000000 0.006430 
#    y 0.000000 1.815360 0.000000 
#    z 0.006430 0.000000 1.829730 
# 
# From -- ./inp_files/86453.got.cif
#   From: 2010.06.25/outbox.cif.g09.slc.cpg/sg12_44_cif.got.tgz:86453.got - 2010.06.28 00:19:55.
