data_PCOD8112108
_publ_section_title
;
Structure prediction by ZEFSAII (Michael W. Deem and Ramdas Pophale) SiO2 
 PCOD8112108
Probable space group: C 2/M
;
_chemical_formula_sum "Si O2"
_cell_formula_units_Z 48
_cell_length_a 7.794666
_cell_length_b 30.792017
_cell_length_c 8.110464
_cell_angle_alpha 90.000000
_cell_angle_beta 91.025926
_cell_angle_gamma 90.000000
_cell_volume 1946.308702
_symmetry_space_group_name_H-M "C 2/M"
_symmetry_group_IT_number 12
_symmetry_cell_setting 'monoclinic'
loop_
_space_group_symop_operation_xyz
x,y,z
-x,y,-z
-x,-y,-z
x,-y,z
1/2+x,1/2+y,z
1/2-x,1/2+y,-z
1/2-x,1/2-y,-z
1/2+x,1/2-y,z
loop_
_atom_site_type_symbol
_atom_site_label
_atom_site_fract_x
_atom_site_fract_y
_atom_site_fract_z
Si Si1 0.199044 0.585951 0.674235
Si Si2 0.048369 0.263469 0.310965
Si Si3 0.875215 0.185538 0.194492
Si Si4 0.953622 0.908943 0.185847
Si Si5 0.843828 0.329760 0.115035
Si Si6 0.353006 0.950514 0.675388
O O1 0.387036 0.567213 0.721263
O O2 0.195186 0.634544 0.746345
O O3 0.179221 0.582757 0.476540
O O4 0.042941 0.558316 0.752425
O O5 0.223208 0.290069 0.291469
O O6 0.000000 0.261724 0.500000
O O7 0.046796 0.214615 0.232005
O O8 0.894051 0.286006 0.208524
O O9 0.908213 0.137579 0.269035
O O10 0.824448 0.179860 0.000267
O O11 0.789400 0.940587 0.189649
O O12 0.000000 0.900389 0.000000
O O13 0.000000 0.345940 0.000000
O O14 0.339412 0.000000 0.613899
#
# Coordination Sequence:
#
# PCOD8112108 Si02
#       6
#     8   8   8   8   8   8
#     4  11  24  45  80 106 151 195 248 301 378 448
#     4  11  25  41  68 104 147 197 259 317 369 429
#     4  11  25  46  66 104 152 198 255 307 376 440
#     4  12  27  47  76 113 152 198 252 304 378 454
#     4  10  22  41  69 101 147 198 250 307 370 435
#     4  11  27  51  79 116 150 190 245 310 388 460
#
# _framework density 24.662068999999999
#
# number of rings (size 3 to 8) (size 9 to 14) (size 15 to 20)
#    0.000    1.000    1.667    4.500    7.000    5.667 
#    0.000    0.833    0.000    0.000    0.000    0.000 
#    0.000    0.000    0.000    0.000    0.000    0.000 
#
# Total GULP energy -297545.343209 kJ/mol
# GULP energy per Si atom -12397.722634 kJ/mol
# Density = 2.460594 g / cm^3
# Si number density = 24.662069 Si / 1000 Ang^3
#
#
#
# Elastic Constant Matrix: (Units=GPa)
#
#
# Indices 1 2 3 4 5 6 
#
# 1 168.3245 44.8736 32.0054 0.0000 10.7072 0.0000
# 2 44.8736 113.3108 52.0815 0.0000 -6.2855 0.0000
# 3 32.0054 52.0815 90.4701 0.0000 -6.7111 0.0000
# 4 0.0000 0.0000 0.0000 17.4138 0.0000 3.0725
# 5 10.7072 -6.2855 -6.7111 0.0000 34.4626 0.0000
# 6 0.0000 0.0000 0.0000 3.0725 0.0000 28.1296
#
#
#
# Elastic Compliance Matrix: (Units=1/GPa)
#
#
# Indices 1 2 3 4 5 6 
#
# 1 0.006996 -0.002304 -0.001361 0.000000 -0.002859 0.000000
# 2 -0.002304 0.012784 -0.006411 0.000000 0.001799 0.000000
# 3 -0.001361 -0.006411 0.015392 0.000000 0.002251 0.000000
# 4 0.000000 0.000000 0.000000 0.058554 0.000000 -0.006396
# 5 -0.002859 0.001799 0.002251 0.000000 0.030672 0.000000
# 6 0.000000 0.000000 0.000000 -0.006396 0.000000 0.036248
#
#
# Mechanical properties :
#
#
# Convention : Reuss Voigt Hill
#
# Bulk Modulus (GPa) = 66.57223 70.00292 68.28758
# Shear Modulus (GPa) = 26.91008 32.21086 29.56047
#
# Velocity S-wave (km/s) = 3.30684 3.61791 3.46587
# Velocity P-wave (km/s) = 6.45234 6.77487 6.61557
#
# Compressibility (1/GPa) = 0.01502128
#
# Stress axis : x y z
#
# Youngs Moduli (GPa) = 142.94748 78.22222 64.96673
#
# Poissons Ratio (x) = 0.18019 0.08841
# Poissons Ratio (y) = 0.32928 0.41651
# Poissons Ratio (z) = 0.19452 0.50149
#
# Static dielectric constant tensor:
#      x y z
#    x 5.296870 0.000000 0.131210 
#    y 0.000000 4.231420 0.000000 
#    z 0.131210 0.000000 4.181310 
# 
# 
# High freq. dielectric constant tensor:
#      x y z
#    x 2.016430 0.000000 -0.008160 
#    y 0.000000 1.965500 0.000000 
#    z -0.008160 0.000000 1.966570 
# 
# From -- ./inp_files/42206.got.cif
#   From: 2010.06.25/outbox.cif.g09.slc.cpg/sg12_22_cif.got.tgz:42206.got - 2010.06.28 00:19:55.
