data_PCOD8112545
_publ_section_title
;
Structure prediction by ZEFSAII (Michael W. Deem and Ramdas Pophale) SiO2 
 PCOD8112545
Probable space group: C 2/M
;
_chemical_formula_sum "Si O2"
_cell_formula_units_Z 52
_cell_length_a 19.264572
_cell_length_b 16.989676
_cell_length_c 8.726041
_cell_angle_alpha 90.000000
_cell_angle_beta 55.035515
_cell_angle_gamma 90.000000
_cell_volume 2340.532096
_symmetry_space_group_name_H-M "C 2/M"
_symmetry_group_IT_number 12
_symmetry_cell_setting 'monoclinic'
loop_
_space_group_symop_operation_xyz
x,y,z
-x,y,-z
-x,-y,-z
x,-y,z
1/2+x,1/2+y,z
1/2-x,1/2+y,-z
1/2-x,1/2-y,-z
1/2+x,1/2-y,z
loop_
_atom_site_type_symbol
_atom_site_label
_atom_site_fract_x
_atom_site_fract_y
_atom_site_fract_z
Si Si1 0.589676 0.179869 0.330664
Si Si2 0.246551 0.848608 0.726730
Si Si3 0.000000 0.793666 0.000000
Si Si4 0.407614 0.412316 0.926166
Si Si5 0.595836 0.642399 0.388400
Si Si6 0.852778 0.699397 0.086026
Si Si7 0.742905 0.590818 0.404509
O O1 0.500000 0.142461 0.500000
O O2 0.666104 0.126223 0.299923
O O3 0.596615 0.264076 0.405490
O O4 0.597852 0.187398 0.136625
O O5 0.224524 0.761765 0.822483
O O6 0.258368 0.852278 0.529455
O O7 0.169712 0.908826 0.856170
O O8 0.918927 0.737084 0.125171
O O9 0.016778 0.851032 0.125409
O O10 0.445616 0.500000 0.875335
O O11 0.363798 0.385721 0.823226
O O12 0.500000 0.608964 0.500000
O O13 0.648203 0.602725 0.459169
O O14 0.814147 0.616808 0.190371
O O15 0.757924 0.500000 0.427329
#
# Coordination Sequence:
#
# PCOD8112545 Si02
#       7
#     8   8   4   8   8   8   8
#     4  11  23  41  72 102 128 170 234 285 326 392
#     4  11  23  42  68  96 131 178 225 274 325 403
#     4  10  23  38  67 102 126 170 222 274 325 394
#     4  11  23  40  64  96 141 179 215 268 337 406
#     4  11  24  40  64  97 138 177 219 271 336 402
#     4  11  23  43  70  98 131 177 226 276 335 398
#     4  12  27  43  66  98 136 180 224 277 341 399
#
# _framework density 22.217172000000001
#
# number of rings (size 3 to 8) (size 9 to 14) (size 15 to 20)
#    0.000    0.923    4.615    3.000    6.462    1.231 
#    0.000    1.154    0.000    2.308    0.000    0.000 
#    0.000    0.000    0.000    0.000    0.000    0.000 
#
# Total GULP energy -322351.252822 kJ/mol
# GULP energy per Si atom -12398.125109 kJ/mol
# Density = 2.216660 g / cm^3
# Si number density = 22.217172 Si / 1000 Ang^3
#
#
#
# Elastic Constant Matrix: (Units=GPa)
#
#
# Indices 1 2 3 4 5 6 
#
# 1 150.0424 27.7376 43.1133 0.0000 -7.9575 0.0000
# 2 27.7376 65.3747 18.1082 0.0000 -0.3352 0.0000
# 3 43.1133 18.1082 111.0367 0.0000 -0.8822 0.0000
# 4 0.0000 0.0000 0.0000 23.2883 0.0000 -3.9960
# 5 -7.9575 -0.3352 -0.8822 0.0000 38.0004 0.0000
# 6 0.0000 0.0000 0.0000 -3.9960 0.0000 14.7136
#
#
#
# Elastic Compliance Matrix: (Units=1/GPa)
#
#
# Indices 1 2 3 4 5 6 
#
# 1 0.008004 -0.002650 -0.002663 0.000000 0.001591 0.000000
# 2 -0.002650 0.016898 -0.001730 0.000000 -0.000446 0.000000
# 3 -0.002663 -0.001730 0.010320 0.000000 -0.000333 0.000000
# 4 0.000000 0.000000 0.000000 0.045039 0.000000 0.012232
# 5 0.001591 -0.000446 -0.000333 0.000000 0.026637 0.000000
# 6 0.000000 0.000000 0.000000 0.012232 0.000000 0.071286
#
#
# Mechanical properties :
#
#
# Convention : Reuss Voigt Hill
#
# Bulk Modulus (GPa) = 47.31587 56.04135 51.67861
# Shear Modulus (GPa) = 25.08578 31.03344 28.05961
#
# Velocity S-wave (km/s) = 3.36388 3.74146 3.55768
# Velocity P-wave (km/s) = 6.03579 6.62901 6.33935
#
# Compressibility (1/GPa) = 0.02113456
#
# Stress axis : x y z
#
# Youngs Moduli (GPa) = 124.93255 59.17894 96.90334
#
# Poissons Ratio (x) = 0.15684 0.25806
# Poissons Ratio (y) = 0.33111 0.16766
# Poissons Ratio (z) = 0.33270 0.10239
#
# Static dielectric constant tensor:
#      x y z
#    x 4.082380 0.000000 -0.076510 
#    y 0.000000 3.602590 0.000000 
#    z -0.076510 0.000000 4.056550 
# 
# 
# High freq. dielectric constant tensor:
#      x y z
#    x 1.880730 0.000000 0.000130 
#    y 0.000000 1.837220 0.000000 
#    z 0.000130 0.000000 1.876120 
# 
# From -- ./inp_files/75764.got.cif
#   From: 2010.06.25/outbox.cif.g09.slc.cpg/sg12_38_cif.got.tgz:75764.got - 2010.06.28 00:19:55.
