data_PCOD8112568
_publ_section_title
;
Structure prediction by ZEFSAII (Michael W. Deem and Ramdas Pophale) SiO2 
 PCOD8112568
Probable space group: C 2/M
;
_chemical_formula_sum "Si O2"
_cell_formula_units_Z 60
_cell_length_a 8.635226
_cell_length_b 33.436508
_cell_length_c 10.658180
_cell_angle_alpha 90.000000
_cell_angle_beta 71.975247
_cell_angle_gamma 90.000000
_cell_volume 2926.327924
_symmetry_space_group_name_H-M "C 2/M"
_symmetry_group_IT_number 12
_symmetry_cell_setting 'monoclinic'
loop_
_space_group_symop_operation_xyz
x,y,z
-x,y,-z
-x,-y,-z
x,-y,z
1/2+x,1/2+y,z
1/2-x,1/2+y,-z
1/2-x,1/2-y,-z
1/2+x,1/2-y,z
loop_
_atom_site_type_symbol
_atom_site_label
_atom_site_fract_x
_atom_site_fract_y
_atom_site_fract_z
Si Si1 0.000000 0.758666 0.500000
Si Si2 0.019883 0.772271 0.141394
Si Si3 0.836665 0.044779 0.384730
Si Si4 0.131877 0.302639 0.861755
Si Si5 0.709310 0.544702 0.315558
Si Si6 0.874037 0.613008 0.637778
Si Si7 0.233630 0.801590 0.633427
Si Si8 0.068331 0.387217 0.841463
O O1 0.888286 0.788219 0.446950
O O2 0.880769 0.730397 0.612243
O O3 0.202338 0.782653 0.130953
O O4 0.956384 0.728745 0.212455
O O5 0.884953 0.804476 0.216100
O O6 0.000000 0.766347 0.000000
O O7 0.792555 0.056184 0.538245
O O8 0.757926 0.077905 0.315599
O O9 0.027417 0.046511 0.309215
O O10 0.772064 0.000000 0.370094
O O11 0.172662 0.346089 0.794464
O O12 0.000000 0.313182 0.000000
O O13 0.780194 0.500000 0.279344
O O14 0.818036 0.575000 0.209679
O O15 0.803295 0.654246 0.598866
O O16 0.000000 0.598352 0.500000
O O17 0.934010 0.616718 0.765705
O O18 0.000000 0.391997 0.000000
#
# Coordination Sequence:
#
# PCOD8112568 Si02
#       8
#     4   8   8   8   8   8   8   8
#     4  10  24  44  60  86 128 172 204 274 324 374
#     4  11  23  39  65  88 117 168 214 266 311 380
#     4   9  20  41  69 100 127 160 210 263 310 380
#     4  10  23  39  59  87 124 168 213 258 310 375
#     4   9  19  41  70  98 129 164 206 254 319 386
#     4  12  25  41  65  98 127 168 218 267 309 382
#     4  11  25  41  63  92 128 164 216 264 328 376
#     4  11  26  42  62  93 136 169 208 265 319 378
#
# _framework density 20.503511
#
# number of rings (size 3 to 8) (size 9 to 14) (size 15 to 20)
#    0.000    1.600    2.000    3.200    9.333    3.200 
#    0.000    0.667    0.000    1.600    0.000    0.000 
#    0.000    0.000    0.000    0.000    0.000    0.000 
#
# Total GULP energy -371674.149953 kJ/mol
# GULP energy per Si atom -12389.138332 kJ/mol
# Density = 2.045684 g / cm^3
# Si number density = 20.503511 Si / 1000 Ang^3
#
#
#
# Elastic Constant Matrix: (Units=GPa)
#
#
# Indices 1 2 3 4 5 6 
#
# 1 124.8042 80.7882 44.1460 0.0000 3.1903 0.0000
# 2 80.7882 156.6919 34.2231 0.0000 3.0460 0.0000
# 3 44.1460 34.2231 71.4253 0.0000 -0.7650 0.0000
# 4 0.0000 0.0000 0.0000 10.1197 0.0000 -7.3141
# 5 3.1903 3.0460 -0.7650 0.0000 33.6326 0.0000
# 6 0.0000 0.0000 0.0000 -7.3141 0.0000 42.4877
#
#
#
# Elastic Compliance Matrix: (Units=1/GPa)
#
#
# Indices 1 2 3 4 5 6 
#
# 1 0.013884 -0.005880 -0.005774 0.000000 -0.000916 0.000000
# 2 -0.005880 0.009635 -0.000986 0.000000 -0.000337 0.000000
# 3 -0.005774 -0.000986 0.018053 0.000000 0.001048 0.000000
# 4 0.000000 0.000000 0.000000 0.112859 0.000000 0.019428
# 5 -0.000916 -0.000337 0.001048 0.000000 0.029874 0.000000
# 6 0.000000 0.000000 0.000000 0.019428 0.000000 0.026881
#
#
# Mechanical properties :
#
#
# Convention : Reuss Voigt Hill
#
# Bulk Modulus (GPa) = 61.37673 74.58180 67.97927
# Shear Modulus (GPa) = 20.66985 30.16561 25.41773
#
# Velocity S-wave (km/s) = 3.17852 3.83984 3.52472
# Velocity P-wave (km/s) = 6.59321 7.49088 7.05633
#
# Compressibility (1/GPa) = 0.01629282
#
# Stress axis : x y z
#
# Youngs Moduli (GPa) = 72.02303 103.78384 55.39152
#
# Poissons Ratio (x) = 0.61022 0.31984
# Poissons Ratio (y) = 0.42347 0.05463
# Poissons Ratio (z) = 0.41587 0.10236
#
# Static dielectric constant tensor:
#      x y z
#    x 3.837760 0.000000 -0.150300 
#    y 0.000000 3.950380 0.000000 
#    z -0.150300 0.000000 3.692190 
# 
# 
# High freq. dielectric constant tensor:
#      x y z
#    x 1.808640 0.000000 -0.006080 
#    y 0.000000 1.810410 0.000000 
#    z -0.006080 0.000000 1.785140 
# 
# From -- ./inp_files/125699.got.cif
#   From: 2010.06.25/outbox.cif.g09.slc.cpg/sg12_63_cif.got.tgz:125699.got - 2010.06.28 00:19:55.
