data_PCOD8112475
_publ_section_title
;
Structure prediction by ZEFSAII (Michael W. Deem and Ramdas Pophale) SiO2 
 PCOD8112475
Probable space group: C 2/M
;
_chemical_formula_sum "Si O2"
_cell_formula_units_Z 56
_cell_length_a 9.917802
_cell_length_b 14.654750
_cell_length_c 23.583394
_cell_angle_alpha 90.000000
_cell_angle_beta 129.159252
_cell_angle_gamma 90.000000
_cell_volume 2657.801054
_symmetry_space_group_name_H-M "C 2/M"
_symmetry_group_IT_number 12
_symmetry_cell_setting 'monoclinic'
loop_
_space_group_symop_operation_xyz
x,y,z
-x,y,-z
-x,-y,-z
x,-y,z
1/2+x,1/2+y,z
1/2-x,1/2+y,-z
1/2-x,1/2-y,-z
1/2+x,1/2-y,z
loop_
_atom_site_type_symbol
_atom_site_label
_atom_site_fract_x
_atom_site_fract_y
_atom_site_fract_z
Si Si1 0.697599 0.257816 0.787573
Si Si2 0.466853 0.399874 0.332818
Si Si3 0.040259 0.398277 0.673687
Si Si4 0.345467 0.650815 0.421022
Si Si5 0.593041 0.248671 0.885025
Si Si6 0.153566 0.642524 0.578770
Si Si7 0.345063 0.607575 0.003846
O O1 0.584401 0.342270 0.735702
O O2 0.611770 0.163648 0.743651
O O3 0.700200 0.262511 0.855988
O O4 0.892897 0.269585 0.816712
O O5 0.381187 0.500000 0.306818
O O6 0.399570 0.348285 0.370095
O O7 0.673747 0.413226 0.388978
O O8 0.112145 0.500000 0.703164
O O9 0.831543 0.403876 0.616949
O O10 0.108866 0.360286 0.632819
O O11 0.500000 0.606538 0.500000
O O12 0.312621 0.754036 0.432065
O O13 0.602300 0.341798 0.924052
O O14 0.671389 0.159102 0.936482
O O15 0.000000 0.599198 0.500000
O O16 0.306220 0.500000 0.004466
O O17 0.500000 0.619155 0.000000
#
# Coordination Sequence:
#
# PCOD8112475 Si02
#       7
#     8   8   8   8   8   8   8
#     4  12  24  43  63  94 140 170 214 252 316 384
#     4  12  25  41  62  90 127 168 214 272 325 377
#     4  12  25  41  64  92 125 172 222 268 323 391
#     4  11  22  41  65  88 121 166 219 280 339 384
#     4  11  24  42  72 100 133 176 202 256 315 362
#     4  11  22  41  65  88 121 166 219 280 339 384
#     4  10  22  45  74 107 134 163 213 256 300 370
#
# _framework density 21.070052
#
# number of rings (size 3 to 8) (size 9 to 14) (size 15 to 20)
#    0.000    0.714    4.286    3.429    0.000    8.000 
#    0.000    0.714    0.000    0.000    0.000    0.000 
#    0.000    0.000    0.000    0.000    0.000    0.000 
#
# Total GULP energy -347326.645013 kJ/mol
# GULP energy per Si atom -12404.523036 kJ/mol
# Density = 2.102210 g / cm^3
# Si number density = 21.070052 Si / 1000 Ang^3
#
#
#
# Elastic Constant Matrix: (Units=GPa)
#
#
# Indices 1 2 3 4 5 6 
#
# 1 76.9290 11.8738 -2.0362 0.0000 6.2705 0.0000
# 2 11.8738 144.9763 46.2114 0.0000 2.9117 0.0000
# 3 -2.0362 46.2114 58.7209 0.0000 9.3993 0.0000
# 4 0.0000 0.0000 0.0000 -8.0606 0.0000 5.3850
# 5 6.2705 2.9117 9.3993 0.0000 47.1800 0.0000
# 6 0.0000 0.0000 0.0000 5.3850 0.0000 27.7672
#
#
#
# Elastic Compliance Matrix: (Units=1/GPa)
#
#
# Indices 1 2 3 4 5 6 
#
# 1 0.013502 -0.001763 0.002195 0.000000 -0.002123 0.000000
# 2 -0.001763 0.009475 -0.007707 0.000000 0.001185 0.000000
# 3 0.002195 -0.007707 0.023904 0.000000 -0.004578 0.000000
# 4 0.000000 0.000000 0.000000 -0.109831 0.000000 0.021300
# 5 -0.002123 0.001185 -0.004578 0.000000 0.022317 0.000000
# 6 0.000000 0.000000 0.000000 0.021300 0.000000 0.031883
#
#
# Mechanical properties :
#
#
# Convention : Reuss Voigt Hill
#
# Bulk Modulus (GPa) = 30.92947 43.63604 37.28275
# Shear Modulus (GPa) = 301.62809 28.34914 164.98861
#
# Velocity S-wave (km/s) = 11.97772 3.67205 8.85860
# Velocity P-wave (km/s) = 14.35266 6.22362 11.06192
#
# Compressibility (1/GPa) = 0.03233163
#
# Stress axis : x y z
#
# Youngs Moduli (GPa) = 74.06156 105.54094 41.83383
#
# Poissons Ratio (x) = 0.18607 -0.09185
# Poissons Ratio (y) = 0.13057 0.32243
# Poissons Ratio (z) = -0.16260 0.81344
#
# Static dielectric constant tensor:
#      x y z
#    x 3.866650 0.000000 0.054260 
#    y 0.000000 3.721170 0.000000 
#    z 0.054260 0.000000 3.795170 
# 
# 
# High freq. dielectric constant tensor:
#      x y z
#    x 1.833270 0.000000 0.001110 
#    y 0.000000 1.830590 0.000000 
#    z 0.001110 0.000000 1.822900 
# 
# From -- ./inp_files/333006.got.cif
#   From: 2010.06.25/outbox.cif.g09.slc.cpg/sg12_167_cif.got.tgz:333006.got - 2010.06.28 00:19:55.
