data_PCOD8112835
_publ_section_title
;
Structure prediction by ZEFSAII (Michael W. Deem and Ramdas Pophale) SiO2 
 PCOD8112835
Probable space group: C 2/M
;
_chemical_formula_sum "Si O2"
_cell_formula_units_Z 64
_cell_length_a 15.321742
_cell_length_b 8.751553
_cell_length_c 32.917760
_cell_angle_alpha 90.000000
_cell_angle_beta 134.331240
_cell_angle_gamma 90.000000
_cell_volume 3157.322540
_symmetry_space_group_name_H-M "C 2/M"
_symmetry_group_IT_number 12
_symmetry_cell_setting 'monoclinic'
loop_
_space_group_symop_operation_xyz
x,y,z
-x,y,-z
-x,-y,-z
x,-y,z
1/2+x,1/2+y,z
1/2-x,1/2+y,-z
1/2-x,1/2-y,-z
1/2+x,1/2-y,z
loop_
_atom_site_type_symbol
_atom_site_label
_atom_site_fract_x
_atom_site_fract_y
_atom_site_fract_z
Si Si1 0.649448 0.679398 0.496144
Si Si2 0.038066 0.820686 0.688451
Si Si3 0.600292 0.821267 0.999747
Si Si4 0.667700 0.821033 0.887327
Si Si5 0.709680 0.177056 0.808315
Si Si6 0.081858 0.324298 0.618476
Si Si7 0.261043 0.675672 0.608031
Si Si8 0.987646 0.822115 0.884840
O O1 0.655309 0.500000 0.493835
O O2 0.750000 0.750000 0.500000
O O3 0.517278 0.733496 0.439509
O O4 0.674439 0.727150 0.550449
O O5 0.114929 0.778962 0.752941
O O6 0.096332 0.738882 0.668474
O O7 0.899516 0.764189 0.650491
O O8 0.042428 0.000000 0.682477
O O9 0.550986 0.779894 0.939627
O O10 0.631168 0.000000 0.012080
O O11 0.500000 0.772621 0.000000
O O12 0.721793 0.725591 0.047424
O O13 0.700401 0.774321 0.852166
O O14 0.546667 0.728450 0.861244
O O15 0.642951 0.000000 0.883458
O O16 0.844627 0.213970 0.836238
O O17 0.676840 0.000000 0.791461
O O18 0.041601 0.500000 0.607557
O O19 0.211691 0.304820 0.637918
O O20 0.253869 0.500000 0.591697
O O21 0.010609 0.000000 0.901516
#
# Coordination Sequence:
#
# PCOD8112835 Si02
#       8
#     8   8   8   8   8   8   8   8
#     4  12  23  37  62  94 127 164 203 250 307 366
#     4  11  24  42  65  90 121 161 208 259 303 360
#     4  11  22  37  62  94 126 161 202 250 304 367
#     4  11  23  41  64  92 125 162 204 252 306 365
#     4  10  24  44  64  86 120 163 206 254 308 363
#     4  11  23  41  65  92 126 165 203 251 307 366
#     4  10  23  42  63  91 126 163 202 249 308 366
#     4  11  23  41  64  91 124 163 204 250 307 368
#
# _framework density 20.270340000000001
#
# number of rings (size 3 to 8) (size 9 to 14) (size 15 to 20)
#    0.000    1.125    2.500    3.750    0.000    6.500 
#    0.000    3.750    0.000    0.000    0.000    0.000 
#    0.000    0.000    0.000    0.000    0.000    0.000 
#
# Total GULP energy -397016.803829 kJ/mol
# GULP energy per Si atom -12406.775120 kJ/mol
# Density = 2.022420 g / cm^3
# Si number density = 20.270340 Si / 1000 Ang^3
#
#
#
# Elastic Constant Matrix: (Units=GPa)
#
#
# Indices 1 2 3 4 5 6 
#
# 1 114.7371 35.9139 19.0036 0.0000 -1.4871 0.0000
# 2 35.9139 84.5996 27.7952 0.0000 -2.6560 0.0000
# 3 19.0036 27.7952 81.8678 0.0000 3.9876 0.0000
# 4 0.0000 0.0000 0.0000 36.4578 0.0000 -1.3415
# 5 -1.4871 -2.6560 3.9876 0.0000 17.7049 0.0000
# 6 0.0000 0.0000 0.0000 -1.3415 0.0000 33.0023
#
#
#
# Elastic Compliance Matrix: (Units=1/GPa)
#
#
# Indices 1 2 3 4 5 6 
#
# 1 0.010128 -0.003944 -0.001036 0.000000 0.000492 0.000000
# 2 -0.003944 0.015005 -0.004320 0.000000 0.002893 0.000000
# 3 -0.001036 -0.004320 0.014113 0.000000 -0.003914 0.000000
# 4 0.000000 0.000000 0.000000 0.027470 0.000000 0.001117
# 5 0.000492 0.002893 -0.003914 0.000000 0.057838 0.000000
# 6 0.000000 0.000000 0.000000 0.001117 0.000000 0.030346
#
#
# Mechanical properties :
#
#
# Convention : Reuss Voigt Hill
#
# Bulk Modulus (GPa) = 48.43485 49.62554 49.03019
# Shear Modulus (GPa) = 27.71919 30.66580 29.19250
#
# Velocity S-wave (km/s) = 3.70195 3.89375 3.79906
# Velocity P-wave (km/s) = 6.49761 6.68954 6.59427
#
# Compressibility (1/GPa) = 0.02064629
#
# Stress axis : x y z
#
# Youngs Moduli (GPa) = 98.73668 66.64627 70.85899
#
# Poissons Ratio (x) = 0.26283 0.07341
# Poissons Ratio (y) = 0.38938 0.30609
# Poissons Ratio (z) = 0.10229 0.28789
#
# Static dielectric constant tensor:
#      x y z
#    x 3.971180 0.000000 -0.007860 
#    y 0.000000 3.708820 0.000000 
#    z -0.007860 0.000000 3.523470 
# 
# 
# High freq. dielectric constant tensor:
#      x y z
#    x 1.810520 0.000000 -0.002720 
#    y 0.000000 1.798130 0.000000 
#    z -0.002720 0.000000 1.781670 
# 
# From -- ./inp_files/375457.got.cif
#   From: 2010.06.25/outbox.cif.g09.slc.cpg/sg12_188_cif.got.tgz:375457.got - 2010.06.28 00:19:55.
