data_PCOD8112094
_publ_section_title
;
Structure prediction by ZEFSAII (Michael W. Deem and Ramdas Pophale) SiO2 
 PCOD8112094
Probable space group: C 2/M
;
_chemical_formula_sum "Si O2"
_cell_formula_units_Z 44
_cell_length_a 9.176424
_cell_length_b 25.691342
_cell_length_c 8.962459
_cell_angle_alpha 90.000000
_cell_angle_beta 61.512334
_cell_angle_gamma 90.000000
_cell_volume 1857.106019
_symmetry_space_group_name_H-M "C 2/M"
_symmetry_group_IT_number 12
_symmetry_cell_setting 'monoclinic'
loop_
_space_group_symop_operation_xyz
x,y,z
-x,y,-z
-x,-y,-z
x,-y,z
1/2+x,1/2+y,z
1/2-x,1/2+y,-z
1/2-x,1/2-y,-z
1/2+x,1/2-y,z
loop_
_atom_site_type_symbol
_atom_site_label
_atom_site_fract_x
_atom_site_fract_y
_atom_site_fract_z
Si Si1 0.123264 0.786911 0.309086
Si Si2 0.500000 0.105260 0.500000
Si Si3 0.976129 0.684166 0.258915
Si Si4 0.410079 0.441742 0.689680
Si Si5 0.736797 0.366963 0.043623
Si Si6 0.191255 0.941860 0.797135
O O1 0.087823 0.727563 0.284914
O O2 0.312186 0.789721 0.273753
O O3 0.107558 0.822632 0.167072
O O4 0.000000 0.806098 0.500000
O O5 0.428079 0.140656 0.402618
O O6 0.644671 0.067287 0.377609
O O7 0.084730 0.658139 0.074489
O O8 0.500000 0.418381 0.500000
O O9 0.347621 0.500000 0.685172
O O10 0.252244 0.406631 0.817923
O O11 0.534364 0.439132 0.767292
O O12 0.669096 0.397461 0.932648
O O13 0.200560 0.000000 0.864823
#
# Coordination Sequence:
#
# PCOD8112094 Si02
#       6
#     8   4   8   8   8   8
#     4  12  26  45  72 100 144 186 241 293 360 420
#     4  10  23  40  70  98 138 178 235 288 358 412
#     4  11  26  46  68 103 140 186 235 294 356 425
#     4  10  22  41  68 105 141 182 236 292 353 420
#     4  11  24  40  67 102 140 180 230 283 348 414
#     4  10  22  42  68 100 141 185 236 284 348 420
#
# _framework density 23.692777
#
# number of rings (size 3 to 8) (size 9 to 14) (size 15 to 20)
#    0.000    1.273    0.909    3.545    5.091    4.364 
#    0.000    0.000    0.000    5.455    0.000    0.000 
#    0.000    0.000    0.000    0.000    0.000    0.000 
#
# Total GULP energy -272714.922943 kJ/mol
# GULP energy per Si atom -12396.132861 kJ/mol
# Density = 2.363885 g / cm^3
# Si number density = 23.692777 Si / 1000 Ang^3
#
#
#
# Elastic Constant Matrix: (Units=GPa)
#
#
# Indices 1 2 3 4 5 6 
#
# 1 93.6796 44.1533 44.0535 0.0000 -15.5236 0.0000
# 2 44.1533 106.5599 56.3376 0.0000 -8.2313 0.0000
# 3 44.0535 56.3376 186.1254 0.0000 -30.0948 0.0000
# 4 0.0000 0.0000 0.0000 48.3198 0.0000 1.5479
# 5 -15.5236 -8.2313 -30.0948 0.0000 34.4821 0.0000
# 6 0.0000 0.0000 0.0000 1.5479 0.0000 10.4962
#
#
#
# Elastic Compliance Matrix: (Units=1/GPa)
#
#
# Indices 1 2 3 4 5 6 
#
# 1 0.014269 -0.004954 -0.001200 0.000000 0.004194 0.000000
# 2 -0.004954 0.012896 -0.003020 0.000000 -0.001788 0.000000
# 3 -0.001200 -0.003020 0.007413 0.000000 0.005209 0.000000
# 4 0.000000 0.000000 0.000000 0.020794 0.000000 -0.003066
# 5 0.004194 -0.001788 0.005209 0.000000 0.035008 0.000000
# 6 0.000000 0.000000 0.000000 -0.003066 0.000000 0.095724
#
#
# Mechanical properties :
#
#
# Convention : Reuss Voigt Hill
#
# Bulk Modulus (GPa) = 61.61270 75.05043 68.33156
# Shear Modulus (GPa) = 23.82535 34.78100 29.30318
#
# Velocity S-wave (km/s) = 3.17455 3.83561 3.52063
# Velocity P-wave (km/s) = 6.28477 7.16667 6.74016
#
# Compressibility (1/GPa) = 0.01623042
#
# Stress axis : x y z
#
# Youngs Moduli (GPa) = 70.08311 77.54585 134.89994
#
# Poissons Ratio (x) = 0.38417 0.16182
# Poissons Ratio (y) = 0.34720 0.40737
# Poissons Ratio (z) = 0.08407 0.23417
#
# Static dielectric constant tensor:
#      x y z
#    x 3.808030 0.000000 -0.176450 
#    y 0.000000 4.677580 0.000000 
#    z -0.176450 0.000000 4.849120 
# 
# 
# High freq. dielectric constant tensor:
#      x y z
#    x 1.906310 0.000000 -0.007000 
#    y 0.000000 1.952510 0.000000 
#    z -0.007000 0.000000 1.973490 
# 
# From -- ./inp_files/41566.got.cif
#   From: 2010.06.25/outbox.cif.g09.slc.cpg/sg12_21_cif.got.tgz:41566.got - 2010.06.28 00:19:55.
