data_PCOD8112350
_publ_section_title
;
Structure prediction by ZEFSAII (Michael W. Deem and Ramdas Pophale) SiO2 
 PCOD8112350
Probable space group: C 2/M
;
_chemical_formula_sum "Si O2"
_cell_formula_units_Z 64
_cell_length_a 14.672865
_cell_length_b 15.823261
_cell_length_c 13.849381
_cell_angle_alpha 90.000000
_cell_angle_beta 115.814107
_cell_angle_gamma 90.000000
_cell_volume 2894.582111
_symmetry_space_group_name_H-M "C 2/M"
_symmetry_group_IT_number 12
_symmetry_cell_setting 'monoclinic'
loop_
_space_group_symop_operation_xyz
x,y,z
-x,y,-z
-x,-y,-z
x,-y,z
1/2+x,1/2+y,z
1/2-x,1/2+y,-z
1/2-x,1/2-y,-z
1/2+x,1/2-y,z
loop_
_atom_site_type_symbol
_atom_site_label
_atom_site_fract_x
_atom_site_fract_y
_atom_site_fract_z
Si Si1 0.741864 0.158544 0.449275
Si Si2 0.556408 0.601001 0.822626
Si Si3 0.914044 0.654905 0.890703
Si Si4 0.710338 0.404640 0.732278
Si Si5 0.032639 0.600360 0.289103
Si Si6 0.187654 0.599700 0.758678
Si Si7 0.662598 0.595721 0.327852
Si Si8 0.178669 0.196370 0.035661
O O1 0.750000 0.250000 0.500000
O O2 0.782044 0.155967 0.357715
O O3 0.626847 0.124172 0.401213
O O4 0.813910 0.100065 0.547768
O O5 0.562031 0.500000 0.837574
O O6 0.622299 0.629531 0.760476
O O7 0.444485 0.637809 0.749451
O O8 0.595293 0.644698 0.937465
O O9 0.814287 0.596425 0.841917
O O10 0.961255 0.656676 0.805170
O O11 0.881626 0.747400 0.914026
O O12 0.000000 0.615461 0.000000
O O13 0.689959 0.500000 0.687468
O O14 0.035779 0.500000 0.266476
O O15 0.929622 0.628334 0.295185
O O16 0.190529 0.500000 0.761062
O O17 0.244428 0.636938 0.689885
O O18 0.246787 0.630702 0.879556
O O19 0.650930 0.500000 0.289968
O O20 0.250000 0.250000 0.000000
#
# Coordination Sequence:
#
# PCOD8112350 Si02
#       8
#     8   8   8   8   8   8   8   8
#     4  11  24  40  66  98 132 168 210 274 336 393
#     4  10  23  42  65  93 129 177 225 267 318 391
#     4  11  23  37  61  97 130 172 212 267 336 389
#     4  10  22  43  65  93 132 171 222 275 323 388
#     4  10  23  45  68  95 129 172 227 278 324 383
#     4  10  24  44  67  92 128 175 226 271 318 397
#     4  10  23  43  67  91 122 174 224 268 323 386
#     4  12  24  39  61  95 137 171 209 267 334 390
#
# _framework density 22.110272999999999
#
# number of rings (size 3 to 8) (size 9 to 14) (size 15 to 20)
#    0.000    1.500    1.250    3.375    5.250    3.000 
#    0.000    6.875    0.000    0.000    0.000    0.000 
#    0.000    0.000    0.000    0.000    0.000    0.000 
#
# Total GULP energy -396729.124277 kJ/mol
# GULP energy per Si atom -12397.785134 kJ/mol
# Density = 2.205995 g / cm^3
# Si number density = 22.110273 Si / 1000 Ang^3
#
#
#
# Elastic Constant Matrix: (Units=GPa)
#
#
# Indices 1 2 3 4 5 6 
#
# 1 148.4227 49.0536 49.7630 0.0000 12.1770 0.0000
# 2 49.0536 48.8947 36.2898 0.0000 -6.9551 0.0000
# 3 49.7630 36.2898 143.5675 0.0000 18.0899 0.0000
# 4 0.0000 0.0000 0.0000 39.4383 0.0000 -8.3574
# 5 12.1770 -6.9551 18.0899 0.0000 33.7013 0.0000
# 6 0.0000 0.0000 0.0000 -8.3574 0.0000 25.7098
#
#
#
# Elastic Compliance Matrix: (Units=1/GPa)
#
#
# Indices 1 2 3 4 5 6 
#
# 1 0.011365 -0.012373 0.000030 0.000000 -0.006676 0.000000
# 2 -0.012373 0.041646 -0.008456 0.000000 0.017604 0.000000
# 3 0.000030 -0.008456 0.009990 0.000000 -0.007118 0.000000
# 4 0.000000 0.000000 0.000000 0.027232 0.000000 0.008852
# 5 -0.006676 0.017604 -0.007118 0.000000 0.039538 0.000000
# 6 0.000000 0.000000 0.000000 0.008852 0.000000 0.041773
#
#
# Mechanical properties :
#
#
# Convention : Reuss Voigt Hill
#
# Bulk Modulus (GPa) = 46.72848 67.89974 57.31411
# Shear Modulus (GPa) = 22.69877 33.48846 28.09361
#
# Velocity S-wave (km/s) = 3.20756 3.89602 3.56843
# Velocity P-wave (km/s) = 5.90746 7.14247 6.55412
#
# Compressibility (1/GPa) = 0.02140022
#
# Stress axis : x y z
#
# Youngs Moduli (GPa) = 87.99300 24.01204 100.10459
#
# Poissons Ratio (x) = 0.29710 -0.00296
# Poissons Ratio (y) = 1.08873 0.84652
# Poissons Ratio (z) = -0.00260 0.20306
#
# Static dielectric constant tensor:
#      x y z
#    x 4.434890 0.000000 0.092060 
#    y 0.000000 3.793890 0.000000 
#    z 0.092060 0.000000 3.999680 
# 
# 
# High freq. dielectric constant tensor:
#      x y z
#    x 1.881010 0.000000 0.007950 
#    y 0.000000 1.861430 0.000000 
#    z 0.007950 0.000000 1.871960 
# 
# From -- ./inp_files/216859.got.cif
#   From: 2010.06.25/outbox.cif.g09.slc.cpg/sg12_109_cif.got.tgz:216859.got - 2010.06.28 00:19:55.
