data_PCOD8112682
_publ_section_title
;
Structure prediction by ZEFSAII (Michael W. Deem and Ramdas Pophale) SiO2 
 PCOD8112682
Probable space group: C 2/M
;
_chemical_formula_sum "Si O2"
_cell_formula_units_Z 48
_cell_length_a 19.829189
_cell_length_b 8.758380
_cell_length_c 22.615873
_cell_angle_alpha 90.000000
_cell_angle_beta 140.332634
_cell_angle_gamma 90.000000
_cell_volume 2507.188570
_symmetry_space_group_name_H-M "C 2/M"
_symmetry_group_IT_number 12
_symmetry_cell_setting 'monoclinic'
loop_
_space_group_symop_operation_xyz
x,y,z
-x,y,-z
-x,-y,-z
x,-y,z
1/2+x,1/2+y,z
1/2-x,1/2+y,-z
1/2-x,1/2-y,-z
1/2+x,1/2-y,z
loop_
_atom_site_type_symbol
_atom_site_label
_atom_site_fract_x
_atom_site_fract_y
_atom_site_fract_z
Si Si1 0.966355 0.324902 0.041633
Si Si2 0.494327 0.818706 0.588819
Si Si3 0.832840 0.681488 0.383935
Si Si4 0.474608 0.818917 0.258893
Si Si5 0.734591 0.324226 0.926432
Si Si6 0.903759 0.819700 0.767063
O O1 0.001078 0.500000 0.074993
O O2 0.021826 0.222800 0.128289
O O3 0.840797 0.307145 0.960481
O O4 0.000000 0.265162 0.000000
O O5 0.600587 0.758282 0.627678
O O6 0.390949 0.761908 0.483259
O O7 0.489128 0.757914 0.652286
O O8 0.498086 0.000000 0.591375
O O9 0.829813 0.500000 0.381101
O O10 0.713968 0.746490 0.301365
O O11 0.355519 0.764301 0.169251
O O12 0.553696 0.751333 0.264450
O O13 0.477325 0.000000 0.255936
O O14 0.701707 0.500000 0.912705
O O15 0.750000 0.250000 0.000000
O O16 0.902965 0.000000 0.759249
#
# Coordination Sequence:
#
# PCOD8112682 Si02
#       6
#     8   8   8   8   8   8
#     4  10  23  41  58  79 110 148 183 221 278 335
#     4   8  16  33  56  80 109 144 183 225 275 329
#     4   8  16  33  55  81 110 141 181 230 276 324
#     4  11  22  35  56  83 112 148 187 227 275 327
#     4  11  22  38  59  81 111 149 184 224 271 327
#     4  11  22  35  56  84 113 144 184 233 277 323
#
# _framework density 19.144950999999999
#
# number of rings (size 3 to 8) (size 9 to 14) (size 15 to 20)
#    0.000    2.167    1.667    2.500    2.333    1.667 
#    0.000    0.000    0.000    3.000    0.000    9.333 
#    0.000    0.000    0.000    0.000    0.000    0.000 
#
# Total GULP energy -297591.765065 kJ/mol
# GULP energy per Si atom -12399.656878 kJ/mol
# Density = 1.910138 g / cm^3
# Si number density = 19.144951 Si / 1000 Ang^3
#
#
#
# Elastic Constant Matrix: (Units=GPa)
#
#
# Indices 1 2 3 4 5 6 
#
# 1 130.2810 29.7324 51.1113 0.0000 -9.6238 0.0000
# 2 29.7324 54.8185 22.7555 0.0000 -4.3295 -0.0001
# 3 51.1113 22.7555 89.6763 0.0000 -7.1101 0.0000
# 4 0.0000 0.0000 0.0000 14.5371 0.0000 7.5478
# 5 -9.6238 -4.3295 -7.1101 0.0000 43.6896 0.0000
# 6 0.0000 -0.0001 0.0000 7.5478 0.0000 14.6487
#
#
#
# Elastic Compliance Matrix: (Units=1/GPa)
#
#
# Indices 1 2 3 4 5 6 
#
# 1 0.010537 -0.003542 -0.005015 0.000000 0.001154 0.000000
# 2 -0.003542 0.021642 -0.003409 0.000000 0.000810 0.000000
# 3 -0.005015 -0.003409 0.014953 0.000000 0.000991 0.000000
# 4 0.000000 0.000000 0.000000 0.093914 0.000000 -0.048390
# 5 0.001154 0.000810 0.000991 0.000000 0.023384 0.000000
# 6 0.000000 0.000000 0.000000 -0.048390 0.000000 0.093199
#
#
# Mechanical properties :
#
#
# Convention : Reuss Voigt Hill
#
# Bulk Modulus (GPa) = 43.10312 53.55270 48.32791
# Shear Modulus (GPa) = 17.28343 25.98685 21.63514
#
# Velocity S-wave (km/s) = 3.00787 3.68825 3.36530
# Velocity P-wave (km/s) = 5.88439 6.79489 6.35596
#
# Compressibility (1/GPa) = 0.02320018
#
# Stress axis : x y z
#
# Youngs Moduli (GPa) = 94.90501 46.20637 66.87521
#
# Poissons Ratio (x) = 0.16366 0.33540
# Poissons Ratio (y) = 0.33615 0.22796
# Poissons Ratio (z) = 0.47597 0.15751
#
# Static dielectric constant tensor:
#      x y z
#    x 3.796010 0.000000 0.091270 
#    y 0.000000 3.265360 0.000000 
#    z 0.091270 0.000000 3.750380 
# 
# 
# High freq. dielectric constant tensor:
#      x y z
#    x 1.757620 0.000000 0.000650 
#    y 0.000000 1.718060 0.000000 
#    z 0.000650 0.000000 1.751270 
# 
# From -- ./inp_files/314478.got.cif
#   From: 2010.06.25/outbox.cif.g09.slc.cpg/sg12_158_cif.got.tgz:314478.got - 2010.06.28 00:19:55.
