data_PCOD8112196
_publ_section_title
;
Structure prediction by ZEFSAII (Michael W. Deem and Ramdas Pophale) SiO2 
 PCOD8112196
Probable space group: C 2/M
;
_chemical_formula_sum "Si O2"
_cell_formula_units_Z 56
_cell_length_a 11.175150
_cell_length_b 14.664680
_cell_length_c 16.593490
_cell_angle_alpha 90.000000
_cell_angle_beta 92.410680
_cell_angle_gamma 90.000000
_cell_volume 2716.934522
_symmetry_space_group_name_H-M "C 2/M"
_symmetry_group_IT_number 12
_symmetry_cell_setting 'monoclinic'
loop_
_space_group_symop_operation_xyz
x,y,z
-x,y,-z
-x,-y,-z
x,-y,z
1/2+x,1/2+y,z
1/2-x,1/2+y,-z
1/2-x,1/2-y,-z
1/2+x,1/2-y,z
loop_
_atom_site_type_symbol
_atom_site_label
_atom_site_fract_x
_atom_site_fract_y
_atom_site_fract_z
Si Si1 0.041761 0.787336 0.411230
Si Si2 0.106873 0.103682 0.720083
Si Si3 0.231372 0.896479 0.333329
Si Si4 0.127383 0.744793 0.048116
Si Si5 0.650753 0.895833 0.191049
Si Si6 0.990040 0.601667 0.660436
Si Si7 0.392785 0.397465 0.827704
O O1 0.166556 0.839572 0.401476
O O2 0.000000 0.803837 0.500000
O O3 0.939833 0.826416 0.348659
O O4 0.068604 0.680200 0.395782
O O5 0.238655 0.135111 0.749629
O O6 0.027555 0.109355 0.798461
O O7 0.106597 0.000000 0.685828
O O8 0.370321 0.890884 0.351625
O O9 0.195853 0.858178 0.244054
O O10 0.182177 0.000000 0.336395
O O11 0.138970 0.662901 0.111183
O O12 0.119873 0.841010 0.091861
O O13 0.250000 0.750000 0.000000
O O14 0.000000 0.728966 0.000000
O O15 0.534844 0.882846 0.245124
O O16 0.666616 0.000000 0.163188
O O17 0.943277 0.500000 0.633781
O O18 0.357325 0.500000 0.850309
#
# Coordination Sequence:
#
# PCOD8112196 Si02
#       7
#     8   8   8   8   8   8   8
#     4  11  23  36  63  94 130 162 203 258 323 368
#     4   9  19  38  65  94 117 155 214 261 303 365
#     4   9  20  40  64  91 117 160 215 258 302 365
#     4  12  27  40  59  95 130 159 198 259 325 384
#     4  10  22  42  66  87 119 166 210 253 304 375
#     4  10  23  41  62  87 121 167 214 252 302 370
#     4   9  19  38  64  85 114 158 204 251 302 367
#
# _framework density 20.611464999999999
#
# number of rings (size 3 to 8) (size 9 to 14) (size 15 to 20)
#    0.000    2.000    0.000    3.857    6.000    3.143 
#    0.000    0.000    0.000    0.000    0.000    0.000 
#    0.000    0.000    0.000    0.000    0.000    0.000 
#
# Total GULP energy -347154.399052 kJ/mol
# GULP energy per Si atom -12398.371395 kJ/mol
# Density = 2.056455 g / cm^3
# Si number density = 20.611465 Si / 1000 Ang^3
#
#
#
# Elastic Constant Matrix: (Units=GPa)
#
#
# Indices 1 2 3 4 5 6 
#
# 1 92.8387 43.0500 45.4020 0.0000 -17.7335 0.0000
# 2 43.0500 114.8471 62.8638 0.0000 -10.3380 0.0000
# 3 45.4020 62.8638 115.8699 0.0000 -22.3572 0.0000
# 4 0.0000 0.0000 0.0000 20.9161 0.0000 -8.1957
# 5 -17.7335 -10.3380 -22.3572 0.0000 23.1882 0.0000
# 6 0.0000 0.0000 0.0000 -8.1957 0.0000 20.7728
#
#
#
# Elastic Compliance Matrix: (Units=1/GPa)
#
#
# Indices 1 2 3 4 5 6 
#
# 1 0.015112 -0.003614 -0.002508 0.000000 0.007527 0.000000
# 2 -0.003614 0.013276 -0.006361 0.000000 -0.002978 0.000000
# 3 -0.002508 -0.006361 0.014923 0.000000 0.009634 0.000000
# 4 0.000000 0.000000 0.000000 0.056553 0.000000 0.022312
# 5 0.007527 -0.002978 0.009634 0.000000 0.056843 0.000000
# 6 0.000000 0.000000 0.000000 0.022312 0.000000 0.056943
#
#
# Mechanical properties :
#
#
# Convention : Reuss Voigt Hill
#
# Bulk Modulus (GPa) = 54.51384 69.57635 62.04510
# Shear Modulus (GPa) = 20.43059 24.45809 22.44434
#
# Velocity S-wave (km/s) = 3.15179 3.44848 3.30347
# Velocity P-wave (km/s) = 6.30482 7.04879 6.68716
#
# Compressibility (1/GPa) = 0.01834396
#
# Stress axis : x y z
#
# Youngs Moduli (GPa) = 66.17413 75.32524 67.00956
#
# Poissons Ratio (x) = 0.27223 0.16807
# Poissons Ratio (y) = 0.23916 0.42626
# Poissons Ratio (z) = 0.16597 0.47915
#
# Static dielectric constant tensor:
#      x y z
#    x 3.855340 0.000000 -0.119890 
#    y 0.000000 4.025260 0.000000 
#    z -0.119890 0.000000 3.455380 
# 
# 
# High freq. dielectric constant tensor:
#      x y z
#    x 1.812140 0.000000 -0.012490 
#    y 0.000000 1.823740 0.000000 
#    z -0.012490 0.000000 1.781400 
# 
# From -- ./inp_files/204999.got.cif
#   From: 2010.06.25/outbox.cif.g09.slc.cpg/sg12_103_cif.got.tgz:204999.got - 2010.06.28 00:19:55.
