data_PCOD8112670
_publ_section_title
;
Structure prediction by ZEFSAII (Michael W. Deem and Ramdas Pophale) SiO2 
 PCOD8112670
Probable space group: C 2/M
;
_chemical_formula_sum "Si O2"
_cell_formula_units_Z 44
_cell_length_a 14.788348
_cell_length_b 10.302399
_cell_length_c 21.745719
_cell_angle_alpha 90.000000
_cell_angle_beta 138.347876
_cell_angle_gamma 90.000000
_cell_volume 2201.893002
_symmetry_space_group_name_H-M "C 2/M"
_symmetry_group_IT_number 12
_symmetry_cell_setting 'monoclinic'
loop_
_space_group_symop_operation_xyz
x,y,z
-x,y,-z
-x,-y,-z
x,-y,z
1/2+x,1/2+y,z
1/2-x,1/2+y,-z
1/2-x,1/2-y,-z
1/2+x,1/2-y,z
loop_
_atom_site_type_symbol
_atom_site_label
_atom_site_fract_x
_atom_site_fract_y
_atom_site_fract_z
Si Si1 0.686558 0.856926 0.814455
Si Si2 0.155351 0.850791 0.986904
Si Si3 0.906291 0.761897 0.681930
Si Si4 0.752412 0.500000 0.593826
Si Si5 0.640991 0.272339 0.203817
Si Si6 0.936314 0.000000 0.613811
Si Si7 0.760102 0.000000 0.271261
O O1 0.568493 0.755660 0.770658
O O2 0.738309 0.845344 0.770686
O O3 0.624269 0.000000 0.792120
O O4 0.813154 0.834867 0.924711
O O5 0.000303 0.814905 0.897000
O O6 0.182904 0.000000 0.979549
O O7 0.250000 0.750000 0.000000
O O8 0.839744 0.628859 0.624163
O O9 0.849001 0.807100 0.719008
O O10 0.877253 0.874268 0.618374
O O11 0.619960 0.500000 0.483762
O O12 0.699818 0.500000 0.636771
O O13 0.663818 0.119763 0.205216
O O14 0.100282 0.000000 0.696355
#
# Coordination Sequence:
#
# PCOD8112670 Si02
#       7
#     8   8   8   4   8   4   4
#     4  11  22  41  64  87 127 172 209 245 310 375
#     4  11  24  39  64  92 127 172 212 258 300 365
#     4  11  23  39  67  92 123 166 201 259 316 368
#     4  10  23  44  65  89 127 168 199 255 324 394
#     4  11  23  41  61  93 128 163 216 250 311 363
#     4  12  23  42  64 100 120 153 218 265 318 366
#     4  10  23  40  68  90 124 171 201 262 319 375
#
# _framework density 19.982806
#
# number of rings (size 3 to 8) (size 9 to 14) (size 15 to 20)
#    0.000    1.091    4.545    1.909    3.818    1.455 
#    1.636    0.909    0.000    1.091    0.000    0.000 
#    0.000    0.000    0.000    0.000    0.000    0.000 
#
# Total GULP energy -272826.330414 kJ/mol
# GULP energy per Si atom -12401.196837 kJ/mol
# Density = 1.993732 g / cm^3
# Si number density = 19.982806 Si / 1000 Ang^3
#
#
#
# Elastic Constant Matrix: (Units=GPa)
#
#
# Indices 1 2 3 4 5 6 
#
# 1 101.9322 39.4741 15.3287 0.0000 -10.3217 0.0000
# 2 39.4741 127.5321 39.5280 0.0000 -8.9050 0.0000
# 3 15.3287 39.5280 73.8175 0.0000 -7.3301 0.0000
# 4 0.0000 0.0000 0.0000 26.4174 0.0000 0.8722
# 5 -10.3217 -8.9050 -7.3301 0.0000 25.6966 0.0000
# 6 0.0000 0.0000 0.0000 0.8722 0.0000 33.0080
#
#
#
# Elastic Compliance Matrix: (Units=1/GPa)
#
#
# Indices 1 2 3 4 5 6 
#
# 1 0.011444 -0.003205 -0.000323 0.000000 0.003394 0.000000
# 2 -0.003205 0.010388 -0.004803 0.000000 0.000942 0.000000
# 3 -0.000323 -0.004803 0.016475 0.000000 0.002905 0.000000
# 4 0.000000 0.000000 0.000000 0.037887 0.000000 -0.001001
# 5 0.003394 0.000942 0.002905 0.000000 0.041434 0.000000
# 6 0.000000 0.000000 0.000000 -0.001001 0.000000 0.030322
#
#
# Mechanical properties :
#
#
# Convention : Reuss Voigt Hill
#
# Bulk Modulus (GPa) = 46.20387 54.66038 50.43212
# Shear Modulus (GPa) = 29.09907 30.95448 30.02677
#
# Velocity S-wave (km/s) = 3.82017 3.94007 3.88058
# Velocity P-wave (km/s) = 6.52918 6.93628 6.73581
#
# Compressibility (1/GPa) = 0.02164321
#
# Stress axis : x y z
#
# Youngs Moduli (GPa) = 87.38311 96.26719 60.69942
#
# Poissons Ratio (x) = 0.30854 0.01962
# Poissons Ratio (y) = 0.28006 0.29156
# Poissons Ratio (z) = 0.02824 0.46241
#
# Static dielectric constant tensor:
#      x y z
#    x 3.709960 0.000000 -0.037930 
#    y 0.000000 3.777410 0.000000 
#    z -0.037930 0.000000 3.536860 
# 
# 
# High freq. dielectric constant tensor:
#      x y z
#    x 1.783010 0.000000 -0.004540 
#    y 0.000000 1.790410 0.000000 
#    z -0.004540 0.000000 1.767800 
# 
# From -- ./inp_files/310105.got.cif
#   From: 2010.06.25/outbox.cif.g09.slc.cpg/sg12_156_cif.got.tgz:310105.got - 2010.06.28 00:19:55.
