data_PCOD8112200
_publ_section_title
;
Structure prediction by ZEFSAII (Michael W. Deem and Ramdas Pophale) SiO2 
 PCOD8112200
Probable space group: C 2/M
;
_chemical_formula_sum "Si O2"
_cell_formula_units_Z 48
_cell_length_a 8.639775
_cell_length_b 29.971801
_cell_length_c 9.346627
_cell_angle_alpha 90.000000
_cell_angle_beta 90.964243
_cell_angle_gamma 90.000000
_cell_volume 2419.962747
_symmetry_space_group_name_H-M "C 2/M"
_symmetry_group_IT_number 12
_symmetry_cell_setting 'monoclinic'
loop_
_space_group_symop_operation_xyz
x,y,z
-x,y,-z
-x,-y,-z
x,-y,z
1/2+x,1/2+y,z
1/2-x,1/2+y,-z
1/2-x,1/2-y,-z
1/2+x,1/2-y,z
loop_
_atom_site_type_symbol
_atom_site_label
_atom_site_fract_x
_atom_site_fract_y
_atom_site_fract_z
Si Si1 0.136275 0.881976 0.612554
Si Si2 0.567888 0.117273 0.842937
Si Si3 0.119692 0.752215 0.112041
Si Si4 0.410073 0.947970 0.643972
Si Si5 0.419067 0.355485 0.856391
Si Si6 0.600071 0.185694 0.364510
O O1 0.241443 0.925720 0.630905
O O2 0.245761 0.839337 0.576394
O O3 0.000000 0.889991 0.500000
O O4 0.046472 0.874185 0.754482
O O5 0.510694 0.069763 0.780334
O O6 0.753063 0.120626 0.841904
O O7 0.503370 0.153533 0.732417
O O8 0.500000 0.124949 0.000000
O O9 0.088872 0.802407 0.160793
O O10 0.148255 0.726343 0.261260
O O11 0.250000 0.750000 0.000000
O O12 0.000000 0.729945 0.000000
O O13 0.500000 0.936606 0.500000
O O14 0.384806 0.000000 0.666707
O O15 0.500000 0.370638 0.000000
O O16 0.500000 0.202484 0.500000
#
# Coordination Sequence:
#
# PCOD8112200 Si02
#       6
#     8   8   8   8   8   8
#     4  11  22  38  59  87 121 152 193 249 307 358
#     4  11  21  39  64  87 118 159 199 241 296 365
#     4  11  22  38  58  83 118 161 211 254 299 353
#     4  10  22  42  66  90 117 153 196 241 298 373
#     4  11  22  37  58  87 119 156 199 250 304 347
#     4  11  22  38  59  85 119 163 210 250 296 357
#
# _framework density 19.835016
#
# number of rings (size 3 to 8) (size 9 to 14) (size 15 to 20)
#    0.000    1.167    0.000   10.500    0.000    1.333 
#    0.000    5.833    0.000    3.000    0.000    0.000 
#    0.000    0.000    0.000    0.000    0.000    0.000 
#
# Total GULP energy -297350.035270 kJ/mol
# GULP energy per Si atom -12389.584803 kJ/mol
# Density = 1.978987 g / cm^3
# Si number density = 19.835016 Si / 1000 Ang^3
#
#
#
# Elastic Constant Matrix: (Units=GPa)
#
#
# Indices 1 2 3 4 5 6 
#
# 1 136.3839 56.1577 36.4564 0.0000 -7.2176 0.0000
# 2 56.1577 103.3120 60.0245 0.0000 -3.6720 0.0000
# 3 36.4564 60.0245 118.1599 0.0000 -22.1551 0.0000
# 4 0.0000 0.0000 0.0000 25.2145 0.0000 -1.8457
# 5 -7.2176 -3.6720 -22.1551 0.0000 50.9834 0.0000
# 6 0.0000 0.0000 0.0000 -1.8457 0.0000 22.9115
#
#
#
# Elastic Compliance Matrix: (Units=1/GPa)
#
#
# Indices 1 2 3 4 5 6 
#
# 1 0.009498 -0.005002 -0.000223 0.000000 0.000887 0.000000
# 2 -0.005002 0.016602 -0.007402 0.000000 -0.002729 0.000000
# 3 -0.000223 -0.007402 0.013267 0.000000 0.005201 0.000000
# 4 0.000000 0.000000 0.000000 0.039895 0.000000 0.003214
# 5 0.000887 -0.002729 0.005201 0.000000 0.021803 0.000000
# 6 0.000000 0.000000 0.000000 0.003214 0.000000 0.043905
#
#
# Mechanical properties :
#
#
# Convention : Reuss Voigt Hill
#
# Bulk Modulus (GPa) = 70.85558 73.68143 72.26850
# Shear Modulus (GPa) = 28.58286 33.50303 31.04295
#
# Velocity S-wave (km/s) = 3.80021 4.11431 3.96037
# Velocity P-wave (km/s) = 7.41994 7.73290 7.57804
#
# Compressibility (1/GPa) = 0.01411321
#
# Stress axis : x y z
#
# Youngs Moduli (GPa) = 105.28024 60.23394 75.37279
#
# Poissons Ratio (x) = 0.30128 0.01683
# Poissons Ratio (y) = 0.52659 0.55792
# Poissons Ratio (z) = 0.02351 0.44586
#
# Static dielectric constant tensor:
#      x y z
#    x 3.954160 0.000000 0.089230 
#    y 0.000000 3.481550 0.000000 
#    z 0.089230 0.000000 3.901910 
# 
# 
# High freq. dielectric constant tensor:
#      x y z
#    x 1.796120 0.000000 -0.003990 
#    y 0.000000 1.752110 0.000000 
#    z -0.003990 0.000000 1.791920 
# 
# From -- ./inp_files/42236.got.cif
#   From: 2010.06.25/outbox.cif.g09.slc.cpg/sg12_22_cif.got.tgz:42236.got - 2010.06.28 00:19:55.
