data_PCOD8112085
_publ_section_title
;
Structure prediction by ZEFSAII (Michael W. Deem and Ramdas Pophale) SiO2 
 PCOD8112085
Probable space group: C 2/M
;
_chemical_formula_sum "Si O2"
_cell_formula_units_Z 28
_cell_length_a 18.219897
_cell_length_b 9.607110
_cell_length_c 7.626799
_cell_angle_alpha 90.000000
_cell_angle_beta 67.806998
_cell_angle_gamma 90.000000
_cell_volume 1236.098022
_symmetry_space_group_name_H-M "C 2/M"
_symmetry_group_IT_number 12
_symmetry_cell_setting 'monoclinic'
loop_
_space_group_symop_operation_xyz
x,y,z
-x,y,-z
-x,-y,-z
x,-y,z
1/2+x,1/2+y,z
1/2-x,1/2+y,-z
1/2-x,1/2-y,-z
1/2+x,1/2-y,z
loop_
_atom_site_type_symbol
_atom_site_label
_atom_site_fract_x
_atom_site_fract_y
_atom_site_fract_z
Si Si1 0.196281 0.661725 0.306983
Si Si2 0.163736 0.345669 0.737493
Si Si3 0.000000 0.753642 0.000000
Si Si4 0.062329 0.155813 0.298842
O O1 0.203277 0.500000 0.248899
O O2 0.163522 0.686754 0.531219
O O3 0.282744 0.732165 0.209785
O O4 0.135896 0.737247 0.229048
O O5 0.198768 0.500000 0.739117
O O6 0.074310 0.343243 0.886571
O O7 0.020836 0.849511 0.146928
O O8 0.000000 0.208292 0.500000
O O9 0.091816 0.000000 0.319069
#
# Coordination Sequence:
#
# PCOD8112085 Si02
#       4
#     8   8   4   8
#     4  10  22  42  68  96 132 176 218 266 326 390
#     4  10  22  41  67  99 133 172 218 269 325 388
#     4  12  24  42  68 102 130 170 218 276 320 390
#     4  11  24  43  67  97 133 173 216 270 327 386
#
# _framework density 22.651926
#
# number of rings (size 3 to 8) (size 9 to 14) (size 15 to 20)
#    0.000    1.429    2.857    1.714    0.000    7.429 
#    0.000    0.000    0.000    0.000    0.000    0.000 
#    0.000    0.000    0.000    0.000    0.000    0.000 
#
# Total GULP energy -173657.616050 kJ/mol
# GULP energy per Si atom -12404.115432 kJ/mol
# Density = 2.260037 g / cm^3
# Si number density = 22.651926 Si / 1000 Ang^3
#
#
#
# Elastic Constant Matrix: (Units=GPa)
#
#
# Indices 1 2 3 4 5 6 
#
# 1 151.1804 77.3154 50.0406 0.0000 -6.4214 0.0000
# 2 77.3154 152.2947 22.5043 0.0000 -11.5112 0.0000
# 3 50.0406 22.5043 89.4815 0.0000 -12.3092 0.0000
# 4 0.0000 0.0000 0.0000 7.5831 0.0000 -2.2454
# 5 -6.4214 -11.5112 -12.3092 0.0000 39.5618 0.0000
# 6 0.0000 0.0000 0.0000 -2.2454 0.0000 39.2630
#
#
#
# Elastic Compliance Matrix: (Units=1/GPa)
#
#
# Indices 1 2 3 4 5 6 
#
# 1 0.010621 -0.004757 -0.004906 0.000000 -0.001187 0.000000
# 2 -0.004757 0.009038 0.000671 0.000000 0.002067 0.000000
# 3 -0.004906 0.000671 0.014279 0.000000 0.003842 0.000000
# 4 0.000000 0.000000 0.000000 0.134143 0.000000 0.007671
# 5 -0.001187 0.002067 0.003842 0.000000 0.026881 0.000000
# 6 0.000000 0.000000 0.000000 0.007671 0.000000 0.025908
#
#
# Mechanical properties :
#
#
# Convention : Reuss Voigt Hill
#
# Bulk Modulus (GPa) = 62.67910 76.96413 69.82162
# Shear Modulus (GPa) = 20.47745 33.48801 26.98273
#
# Velocity S-wave (km/s) = 3.00993 3.84913 3.45510
# Velocity P-wave (km/s) = 6.30953 7.33519 6.84161
#
# Compressibility (1/GPa) = 0.01595428
#
# Stress axis : x y z
#
# Youngs Moduli (GPa) = 94.15513 110.64429 70.03312
#
# Poissons Ratio (x) = 0.52628 0.34361
# Poissons Ratio (y) = 0.44785 -0.04701
# Poissons Ratio (z) = 0.46197 -0.07427
#
# Static dielectric constant tensor:
#      x y z
#    x 3.967150 0.000000 0.009370 
#    y 0.000000 3.837150 0.000000 
#    z 0.009370 0.000000 3.994100 
# 
# 
# High freq. dielectric constant tensor:
#      x y z
#    x 1.891170 0.000000 -0.000100 
#    y 0.000000 1.888980 0.000000 
#    z -0.000100 0.000000 1.895830 
# 
# From -- ./inp_files/56712.got.cif
#   From: 2010.06.25/outbox.cif.g09.slc.cpg/sg12_29_cif.got.tgz:56712.got - 2010.06.28 00:19:55.
