data_PCOD8112111
_publ_section_title
;
Structure prediction by ZEFSAII (Michael W. Deem and Ramdas Pophale) SiO2 
 PCOD8112111
Probable space group: C 2/M
;
_chemical_formula_sum "Si O2"
_cell_formula_units_Z 56
_cell_length_a 26.041592
_cell_length_b 17.412466
_cell_length_c 8.786528
_cell_angle_alpha 90.000000
_cell_angle_beta 135.556584
_cell_angle_gamma 90.000000
_cell_volume 2789.780453
_symmetry_space_group_name_H-M "C 2/M"
_symmetry_group_IT_number 12
_symmetry_cell_setting 'monoclinic'
loop_
_space_group_symop_operation_xyz
x,y,z
-x,y,-z
-x,-y,-z
x,-y,z
1/2+x,1/2+y,z
1/2-x,1/2+y,-z
1/2-x,1/2-y,-z
1/2+x,1/2-y,z
loop_
_atom_site_type_symbol
_atom_site_label
_atom_site_fract_x
_atom_site_fract_y
_atom_site_fract_z
Si Si1 0.784303 0.321470 0.166243
Si Si2 0.584925 0.208566 0.346100
Si Si3 0.569348 0.500000 0.434749
Si Si4 0.587576 0.500000 0.828762
Si Si5 0.653119 0.369193 0.445614
Si Si6 0.201288 0.591058 0.094413
Si Si7 0.414874 0.191780 0.994124
Si Si8 0.158115 0.854581 0.114412
O O1 0.866460 0.313545 0.405232
O O2 0.738154 0.335096 0.220726
O O3 0.750000 0.250000 0.000000
O O4 0.787801 0.394915 0.062390
O O5 0.600976 0.296741 0.347665
O O6 0.602060 0.169358 0.218098
O O7 0.501267 0.190981 0.213112
O O8 0.571814 0.500000 0.619190
O O9 0.483565 0.500000 0.211604
O O10 0.609386 0.428405 0.451570
O O11 0.628628 0.420484 0.942701
O O12 0.734936 0.361141 0.684814
O O13 0.663232 0.391962 0.291683
O O14 0.205183 0.500000 0.136631
O O15 0.124254 0.626879 0.986410
O O16 0.388821 0.276785 0.986759
#
# Coordination Sequence:
#
# PCOD8112111 Si02
#       8
#     8   8   4   4   8   8   8   8
#     4  12  23  41  63  94 125 166 215 270 326 381
#     4  10  22  41  69  94 124 163 221 272 325 394
#     4  11  23  39  55  95 134 175 204 257 337 385
#     4  11  25  37  59  93 138 169 210 263 327 403
#     4  11  21  39  68  92 127 171 213 270 321 390
#     4  12  25  42  64  94 132 174 217 269 327 388
#     4  10  22  44  66  96 126 169 217 268 330 387
#     4  11  23  40  63  96 127 169 219 264 322 396
#
# _framework density 20.073264999999999
#
# number of rings (size 3 to 8) (size 9 to 14) (size 15 to 20)
#    0.000    1.000    3.571    3.000    1.000    5.143 
#    0.000    3.571    0.000    0.000    0.000    0.000 
#    0.000    0.000    0.000    0.000    0.000    0.000 
#
# Total GULP energy -347058.656355 kJ/mol
# GULP energy per Si atom -12394.952013 kJ/mol
# Density = 2.002758 g / cm^3
# Si number density = 20.073265 Si / 1000 Ang^3
#
#
#
# Elastic Constant Matrix: (Units=GPa)
#
#
# Indices 1 2 3 4 5 6 
#
# 1 130.3389 29.9681 40.2734 0.0000 7.7156 0.0000
# 2 29.9681 62.5607 19.2684 0.0000 1.9244 0.0000
# 3 40.2734 19.2684 111.8020 0.0000 5.7566 0.0000
# 4 0.0000 0.0000 0.0000 22.6656 0.0000 -5.4438
# 5 7.7156 1.9244 5.7566 0.0000 33.1986 0.0000
# 6 0.0000 0.0000 0.0000 -5.4438 0.0000 40.0714
#
#
#
# Elastic Compliance Matrix: (Units=1/GPa)
#
#
# Indices 1 2 3 4 5 6 
#
# 1 0.009431 -0.003642 -0.002692 0.000000 -0.001514 0.000000
# 2 -0.003642 0.018295 -0.001846 0.000000 0.000106 0.000000
# 3 -0.002692 -0.001846 0.010286 0.000000 -0.001051 0.000000
# 4 0.000000 0.000000 0.000000 0.045608 0.000000 0.006196
# 5 -0.001514 0.000106 -0.001051 0.000000 0.030650 0.000000
# 6 0.000000 0.000000 0.000000 0.006196 0.000000 0.025797
#
#
# Mechanical properties :
#
#
# Convention : Reuss Voigt Hill
#
# Bulk Modulus (GPa) = 46.18608 53.74683 49.96645
# Shear Modulus (GPa) = 30.55407 33.53322 32.04364
#
# Velocity S-wave (km/s) = 3.90568 4.09166 3.99975
# Velocity P-wave (km/s) = 6.58770 7.01111 6.80270
#
# Compressibility (1/GPa) = 0.02165155
#
# Stress axis : x y z
#
# Youngs Moduli (GPa) = 106.03311 54.66096 97.21673
#
# Poissons Ratio (x) = 0.19908 0.26167
# Poissons Ratio (y) = 0.38619 0.17951
# Poissons Ratio (z) = 0.28540 0.10093
#
# Static dielectric constant tensor:
#      x y z
#    x 3.917110 0.000000 -0.027430 
#    y 0.000000 3.398930 0.000000 
#    z -0.027430 0.000000 3.796040 
# 
# 
# High freq. dielectric constant tensor:
#      x y z
#    x 1.803560 0.000000 -0.003080 
#    y 0.000000 1.768460 0.000000 
#    z -0.003080 0.000000 1.787400 
# 
# From -- ./inp_files/105986.got.cif
#   From: 2010.06.25/outbox.cif.g09.slc.cpg/sg12_53_cif.got.tgz:105986.got - 2010.06.28 00:19:55.
