data_PCOD8112213
_publ_section_title
;
Structure prediction by ZEFSAII (Michael W. Deem and Ramdas Pophale) SiO2 
 PCOD8112213
Probable space group: C 2/M
;
_chemical_formula_sum "Si O2"
_cell_formula_units_Z 48
_cell_length_a 28.799588
_cell_length_b 8.937721
_cell_length_c 14.530876
_cell_angle_alpha 90.000000
_cell_angle_beta 38.530470
_cell_angle_gamma 90.000000
_cell_volume 2329.939417
_symmetry_space_group_name_H-M "C 2/M"
_symmetry_group_IT_number 12
_symmetry_cell_setting 'monoclinic'
loop_
_space_group_symop_operation_xyz
x,y,z
-x,y,-z
-x,-y,-z
x,-y,z
1/2+x,1/2+y,z
1/2-x,1/2+y,-z
1/2-x,1/2-y,-z
1/2+x,1/2-y,z
loop_
_atom_site_type_symbol
_atom_site_label
_atom_site_fract_x
_atom_site_fract_y
_atom_site_fract_z
Si Si1 0.505014 0.176799 0.598527
Si Si2 0.256918 0.170427 0.893163
Si Si3 0.727627 0.823671 0.629681
Si Si4 0.570256 0.825537 0.954617
Si Si5 0.909913 0.170051 0.890031
Si Si6 0.155222 0.176921 0.397347
O O1 0.500000 0.227103 0.500000
O O2 0.432484 0.235257 0.764873
O O3 0.574747 0.252859 0.542207
O O4 0.511515 0.000000 0.597586
O O5 0.318533 0.258091 0.740439
O O6 0.283920 0.000000 0.864925
O O7 0.250000 0.250000 0.000000
O O8 0.178801 0.177841 0.961199
O O9 0.750000 0.750000 0.500000
O O10 0.645635 0.768693 0.787960
O O11 0.788109 0.772540 0.611077
O O12 0.728132 0.000000 0.615225
O O13 0.577418 0.000000 0.967322
O O14 0.500000 0.790402 0.000000
O O15 0.554749 0.738578 0.072931
O O16 0.937753 0.000000 0.835048
O O17 0.149268 0.000000 0.399059
#
# Coordination Sequence:
#
# PCOD8112213 Si02
#       6
#     8   8   8   8   8   8
#     4  11  25  43  64  91 125 168 213 258 311 371
#     4  11  23  39  63  93 124 163 206 254 310 370
#     4  10  23  41  63  93 127 163 204 254 311 369
#     4  10  22  42  66  93 124 164 209 254 308 371
#     4  11  24  41  63  93 127 164 206 258 313 368
#     4  11  23  41  64  92 127 164 206 258 310 369
#
# _framework density 20.601393999999999
#
# number of rings (size 3 to 8) (size 9 to 14) (size 15 to 20)
#    0.000    1.333    1.667    3.000    2.333    8.333 
#    0.000    0.000    0.000    0.000    0.000    0.000 
#    0.000    0.000    0.000    0.000    0.000    0.000 
#
# Total GULP energy -297757.144008 kJ/mol
# GULP energy per Si atom -12406.547667 kJ/mol
# Density = 2.055450 g / cm^3
# Si number density = 20.601394 Si / 1000 Ang^3
#
#
#
# Elastic Constant Matrix: (Units=GPa)
#
#
# Indices 1 2 3 4 5 6 
#
# 1 91.5255 41.3903 22.6673 0.0000 5.2714 0.0000
# 2 41.3903 84.4083 27.9197 -0.0004 6.4000 0.0000
# 3 22.6673 27.9197 88.2849 -0.0001 8.3620 0.0000
# 4 0.0000 -0.0004 -0.0001 41.8073 0.0000 4.7184
# 5 5.2714 6.4000 8.3620 0.0000 43.2158 0.0000
# 6 0.0000 0.0000 0.0000 4.7184 0.0000 32.4201
#
#
#
# Elastic Compliance Matrix: (Units=1/GPa)
#
#
# Indices 1 2 3 4 5 6 
#
# 1 0.014253 -0.006430 -0.001581 0.000000 -0.000481 0.000000
# 2 -0.006430 0.016190 -0.003378 0.000000 -0.000960 0.000000
# 3 -0.001581 -0.003378 0.012973 0.000000 -0.001817 0.000000
# 4 0.000000 0.000000 0.000000 0.024319 0.000000 -0.003539
# 5 -0.000481 -0.000960 -0.001817 0.000000 0.023692 0.000000
# 6 0.000000 0.000000 0.000000 -0.003539 0.000000 0.031360
#
#
# Mechanical properties :
#
#
# Convention : Reuss Voigt Hill
#
# Bulk Modulus (GPa) = 48.45187 49.79706 49.12446
# Shear Modulus (GPa) = 32.79891 34.97140 33.88516
#
# Velocity S-wave (km/s) = 3.99441 4.12457 4.06001
# Velocity P-wave (km/s) = 6.69653 6.84887 6.77313
#
# Compressibility (1/GPa) = 0.02063904
#
# Stress axis : x y z
#
# Youngs Moduli (GPa) = 70.16201 61.76553 77.08156
#
# Poissons Ratio (x) = 0.39713 0.12183
# Poissons Ratio (y) = 0.45112 0.26041
# Poissons Ratio (z) = 0.11089 0.20867
#
# Static dielectric constant tensor:
#      x y z
#    x 3.767590 0.000000 -0.130990 
#    y 0.000000 3.785740 0.000000 
#    z -0.130990 0.000000 3.818970 
# 
# 
# High freq. dielectric constant tensor:
#      x y z
#    x 1.813010 0.000000 -0.003270 
#    y 0.000000 1.808580 0.000000 
#    z -0.003270 0.000000 1.815410 
# 
# From -- ./inp_files/244688.got.cif
#   From: 2010.06.25/outbox.cif.g09.slc.cpg/sg12_123_cif.got.tgz:244688.got - 2010.06.28 00:19:55.
