data_PCOD8112145
_publ_section_title
;
Structure prediction by ZEFSAII (Michael W. Deem and Ramdas Pophale) SiO2 
 PCOD8112145
Probable space group: C 2/M
;
_chemical_formula_sum "Si O2"
_cell_formula_units_Z 56
_cell_length_a 20.778513
_cell_length_b 22.277119
_cell_length_c 16.793519
_cell_angle_alpha 90.000000
_cell_angle_beta 20.489919
_cell_angle_gamma 90.000000
_cell_volume 2721.047134
_symmetry_space_group_name_H-M "C 2/M"
_symmetry_group_IT_number 12
_symmetry_cell_setting 'monoclinic'
loop_
_space_group_symop_operation_xyz
x,y,z
-x,y,-z
-x,-y,-z
x,-y,z
1/2+x,1/2+y,z
1/2-x,1/2+y,-z
1/2-x,1/2-y,-z
1/2+x,1/2-y,z
loop_
_atom_site_type_symbol
_atom_site_label
_atom_site_fract_x
_atom_site_fract_y
_atom_site_fract_z
Si Si1 0.480047 0.641559 0.834693
Si Si2 0.844656 0.629710 0.489766
Si Si3 0.844050 0.694134 0.117103
Si Si4 0.067557 0.265611 0.161142
Si Si5 0.212632 0.066588 0.236408
Si Si6 0.700090 0.820177 0.294671
Si Si7 0.214736 0.432711 0.032045
O O1 0.672355 0.609141 0.634408
O O2 0.542826 0.704206 0.723242
O O3 0.365803 0.604730 0.903506
O O4 0.352107 0.657859 0.056927
O O5 0.754887 0.641283 0.679422
O O6 0.936028 0.693177 0.364511
O O7 0.004302 0.580185 0.301014
O O8 0.782496 0.624838 0.204590
O O9 0.698326 0.747277 0.305691
O O10 0.896196 0.700346 0.964046
O O11 0.000000 0.707949 0.000000
O O12 0.250000 0.250000 0.000000
O O13 0.256997 0.079623 0.093366
O O14 0.000000 0.062301 0.500000
O O15 0.297333 0.000000 0.162000
O O16 0.500000 0.840976 0.500000
O O17 0.257236 0.500000 0.006800
#
# Coordination Sequence:
#
# PCOD8112145 Si02
#       7
#     8   8   8   8   8   8   8
#     4  11  23  39  64  96 130 163 218 267 329 389
#     4  12  22  40  66  95 130 169 215 272 324 390
#     4  11  22  36  59  96 130 160 215 264 322 386
#     4  11  20  39  63  93 127 174 214 264 335 396
#     4  10  22  42  64  86 122 171 217 263 318 384
#     4  11  21  39  63  94 132 169 201 264 334 394
#     4  11  24  45  67  91 127 174 223 268 323 388
#
# _framework density 20.580311999999999
#
# number of rings (size 3 to 8) (size 9 to 14) (size 15 to 20)
#    0.000    1.000    4.286    3.857    0.000    3.143 
#    0.000    1.429    0.000    1.714    0.000    0.000 
#    0.000    0.000    0.000    0.000    0.000    0.000 
#
# Total GULP energy -346944.056203 kJ/mol
# GULP energy per Si atom -12390.859150 kJ/mol
# Density = 2.053347 g / cm^3
# Si number density = 20.580312 Si / 1000 Ang^3
#
#
#
# Elastic Constant Matrix: (Units=GPa)
#
#
# Indices 1 2 3 4 5 6 
#
# 1 52.8219 -3.5697 13.4143 -0.0213 -3.8039 0.0560
# 2 -3.5697 72.9821 9.8874 -0.0209 6.5743 0.0896
# 3 13.4143 9.8874 68.5640 -0.0396 -15.0386 0.1243
# 4 -0.0213 -0.0209 -0.0396 15.9053 0.0383 12.1629
# 5 -3.8039 6.5743 -15.0386 0.0383 37.0783 -0.0590
# 6 0.0560 0.0896 0.1243 12.1629 -0.0590 16.7246
#
#
#
# Elastic Compliance Matrix: (Units=1/GPa)
#
#
# Indices 1 2 3 4 5 6 
#
# 1 0.020091 0.001531 -0.004126 0.000118 0.000116 -0.000130
# 2 0.001531 0.014548 -0.003215 0.000175 -0.003727 -0.000199
# 3 -0.004126 -0.003215 0.017440 0.000163 0.007220 -0.000191
# 4 0.000118 0.000175 0.000163 0.141656 -0.000263 -0.103022
# 5 0.000116 -0.003727 0.007220 -0.000263 0.030571 0.000265
# 6 -0.000130 -0.000199 -0.000191 -0.103022 0.000265 0.134719
#
#
# Mechanical properties :
#
#
# Convention : Reuss Voigt Hill
#
# Bulk Modulus (GPa) = 24.71494 25.98133 25.34813
# Shear Modulus (GPa) = 13.01640 25.58405 19.30023
#
# Velocity S-wave (km/s) = 2.51762 3.52963 3.06567
# Velocity P-wave (km/s) = 4.52618 5.40951 4.98744
#
# Compressibility (1/GPa) = 0.04046136
#
# Stress axis : x y z
#
# Youngs Moduli (GPa) = 49.77261 68.73612 57.34057
#
# Poissons Ratio (x) = -0.10527 0.23658
# Poissons Ratio (y) = -0.07622 0.18432
# Poissons Ratio (z) = 0.20536 0.22096
#
# Static dielectric constant tensor:
#      x y z
#    x 3.854040 -0.000130 0.080210 
#    y -0.000130 4.059270 0.000150 
#    z 0.080210 0.000150 3.690180 
# 
# 
# High freq. dielectric constant tensor:
#      x y z
#    x 1.809590 -0.000020 0.000880 
#    y -0.000020 1.802820 0.000040 
#    z 0.000880 0.000040 1.802900 
# 
# From -- ./inp_files/286001.got.cif
#   From: 2010.06.25/outbox.cif.g09.slc.cpg/sg12_144_cif.got.tgz:286001.got - 2010.06.28 00:19:55.
