data_PCOD8112357
_publ_section_title
;
Structure prediction by ZEFSAII (Michael W. Deem and Ramdas Pophale) SiO2 
 PCOD8112357
Probable space group: C 2/M
;
_chemical_formula_sum "Si O2"
_cell_formula_units_Z 56
_cell_length_a 9.713969
_cell_length_b 14.155216
_cell_length_c 22.160942
_cell_angle_alpha 90.000000
_cell_angle_beta 113.390611
_cell_angle_gamma 90.000000
_cell_volume 2796.783206
_symmetry_space_group_name_H-M "C 2/M"
_symmetry_group_IT_number 12
_symmetry_cell_setting 'monoclinic'
loop_
_space_group_symop_operation_xyz
x,y,z
-x,y,-z
-x,-y,-z
x,-y,z
1/2+x,1/2+y,z
1/2-x,1/2+y,-z
1/2-x,1/2-y,-z
1/2+x,1/2-y,z
loop_
_atom_site_type_symbol
_atom_site_label
_atom_site_fract_x
_atom_site_fract_y
_atom_site_fract_z
Si Si1 0.101662 0.304329 0.959046
Si Si2 0.578656 0.892323 0.344015
Si Si3 0.412823 0.739336 0.239936
Si Si4 0.905523 0.108073 0.351840
Si Si5 0.154737 0.500000 0.990407
Si Si6 0.911590 0.185599 0.842168
Si Si7 0.919160 0.258513 0.547276
Si Si8 0.013296 0.000000 0.928735
O O1 0.154921 0.408411 0.948396
O O2 0.012769 0.267044 0.887381
O O3 0.250000 0.250000 0.000000
O O4 0.000000 0.305202 0.000000
O O5 0.497568 0.832146 0.278237
O O6 0.755671 0.890161 0.364952
O O7 0.544734 0.846230 0.402731
O O8 0.517355 0.000000 0.332018
O O9 0.375121 0.663524 0.284764
O O10 0.259395 0.779063 0.184381
O O11 0.521524 0.680137 0.213781
O O12 0.032646 0.160064 0.413096
O O13 0.955599 0.000000 0.347399
O O14 0.308687 0.500000 0.057440
O O15 0.000000 0.500000 0.000000
O O16 0.933050 0.090373 0.884739
O O17 0.750000 0.250000 0.500000
O O18 0.000000 0.281712 0.500000
O O19 0.000000 0.000000 0.000000
#
# Coordination Sequence:
#
# PCOD8112357 Si02
#       8
#     8   8   8   8   4   8   8   4
#     4  11  22  42  63  87 121 160 200 258 325 388
#     4  10  22  43  66  94 137 175 218 276 321 371
#     4  11  25  45  63  98 125 175 221 272 320 385
#     4  10  22  43  67  92 134 180 219 272 321 382
#     4  10  24  42  62  88 124 160 200 246 330 394
#     4  12  26  43  67  93 128 166 217 266 328 402
#     4  11  22  39  66 102 136 173 221 266 321 385
#     4  12  28  46  66  98 132 164 206 275 347 401
#
# _framework density 20.023002999999999
#
# number of rings (size 3 to 8) (size 9 to 14) (size 15 to 20)
#    0.000    1.143    4.286    1.286    6.000    1.143 
#    2.571    1.429    0.000    0.000    0.000    0.000 
#    0.000    0.000    0.000    0.000    0.000    0.000 
#
# Total GULP energy -347100.055604 kJ/mol
# GULP energy per Si atom -12396.430557 kJ/mol
# Density = 1.997743 g / cm^3
# Si number density = 20.023003 Si / 1000 Ang^3
#
#
#
# Elastic Constant Matrix: (Units=GPa)
#
#
# Indices 1 2 3 4 5 6 
#
# 1 91.7731 33.9644 32.0302 0.0000 4.5902 0.0000
# 2 33.9644 184.8258 61.7766 0.0000 3.2674 0.0000
# 3 32.0302 61.7766 110.2583 0.0000 9.6724 0.0000
# 4 0.0000 0.0000 0.0000 31.2515 0.0000 2.4212
# 5 4.5902 3.2674 9.6724 0.0000 47.2602 0.0000
# 6 0.0000 0.0000 0.0000 2.4212 0.0000 27.1646
#
#
#
# Elastic Compliance Matrix: (Units=1/GPa)
#
#
# Indices 1 2 3 4 5 6 
#
# 1 0.012396 -0.001330 -0.002809 0.000000 -0.000537 0.000000
# 2 -0.001330 0.006804 -0.003458 0.000000 0.000366 0.000000
# 3 -0.002809 -0.003458 0.011994 0.000000 -0.001943 0.000000
# 4 0.000000 0.000000 0.000000 0.032221 0.000000 -0.002872
# 5 -0.000537 0.000366 -0.001943 0.000000 0.021584 0.000000
# 6 0.000000 0.000000 0.000000 -0.002872 0.000000 0.037069
#
#
# Mechanical properties :
#
#
# Convention : Reuss Voigt Hill
#
# Bulk Modulus (GPa) = 62.49933 71.37772 66.93852
# Shear Modulus (GPa) = 35.06462 38.40767 36.73614
#
# Velocity S-wave (km/s) = 4.18929 4.38445 4.28798
# Velocity P-wave (km/s) = 7.39471 7.83304 7.61703
#
# Compressibility (1/GPa) = 0.01600017
#
# Stress axis : x y z
#
# Youngs Moduli (GPa) = 80.67309 146.96722 83.37738
#
# Poissons Ratio (x) = 0.19540 0.23420
# Poissons Ratio (y) = 0.10726 0.28834
# Poissons Ratio (z) = 0.22660 0.50825
#
# Static dielectric constant tensor:
#      x y z
#    x 3.532340 0.000000 -0.040810 
#    y 0.000000 4.347360 0.000000 
#    z -0.040810 0.000000 3.668060 
# 
# 
# High freq. dielectric constant tensor:
#      x y z
#    x 1.792290 0.000000 0.005840 
#    y 0.000000 1.792800 0.000000 
#    z 0.005840 0.000000 1.783220 
# 
# From -- ./inp_files/356207.got.cif
#   From: 2010.06.25/outbox.cif.g09.slc.cpg/sg12_179_cif.got.tgz:356207.got - 2010.06.28 00:19:55.
