data_PCOD8112386
_publ_section_title
;
Structure prediction by ZEFSAII (Michael W. Deem and Ramdas Pophale) SiO2 
 PCOD8112386
Probable space group: C 2/M
;
_chemical_formula_sum "Si O2"
_cell_formula_units_Z 32
_cell_length_a 10.936660
_cell_length_b 22.563804
_cell_length_c 4.998413
_cell_angle_alpha 90.000000
_cell_angle_beta 87.661548
_cell_angle_gamma 90.000000
_cell_volume 1232.444446
_symmetry_space_group_name_H-M "C 2/M"
_symmetry_group_IT_number 12
_symmetry_cell_setting 'monoclinic'
loop_
_space_group_symop_operation_xyz
x,y,z
-x,y,-z
-x,-y,-z
x,-y,z
1/2+x,1/2+y,z
1/2-x,1/2+y,-z
1/2-x,1/2-y,-z
1/2+x,1/2-y,z
loop_
_atom_site_type_symbol
_atom_site_label
_atom_site_fract_x
_atom_site_fract_y
_atom_site_fract_z
Si Si1 0.500000 0.841747 0.500000
Si Si2 0.000000 0.855781 0.000000
Si Si3 0.694380 0.566847 0.723982
Si Si4 0.882287 0.253927 0.851571
Si Si5 0.148710 0.567846 0.795100
O O1 0.385002 0.797399 0.591149
O O2 0.457050 0.885622 0.266658
O O3 0.076739 0.893929 0.785980
O O4 0.083000 0.815141 0.192507
O O5 0.654359 0.500000 0.787565
O O6 0.805649 0.584410 0.912243
O O7 0.737343 0.575310 0.416718
O O8 0.750000 0.250000 0.000000
O O9 0.000000 0.282172 0.000000
O O10 0.097854 0.500000 0.786339
#
# Coordination Sequence:
#
# PCOD8112386 Si02
#       5
#     4   4   8   8   8
#     4  12  25  40  74  96 145 190 238 292 360 422
#     4  10  23  42  68  96 143 180 242 286 356 418
#     4  10  22  43  68 101 138 182 232 293 355 422
#     4  10  26  45  65 101 142 182 243 288 353 415
#     4  10  24  42  69 102 140 181 236 291 356 424
#
# _framework density 25.964659000000001
#
# number of rings (size 3 to 8) (size 9 to 14) (size 15 to 20)
#    0.750    1.000    0.000    2.250    7.000    4.000 
#    0.000    7.500    0.000    0.000    0.000    0.000 
#    0.000    0.000    0.000    0.000    0.000    0.000 
#
# Total GULP energy -198221.201346 kJ/mol
# GULP energy per Si atom -12388.825084 kJ/mol
# Density = 2.590556 g / cm^3
# Si number density = 25.964659 Si / 1000 Ang^3
#
#
#
# Elastic Constant Matrix: (Units=GPa)
#
#
# Indices 1 2 3 4 5 6 
#
# 1 132.7720 56.8858 21.3228 0.0000 -39.0229 0.0000
# 2 56.8858 116.7631 9.1445 0.0000 -18.8943 0.0000
# 3 21.3228 9.1445 55.4721 0.0000 -17.1776 0.0000
# 4 0.0000 0.0000 0.0000 17.8113 0.0000 -1.4041
# 5 -39.0229 -18.8943 -17.1776 0.0000 40.2466 0.0000
# 6 0.0000 0.0000 0.0000 -1.4041 0.0000 -25.0108
#
#
#
# Elastic Compliance Matrix: (Units=1/GPa)
#
#
# Indices 1 2 3 4 5 6 
#
# 1 0.012381 -0.004414 -0.001101 0.000000 0.009462 0.000000
# 2 -0.004414 0.010845 0.000185 0.000000 0.000890 0.000000
# 3 -0.001101 0.000185 0.020875 0.000000 0.007929 0.000000
# 4 0.000000 0.000000 0.000000 0.055897 0.000000 -0.003138
# 5 0.009462 0.000890 0.007929 0.000000 0.037823 0.000000
# 6 0.000000 0.000000 0.000000 -0.003138 0.000000 -0.039807
#
#
# Mechanical properties :
#
#
# Convention : Reuss Voigt Hill
#
# Bulk Modulus (GPa) = 29.90584 53.30149 41.60366
# Shear Modulus (GPa) = 41.72866 21.11971 31.42419
#
# Velocity S-wave (km/s) = 4.01326 2.85511 3.48266
# Velocity P-wave (km/s) = 5.74612 5.60731 5.67714
#
# Compressibility (1/GPa) = 0.03343829
#
# Stress axis : x y z
#
# Youngs Moduli (GPa) = 80.76952 92.21227 47.90387
#
# Poissons Ratio (x) = 0.40707 0.05276
# Poissons Ratio (y) = 0.35656 -0.00885
# Poissons Ratio (z) = 0.08895 -0.01703
#
# Static dielectric constant tensor:
#      x y z
#    x 4.351170 0.000000 -0.042740 
#    y 0.000000 4.997770 0.000000 
#    z -0.042740 0.000000 4.538270 
# 
# 
# High freq. dielectric constant tensor:
#      x y z
#    x 2.022100 0.000000 -0.020170 
#    y 0.000000 2.065630 0.000000 
#    z -0.020170 0.000000 2.025160 
# 
# From -- ./inp_files/6617.got.cif
#   From: 2010.06.25/outbox.cif.g09.slc.cpg/sg12_4_cif.got.tgz:6617.got - 2010.06.28 00:19:55.
