data_PCOD8112846
_publ_section_title
;
Structure prediction by ZEFSAII (Michael W. Deem and Ramdas Pophale) SiO2 
 PCOD8112846
Probable space group: C 2/M
;
_chemical_formula_sum "Si O2"
_cell_formula_units_Z 32
_cell_length_a 18.989440
_cell_length_b 13.430280
_cell_length_c 5.512791
_cell_angle_alpha 90.000000
_cell_angle_beta 114.205470
_cell_angle_gamma 90.000000
_cell_volume 1282.336932
_symmetry_space_group_name_H-M "C 2/M"
_symmetry_group_IT_number 12
_symmetry_cell_setting 'monoclinic'
loop_
_space_group_symop_operation_xyz
x,y,z
-x,y,-z
-x,-y,-z
x,-y,z
1/2+x,1/2+y,z
1/2-x,1/2+y,-z
1/2-x,1/2-y,-z
1/2+x,1/2-y,z
loop_
_atom_site_type_symbol
_atom_site_label
_atom_site_fract_x
_atom_site_fract_y
_atom_site_fract_z
Si Si1 0.227523 0.612668 0.188399
Si Si2 0.350994 0.753964 0.279814
Si Si3 0.045130 0.112471 0.819530
Si Si4 0.928296 0.611930 0.731632
O O1 0.256566 0.500000 0.196567
O O2 0.300058 0.680336 0.381873
O O3 0.154373 0.617601 0.258228
O O4 0.203195 0.656849 0.892553
O O5 0.383021 0.688094 0.100772
O O6 0.424205 0.805579 0.515584
O O7 0.000000 0.119382 0.500000
O O8 0.075545 0.000000 0.899156
O O9 0.000000 0.144657 0.000000
O O10 0.942053 0.500000 0.648835
O O11 0.000000 0.642230 0.000000
#
# Coordination Sequence:
#
# PCOD8112846 Si02
#       4
#     8   8   8   8
#     4  10  23  42  63  97 138 180 233 292 351 418
#     4  11  23  39  70  97 131 186 237 286 354 427
#     4  10  24  44  67 101 142 183 233 293 353 419
#     4  10  23  42  66 101 142 182 233 295 355 420
#
# _framework density 24.954439000000001
#
# number of rings (size 3 to 8) (size 9 to 14) (size 15 to 20)
#    0.000    1.750    0.000    2.250    7.000    0.000 
#    0.000    3.750    0.000    4.500    0.000    0.000 
#    0.000    0.000    0.000    0.000    0.000    0.000 
#
# Total GULP energy -198321.217453 kJ/mol
# GULP energy per Si atom -12395.076091 kJ/mol
# Density = 2.489764 g / cm^3
# Si number density = 24.954439 Si / 1000 Ang^3
#
#
#
# Elastic Constant Matrix: (Units=GPa)
#
#
# Indices 1 2 3 4 5 6 
#
# 1 106.8963 46.2840 32.0132 0.0000 -3.4506 0.0000
# 2 46.2840 161.2491 49.9193 0.0000 8.7483 0.0000
# 3 32.0132 49.9193 90.7077 0.0000 3.1319 0.0000
# 4 0.0000 0.0000 0.0000 21.3931 0.0000 14.6806
# 5 -3.4506 8.7483 3.1319 0.0000 37.6722 0.0000
# 6 0.0000 0.0000 0.0000 14.6806 0.0000 21.9276
#
#
#
# Elastic Compliance Matrix: (Units=1/GPa)
#
#
# Indices 1 2 3 4 5 6 
#
# 1 0.011304 -0.002519 -0.002667 0.000000 0.001842 0.000000
# 2 -0.002519 0.008111 -0.003512 0.000000 -0.001822 0.000000
# 3 -0.002667 -0.003512 0.013918 0.000000 -0.000586 0.000000
# 4 0.000000 0.000000 0.000000 0.086472 0.000000 -0.057893
# 5 0.001842 -0.001822 -0.000586 0.000000 0.027185 0.000000
# 6 0.000000 0.000000 0.000000 -0.057893 0.000000 0.084364
#
#
# Mechanical properties :
#
#
# Convention : Reuss Voigt Hill
#
# Bulk Modulus (GPa) = 62.74279 68.36513 65.55396
# Shear Modulus (GPa) = 19.68026 31.57437 25.62731
#
# Velocity S-wave (km/s) = 2.81133 3.56094 3.20810
# Velocity P-wave (km/s) = 5.97793 6.66052 6.32843
#
# Compressibility (1/GPa) = 0.01593809
#
# Stress axis : x y z
#
# Youngs Moduli (GPa) = 88.46761 123.29592 71.84765
#
# Poissons Ratio (x) = 0.31057 0.19160
# Poissons Ratio (y) = 0.22284 0.25230
# Poissons Ratio (z) = 0.23592 0.43297
#
# Static dielectric constant tensor:
#      x y z
#    x 4.393490 0.000000 0.106840 
#    y 0.000000 5.039800 0.000000 
#    z 0.106840 0.000000 4.140510 
# 
# 
# High freq. dielectric constant tensor:
#      x y z
#    x 1.997190 0.000000 0.004850 
#    y 0.000000 2.027530 0.000000 
#    z 0.004850 0.000000 1.958270 
# 
# From -- ./inp_files/14595.got.cif
#   From: 2010.06.25/outbox.cif.g09.slc.cpg/sg12_8_cif.got.tgz:14595.got - 2010.06.28 00:19:55.
