data_PCOD8112852
_publ_section_title
;
Structure prediction by ZEFSAII (Michael W. Deem and Ramdas Pophale) SiO2 
 PCOD8112852
Probable space group: C 2/M
;
_chemical_formula_sum "Si O2"
_cell_formula_units_Z 56
_cell_length_a 15.280658
_cell_length_b 8.569229
_cell_length_c 24.140867
_cell_angle_alpha 90.000000
_cell_angle_beta 61.847659
_cell_angle_gamma 90.000000
_cell_volume 2787.119860
_symmetry_space_group_name_H-M "C 2/M"
_symmetry_group_IT_number 12
_symmetry_cell_setting 'monoclinic'
loop_
_space_group_symop_operation_xyz
x,y,z
-x,y,-z
-x,-y,-z
x,-y,z
1/2+x,1/2+y,z
1/2-x,1/2+y,-z
1/2-x,1/2-y,-z
1/2+x,1/2-y,z
loop_
_atom_site_type_symbol
_atom_site_label
_atom_site_fract_x
_atom_site_fract_y
_atom_site_fract_z
Si Si1 0.912757 0.318864 0.787133
Si Si2 0.578117 0.685303 0.432148
Si Si3 0.310793 0.321004 0.121945
Si Si4 0.000023 0.178701 0.868786
Si Si5 0.849337 0.317514 0.995961
Si Si6 0.983273 0.182479 0.348224
Si Si7 0.227665 0.316153 0.566791
O O1 0.922290 0.500000 0.768883
O O2 0.798723 0.267151 0.827767
O O3 0.971965 0.287618 0.825918
O O4 0.958319 0.215552 0.725178
O O5 0.500000 0.752708 0.500000
O O6 0.574473 0.500000 0.433683
O O7 0.547885 0.747957 0.380466
O O8 0.687941 0.744493 0.415664
O O9 0.308988 0.500000 0.101502
O O10 0.383080 0.301821 0.153121
O O11 0.350539 0.211679 0.061086
O O12 0.973802 0.000000 0.862087
O O13 0.941550 0.229563 0.941081
O O14 0.857493 0.500000 0.980858
O O15 0.750000 0.250000 0.000000
O O16 0.877224 0.264855 0.377750
O O17 0.964146 0.000000 0.360517
O O18 0.231638 0.500000 0.560695
O O19 0.250000 0.250000 0.500000
#
# Coordination Sequence:
#
# PCOD8112852 Si02
#       7
#     8   8   8   8   8   8   8
#     4  11  24  43  63  87 123 165 206 253 305 368
#     4   9  18  36  61  88 120 157 194 239 296 359
#     4  10  23  42  64  90 125 163 205 259 313 364
#     4  11  23  41  65  93 125 164 206 256 312 368
#     4  12  23  37  62  94 126 163 207 258 312 367
#     4  11  23  41  63  88 121 161 204 251 302 362
#     4  11  21  37  62  92 123 156 196 244 300 360
#
# _framework density 20.092427000000001
#
# number of rings (size 3 to 8) (size 9 to 14) (size 15 to 20)
#    0.000    1.286    2.857    3.429    0.000    4.571 
#    0.000    6.429    0.000    0.000    0.000    0.000 
#    0.000    0.000    0.000    0.000    0.000    0.000 
#
# Total GULP energy -347328.357455 kJ/mol
# GULP energy per Si atom -12404.584195 kJ/mol
# Density = 2.004670 g / cm^3
# Si number density = 20.092427 Si / 1000 Ang^3
#
#
#
# Elastic Constant Matrix: (Units=GPa)
#
#
# Indices 1 2 3 4 5 6 
#
# 1 164.8100 27.5588 58.7448 0.0000 0.0460 0.0000
# 2 27.5588 51.7658 8.1608 0.0000 -0.3427 0.0001
# 3 58.7448 8.1608 113.9048 0.0000 -3.0032 0.0000
# 4 0.0000 0.0000 0.0000 31.9555 0.0000 0.5681
# 5 0.0460 -0.3427 -3.0032 0.0000 9.6075 0.0000
# 6 0.0000 0.0001 0.0000 0.5681 0.0000 27.4293
#
#
#
# Elastic Compliance Matrix: (Units=1/GPa)
#
#
# Indices 1 2 3 4 5 6 
#
# 1 0.008092 -0.003695 -0.003946 0.000000 -0.001404 0.000000
# 2 -0.003695 0.021227 0.000409 0.000000 0.000903 0.000000
# 3 -0.003946 0.000409 0.010875 0.000000 0.003433 0.000000
# 4 0.000000 0.000000 0.000000 0.031305 0.000000 -0.000648
# 5 -0.001404 0.000903 0.003433 0.000000 0.105197 0.000000
# 6 0.000000 0.000000 0.000000 -0.000648 0.000000 0.036471
#
#
# Mechanical properties :
#
#
# Convention : Reuss Voigt Hill
#
# Bulk Modulus (GPa) = 38.86548 57.71215 48.28882
# Shear Modulus (GPa) = 21.16769 29.53286 25.35028
#
# Velocity S-wave (km/s) = 3.24931 3.83802 3.55587
# Velocity P-wave (km/s) = 5.78470 6.95890 6.39879
#
# Compressibility (1/GPa) = 0.02572977
#
# Stress axis : x y z
#
# Youngs Moduli (GPa) = 123.57361 47.11067 91.95016
#
# Poissons Ratio (x) = 0.17409 0.36281
# Poissons Ratio (y) = 0.45665 -0.03759
# Poissons Ratio (z) = 0.48759 -0.01926
#
# Static dielectric constant tensor:
#      x y z
#    x 3.994800 0.000000 -0.006040 
#    y 0.000000 3.596430 0.000000 
#    z -0.006040 0.000000 3.642920 
# 
# 
# High freq. dielectric constant tensor:
#      x y z
#    x 1.802990 0.000000 -0.001240 
#    y 0.000000 1.777740 0.000000 
#    z -0.001240 0.000000 1.777300 
# 
# From -- ./inp_files/338513.got.cif
#   From: 2010.06.25/outbox.cif.g09.slc.cpg/sg12_170_cif.got.tgz:338513.got - 2010.06.28 00:19:55.
