data_PCOD8112167
_publ_section_title
;
Structure prediction by ZEFSAII (Michael W. Deem and Ramdas Pophale) SiO2 
 PCOD8112167
Probable space group: C 2/M
;
_chemical_formula_sum "Si O2"
_cell_formula_units_Z 44
_cell_length_a 9.799308
_cell_length_b 9.440096
_cell_length_c 23.907732
_cell_angle_alpha 90.000000
_cell_angle_beta 71.604355
_cell_angle_gamma 90.000000
_cell_volume 2098.604718
_symmetry_space_group_name_H-M "C 2/M"
_symmetry_group_IT_number 12
_symmetry_cell_setting 'monoclinic'
loop_
_space_group_symop_operation_xyz
x,y,z
-x,y,-z
-x,-y,-z
x,-y,z
1/2+x,1/2+y,z
1/2-x,1/2+y,-z
1/2-x,1/2-y,-z
1/2+x,1/2-y,z
loop_
_atom_site_type_symbol
_atom_site_label
_atom_site_fract_x
_atom_site_fract_y
_atom_site_fract_z
Si Si1 0.524799 0.841342 0.834543
Si Si2 0.432550 0.000000 0.435115
Si Si3 0.500000 0.251485 0.500000
Si Si4 0.794461 0.500000 0.672633
Si Si5 0.886967 0.338001 0.965651
Si Si6 0.463632 0.500000 0.695639
Si Si7 0.674990 0.227281 0.238449
Si Si8 0.850945 0.000000 0.585623
O O1 0.453774 0.776122 0.899604
O O2 0.406983 0.850046 0.800974
O O3 0.660389 0.747153 0.800489
O O4 0.580166 0.000000 0.839869
O O5 0.403853 0.856261 0.474738
O O6 0.322025 0.000000 0.397655
O O7 0.596841 0.000000 0.393364
O O8 0.405605 0.354766 0.550747
O O9 0.635399 0.500000 0.666924
O O10 0.824602 0.637866 0.705168
O O11 0.839869 0.500000 0.962605
O O12 0.750000 0.250000 0.000000
O O13 0.000000 0.322060 0.000000
O O14 0.411531 0.368712 0.738314
O O15 0.389764 0.500000 0.645092
#
# Coordination Sequence:
#
# PCOD8112167 Si02
#       8
#     8   4   4   4   8   4   8   4
#     4  11  23  41  67  93 129 174 214 268 327 383
#     4  11  25  43  72  96 132 174 212 265 320 380
#     4  10  24  46  68 102 134 164 218 262 316 384
#     4  12  27  43  62  99 134 168 218 269 322 384
#     4  10  22  42  64  96 130 166 215 269 325 387
#     4  12  27  43  64  97 132 171 214 274 320 378
#     4  12  24  42  64  92 131 170 222 266 324 386
#     4  11  25  43  72  98 130 174 216 262 322 377
#
# _framework density 20.96631
#
# number of rings (size 3 to 8) (size 9 to 14) (size 15 to 20)
#    0.000    0.909    3.636    2.727    2.545    7.636 
#    3.273    0.000    0.000    0.000    0.000    0.000 
#    0.000    0.000    0.000    0.000    0.000    0.000 
#
# Total GULP energy -272862.614544 kJ/mol
# GULP energy per Si atom -12402.846116 kJ/mol
# Density = 2.091859 g / cm^3
# Si number density = 20.966310 Si / 1000 Ang^3
#
#
#
# Elastic Constant Matrix: (Units=GPa)
#
#
# Indices 1 2 3 4 5 6 
#
# 1 106.6440 14.8141 21.5740 0.0000 5.1370 0.0000
# 2 14.8141 107.2515 25.7574 0.0000 -6.0564 0.0000
# 3 21.5740 25.7574 101.5320 0.0000 4.8913 0.0000
# 4 0.0000 0.0000 0.0000 32.5915 0.0000 4.8477
# 5 5.1370 -6.0564 4.8913 0.0000 36.1563 0.0000
# 6 0.0000 0.0000 0.0000 4.8477 0.0000 37.9270
#
#
#
# Elastic Compliance Matrix: (Units=1/GPa)
#
#
# Indices 1 2 3 4 5 6 
#
# 1 0.009945 -0.001020 -0.001790 0.000000 -0.001342 0.000000
# 2 -0.001020 0.010182 -0.002472 0.000000 0.002185 0.000000
# 3 -0.001790 -0.002472 0.010935 0.000000 -0.001639 0.000000
# 4 0.000000 0.000000 0.000000 0.031277 0.000000 -0.003998
# 5 -0.001342 0.002185 -0.001639 0.000000 0.028436 0.000000
# 6 0.000000 0.000000 0.000000 -0.003998 0.000000 0.026877
#
#
# Mechanical properties :
#
#
# Convention : Reuss Voigt Hill
#
# Bulk Modulus (GPa) = 48.77996 48.85763 48.81880
# Shear Modulus (GPa) = 37.02363 38.22043 37.62203
#
# Velocity S-wave (km/s) = 4.20678 4.27423 4.24064
# Velocity P-wave (km/s) = 6.84926 6.90740 6.87839
#
# Compressibility (1/GPa) = 0.02050022
#
# Stress axis : x y z
#
# Youngs Moduli (GPa) = 100.54946 98.21600 91.44604
#
# Poissons Ratio (x) = 0.10014 0.16368
# Poissons Ratio (y) = 0.10252 0.22601
# Poissons Ratio (z) = 0.17998 0.24275
#
# Static dielectric constant tensor:
#      x y z
#    x 3.703700 0.000000 0.063340 
#    y 0.000000 3.722940 0.000000 
#    z 0.063340 0.000000 3.843460 
# 
# 
# High freq. dielectric constant tensor:
#      x y z
#    x 1.826700 0.000000 0.004910 
#    y 0.000000 1.830650 0.000000 
#    z 0.004910 0.000000 1.830970 
# 
# From -- ./inp_files/332208.got.cif
#   From: 2010.06.25/outbox.cif.g09.slc.cpg/sg12_167_cif.got.tgz:332208.got - 2010.06.28 00:19:55.
