data_PCOD8112972
_publ_section_title
;
Structure prediction by ZEFSAII (Michael W. Deem and Ramdas Pophale) SiO2 
 PCOD8112972
Probable space group: C 2/M
;
_chemical_formula_sum "Si O2"
_cell_formula_units_Z 48
_cell_length_a 20.087783
_cell_length_b 8.823189
_cell_length_c 33.248535
_cell_angle_alpha 90.000000
_cell_angle_beta 155.159862
_cell_angle_gamma 90.000000
_cell_volume 2475.541959
_symmetry_space_group_name_H-M "C 2/M"
_symmetry_group_IT_number 12
_symmetry_cell_setting 'monoclinic'
loop_
_space_group_symop_operation_xyz
x,y,z
-x,y,-z
-x,-y,-z
x,-y,z
1/2+x,1/2+y,z
1/2-x,1/2+y,-z
1/2-x,1/2-y,-z
1/2+x,1/2-y,z
loop_
_atom_site_type_symbol
_atom_site_label
_atom_site_fract_x
_atom_site_fract_y
_atom_site_fract_z
Si Si1 0.915218 0.324181 0.392014
Si Si2 0.437563 0.174578 0.209740
Si Si3 0.760349 0.323982 0.391929
Si Si4 0.604843 0.678345 0.897355
Si Si5 0.852630 0.174569 0.891647
Si Si6 0.175675 0.322922 0.208601
O O1 0.894286 0.500000 0.369819
O O2 0.817434 0.283430 0.378459
O O3 0.851689 0.224193 0.319930
O O4 0.100066 0.285639 0.500060
O O5 0.609015 0.223375 0.320517
O O6 0.386710 0.276497 0.144424
O O7 0.311364 0.202018 0.175499
O O8 0.441025 0.000000 0.198123
O O9 0.713865 0.500000 0.368819
O O10 0.616456 0.500000 0.907639
O O11 0.441925 0.733188 0.826984
O O12 0.750000 0.750000 0.000000
O O13 0.853201 0.279888 0.853145
O O14 0.872175 0.000000 0.889081
O O15 0.000000 0.224187 0.000000
O O16 0.148056 0.500000 0.198732
#
# Coordination Sequence:
#
# PCOD8112972 Si02
#       6
#     8   8   8   8   8   8
#     4   9  18  35  59  87 119 158 199 239 294 355
#     4  11  22  37  60  91 120 152 199 247 299 357
#     4   9  18  34  59  88 119 158 197 240 297 354
#     4  12  24  39  60  86 119 154 195 247 298 350
#     4  10  23  43  63  82 115 163 203 242 297 357
#     4  12  24  38  60  91 121 154 199 246 297 353
#
# _framework density 19.389693000000001
#
# number of rings (size 3 to 8) (size 9 to 14) (size 15 to 20)
#    0.000    1.500    1.667    5.500    0.000    3.667 
#    0.000    2.500    0.000    0.000    0.000    0.000 
#    0.000    0.000    0.000    0.000    0.000    0.000 
#
# Total GULP energy -297706.630434 kJ/mol
# GULP energy per Si atom -12404.442935 kJ/mol
# Density = 1.934556 g / cm^3
# Si number density = 19.389693 Si / 1000 Ang^3
#
#
#
# Elastic Constant Matrix: (Units=GPa)
#
#
# Indices 1 2 3 4 5 6 
#
# 1 33.6391 22.3189 9.4965 -0.0002 -6.0551 0.0005
# 2 22.3189 113.1056 36.1671 -0.0009 -5.8207 0.0011
# 3 9.4965 36.1671 110.2844 0.0008 -4.6716 0.0004
# 4 -0.0002 -0.0009 0.0008 35.5242 -0.0001 -0.7783
# 5 -6.0551 -5.8207 -4.6716 -0.0001 33.0881 -0.0001
# 6 0.0005 0.0011 0.0004 -0.7783 -0.0001 31.0483
#
#
#
# Elastic Compliance Matrix: (Units=1/GPa)
#
#
# Indices 1 2 3 4 5 6 
#
# 1 0.035134 -0.006444 -0.000692 0.000000 0.005198 0.000000
# 2 -0.006444 0.011114 -0.003075 0.000000 0.000342 0.000000
# 3 -0.000692 -0.003075 0.010168 0.000000 0.000768 0.000000
# 4 0.000000 0.000000 0.000000 0.028165 0.000000 0.000706
# 5 0.005198 0.000342 0.000768 0.000000 0.031342 0.000000
# 6 0.000000 0.000000 0.000000 0.000706 0.000000 0.032226
#
#
# Mechanical properties :
#
#
# Convention : Reuss Voigt Hill
#
# Bulk Modulus (GPa) = 27.78306 43.66600 35.72453
# Shear Modulus (GPa) = 27.69022 32.53524 30.11273
#
# Velocity S-wave (km/s) = 3.78311 4.10074 3.94512
# Velocity P-wave (km/s) = 5.78294 6.70750 6.26231
#
# Compressibility (1/GPa) = 0.03599316
#
# Stress axis : x y z
#
# Youngs Moduli (GPa) = 28.46259 89.97770 98.34663
#
# Poissons Ratio (x) = 0.57983 0.06804
# Poissons Ratio (y) = 0.18342 0.30245
# Poissons Ratio (z) = 0.01969 0.27671
#
# Static dielectric constant tensor:
#      x y z
#    x 3.244130 0.000000 -0.020580 
#    y 0.000000 3.496240 0.000000 
#    z -0.020580 0.000000 3.775560 
# 
# 
# High freq. dielectric constant tensor:
#      x y z
#    x 1.732900 0.000000 0.001030 
#    y 0.000000 1.755430 0.000000 
#    z 0.001030 0.000000 1.776250 
# 
# From -- ./inp_files/244764.got.cif
#   From: 2010.06.25/outbox.cif.g09.slc.cpg/sg12_123_cif.got.tgz:244764.got - 2010.06.28 00:19:55.
