data_PCOD8112122
_publ_section_title
;
Structure prediction by ZEFSAII (Michael W. Deem and Ramdas Pophale) SiO2 
 PCOD8112122
Probable space group: C 2/M
;
_chemical_formula_sum "Si O2"
_cell_formula_units_Z 40
_cell_length_a 14.246076
_cell_length_b 30.517188
_cell_length_c 8.611644
_cell_angle_alpha 90.000000
_cell_angle_beta 147.898702
_cell_angle_gamma 90.000000
_cell_volume 1989.582311
_symmetry_space_group_name_H-M "C 2/M"
_symmetry_group_IT_number 12
_symmetry_cell_setting 'monoclinic'
loop_
_space_group_symop_operation_xyz
x,y,z
-x,y,-z
-x,-y,-z
x,-y,z
1/2+x,1/2+y,z
1/2-x,1/2+y,-z
1/2-x,1/2-y,-z
1/2+x,1/2-y,z
loop_
_atom_site_type_symbol
_atom_site_label
_atom_site_fract_x
_atom_site_fract_y
_atom_site_fract_z
Si Si1 0.500000 0.432388 0.000000
Si Si2 0.243423 0.863569 0.475730
Si Si3 0.267242 0.000000 0.806970
Si Si4 0.686441 0.793926 0.679772
Si Si5 0.500000 0.923739 0.000000
Si Si6 0.406990 0.500000 0.112152
Si Si7 0.539405 0.707182 0.377462
O O1 0.386115 0.403308 0.728573
O O2 0.616998 0.459684 0.040484
O O3 0.270110 0.836560 0.357145
O O4 0.159624 0.832341 0.487860
O O5 0.419460 0.888642 0.768867
O O6 0.234680 0.000000 0.947256
O O7 0.097392 0.000000 0.459867
O O8 0.369541 0.044845 0.912963
O O9 0.500000 0.802753 0.500000
O O10 0.658114 0.751329 0.531018
O O11 0.852758 0.786375 0.027270
O O12 0.500000 0.696814 0.500000
#
# Coordination Sequence:
#
# PCOD8112122 Si02
#       7
#     4   8   4   8   4   4   8
#     4  11  22  44  61 100 120 166 201 266 308 379
#     4  12  25  41  65  92 132 165 211 263 314 366
#     4  10  22  45  64  97 120 169 202 255 314 388
#     4  11  24  42  63  93 130 169 215 257 312 372
#     4  11  26  40  65  96 132 154 215 264 310 375
#     4  10  22  41  74  85 128 165 205 248 326 378
#     4  11  24  42  64  92 129 172 213 257 313 371
#
# _framework density 20.104724000000001
#
# number of rings (size 3 to 8) (size 9 to 14) (size 15 to 20)
#    0.000    1.000    4.000    3.000    5.600    3.200 
#    0.000    1.000    0.000    0.000    0.000    0.000 
#    0.000    0.000    0.000    0.000    0.000    0.000 
#
# Total GULP energy -247829.421155 kJ/mol
# GULP energy per Si atom -12391.471058 kJ/mol
# Density = 2.005896 g / cm^3
# Si number density = 20.104724 Si / 1000 Ang^3
#
#
#
# Elastic Constant Matrix: (Units=GPa)
#
#
# Indices 1 2 3 4 5 6 
#
# 1 107.9306 53.6681 19.2227 0.0000 -6.6382 0.0000
# 2 53.6681 136.7140 42.8801 0.0000 -5.4666 0.0000
# 3 19.2227 42.8801 108.9486 0.0000 -4.7197 0.0000
# 4 0.0000 0.0000 0.0000 90.2149 0.0000 -41.7778
# 5 -6.6382 -5.4666 -4.7197 0.0000 28.2786 0.0000
# 6 0.0000 0.0000 0.0000 -41.7778 0.0000 48.9921
#
#
#
# Elastic Compliance Matrix: (Units=1/GPa)
#
#
# Indices 1 2 3 4 5 6 
#
# 1 0.011614 -0.004413 -0.000233 0.000000 0.001834 0.000000
# 2 -0.004413 0.010054 -0.003162 0.000000 0.000380 0.000000
# 3 -0.000233 -0.003162 0.010511 0.000000 0.001088 0.000000
# 4 0.000000 0.000000 0.000000 0.018319 0.000000 0.015621
# 5 0.001834 0.000380 0.001088 0.000000 0.036048 0.000000
# 6 0.000000 0.000000 0.000000 0.015621 0.000000 0.033732
#
#
# Mechanical properties :
#
#
# Convention : Reuss Voigt Hill
#
# Bulk Modulus (GPa) = 60.37264 65.01500 62.69382
# Shear Modulus (GPa) = 35.35714 49.35193 42.35454
#
# Velocity S-wave (km/s) = 4.19817 4.95991 4.59485
# Velocity P-wave (km/s) = 7.32078 8.07523 7.70724
#
# Compressibility (1/GPa) = 0.01656379
#
# Stress axis : x y z
#
# Youngs Moduli (GPa) = 86.10530 99.46599 95.13517
#
# Poissons Ratio (x) = 0.43891 0.02216
# Poissons Ratio (y) = 0.37995 0.30081
# Poissons Ratio (z) = 0.02005 0.31450
#
# Static dielectric constant tensor:
#      x y z
#    x 3.624370 0.000000 0.001880 
#    y 0.000000 3.940390 0.000000 
#    z 0.001880 0.000000 3.708330 
# 
# 
# High freq. dielectric constant tensor:
#      x y z
#    x 1.783990 0.000000 -0.006780 
#    y 0.000000 1.805190 0.000000 
#    z -0.006780 0.000000 1.795040 
# 
# From -- ./inp_files/41506.got.cif
#   From: 2010.06.25/outbox.cif.g09.slc.cpg/sg12_21_cif.got.tgz:41506.got - 2010.06.28 00:19:55.
