data_PCOD8112197
_publ_section_title
;
Structure prediction by ZEFSAII (Michael W. Deem and Ramdas Pophale) SiO2 
 PCOD8112197
Probable space group: C 2/M
;
_chemical_formula_sum "Si O2"
_cell_formula_units_Z 56
_cell_length_a 10.900510
_cell_length_b 14.826346
_cell_length_c 16.916555
_cell_angle_alpha 90.000000
_cell_angle_beta 105.115873
_cell_angle_gamma 90.000000
_cell_volume 2639.370506
_symmetry_space_group_name_H-M "C 2/M"
_symmetry_group_IT_number 12
_symmetry_cell_setting 'monoclinic'
loop_
_space_group_symop_operation_xyz
x,y,z
-x,y,-z
-x,-y,-z
x,-y,z
1/2+x,1/2+y,z
1/2-x,1/2+y,-z
1/2-x,1/2-y,-z
1/2+x,1/2-y,z
loop_
_atom_site_type_symbol
_atom_site_label
_atom_site_fract_x
_atom_site_fract_y
_atom_site_fract_z
Si Si1 0.054205 0.399169 0.813914
Si Si2 0.395776 0.749428 0.051470
Si Si3 0.149969 0.599831 0.335803
Si Si4 0.061464 0.896794 0.647018
Si Si5 0.020507 0.102109 0.816209
Si Si6 0.340158 0.723423 0.586248
Si Si7 0.748691 0.103351 0.713197
O O1 0.093639 0.500000 0.846280
O O2 0.080575 0.336968 0.892071
O O3 0.128396 0.370310 0.746417
O O4 0.905398 0.394633 0.763082
O O5 0.414958 0.659568 0.104829
O O6 0.500000 0.751093 0.000000
O O7 0.250000 0.750000 0.000000
O O8 0.115873 0.500000 0.365131
O O9 0.300476 0.614849 0.365693
O O10 0.093883 0.682681 0.375786
O O11 0.065832 0.862603 0.738192
O O12 0.957592 0.840233 0.579668
O O13 0.014772 0.000000 0.637608
O O14 0.868363 0.111998 0.792543
O O15 0.064973 0.000000 0.838557
O O16 0.250000 0.750000 0.500000
O O17 0.260012 0.672689 0.641859
O O18 0.738701 0.000000 0.679477
#
# Coordination Sequence:
#
# PCOD8112197 Si02
#       7
#     8   8   8   8   8   8   8
#     4  10  22  42  66  88 121 168 213 260 314 382
#     4  12  27  40  59  96 134 164 201 263 335 397
#     4  10  23  40  62  90 122 165 215 258 307 374
#     4   9  20  41  66  91 117 164 221 261 302 369
#     4   9  19  38  65  87 114 159 211 259 302 369
#     4  11  23  36  61  95 131 163 203 259 327 375
#     4   9  19  39  67  93 117 162 223 268 307 370
#
# _framework density 21.217181
#
# number of rings (size 3 to 8) (size 9 to 14) (size 15 to 20)
#    0.000    2.000    0.000    3.857    6.000    2.857 
#    0.000    1.429    0.000    2.571    0.000    0.000 
#    0.000    0.000    0.000    0.000    0.000    0.000 
#
# Total GULP energy -347060.976385 kJ/mol
# GULP energy per Si atom -12395.034871 kJ/mol
# Density = 2.116889 g / cm^3
# Si number density = 21.217181 Si / 1000 Ang^3
#
#
#
# Elastic Constant Matrix: (Units=GPa)
#
#
# Indices 1 2 3 4 5 6 
#
# 1 63.6315 22.2452 24.1826 0.0000 20.2307 0.0000
# 2 22.2452 133.5182 65.4020 0.0000 9.6414 0.0000
# 3 24.1826 65.4020 113.9712 0.0000 25.3187 0.0000
# 4 0.0000 0.0000 0.0000 28.1807 0.0000 11.6357
# 5 20.2307 9.6414 25.3187 0.0000 27.1901 0.0000
# 6 0.0000 0.0000 0.0000 11.6357 0.0000 22.3456
#
#
#
# Elastic Compliance Matrix: (Units=1/GPa)
#
#
# Indices 1 2 3 4 5 6 
#
# 1 0.021362 -0.002642 0.000386 0.000000 -0.015317 0.000000
# 2 -0.002642 0.010866 -0.006627 0.000000 0.004283 0.000000
# 3 0.000386 -0.006627 0.015176 0.000000 -0.012069 0.000000
# 4 0.000000 0.000000 0.000000 0.045204 0.000000 -0.023539
# 5 -0.015317 0.004283 -0.012069 0.000000 0.057895 0.000000
# 6 0.000000 0.000000 0.000000 -0.023539 0.000000 0.057008
#
#
# Mechanical properties :
#
#
# Convention : Reuss Voigt Hill
#
# Bulk Modulus (GPa) = 33.73849 59.42005 46.57927
# Shear Modulus (GPa) = 21.26236 28.82934 25.04585
#
# Velocity S-wave (km/s) = 3.16908 3.69015 3.43950
# Velocity P-wave (km/s) = 5.41542 6.79873 6.14612
#
# Compressibility (1/GPa) = 0.02963974
#
# Stress axis : x y z
#
# Youngs Moduli (GPa) = 46.81134 92.02598 65.89345
#
# Poissons Ratio (x) = 0.24316 -0.02546
# Poissons Ratio (y) = 0.12369 0.43665
# Poissons Ratio (z) = -0.01809 0.60982
#
# Static dielectric constant tensor:
#      x y z
#    x 3.980420 0.000000 0.157860 
#    y 0.000000 4.174400 0.000000 
#    z 0.157860 0.000000 3.598570 
# 
# 
# High freq. dielectric constant tensor:
#      x y z
#    x 1.829020 0.000000 0.018650 
#    y 0.000000 1.853790 0.000000 
#    z 0.018650 0.000000 1.810310 
# 
# From -- ./inp_files/263403.got.cif
#   From: 2010.06.25/outbox.cif.g09.slc.cpg/sg12_132_cif.got.tgz:263403.got - 2010.06.28 00:19:55.
