data_PCOD8112260
_publ_section_title
;
Structure prediction by ZEFSAII (Michael W. Deem and Ramdas Pophale) SiO2 
 PCOD8112260
Probable space group: C 2/M
;
_chemical_formula_sum "Si O2"
_cell_formula_units_Z 24
_cell_length_a 8.877980
_cell_length_b 27.906409
_cell_length_c 8.012377
_cell_angle_alpha 90.000000
_cell_angle_beta 34.036422
_cell_angle_gamma 90.000000
_cell_volume 1111.092357
_symmetry_space_group_name_H-M "C 2/M"
_symmetry_group_IT_number 12
_symmetry_cell_setting 'monoclinic'
loop_
_space_group_symop_operation_xyz
x,y,z
-x,y,-z
-x,-y,-z
x,-y,z
1/2+x,1/2+y,z
1/2-x,1/2+y,-z
1/2-x,1/2-y,-z
1/2+x,1/2-y,z
loop_
_atom_site_type_symbol
_atom_site_label
_atom_site_fract_x
_atom_site_fract_y
_atom_site_fract_z
Si Si1 0.719747 0.445154 0.667912
Si Si2 0.719378 0.128175 0.675242
Si Si3 0.497192 0.219264 0.698725
O O1 0.669674 0.500000 0.659872
O O2 0.689790 0.412802 0.533867
O O3 0.000000 0.437953 0.500000
O O4 0.500000 0.427029 0.000000
O O5 0.540134 0.169871 0.756564
O O6 0.000000 0.147359 0.500000
O O7 0.500000 0.104351 0.000000
O O8 0.500000 0.207719 0.500000
O O9 0.750000 0.250000 0.500000
O O10 0.250000 0.250000 0.000000
#
# Coordination Sequence:
#
# PCOD8112260 Si02
#       3
#     8   8   8
#     4  10  22  42  67  96 131 172 217 264 319 381
#     4  12  25  41  64  96 131 169 216 264 321 384
#     4  12  25  43  65  90 124 164 211 264 319 376
#
# _framework density 21.600365
#
# number of rings (size 3 to 8) (size 9 to 14) (size 15 to 20)
#    0.000    0.667    0.000    9.000    0.000    4.000 
#    0.000    0.000    0.000    0.000    0.000    0.000 
#    0.000    0.000    0.000    0.000    0.000    0.000 
#
# Total GULP energy -148761.304394 kJ/mol
# GULP energy per Si atom -12396.775366 kJ/mol
# Density = 2.155120 g / cm^3
# Si number density = 21.600365 Si / 1000 Ang^3
#
#
#
# Elastic Constant Matrix: (Units=GPa)
#
#
# Indices 1 2 3 4 5 6 
#
# 1 127.8468 58.4448 71.2804 0.0000 12.6786 0.0000
# 2 58.4448 112.3249 63.8423 0.0000 17.5739 0.0000
# 3 71.2804 63.8423 211.0509 0.0000 7.0670 0.0000
# 4 0.0000 0.0000 0.0000 39.8303 0.0000 1.3543
# 5 12.6786 17.5739 7.0670 0.0000 35.6167 0.0000
# 6 0.0000 0.0000 0.0000 1.3543 0.0000 30.8690
#
#
#
# Elastic Compliance Matrix: (Units=1/GPa)
#
#
# Indices 1 2 3 4 5 6 
#
# 1 0.011284 -0.004237 -0.002482 0.000000 -0.001434 0.000000
# 2 -0.004237 0.013181 -0.002405 0.000000 -0.004518 0.000000
# 3 -0.002482 -0.002405 0.006276 0.000000 0.000825 0.000000
# 4 0.000000 0.000000 0.000000 0.025144 0.000000 -0.001103
# 5 -0.001434 -0.004518 0.000825 0.000000 0.030653 0.000000
# 6 0.000000 0.000000 0.000000 -0.001103 0.000000 0.032443
#
#
# Mechanical properties :
#
#
# Convention : Reuss Voigt Hill
#
# Bulk Modulus (GPa) = 80.03130 93.15086 86.59108
# Shear Modulus (GPa) = 35.36220 38.44021 36.90121
#
# Velocity S-wave (km/s) = 4.05051 4.22312 4.13772
# Velocity P-wave (km/s) = 7.68159 8.18523 7.93740
#
# Compressibility (1/GPa) = 0.01249511
#
# Stress axis : x y z
#
# Youngs Moduli (GPa) = 88.61728 75.86646 159.33107
#
# Poissons Ratio (x) = 0.32142 0.39540
# Poissons Ratio (y) = 0.37544 0.38320
# Poissons Ratio (z) = 0.21991 0.18246
#
# Static dielectric constant tensor:
#      x y z
#    x 3.991130 0.000000 0.052600 
#    y 0.000000 3.633890 0.000000 
#    z 0.052600 0.000000 4.171610 
# 
# 
# High freq. dielectric constant tensor:
#      x y z
#    x 1.858330 0.000000 -0.000330 
#    y 0.000000 1.848400 0.000000 
#    z -0.000330 0.000000 1.878910 
# 
# From -- ./inp_files/2761.got.cif
#   From: 2010.06.25/outbox.cif.g09.slc.cpg/sg12_2_cif.got.tgz:2761.got - 2010.06.28 00:19:55.
