data_PCOD8112394
_publ_section_title
;
Structure prediction by ZEFSAII (Michael W. Deem and Ramdas Pophale) SiO2 
 PCOD8112394
Probable space group: C 2/M
;
_chemical_formula_sum "Si O2"
_cell_formula_units_Z 44
_cell_length_a 12.220905
_cell_length_b 22.048493
_cell_length_c 11.802952
_cell_angle_alpha 90.000000
_cell_angle_beta 40.923091
_cell_angle_gamma 90.000000
_cell_volume 2083.263995
_symmetry_space_group_name_H-M "C 2/M"
_symmetry_group_IT_number 12
_symmetry_cell_setting 'monoclinic'
loop_
_space_group_symop_operation_xyz
x,y,z
-x,y,-z
-x,-y,-z
x,-y,z
1/2+x,1/2+y,z
1/2-x,1/2+y,-z
1/2-x,1/2-y,-z
1/2+x,1/2-y,z
loop_
_atom_site_type_symbol
_atom_site_label
_atom_site_fract_x
_atom_site_fract_y
_atom_site_fract_z
Si Si1 0.655094 0.000000 0.955131
Si Si2 0.235846 0.201582 0.704196
Si Si3 0.897276 0.103548 0.765625
Si Si4 0.000000 0.198893 0.500000
Si Si5 0.391716 0.500000 0.464467
Si Si6 0.482061 0.000000 0.320464
Si Si7 0.631540 0.699207 0.042814
Si Si8 0.000000 0.401788 0.500000
O O1 0.626291 0.000000 0.112765
O O2 0.500000 0.000000 0.000000
O O3 0.750161 0.060060 0.839194
O O4 0.348194 0.258432 0.579112
O O5 0.335892 0.139225 0.608061
O O6 0.063846 0.209009 0.768607
O O7 0.171621 0.200640 0.881424
O O8 0.834577 0.132227 0.933063
O O9 0.929165 0.158385 0.655512
O O10 0.060502 0.060362 0.644712
O O11 0.500000 0.500000 0.500000
O O12 0.190133 0.500000 0.619799
O O13 0.508553 0.941537 0.379272
O O14 0.750000 0.750000 0.000000
#
# Coordination Sequence:
#
# PCOD8112394 Si02
#       8
#     4   8   8   4   4   4   8   4
#     4  11  26  41  62  93 128 169 208 271 328 383
#     4  10  23  42  62  95 131 162 212 264 315 382
#     4  11  23  40  60  87 126 164 206 251 318 381
#     4  11  22  40  62  90 122 169 208 252 310 381
#     4  11  22  40  62  92 130 168 210 266 325 384
#     4  11  22  42  69  96 125 168 224 272 315 389
#     4  11  22  41  63  92 128 170 206 259 320 384
#     4  10  22  43  68  97 126 172 224 268 322 374
#
# _framework density 21.120704
#
# number of rings (size 3 to 8) (size 9 to 14) (size 15 to 20)
#    0.000    1.273    2.727    3.273    0.000    2.182 
#    3.273    0.000    0.000    8.727    0.000    0.000 
#    0.000    0.000    0.000    0.000    0.000    0.000 
#
# Total GULP energy -272538.919322 kJ/mol
# GULP energy per Si atom -12388.132696 kJ/mol
# Density = 2.107263 g / cm^3
# Si number density = 21.120704 Si / 1000 Ang^3
#
#
#
# Elastic Constant Matrix: (Units=GPa)
#
#
# Indices 1 2 3 4 5 6 
#
# 1 90.2032 49.8460 37.3281 -0.0001 -20.3387 0.0000
# 2 49.8460 158.2480 58.1130 0.0000 -15.9772 0.0000
# 3 37.3281 58.1130 106.8152 -0.0001 -12.9722 0.0000
# 4 -0.0001 0.0000 -0.0001 51.0265 0.0001 4.2984
# 5 -20.3387 -15.9772 -12.9722 0.0001 40.1130 0.0000
# 6 0.0000 0.0000 0.0000 4.2984 0.0000 14.1465
#
#
#
# Elastic Compliance Matrix: (Units=1/GPa)
#
#
# Indices 1 2 3 4 5 6 
#
# 1 0.015314 -0.003182 -0.002947 0.000000 0.005544 0.000000
# 2 -0.003182 0.008689 -0.003530 0.000000 0.000706 0.000000
# 3 -0.002947 -0.003530 0.012449 0.000000 0.001126 0.000000
# 4 0.000000 0.000000 0.000000 0.020112 0.000000 -0.006111
# 5 0.005544 0.000706 0.001126 0.000000 0.028386 0.000000
# 6 0.000000 0.000000 0.000000 -0.006111 0.000000 0.072546
#
#
# Mechanical properties :
#
#
# Convention : Reuss Voigt Hill
#
# Bulk Modulus (GPa) = 58.36119 71.76007 65.06063
# Shear Modulus (GPa) = 27.39355 35.05582 31.22468
#
# Velocity S-wave (km/s) = 3.60530 4.07847 3.84916
# Velocity P-wave (km/s) = 6.70992 7.49856 7.11518
#
# Compressibility (1/GPa) = 0.01713468
#
# Stress axis : x y z
#
# Youngs Moduli (GPa) = 65.29953 115.09085 80.32813
#
# Poissons Ratio (x) = 0.36617 0.23676
# Poissons Ratio (y) = 0.20775 0.28352
# Poissons Ratio (z) = 0.19247 0.40622
#
# Static dielectric constant tensor:
#      x y z
#    x 8.419070 0.000010 -1.926230 
#    y 0.000010 3.939990 0.000000 
#    z -1.926230 0.000000 5.005270 
# 
# 
# High freq. dielectric constant tensor:
#      x y z
#    x 1.817440 0.000000 -0.003790 
#    y 0.000000 1.840900 0.000000 
#    z -0.003790 0.000000 1.846150 
# 
# From -- ./inp_files/135821.got.cif
#   From: 2010.06.25/outbox.cif.g09.slc.cpg/sg12_68_cif.got.tgz:135821.got - 2010.06.28 00:19:55.
