data_PCOD8112103
_publ_section_title
;
Structure prediction by ZEFSAII (Michael W. Deem and Ramdas Pophale) SiO2 
 PCOD8112103
Probable space group: C 2/M
;
_chemical_formula_sum "Si O2"
_cell_formula_units_Z 64
_cell_length_a 30.941588
_cell_length_b 8.742807
_cell_length_c 24.156578
_cell_angle_alpha 90.000000
_cell_angle_beta 152.013352
_cell_angle_gamma 90.000000
_cell_volume 3066.534102
_symmetry_space_group_name_H-M "C 2/M"
_symmetry_group_IT_number 12
_symmetry_cell_setting 'monoclinic'
loop_
_space_group_symop_operation_xyz
x,y,z
-x,y,-z
-x,-y,-z
x,-y,z
1/2+x,1/2+y,z
1/2-x,1/2+y,-z
1/2-x,1/2-y,-z
1/2+x,1/2-y,z
loop_
_atom_site_type_symbol
_atom_site_label
_atom_site_fract_x
_atom_site_fract_y
_atom_site_fract_z
Si Si1 0.100879 0.325436 0.589526
Si Si2 0.779586 0.179239 0.860826
Si Si3 0.698840 0.320319 0.308848
Si Si4 0.188977 0.180118 0.979148
Si Si5 0.994136 0.325528 0.266129
Si Si6 0.101330 0.681088 0.096775
Si Si7 0.611755 0.320872 0.486421
Si Si8 0.662296 0.173604 0.373947
O O1 0.117328 0.500000 0.587719
O O2 0.179371 0.279113 0.722525
O O3 0.106913 0.208633 0.546019
O O4 0.000000 0.307010 0.500000
O O5 0.864253 0.258911 0.923838
O O6 0.798991 0.000000 0.879656
O O7 0.778910 0.236803 0.923648
O O8 0.690613 0.500000 0.292220
O O9 0.674365 0.240659 0.223753
O O10 0.802083 0.270540 0.441942
O O11 0.634067 0.262131 0.285505
O O12 0.085383 0.232211 0.853230
O O13 0.197122 0.000000 0.984314
O O14 0.250000 0.250000 0.000000
O O15 0.963874 0.500000 0.243859
O O16 0.020314 0.245250 0.353707
O O17 0.078378 0.315995 0.320090
O O18 0.101307 0.500000 0.095440
O O19 0.000000 0.742661 0.000000
O O20 0.621709 0.500000 0.485891
O O21 0.750000 0.250000 0.500000
O O22 0.686521 0.000000 0.386072
#
# Coordination Sequence:
#
# PCOD8112103 Si02
#       8
#     8   8   8   8   8   8   8   8
#     4  10  22  41  68  98 130 169 210 261 328 398
#     4  10  23  44  68  98 134 173 219 270 330 396
#     4  12  24  40  63  91 130 174 216 265 326 392
#     4  11  26  47  70  99 133 176 227 280 335 395
#     4  11  25  44  67  94 130 177 224 273 331 394
#     4  11  25  43  65  95 131 172 219 271 329 389
#     4  12  24  40  65  98 133 167 214 274 330 393
#     4  11  23  39  62  93 130 170 213 264 322 386
#
# _framework density 20.870467000000001
#
# number of rings (size 3 to 8) (size 9 to 14) (size 15 to 20)
#    0.000    1.000    2.500    3.750    3.500    3.750 
#    0.000    0.000    0.000    0.000    0.000    0.000 
#    0.000    0.000    0.000    0.000    0.000    0.000 
#
# Total GULP energy -396927.097859 kJ/mol
# GULP energy per Si atom -12403.971808 kJ/mol
# Density = 2.082296 g / cm^3
# Si number density = 20.870467 Si / 1000 Ang^3
#
#
#
# Elastic Constant Matrix: (Units=GPa)
#
#
# Indices 1 2 3 4 5 6 
#
# 1 129.6056 57.0433 57.3470 0.0000 -16.8114 0.0000
# 2 57.0433 54.7807 36.6976 0.0000 -4.0093 0.0000
# 3 57.3470 36.6976 121.9517 0.0000 -12.3132 0.0000
# 4 0.0000 0.0000 0.0000 32.1170 0.0000 -1.4742
# 5 -16.8114 -4.0093 -12.3132 0.0000 39.4133 0.0000
# 6 0.0000 0.0000 0.0000 -1.4742 0.0000 37.9828
#
#
#
# Elastic Compliance Matrix: (Units=1/GPa)
#
#
# Indices 1 2 3 4 5 6 
#
# 1 0.015768 -0.014312 -0.002660 0.000000 0.004439 0.000000
# 2 -0.014312 0.035856 -0.004448 0.000000 -0.003847 0.000000
# 3 -0.002660 -0.004448 0.010975 0.000000 0.001842 0.000000
# 4 0.000000 0.000000 0.000000 0.031192 0.000000 0.001211
# 5 0.004439 -0.003847 0.001842 0.000000 0.027450 0.000000
# 6 0.000000 0.000000 0.000000 0.001211 0.000000 0.026375
#
#
# Mechanical properties :
#
#
# Convention : Reuss Voigt Hill
#
# Bulk Modulus (GPa) = 50.60952 67.61266 59.11109
# Shear Modulus (GPa) = 25.37546 32.25263 28.81405
#
# Velocity S-wave (km/s) = 3.49069 3.93539 3.71969
# Velocity P-wave (km/s) = 6.36778 7.28810 6.84343
#
# Compressibility (1/GPa) = 0.01975913
#
# Stress axis : x y z
#
# Youngs Moduli (GPa) = 63.42157 27.88919 91.11555
#
# Poissons Ratio (x) = 0.39916 0.24233
# Poissons Ratio (y) = 0.90771 0.40528
# Poissons Ratio (z) = 0.16867 0.12405
#
# Static dielectric constant tensor:
#      x y z
#    x 4.159380 0.000000 -0.255300 
#    y 0.000000 3.806250 0.000000 
#    z -0.255300 0.000000 2.936790 
# 
# 
# High freq. dielectric constant tensor:
#      x y z
#    x 1.828300 0.000000 -0.005790 
#    y 0.000000 1.820700 0.000000 
#    z -0.005790 0.000000 1.821060 
# 
# From -- ./inp_files/353536.got.cif
#   From: 2010.06.25/outbox.cif.g09.slc.cpg/sg12_177_cif.got.tgz:353536.got - 2010.06.28 00:19:55.
