data_PCOD8112524
_publ_section_title
;
Structure prediction by ZEFSAII (Michael W. Deem and Ramdas Pophale) SiO2 
 PCOD8112524
Probable space group: C 2/M
;
_chemical_formula_sum "Si O2"
_cell_formula_units_Z 52
_cell_length_a 12.194207
_cell_length_b 21.371000
_cell_length_c 14.844889
_cell_angle_alpha 90.000000
_cell_angle_beta 133.673372
_cell_angle_gamma 90.000000
_cell_volume 2798.122434
_symmetry_space_group_name_H-M "C 2/M"
_symmetry_group_IT_number 12
_symmetry_cell_setting 'monoclinic'
loop_
_space_group_symop_operation_xyz
x,y,z
-x,y,-z
-x,-y,-z
x,-y,z
1/2+x,1/2+y,z
1/2-x,1/2+y,-z
1/2-x,1/2-y,-z
1/2+x,1/2-y,z
loop_
_atom_site_type_symbol
_atom_site_label
_atom_site_fract_x
_atom_site_fract_y
_atom_site_fract_z
Si Si1 0.355374 0.343911 0.859061
Si Si2 0.819386 0.123982 0.172090
Si Si3 0.119499 0.500000 0.487783
Si Si4 0.157914 0.500000 0.140009
Si Si5 0.140635 0.633438 0.892121
Si Si6 0.397180 0.205007 0.854545
Si Si7 0.623502 0.429908 0.293131
Si Si8 0.986428 0.500000 0.214885
O O1 0.209818 0.336844 0.841069
O O2 0.381006 0.278012 0.822306
O O3 0.324242 0.398171 0.769977
O O4 0.500000 0.363267 0.000000
O O5 0.768715 0.175840 0.217140
O O6 0.000614 0.114447 0.272787
O O7 0.747828 0.059941 0.162392
O O8 0.762581 0.143737 0.040746
O O9 0.227237 0.438175 0.559136
O O10 0.000000 0.500000 0.500000
O O11 0.037835 0.500000 0.346743
O O12 0.133402 0.500000 0.233810
O O13 0.000000 0.500000 0.000000
O O14 0.116021 0.559927 0.864385
O O15 0.981458 0.669000 0.820834
O O16 0.500000 0.193722 0.000000
O O17 0.557518 0.500000 0.234378
#
# Coordination Sequence:
#
# PCOD8112524 Si02
#       8
#     8   8   4   4   8   8   8   4
#     4  11  22  33  54  86 118 155 193 231 281 357
#     4  11  18  35  53  87 125 143 181 234 290 347
#     4  10  23  44  57  83 113 151 200 243 293 343
#     4  12  17  31  54  91 118 147 180 235 295 343
#     4  11  21  33  56  88 117 153 190 228 290 345
#     4   9  21  33  52  82 122 160 179 221 283 352
#     4  10  23  38  57  82 114 152 183 247 297 321
#     4  12  22  35  64  86 109 150 199 238 284 345
#
# _framework density 18.583888999999999
#
# number of rings (size 3 to 8) (size 9 to 14) (size 15 to 20)
#    0.462    0.923    5.385    1.385    3.231    2.154 
#    0.000    1.538    0.000    0.923    4.000    0.000 
#    0.000    0.000    0.000    0.000    0.000    0.000 
#
# Total GULP energy -322323.524155 kJ/mol
# GULP energy per Si atom -12397.058621 kJ/mol
# Density = 1.854159 g / cm^3
# Si number density = 18.583889 Si / 1000 Ang^3
#
#
#
# Elastic Constant Matrix: (Units=GPa)
#
#
# Indices 1 2 3 4 5 6 
#
# 1 124.2594 13.8655 17.3438 0.0000 3.2628 0.0000
# 2 13.8655 72.3926 1.6727 0.0000 0.2075 0.0000
# 3 17.3438 1.6727 41.2875 0.0000 2.5409 0.0000
# 4 0.0000 0.0000 0.0000 18.7915 0.0000 -4.6969
# 5 3.2628 0.2075 2.5409 0.0000 24.0054 0.0000
# 6 0.0000 0.0000 0.0000 -4.6969 0.0000 19.2183
#
#
#
# Elastic Compliance Matrix: (Units=1/GPa)
#
#
# Indices 1 2 3 4 5 6 
#
# 1 0.008743 -0.001590 -0.003559 0.000000 -0.000798 0.000000
# 2 -0.001590 0.014116 0.000091 0.000000 0.000085 0.000000
# 3 -0.003559 0.000091 0.025850 0.000000 -0.002253 0.000000
# 4 0.000000 0.000000 0.000000 0.056678 0.000000 0.013852
# 5 -0.000798 0.000085 -0.002253 0.000000 0.042004 0.000000
# 6 0.000000 0.000000 0.000000 0.013852 0.000000 0.055419
#
#
# Mechanical properties :
#
#
# Convention : Reuss Voigt Hill
#
# Bulk Modulus (GPa) = 25.91178 33.74484 29.82831
# Shear Modulus (GPa) = 22.14441 26.07352 24.10896
#
# Velocity S-wave (km/s) = 3.45569 3.74975 3.60572
# Velocity P-wave (km/s) = 5.46770 6.07824 5.78104
#
# Compressibility (1/GPa) = 0.03859249
#
# Stress axis : x y z
#
# Youngs Moduli (GPa) = 114.37957 70.84277 38.68401
#
# Poissons Ratio (x) = 0.11264 0.13768
# Poissons Ratio (y) = 0.18186 -0.00351
# Poissons Ratio (z) = 0.40709 -0.00643
#
# Static dielectric constant tensor:
#      x y z
#    x 4.058050 0.000000 0.161080 
#    y 0.000000 3.245870 0.000000 
#    z 0.161080 0.000000 3.010580 
# 
# 
# High freq. dielectric constant tensor:
#      x y z
#    x 1.745710 0.000000 0.002100 
#    y 0.000000 1.724810 0.000000 
#    z 0.002100 0.000000 1.655100 
# 
# From -- ./inp_files/208457.got.cif
#   From: 2010.06.25/outbox.cif.g09.slc.cpg/sg12_105_cif.got.tgz:208457.got - 2010.06.28 00:19:55.
