data_PCOD8112017
_publ_section_title
;
Structure prediction by ZEFSAII (Michael W. Deem and Ramdas Pophale) SiO2 
 PCOD8112017
Probable space group: C 2/M
;
_chemical_formula_sum "Si O2"
_cell_formula_units_Z 56
_cell_length_a 9.514541
_cell_length_b 12.917242
_cell_length_c 20.129161
_cell_angle_alpha 90.000000
_cell_angle_beta 91.848040
_cell_angle_gamma 90.000000
_cell_volume 2472.619923
_symmetry_space_group_name_H-M "C 2/M"
_symmetry_group_IT_number 12
_symmetry_cell_setting 'monoclinic'
loop_
_space_group_symop_operation_xyz
x,y,z
-x,y,-z
-x,-y,-z
x,-y,z
1/2+x,1/2+y,z
1/2-x,1/2+y,-z
1/2-x,1/2-y,-z
1/2+x,1/2-y,z
loop_
_atom_site_type_symbol
_atom_site_label
_atom_site_fract_x
_atom_site_fract_y
_atom_site_fract_z
Si Si1 0.982506 0.377671 0.792619
Si Si2 0.865714 0.878153 0.904399
Si Si3 0.444905 0.198627 0.067600
Si Si4 0.974716 0.122316 0.645724
Si Si5 0.883697 0.275542 0.545439
Si Si6 0.218983 0.120122 0.242146
Si Si7 0.716082 0.122219 0.324226
O O1 0.989107 0.500000 0.788726
O O2 0.856843 0.333047 0.744585
O O3 0.966722 0.348778 0.869703
O O4 0.127632 0.330108 0.765984
O O5 0.722593 0.821426 0.928790
O O6 0.874976 0.865528 0.825060
O O7 0.005613 0.820498 0.934455
O O8 0.864883 0.000000 0.924563
O O9 0.500000 0.146430 0.000000
O O10 0.944186 0.165977 0.572328
O O11 0.858176 0.169182 0.694757
O O12 0.125143 0.162934 0.673411
O O13 0.972102 0.000000 0.641394
O O14 0.750000 0.250000 0.500000
O O15 0.860339 0.348297 0.608402
O O16 0.000000 0.329224 0.500000
O O17 0.236274 0.000000 0.258262
O O18 0.709556 0.000000 0.319915
#
# Coordination Sequence:
#
# PCOD8112017 Si02
#       7
#     8   8   8   8   8   8   8
#     4   9  20  39  65  97 129 168 219 275 331 392
#     4  10  23  43  65  97 140 178 228 289 341 408
#     4  11  23  42  68 101 138 184 233 278 348 416
#     4  10  22  41  66  91 124 165 210 261 322 388
#     4  12  26  43  61  92 128 164 207 256 322 391
#     4   8  17  36  61  89 120 162 208 260 325 380
#     4  10  23  43  65  93 126 163 217 272 319 386
#
# _framework density 22.648043000000001
#
# number of rings (size 3 to 8) (size 9 to 14) (size 15 to 20)
#    0.000    2.000    1.429    1.714    4.000    3.714 
#    0.000    2.857    0.000    0.000    0.000    0.000 
#    0.000    0.000    0.000    0.000    0.000    0.000 
#
# Total GULP energy -347050.048219 kJ/mol
# GULP energy per Si atom -12394.644579 kJ/mol
# Density = 2.259650 g / cm^3
# Si number density = 22.648043 Si / 1000 Ang^3
#
#
#
# Elastic Constant Matrix: (Units=GPa)
#
#
# Indices 1 2 3 4 5 6 
#
# 1 121.2716 34.4328 56.8534 0.0000 -0.6476 0.0000
# 2 34.4328 52.2428 20.8628 0.0000 8.9265 0.0000
# 3 56.8534 20.8628 154.4105 0.0000 -10.0070 0.0000
# 4 0.0000 0.0000 0.0000 30.1788 0.0000 1.3239
# 5 -0.6476 8.9265 -10.0070 0.0000 29.4831 0.0000
# 6 0.0000 0.0000 0.0000 1.3239 0.0000 28.1884
#
#
#
# Elastic Compliance Matrix: (Units=1/GPa)
#
#
# Indices 1 2 3 4 5 6 
#
# 1 0.011680 -0.006552 -0.003344 0.000000 0.001105 0.000000
# 2 -0.006552 0.025528 -0.001582 0.000000 -0.008410 0.000000
# 3 -0.003344 -0.001582 0.008126 0.000000 0.003164 0.000000
# 4 0.000000 0.000000 0.000000 0.033204 0.000000 -0.001559
# 5 0.001105 -0.008410 0.003164 0.000000 0.037562 0.000000
# 6 0.000000 0.000000 0.000000 -0.001559 0.000000 0.035549
#
#
# Mechanical properties :
#
#
# Convention : Reuss Voigt Hill
#
# Bulk Modulus (GPa) = 44.68323 61.35808 53.02066
# Shear Modulus (GPa) = 27.46305 31.95512 29.70909
#
# Velocity S-wave (km/s) = 3.48602 3.76033 3.62577
# Velocity P-wave (km/s) = 5.99795 6.78264 6.40233
#
# Compressibility (1/GPa) = 0.02237976
#
# Stress axis : x y z
#
# Youngs Moduli (GPa) = 85.62000 39.17243 123.06037
#
# Poissons Ratio (x) = 0.25664 0.41146
# Poissons Ratio (y) = 0.56094 0.19468
# Poissons Ratio (z) = 0.28627 0.06197
#
# Static dielectric constant tensor:
#      x y z
#    x 4.344130 0.000000 -0.028570 
#    y 0.000000 3.989350 0.000000 
#    z -0.028570 0.000000 4.302990 
# 
# 
# High freq. dielectric constant tensor:
#      x y z
#    x 1.889390 0.000000 0.000410 
#    y 0.000000 1.894950 0.000000 
#    z 0.000410 0.000000 1.905380 
# 
# From -- ./inp_files/300176.got.cif
#   From: 2010.06.25/outbox.cif.g09.slc.cpg/sg12_151_cif.got.tgz:300176.got - 2010.06.28 00:19:55.
