data_PCOD8112896
_publ_section_title
;
Structure prediction by ZEFSAII (Michael W. Deem and Ramdas Pophale) SiO2 
 PCOD8112896
Probable space group: C 2/M
;
_chemical_formula_sum "Si O2"
_cell_formula_units_Z 56
_cell_length_a 24.866944
_cell_length_b 8.782632
_cell_length_c 14.412625
_cell_angle_alpha 90.000000
_cell_angle_beta 119.847729
_cell_angle_gamma 90.000000
_cell_volume 2730.141473
_symmetry_space_group_name_H-M "C 2/M"
_symmetry_group_IT_number 12
_symmetry_cell_setting 'monoclinic'
loop_
_space_group_symop_operation_xyz
x,y,z
-x,y,-z
-x,-y,-z
x,-y,z
1/2+x,1/2+y,z
1/2-x,1/2+y,-z
1/2-x,1/2-y,-z
1/2+x,1/2-y,z
loop_
_atom_site_type_symbol
_atom_site_label
_atom_site_fract_x
_atom_site_fract_y
_atom_site_fract_z
Si Si1 0.444202 0.675644 0.382468
Si Si2 0.476353 0.675322 0.201919
Si Si3 0.229731 0.173240 0.076483
Si Si4 0.397826 0.676156 0.787680
Si Si5 0.770320 0.321277 0.613378
Si Si6 0.318172 0.171814 0.319709
Si Si7 0.395685 0.179188 0.975588
O O1 0.500000 0.704749 0.500000
O O2 0.423537 0.500000 0.364434
O O3 0.464522 0.727180 0.297027
O O4 0.388742 0.777670 0.372078
O O5 0.457791 0.500000 0.170049
O O6 0.548891 0.700091 0.242998
O O7 0.434636 0.777043 0.099181
O O8 0.289074 0.179510 0.192993
O O9 0.174864 0.267640 0.075684
O O10 0.207895 0.000000 0.039906
O O11 0.250000 0.250000 0.000000
O O12 0.381226 0.500000 0.788056
O O13 0.336753 0.760203 0.701330
O O14 0.423149 0.743282 0.906609
O O15 0.775284 0.500000 0.605900
O O16 0.750000 0.250000 0.500000
O O17 0.718218 0.283298 0.643684
O O18 0.315207 0.000000 0.356621
O O19 0.397718 0.000000 0.963877
#
# Coordination Sequence:
#
# PCOD8112896 Si02
#       7
#     8   8   8   8   8   8   8
#     4  10  23  43  67  95 127 170 218 267 324 388
#     4  10  23  42  65  93 130 174 217 267 327 388
#     4  11  23  39  63  92 130 170 214 267 324 387
#     4  11  23  42  67  97 132 172 217 268 326 388
#     4  12  26  44  69  99 132 172 216 269 326 387
#     4  11  24  43  66  96 130 170 215 268 322 382
#     4  12  24  39  62  94 130 170 217 267 324 388
#
# _framework density 20.511756999999999
#
# number of rings (size 3 to 8) (size 9 to 14) (size 15 to 20)
#    0.000    1.000    1.429    5.143    2.000    7.714 
#    0.000    0.000    0.000    0.000    0.000    0.000 
#    0.000    0.000    0.000    0.000    0.000    0.000 
#
# Total GULP energy -347393.451394 kJ/mol
# GULP energy per Si atom -12406.908978 kJ/mol
# Density = 2.046507 g / cm^3
# Si number density = 20.511757 Si / 1000 Ang^3
#
#
#
# Elastic Constant Matrix: (Units=GPa)
#
#
# Indices 1 2 3 4 5 6 
#
# 1 97.2214 43.5726 35.6414 0.0000 10.3566 0.0000
# 2 43.5726 142.1213 53.0806 0.0000 3.8407 0.0000
# 3 35.6414 53.0806 121.7385 0.0000 -1.6810 0.0000
# 4 0.0000 0.0000 0.0000 36.6771 0.0000 2.5960
# 5 10.3566 3.8407 -1.6810 0.0000 24.8925 0.0000
# 6 0.0000 0.0000 0.0000 2.5960 0.0000 34.8753
#
#
#
# Elastic Compliance Matrix: (Units=1/GPa)
#
#
# Indices 1 2 3 4 5 6 
#
# 1 0.013103 -0.002888 -0.002649 0.000000 -0.005185 0.000000
# 2 -0.002888 0.009101 -0.003129 0.000000 -0.000414 0.000000
# 3 -0.002649 -0.003129 0.010385 0.000000 0.002286 0.000000
# 4 0.000000 0.000000 0.000000 0.027409 0.000000 -0.002040
# 5 -0.005185 -0.000414 0.002286 0.000000 0.042548 0.000000
# 6 0.000000 0.000000 0.000000 -0.002040 0.000000 0.028825
#
#
# Mechanical properties :
#
#
# Convention : Reuss Voigt Hill
#
# Bulk Modulus (GPa) = 65.53164 69.51893 67.52528
# Shear Modulus (GPa) = 32.51175 34.54141 33.52658
#
# Velocity S-wave (km/s) = 3.98556 4.10809 4.04729
# Velocity P-wave (km/s) = 7.29365 7.51450 7.40490
#
# Compressibility (1/GPa) = 0.01525980
#
# Stress axis : x y z
#
# Youngs Moduli (GPa) = 76.31551 109.87389 96.28837
#
# Poissons Ratio (x) = 0.31732 0.25504
# Poissons Ratio (y) = 0.22040 0.30125
# Poissons Ratio (z) = 0.20214 0.34375
#
# Static dielectric constant tensor:
#      x y z
#    x 3.792720 0.000000 -0.089530 
#    y 0.000000 3.805920 0.000000 
#    z -0.089530 0.000000 3.756730 
# 
# 
# High freq. dielectric constant tensor:
#      x y z
#    x 1.814560 0.000000 -0.002610 
#    y 0.000000 1.809650 0.000000 
#    z -0.002610 0.000000 1.811550 
# 
# From -- ./inp_files/239005.got.cif
#   From: 2010.06.25/outbox.cif.g09.slc.cpg/sg12_120_cif.got.tgz:239005.got - 2010.06.28 00:19:55.
