data_PCOD8112849
_publ_section_title
;
Structure prediction by ZEFSAII (Michael W. Deem and Ramdas Pophale) SiO2 
 PCOD8112849
Probable space group: C 2/M
;
_chemical_formula_sum "Si O2"
_cell_formula_units_Z 64
_cell_length_a 27.999709
_cell_length_b 11.376905
_cell_length_c 16.159041
_cell_angle_alpha 90.000000
_cell_angle_beta 143.902956
_cell_angle_gamma 90.000000
_cell_volume 3032.651860
_symmetry_space_group_name_H-M "C 2/M"
_symmetry_group_IT_number 12
_symmetry_cell_setting 'monoclinic'
loop_
_space_group_symop_operation_xyz
x,y,z
-x,y,-z
-x,-y,-z
x,-y,z
1/2+x,1/2+y,z
1/2-x,1/2+y,-z
1/2-x,1/2-y,-z
1/2+x,1/2-y,z
loop_
_atom_site_type_symbol
_atom_site_label
_atom_site_fract_x
_atom_site_fract_y
_atom_site_fract_z
Si Si1 0.300271 0.135171 0.604734
Si Si2 0.746267 0.633388 0.863873
Si Si3 0.584559 0.745698 0.646743
Si Si4 0.464233 0.634850 0.040721
Si Si5 0.548340 0.798465 0.279624
Si Si6 0.138265 0.634951 0.557449
Si Si7 0.899471 0.631720 0.164493
Si Si8 0.297558 0.752942 0.773978
O O1 0.250000 0.250000 0.500000
O O2 0.388207 0.126418 0.685227
O O3 0.314444 0.162359 0.720543
O O4 0.262350 0.000000 0.541736
O O5 0.770060 0.500000 0.903877
O O6 0.654425 0.652195 0.765776
O O7 0.751669 0.668872 0.776601
O O8 0.815418 0.696018 0.017680
O O9 0.500000 0.685506 0.500000
O O10 0.618587 0.835540 0.625225
O O11 0.563293 0.809827 0.702074
O O12 0.448290 0.500000 0.038641
O O13 0.527089 0.680365 0.198618
O O14 0.500000 0.653226 0.000000
O O15 0.379787 0.702558 0.926788
O O16 0.589987 0.776771 0.427789
O O17 0.463853 0.865159 0.178914
O O18 0.112568 0.500000 0.504463
O O19 0.233735 0.647280 0.667326
O O20 0.881453 0.500000 0.165816
#
# Coordination Sequence:
#
# PCOD8112849 Si02
#       8
#     8   8   8   8   8   8   8   8
#     4  12  26  42  65  99 138 181 227 278 336 400
#     4  10  23  42  64  88 125 170 210 264 329 393
#     4  11  23  39  64  94 127 163 215 270 325 396
#     4  11  24  43  66  95 133 178 221 270 333 397
#     4  12  23  41  63  98 130 170 219 270 327 395
#     4  11  23  40  65  95 129 169 218 274 330 387
#     4  11  22  40  66  92 127 166 209 270 331 390
#     4  11  22  43  64  94 130 168 223 269 328 396
#
# _framework density 21.103643000000002
#
# number of rings (size 3 to 8) (size 9 to 14) (size 15 to 20)
#    0.000    0.875    5.000    2.625    0.000    1.750 
#    0.000    1.875    0.000    0.000    0.000    0.000 
#    0.000    0.000    0.000    0.000    0.000    0.000 
#
# Total GULP energy -396475.778688 kJ/mol
# GULP energy per Si atom -12389.868084 kJ/mol
# Density = 2.105561 g / cm^3
# Si number density = 21.103643 Si / 1000 Ang^3
#
#
#
# Elastic Constant Matrix: (Units=GPa)
#
#
# Indices 1 2 3 4 5 6 
#
# 1 106.0805 24.5222 34.9666 0.0000 5.7291 0.0000
# 2 24.5222 92.9719 39.2400 0.0000 -4.6103 0.0000
# 3 34.9666 39.2400 127.9458 0.0000 10.3000 0.0000
# 4 0.0000 0.0000 0.0000 25.2492 0.0000 -1.0103
# 5 5.7291 -4.6103 10.3000 0.0000 44.5172 0.0000
# 6 0.0000 0.0000 0.0000 -1.0103 0.0000 14.7262
#
#
#
# Elastic Compliance Matrix: (Units=1/GPa)
#
#
# Indices 1 2 3 4 5 6 
#
# 1 0.010666 -0.001919 -0.002242 0.000000 -0.001053 0.000000
# 2 -0.001919 0.012915 -0.003632 0.000000 0.002425 0.000000
# 3 -0.002242 -0.003632 0.009731 0.000000 -0.002339 0.000000
# 4 0.000000 0.000000 0.000000 0.039714 0.000000 0.002725
# 5 -0.001053 0.002425 -0.002339 0.000000 0.023391 0.000000
# 6 0.000000 0.000000 0.000000 0.002725 0.000000 0.068093
#
#
# Mechanical properties :
#
#
# Convention : Reuss Voigt Hill
#
# Bulk Modulus (GPa) = 56.41213 58.27286 57.34250
# Shear Modulus (GPa) = 26.88106 32.11647 29.49876
#
# Velocity S-wave (km/s) = 3.57285 3.90531 3.74278
# Velocity P-wave (km/s) = 6.61887 6.92878 6.77559
#
# Compressibility (1/GPa) = 0.01772668
#
# Stress axis : x y z
#
# Youngs Moduli (GPa) = 93.75368 77.42792 102.76961
#
# Poissons Ratio (x) = 0.14862 0.23036
# Poissons Ratio (y) = 0.17996 0.37322
# Poissons Ratio (z) = 0.21016 0.28119
#
# Static dielectric constant tensor:
#      x y z
#    x 3.966050 0.000000 0.116520 
#    y 0.000000 3.591540 0.000000 
#    z 0.116520 0.000000 4.144010 
# 
# 
# High freq. dielectric constant tensor:
#      x y z
#    x 1.841890 0.000000 0.003230 
#    y 0.000000 1.793730 0.000000 
#    z 0.003230 0.000000 1.842880 
# 
# From -- ./inp_files/245988.got.cif
#   From: 2010.06.25/outbox.cif.g09.slc.cpg/sg12_123_cif.got.tgz:245988.got - 2010.06.28 00:19:55.
