data_PCOD8112619
_publ_section_title
;
Structure prediction by ZEFSAII (Michael W. Deem and Ramdas Pophale) SiO2 
 PCOD8112619
Probable space group: C 2/M
;
_chemical_formula_sum "Si O2"
_cell_formula_units_Z 36
_cell_length_a 14.722079
_cell_length_b 18.927714
_cell_length_c 5.395390
_cell_angle_alpha 90.000000
_cell_angle_beta 72.448113
_cell_angle_gamma 90.000000
_cell_volume 1433.459580
_symmetry_space_group_name_H-M "C 2/M"
_symmetry_group_IT_number 12
_symmetry_cell_setting 'monoclinic'
loop_
_space_group_symop_operation_xyz
x,y,z
-x,y,-z
-x,-y,-z
x,-y,z
1/2+x,1/2+y,z
1/2-x,1/2+y,-z
1/2-x,1/2-y,-z
1/2+x,1/2-y,z
loop_
_atom_site_type_symbol
_atom_site_label
_atom_site_fract_x
_atom_site_fract_y
_atom_site_fract_z
Si Si1 0.000000 0.135091 0.000000
Si Si2 0.181304 0.081222 0.079111
Si Si3 0.556145 0.081517 0.710228
Si Si4 0.120066 0.808600 0.509065
Si Si5 0.700444 0.829200 0.345530
O O1 0.094169 0.087174 0.952745
O O2 0.983242 0.183287 0.265182
O O3 0.145024 0.118515 0.355656
O O4 0.205148 0.000000 0.113832
O O5 0.278930 0.118436 0.903147
O O6 0.500000 0.095298 0.500000
O O7 0.653696 0.125752 0.608378
O O8 0.583212 0.000000 0.720495
O O9 0.500000 0.108341 0.000000
O O10 0.197081 0.797550 0.665052
O O11 0.130172 0.737102 0.333779
#
# Coordination Sequence:
#
# PCOD8112619 Si02
#       5
#     4   8   8   8   8
#     4  10  23  40  60  96 127 164 212 262 321 392
#     4  11  23  40  65  93 128 168 212 267 326 395
#     4  10  23  41  64  97 132 172 222 274 332 400
#     4  10  23  41  64  92 125 165 216 263 325 399
#     4  10  23  42  63  91 127 166 214 269 330 391
#
# _framework density 25.114066000000001
#
# number of rings (size 3 to 8) (size 9 to 14) (size 15 to 20)
#    0.000    1.778    0.000    2.333    4.667    8.000 
#    0.000    0.000    0.000    0.000    0.000    0.000 
#    0.000    0.000    0.000    0.000    0.000    0.000 
#
# Total GULP energy -223134.871926 kJ/mol
# GULP energy per Si atom -12396.381774 kJ/mol
# Density = 2.505690 g / cm^3
# Si number density = 25.114066 Si / 1000 Ang^3
#
#
#
# Elastic Constant Matrix: (Units=GPa)
#
#
# Indices 1 2 3 4 5 6 
#
# 1 47.2079 23.1671 18.9806 0.0000 -28.7060 0.0000
# 2 23.1671 191.5017 80.0160 0.0000 -34.3593 0.0000
# 3 18.9806 80.0160 183.9721 0.0000 -43.8736 0.0000
# 4 0.0000 0.0000 0.0000 38.3742 0.0000 -14.0114
# 5 -28.7060 -34.3593 -43.8736 0.0000 42.1300 0.0000
# 6 0.0000 0.0000 0.0000 -14.0114 0.0000 26.8709
#
#
#
# Elastic Compliance Matrix: (Units=1/GPa)
#
#
# Indices 1 2 3 4 5 6 
#
# 1 0.037430 -0.000814 0.003214 0.000000 0.028187 0.000000
# 2 -0.000814 0.006714 -0.002212 0.000000 0.002618 0.000000
# 3 0.003214 -0.002212 0.008193 0.000000 0.008918 0.000000
# 4 0.000000 0.000000 0.000000 0.032187 0.000000 0.016784
# 5 0.028187 0.002618 0.008918 0.000000 0.054364 0.000000
# 6 0.000000 0.000000 0.000000 0.016784 0.000000 0.045966
#
#
# Mechanical properties :
#
#
# Convention : Reuss Voigt Hill
#
# Bulk Modulus (GPa) = 18.97029 74.11214 46.54122
# Shear Modulus (GPa) = 24.74646 41.50955 33.12800
#
# Velocity S-wave (km/s) = 3.14245 4.06992 3.63588
# Velocity P-wave (km/s) = 4.55376 7.18749 6.01651
#
# Compressibility (1/GPa) = 0.05271400
#
# Stress axis : x y z
#
# Youngs Moduli (GPa) = 26.71660 148.93621 122.05779
#
# Poissons Ratio (x) = 0.12121 -0.39234
# Poissons Ratio (y) = 0.02174 0.27000
# Poissons Ratio (z) = -0.08588 0.32945
#
# Static dielectric constant tensor:
#      x y z
#    x 4.589770 0.000000 -0.316400 
#    y 0.000000 4.477050 0.000000 
#    z -0.316400 0.000000 4.496700 
# 
# 
# High freq. dielectric constant tensor:
#      x y z
#    x 1.999170 0.000000 -0.017120 
#    y 0.000000 1.993470 0.000000 
#    z -0.017120 0.000000 2.002740 
# 
# From -- ./inp_files/10836.got.cif
#   From: 2010.06.25/outbox.cif.g09.slc.cpg/sg12_6_cif.got.tgz:10836.got - 2010.06.28 00:19:55.
