data_PCOD8112925
_publ_section_title
;
Structure prediction by ZEFSAII (Michael W. Deem and Ramdas Pophale) SiO2 
 PCOD8112925
Probable space group: C 2/M
;
_chemical_formula_sum "Si O2"
_cell_formula_units_Z 56
_cell_length_a 22.651284
_cell_length_b 21.432795
_cell_length_c 11.546736
_cell_angle_alpha 90.000000
_cell_angle_beta 27.610276
_cell_angle_gamma 90.000000
_cell_volume 2597.995616
_symmetry_space_group_name_H-M "C 2/M"
_symmetry_group_IT_number 12
_symmetry_cell_setting 'monoclinic'
loop_
_space_group_symop_operation_xyz
x,y,z
-x,y,-z
-x,-y,-z
x,-y,z
1/2+x,1/2+y,z
1/2-x,1/2+y,-z
1/2-x,1/2-y,-z
1/2+x,1/2-y,z
loop_
_atom_site_type_symbol
_atom_site_label
_atom_site_fract_x
_atom_site_fract_y
_atom_site_fract_z
Si Si1 0.237764 0.071465 0.461950
Si Si2 0.776107 0.831336 0.084308
Si Si3 0.687328 0.931206 0.417215
Si Si4 0.731454 0.187049 0.900750
Si Si5 0.900326 0.257675 0.266890
Si Si6 0.464332 0.119151 0.919608
Si Si7 0.439529 0.342566 0.377571
O O1 0.223339 0.081338 0.625564
O O2 0.123650 0.108318 0.599854
O O3 0.219266 0.000000 0.459436
O O4 0.379351 0.092071 0.172620
O O5 0.713383 0.829785 0.066404
O O6 0.916677 0.861067 0.842990
O O7 0.695394 0.875669 0.309477
O O8 0.779238 0.759496 0.117397
O O9 0.542213 0.934427 0.717421
O O10 0.717814 0.000000 0.310807
O O11 0.868207 0.160675 0.624279
O O12 0.624111 0.152194 0.018519
O O13 0.750000 0.250000 0.500000
O O14 0.929666 0.225632 0.337821
O O15 0.929325 0.331072 0.221742
O O16 0.000000 0.227839 0.000000
#
# Coordination Sequence:
#
# PCOD8112925 Si02
#       7
#     8   8   8   8   8   8   8
#     4  10  23  42  66  95 131 178 221 263 323 402
#     4  11  24  41  64  91 131 169 218 270 329 388
#     4  11  24  41  63  94 132 170 213 264 324 392
#     4  10  23  43  64  93 122 171 220 273 329 388
#     4  12  24  36  62 101 140 171 212 276 346 407
#     4  11  21  40  66  95 128 170 218 272 326 389
#     4  11  23  39  64  90 129 166 214 267 328 394
#
# _framework density 21.555078999999999
#
# number of rings (size 3 to 8) (size 9 to 14) (size 15 to 20)
#    0.000    1.143    1.429    5.571    4.000    2.286 
#    0.000    6.429    0.000    4.286    0.000    0.000 
#    0.000    0.000    0.000    0.000    0.000    0.000 
#
# Total GULP energy -347079.061047 kJ/mol
# GULP energy per Si atom -12395.680752 kJ/mol
# Density = 2.150602 g / cm^3
# Si number density = 21.555079 Si / 1000 Ang^3
#
#
#
# Elastic Constant Matrix: (Units=GPa)
#
#
# Indices 1 2 3 4 5 6 
#
# 1 58.5141 33.5680 40.2756 0.0018 14.8939 -0.0021
# 2 33.5680 112.5551 24.0136 0.0007 8.7570 -0.0009
# 3 40.2756 24.0136 92.7761 0.0022 -13.6473 -0.0039
# 4 0.0018 0.0007 0.0022 30.7605 -0.0013 7.3839
# 5 14.8939 8.7570 -13.6473 -0.0013 9.5486 0.0023
# 6 -0.0021 -0.0009 -0.0039 7.3839 0.0023 19.8873
#
#
#
# Elastic Compliance Matrix: (Units=1/GPa)
#
#
# Indices 1 2 3 4 5 6 
#
# 1 -0.056212 -0.007023 0.050731 0.000012 0.166626 -0.000020
# 2 -0.007023 0.010708 0.000562 0.000000 0.001936 0.000000
# 3 0.050731 0.000562 -0.029257 -0.000010 -0.121460 0.000018
# 4 0.000012 0.000000 -0.000010 0.035690 -0.000025 -0.013251
# 5 0.166626 0.001936 -0.121460 -0.000025 -0.330548 0.000042
# 6 -0.000020 0.000000 0.000018 -0.013251 0.000042 0.055203
#
#
# Mechanical properties :
#
#
# Convention : Reuss Voigt Hill
#
# Bulk Modulus (GPa) = 72.56946 51.06219 61.81583
# Shear Modulus (GPa) = -12.55144 23.10515 5.27685
#
# Velocity S-wave (km/s) = -2.41570 3.27756 1.56633
# Velocity P-wave (km/s) = 5.09502 6.16959 5.65787
#
# Compressibility (1/GPa) = 0.01377990
#
# Stress axis : x y z
#
# Youngs Moduli (GPa) = -17.78981 93.38406 -34.18038
#
# Poissons Ratio (x) = 0.65581 1.73400
# Poissons Ratio (y) = -0.12493 0.01920
# Poissons Ratio (z) = 0.90249 -0.05247
#
# Static dielectric constant tensor:
#      x y z
#    x 3.774670 0.000000 0.057810 
#    y 0.000000 3.858810 0.000000 
#    z 0.057810 0.000000 4.197210 
# 
# 
# High freq. dielectric constant tensor:
#      x y z
#    x 1.844210 0.000000 -0.000050 
#    y 0.000000 1.840760 0.000000 
#    z -0.000050 0.000000 1.851200 
# 
# From -- ./inp_files/177869.got.cif
#   From: 2010.06.25/outbox.cif.g09.slc.cpg/sg12_89_cif.got.tgz:177869.got - 2010.06.28 00:19:55.
