data_PCOD8112667
_publ_section_title
;
Structure prediction by ZEFSAII (Michael W. Deem and Ramdas Pophale) SiO2 
 PCOD8112667
Probable space group: C 2/M
;
_chemical_formula_sum "Si O2"
_cell_formula_units_Z 24
_cell_length_a 8.707095
_cell_length_b 23.078983
_cell_length_c 5.040810
_cell_angle_alpha 90.000000
_cell_angle_beta 89.461056
_cell_angle_gamma 90.000000
_cell_volume 1012.910481
_symmetry_space_group_name_H-M "C 2/M"
_symmetry_group_IT_number 12
_symmetry_cell_setting 'monoclinic'
loop_
_space_group_symop_operation_xyz
x,y,z
-x,y,-z
-x,-y,-z
x,-y,z
1/2+x,1/2+y,z
1/2-x,1/2+y,-z
1/2-x,1/2-y,-z
1/2+x,1/2-y,z
loop_
_atom_site_type_symbol
_atom_site_label
_atom_site_fract_x
_atom_site_fract_y
_atom_site_fract_z
Si Si1 0.168745 0.159022 0.087955
Si Si2 0.603670 0.066279 0.744047
Si Si3 0.604844 0.220444 0.255411
O O1 0.244910 0.105626 0.241782
O O2 0.172798 0.214219 0.293827
O O3 0.260311 0.175140 0.815118
O O4 0.000000 0.139816 0.000000
O O5 0.500000 0.085373 0.500000
O O6 0.658803 0.000000 0.717564
O O7 0.500000 0.077075 0.000000
O O8 0.500000 0.198848 0.500000
O O9 0.500000 0.225859 0.000000
#
# Coordination Sequence:
#
# PCOD8112667 Si02
#       3
#     8   8   8
#     4  10  23  40  67 100 132 170 220 276 324 375
#     4  10  23  44  68  93 126 173 221 265 326 397
#     4  10  23  42  62  91 136 182 215 253 322 402
#
# _framework density 23.694098
#
# number of rings (size 3 to 8) (size 9 to 14) (size 15 to 20)
#    0.000    2.000    0.000    1.000    0.000   24.667 
#    0.000    0.000    0.000    7.000    0.000    0.000 
#    0.000    0.000    0.000    0.000    0.000    0.000 
#
# Total GULP energy -148826.463316 kJ/mol
# GULP energy per Si atom -12402.205276 kJ/mol
# Density = 2.364017 g / cm^3
# Si number density = 23.694098 Si / 1000 Ang^3
#
#
#
# Elastic Constant Matrix: (Units=GPa)
#
#
# Indices 1 2 3 4 5 6 
#
# 1 173.1667 99.2499 50.1436 0.0000 -2.4641 0.0000
# 2 99.2499 149.5657 38.2317 0.0000 22.7803 0.0000
# 3 50.1436 38.2317 129.1724 0.0000 -22.1428 0.0000
# 4 0.0000 0.0000 0.0000 -177.0151 0.0000 -267.3444
# 5 -2.4641 22.7803 -22.1428 0.0000 36.7064 0.0000
# 6 0.0000 0.0000 0.0000 -267.3444 0.0000 -307.3331
#
#
#
# Elastic Compliance Matrix: (Units=1/GPa)
#
#
# Indices 1 2 3 4 5 6 
#
# 1 0.010313 -0.007262 -0.001074 0.000000 0.004552 0.000000
# 2 -0.007262 0.014034 -0.003247 0.000000 -0.011156 0.000000
# 3 -0.001074 -0.003247 0.010543 0.000000 0.008303 0.000000
# 4 0.000000 0.000000 0.000000 0.018004 0.000000 -0.015661
# 5 0.004552 -0.011156 0.008303 0.000000 0.039481 0.000000
# 6 0.000000 0.000000 0.000000 -0.015661 0.000000 0.010370
#
#
# Mechanical properties :
#
#
# Convention : Reuss Voigt Hill
#
# Bulk Modulus (GPa) = 85.29561 91.90612 88.60087
# Shear Modulus (GPa) = 38.51546 -71.90971 -16.69713
#
# Velocity S-wave (km/s) = 4.03616 -5.51499 -2.65749
# Velocity P-wave (km/s) = 7.60247 1.29639 5.29703
#
# Compressibility (1/GPa) = 0.01172393
#
# Stress axis : x y z
#
# Youngs Moduli (GPa) = 96.96716 71.25378 94.85250
#
# Poissons Ratio (x) = 0.51746 0.10184
# Poissons Ratio (y) = 0.70420 0.30799
# Poissons Ratio (z) = 0.10411 0.23136
#
# Static dielectric constant tensor:
#      x y z
#    x 4.836320 0.000000 -0.473150 
#    y 0.000000 4.484390 0.000000 
#    z -0.473150 0.000000 4.727790 
# 
# 
# High freq. dielectric constant tensor:
#      x y z
#    x 1.945660 0.000000 0.008380 
#    y 0.000000 1.932810 0.000000 
#    z 0.008380 0.000000 1.942110 
# 
# From -- ./inp_files/2827.got.cif
#   From: 2010.06.25/outbox.cif.g09.slc.cpg/sg12_2_cif.got.tgz:2827.got - 2010.06.28 00:19:55.
