data_PCOD8112699
_publ_section_title
;
Structure prediction by ZEFSAII (Michael W. Deem and Ramdas Pophale) SiO2 
 PCOD8112699
Probable space group: C 2/M
;
_chemical_formula_sum "Si O2"
_cell_formula_units_Z 48
_cell_length_a 22.070823
_cell_length_b 8.497655
_cell_length_c 12.377010
_cell_angle_alpha 90.000000
_cell_angle_beta 101.999799
_cell_angle_gamma 90.000000
_cell_volume 2270.586663
_symmetry_space_group_name_H-M "C 2/M"
_symmetry_group_IT_number 12
_symmetry_cell_setting 'monoclinic'
loop_
_space_group_symop_operation_xyz
x,y,z
-x,y,-z
-x,-y,-z
x,-y,z
1/2+x,1/2+y,z
1/2-x,1/2+y,-z
1/2-x,1/2-y,-z
1/2+x,1/2-y,z
loop_
_atom_site_type_symbol
_atom_site_label
_atom_site_fract_x
_atom_site_fract_y
_atom_site_fract_z
Si Si1 0.566135 0.817111 0.559935
Si Si2 0.180401 0.316493 0.460667
Si Si3 0.928944 0.175078 0.997287
Si Si4 0.158136 0.817092 0.225166
Si Si5 0.886195 0.320848 0.193009
Si Si6 0.740117 0.319075 0.878300
O O1 0.500000 0.739720 0.500000
O O2 0.628236 0.746334 0.524572
O O3 0.569142 0.788341 0.689421
O O4 0.564507 0.000000 0.528334
O O5 0.187461 0.500000 0.483156
O O6 0.250000 0.250000 0.500000
O O7 0.153084 0.282299 0.332328
O O8 0.921691 0.292790 0.094342
O O9 0.902279 0.000000 0.014582
O O10 0.894245 0.241174 0.878410
O O11 0.000000 0.162534 0.000000
O O12 0.223900 0.784987 0.195006
O O13 0.151247 0.000000 0.251604
O O14 0.861454 0.500000 0.186045
O O15 0.830939 0.196693 0.180608
O O16 0.761494 0.500000 0.882078
O O17 0.750000 0.250000 0.000000
#
# Coordination Sequence:
#
# PCOD8112699 Si02
#       6
#     8   8   8   8   8   8
#     4   9  21  41  63  91 125 164 209 262 316 368
#     4  11  23  41  67  93 127 168 214 265 320 384
#     4  10  23  41  60  86 125 169 207 255 317 374
#     4  11  23  40  63  91 128 165 206 258 313 374
#     4  11  22  38  65  94 123 161 207 259 314 378
#     4  12  23  38  61  91 126 161 203 252 310 377
#
# _framework density 21.13991
#
# number of rings (size 3 to 8) (size 9 to 14) (size 15 to 20)
#    0.000    1.333    1.667    4.000    2.333    2.333 
#    0.000    2.500    0.000    4.000    0.000    0.000 
#    0.000    0.000    0.000    0.000    0.000    0.000 
#
# Total GULP energy -297573.380016 kJ/mol
# GULP energy per Si atom -12398.890834 kJ/mol
# Density = 2.109179 g / cm^3
# Si number density = 21.139910 Si / 1000 Ang^3
#
#
#
# Elastic Constant Matrix: (Units=GPa)
#
#
# Indices 1 2 3 4 5 6 
#
# 1 127.7884 23.2483 52.6890 0.0000 12.7907 0.0000
# 2 23.2483 52.5652 26.9060 0.0000 5.7951 0.0000
# 3 52.6890 26.9060 148.4737 0.0000 10.4566 0.0000
# 4 0.0000 0.0000 0.0000 33.6504 0.0000 -0.9837
# 5 12.7907 5.7951 10.4566 0.0000 33.1963 0.0000
# 6 0.0000 0.0000 0.0000 -0.9837 0.0000 25.7119
#
#
#
# Elastic Compliance Matrix: (Units=1/GPa)
#
#
# Indices 1 2 3 4 5 6 
#
# 1 0.009691 -0.002588 -0.002801 0.000000 -0.002400 0.000000
# 2 -0.002588 0.021868 -0.002910 0.000000 -0.001904 0.000000
# 3 -0.002801 -0.002910 0.008330 0.000000 -0.001036 0.000000
# 4 0.000000 0.000000 0.000000 0.029751 0.000000 0.001138
# 5 -0.002400 -0.001904 -0.001036 0.000000 0.031707 0.000000
# 6 0.000000 0.000000 0.000000 0.001138 0.000000 0.038936
#
#
# Mechanical properties :
#
#
# Convention : Reuss Voigt Hill
#
# Bulk Modulus (GPa) = 42.93652 59.39042 51.16347
# Shear Modulus (GPa) = 30.36821 33.57731 31.97276
#
# Velocity S-wave (km/s) = 3.79428 3.98972 3.89322
# Velocity P-wave (km/s) = 6.28889 7.02700 6.66817
#
# Compressibility (1/GPa) = 0.02329020
#
# Stress axis : x y z
#
# Youngs Moduli (GPa) = 103.18373 45.72859 120.05250
#
# Poissons Ratio (x) = 0.11834 0.33629
# Poissons Ratio (y) = 0.26703 0.34941
# Poissons Ratio (z) = 0.28904 0.13309
#
# Static dielectric constant tensor:
#      x y z
#    x 3.964820 0.000000 0.018720 
#    y 0.000000 3.456770 0.000000 
#    z 0.018720 0.000000 4.012310 
# 
# 
# High freq. dielectric constant tensor:
#      x y z
#    x 1.832800 0.000000 0.003620 
#    y 0.000000 1.810480 0.000000 
#    z 0.003620 0.000000 1.840880 
# 
# From -- ./inp_files/172420.got.cif
#   From: 2010.06.25/outbox.cif.g09.slc.cpg/sg12_87_cif.got.tgz:172420.got - 2010.06.28 00:19:55.
