data_PCOD8112882
_publ_section_title
;
Structure prediction by ZEFSAII (Michael W. Deem and Ramdas Pophale) SiO2 
 PCOD8112882
Probable space group: C 2/M
;
_chemical_formula_sum "Si O2"
_cell_formula_units_Z 28
_cell_length_a 5.003409
_cell_length_b 23.908479
_cell_length_c 10.541905
_cell_angle_alpha 90.000000
_cell_angle_beta 79.209003
_cell_angle_gamma 90.000000
_cell_volume 1238.763987
_symmetry_space_group_name_H-M "C 2/M"
_symmetry_group_IT_number 12
_symmetry_cell_setting 'monoclinic'
loop_
_space_group_symop_operation_xyz
x,y,z
-x,y,-z
-x,-y,-z
x,-y,z
1/2+x,1/2+y,z
1/2-x,1/2+y,-z
1/2-x,1/2-y,-z
1/2+x,1/2-y,z
loop_
_atom_site_type_symbol
_atom_site_label
_atom_site_fract_x
_atom_site_fract_y
_atom_site_fract_z
Si Si1 0.254321 0.287455 0.727515
Si Si2 0.130841 0.601778 0.855422
Si Si3 0.500000 0.640965 0.500000
Si Si4 0.318099 0.563806 0.294756
O O1 0.549825 0.264108 0.737911
O O2 0.156367 0.330898 0.843713
O O3 0.280609 0.320316 0.591930
O O4 0.428028 0.574253 0.821357
O O5 0.956442 0.577785 0.755144
O O6 0.000000 0.584723 0.000000
O O7 0.333836 0.602911 0.416518
O O8 0.309559 0.500000 0.341462
#
# Coordination Sequence:
#
# PCOD8112882 Si02
#       4
#     8   8   4   8
#     4  11  23  40  64  91 124 165 204 253 310 364
#     4  11  25  43  63  93 127 162 211 257 301 368
#     4  10  23  42  64  96 128 158 207 258 306 374
#     4  11  24  42  66  93 125 165 204 255 314 365
#
# _framework density 22.603176000000001
#
# number of rings (size 3 to 8) (size 9 to 14) (size 15 to 20)
#    0.000    1.143    0.000    6.429    0.000   13.714 
#    0.000    7.143    0.000    0.000    0.000    0.000 
#    0.000    0.000    0.000    0.000    0.000    0.000 
#
# Total GULP energy -173691.398931 kJ/mol
# GULP energy per Si atom -12406.528495 kJ/mol
# Density = 2.255173 g / cm^3
# Si number density = 22.603176 Si / 1000 Ang^3
#
#
#
# Elastic Constant Matrix: (Units=GPa)
#
#
# Indices 1 2 3 4 5 6 
#
# 1 69.5268 19.8303 -7.4326 0.0000 -2.8229 0.0000
# 2 19.8303 113.7014 -4.0218 0.0000 4.0121 0.0000
# 3 -7.4326 -4.0218 46.3503 0.0000 7.0848 0.0000
# 4 0.0000 0.0000 0.0000 12.4860 0.0000 -1.5032
# 5 -2.8229 4.0121 7.0848 0.0000 29.5294 0.0000
# 6 0.0000 0.0000 0.0000 -1.5032 0.0000 27.2508
#
#
#
# Elastic Compliance Matrix: (Units=1/GPa)
#
#
# Indices 1 2 3 4 5 6 
#
# 1 0.015415 -0.002664 0.002035 0.000000 0.001347 0.000000
# 2 -0.002664 0.009341 0.000640 0.000000 -0.001677 0.000000
# 3 0.002035 0.000640 0.022775 0.000000 -0.005357 0.000000
# 4 0.000000 0.000000 0.000000 0.080625 0.000000 0.004448
# 5 0.001347 -0.001677 -0.005357 0.000000 0.035507 0.000000
# 6 0.000000 0.000000 0.000000 0.004448 0.000000 0.036942
#
#
# Mechanical properties :
#
#
# Convention : Reuss Voigt Hill
#
# Bulk Modulus (GPa) = 21.02923 27.37003 24.19963
# Shear Modulus (GPa) = 23.10159 28.60006 25.85083
#
# Velocity S-wave (km/s) = 3.20042 3.56098 3.38550
# Velocity P-wave (km/s) = 4.79383 5.38912 5.10017
#
# Compressibility (1/GPa) = 0.04755287
#
# Stress axis : x y z
#
# Youngs Moduli (GPa) = 64.87182 107.05012 43.90689
#
# Poissons Ratio (x) = 0.28519 -0.08934
# Poissons Ratio (y) = 0.17282 -0.02809
# Poissons Ratio (z) = -0.13200 -0.06848
#
# Static dielectric constant tensor:
#      x y z
#    x 3.962670 0.000000 -0.148930 
#    y 0.000000 4.230600 0.000000 
#    z -0.148930 0.000000 3.975260 
# 
# 
# High freq. dielectric constant tensor:
#      x y z
#    x 1.898170 0.000000 -0.010480 
#    y 0.000000 1.906770 0.000000 
#    z -0.010480 0.000000 1.881280 
# 
# From -- ./inp_files/114487.got.cif
#   From: 2010.06.25/outbox.cif.g09.slc.cpg/sg12_58_cif.got.tgz:114487.got - 2010.06.28 00:19:55.
