data_PCOD8112317
_publ_section_title
;
Structure prediction by ZEFSAII (Michael W. Deem and Ramdas Pophale) SiO2 
 PCOD8112317
Probable space group: C 2/M
;
_chemical_formula_sum "Si O2"
_cell_formula_units_Z 28
_cell_length_a 15.356148
_cell_length_b 17.096822
_cell_length_c 4.996676
_cell_angle_alpha 90.000000
_cell_angle_beta 106.458137
_cell_angle_gamma 90.000000
_cell_volume 1258.084177
_symmetry_space_group_name_H-M "C 2/M"
_symmetry_group_IT_number 12
_symmetry_cell_setting 'monoclinic'
loop_
_space_group_symop_operation_xyz
x,y,z
-x,y,-z
-x,-y,-z
x,-y,z
1/2+x,1/2+y,z
1/2-x,1/2+y,-z
1/2-x,1/2-y,-z
1/2+x,1/2-y,z
loop_
_atom_site_type_symbol
_atom_site_label
_atom_site_fract_x
_atom_site_fract_y
_atom_site_fract_z
Si Si1 0.741021 0.410481 0.092264
Si Si2 0.157174 0.644163 0.309341
Si Si3 0.404318 0.286692 0.032668
Si Si4 0.000000 0.674619 0.500000
O O1 0.711416 0.500000 0.098247
O O2 0.769041 0.377104 0.404285
O O3 0.654173 0.360382 0.918157
O O4 0.821109 0.404010 0.942125
O O5 0.153514 0.736999 0.236364
O O6 0.055694 0.622049 0.333200
O O7 0.500000 0.317532 0.000000
O O8 0.423236 0.228524 0.295437
#
# Coordination Sequence:
#
# PCOD8112317 Si02
#       4
#     8   8   8   4
#     4  12  26  42  64  98 135 168 206 261 328 384
#     4  11  23  44  67  95 124 172 219 262 310 376
#     4  10  23  41  72  96 124 167 220 266 312 372
#     4  10  22  42  70  96 122 162 230 268 304 362
#
# _framework density 22.256065
#
# number of rings (size 3 to 8) (size 9 to 14) (size 15 to 20)
#    0.000    1.143    2.857    2.571    8.000    0.571 
#    0.000    5.000    0.000    0.000    0.000    0.000 
#    0.000    0.000    0.000    0.000    0.000    0.000 
#
# Total GULP energy -173529.834703 kJ/mol
# GULP energy per Si atom -12394.988193 kJ/mol
# Density = 2.220541 g / cm^3
# Si number density = 22.256065 Si / 1000 Ang^3
#
#
#
# Elastic Constant Matrix: (Units=GPa)
#
#
# Indices 1 2 3 4 5 6 
#
# 1 90.7613 62.7267 29.7578 0.0000 -11.9873 0.0000
# 2 62.7267 97.8005 29.3101 0.0000 6.2101 0.0000
# 3 29.7578 29.3101 104.2676 0.0000 -10.0339 0.0000
# 4 0.0000 0.0000 0.0000 12.5538 0.0000 -3.0302
# 5 -11.9873 6.2101 -10.0339 0.0000 35.6303 0.0000
# 6 0.0000 0.0000 0.0000 -3.0302 0.0000 17.4633
#
#
#
# Elastic Compliance Matrix: (Units=1/GPa)
#
#
# Indices 1 2 3 4 5 6 
#
# 1 0.023281 -0.015147 -0.001417 0.000000 0.010074 0.000000
# 2 -0.015147 0.021321 -0.002589 0.000000 -0.009541 0.000000
# 3 -0.001417 -0.002589 0.011019 0.000000 0.003077 0.000000
# 4 0.000000 0.000000 0.000000 0.083139 0.000000 0.014426
# 5 0.010074 -0.009541 0.003077 0.000000 0.033985 0.000000
# 6 0.000000 0.000000 0.000000 0.014426 0.000000 0.059766
#
#
# Mechanical properties :
#
#
# Convention : Reuss Voigt Hill
#
# Bulk Modulus (GPa) = 57.75026 59.60207 58.67616
# Shear Modulus (GPa) = 18.07730 24.53180 21.30455
#
# Velocity S-wave (km/s) = 2.85308 3.32362 3.09730
# Velocity P-wave (km/s) = 6.07106 6.44724 6.26198
#
# Compressibility (1/GPa) = 0.01731594
#
# Stress axis : x y z
#
# Youngs Moduli (GPa) = 42.95283 46.90115 90.75194
#
# Poissons Ratio (x) = 0.71041 0.12861
# Poissons Ratio (y) = 0.65061 0.23494
# Poissons Ratio (z) = 0.06087 0.12142
#
# Static dielectric constant tensor:
#      x y z
#    x 4.137580 0.000000 -0.224600 
#    y 0.000000 3.580740 0.000000 
#    z -0.224600 0.000000 4.103470 
# 
# 
# High freq. dielectric constant tensor:
#      x y z
#    x 1.884180 0.000000 -0.016530 
#    y 0.000000 1.829510 0.000000 
#    z -0.016530 0.000000 1.887630 
# 
# From -- ./inp_files/9709.got.cif
#   From: 2010.06.25/outbox.cif.g09.slc.cpg/sg12_5_cif.got.tgz:9709.got - 2010.06.28 00:19:55.
