data_PCOD8112994
_publ_section_title
;
Structure prediction by ZEFSAII (Michael W. Deem and Ramdas Pophale) SiO2 
 PCOD8112994
Probable space group: C 2/M
;
_chemical_formula_sum "Si O2"
_cell_formula_units_Z 64
_cell_length_a 15.451705
_cell_length_b 8.575970
_cell_length_c 30.485620
_cell_angle_alpha 90.000000
_cell_angle_beta 50.867900
_cell_angle_gamma 90.000000
_cell_volume 3133.607058
_symmetry_space_group_name_H-M "C 2/M"
_symmetry_group_IT_number 12
_symmetry_cell_setting 'monoclinic'
loop_
_space_group_symop_operation_xyz
x,y,z
-x,y,-z
-x,-y,-z
x,-y,z
1/2+x,1/2+y,z
1/2-x,1/2+y,-z
1/2-x,1/2-y,-z
1/2+x,1/2-y,z
loop_
_atom_site_type_symbol
_atom_site_label
_atom_site_fract_x
_atom_site_fract_y
_atom_site_fract_z
Si Si1 0.016478 0.820118 0.165269
Si Si2 0.104415 0.682954 0.937867
Si Si3 0.313761 0.678116 0.173492
Si Si4 0.533546 0.185352 0.557237
Si Si5 0.576013 0.681120 0.243732
Si Si6 0.217063 0.317340 0.057144
Si Si7 0.910346 0.682567 0.365148
Si Si8 0.673826 0.815580 0.430745
O O1 0.035660 0.762841 0.208779
O O2 0.087580 0.713784 0.109032
O O3 0.885951 0.799767 0.194764
O O4 0.053346 0.000000 0.148109
O O5 0.097417 0.500000 0.930261
O O6 0.104112 0.776852 0.892642
O O7 0.217426 0.722713 0.926823
O O8 0.000000 0.740404 0.000000
O O9 0.273594 0.500000 0.181091
O O10 0.207134 0.789593 0.208337
O O11 0.561479 0.256483 0.596048
O O12 0.411356 0.242400 0.579988
O O13 0.627587 0.242465 0.492728
O O14 0.532535 0.000000 0.558850
O O15 0.550388 0.500000 0.258795
O O16 0.510041 0.778911 0.300655
O O17 0.244069 0.500000 0.050131
O O18 0.250000 0.250000 0.000000
O O19 0.899191 0.500000 0.373724
O O20 0.795069 0.746682 0.382757
O O21 0.683038 0.000000 0.427027
#
# Coordination Sequence:
#
# PCOD8112994 Si02
#       8
#     8   8   8   8   8   8   8   8
#     4  10  23  43  65  87 118 154 196 245 304 363
#     4  11  23  39  60  89 124 158 194 239 294 360
#     4  11  23  41  65  91 116 151 195 248 305 359
#     4   8  17  34  58  85 118 159 198 244 299 360
#     4  11  24  43  63  84 117 163 205 249 297 361
#     4  12  24  38  61  90 123 157 196 244 297 355
#     4  11  22  36  56  86 121 154 197 252 304 352
#     4   9  17  35  60  85 115 157 205 243 294 364
#
# _framework density 20.423748
#
# number of rings (size 3 to 8) (size 9 to 14) (size 15 to 20)
#    0.000    1.625    1.250    4.500    0.000    5.500 
#    0.000    8.125    0.000    0.000    0.000    0.000 
#    0.000    0.000    0.000    0.000    0.000    0.000 
#
# Total GULP energy -396896.598881 kJ/mol
# GULP energy per Si atom -12403.018715 kJ/mol
# Density = 2.037726 g / cm^3
# Si number density = 20.423748 Si / 1000 Ang^3
#
#
#
# Elastic Constant Matrix: (Units=GPa)
#
#
# Indices 1 2 3 4 5 6 
#
# 1 115.1042 18.2426 38.9408 0.0001 -4.1167 0.0005
# 2 18.2426 40.9704 12.2058 -0.0004 2.5660 0.0007
# 3 38.9408 12.2058 92.3703 0.0006 -4.2738 0.0006
# 4 0.0001 -0.0004 0.0006 31.1003 0.0003 -1.9649
# 5 -4.1167 2.5660 -4.2738 0.0003 28.8041 0.0005
# 6 0.0005 0.0007 0.0006 -1.9649 0.0005 25.3906
#
#
#
# Elastic Compliance Matrix: (Units=1/GPa)
#
#
# Indices 1 2 3 4 5 6 
#
# 1 0.010646 -0.003643 -0.003948 0.000000 0.001260 0.000000
# 2 -0.003643 0.026878 -0.002166 0.000000 -0.003236 -0.000001
# 3 -0.003948 -0.002166 0.012848 0.000000 0.001535 0.000000
# 4 0.000000 0.000000 0.000000 0.032312 0.000000 0.002501
# 5 0.001260 -0.003236 0.001535 0.000000 0.035413 -0.000001
# 6 0.000000 -0.000001 0.000000 0.002501 -0.000001 0.039578
#
#
# Mechanical properties :
#
#
# Convention : Reuss Voigt Hill
#
# Bulk Modulus (GPa) = 32.40685 43.02480 37.71583
# Shear Modulus (GPa) = 26.67026 28.99605 27.83316
#
# Velocity S-wave (km/s) = 3.61757 3.77201 3.69560
# Velocity P-wave (km/s) = 5.77501 6.33108 6.05943
#
# Compressibility (1/GPa) = 0.03085768
#
# Stress axis : x y z
#
# Youngs Moduli (GPa) = 93.93220 37.20548 77.83498
#
# Poissons Ratio (x) = 0.13554 0.30732
# Poissons Ratio (y) = 0.34219 0.16856
# Poissons Ratio (z) = 0.37088 0.08057
#
# Static dielectric constant tensor:
#      x y z
#    x 3.963820 0.000000 0.049470 
#    y 0.000000 3.500060 0.000000 
#    z 0.049470 0.000000 3.602540 
# 
# 
# High freq. dielectric constant tensor:
#      x y z
#    x 1.812150 0.000000 -0.000030 
#    y 0.000000 1.784870 0.000000 
#    z -0.000030 0.000000 1.792690 
# 
# From -- ./inp_files/375377.got.cif
#   From: 2010.06.25/outbox.cif.g09.slc.cpg/sg12_188_cif.got.tgz:375377.got - 2010.06.28 00:19:55.
