data_PCOD8112022
_publ_section_title
;
Structure prediction by ZEFSAII (Michael W. Deem and Ramdas Pophale) SiO2 
 PCOD8112022
Probable space group: C 2/M
;
_chemical_formula_sum "Si O2"
_cell_formula_units_Z 48
_cell_length_a 18.374758
_cell_length_b 12.949588
_cell_length_c 18.486257
_cell_angle_alpha 90.000000
_cell_angle_beta 29.095918
_cell_angle_gamma 90.000000
_cell_volume 2138.980553
_symmetry_space_group_name_H-M "C 2/M"
_symmetry_group_IT_number 12
_symmetry_cell_setting 'monoclinic'
loop_
_space_group_symop_operation_xyz
x,y,z
-x,y,-z
-x,-y,-z
x,-y,z
1/2+x,1/2+y,z
1/2-x,1/2+y,-z
1/2-x,1/2-y,-z
1/2+x,1/2-y,z
loop_
_atom_site_type_symbol
_atom_site_label
_atom_site_fract_x
_atom_site_fract_y
_atom_site_fract_z
Si Si1 0.834116 0.614795 0.674893
Si Si2 0.232528 0.378861 0.101508
Si Si3 0.465479 0.271477 0.810498
Si Si4 0.248733 0.784174 0.360033
Si Si5 0.953540 0.879316 0.676301
Si Si6 0.339298 0.884234 0.150432
O O1 0.767719 0.500000 0.721083
O O2 0.824781 0.642896 0.767749
O O3 0.737575 0.693012 0.711235
O O4 0.000000 0.619908 0.500000
O O5 0.253298 0.500000 0.068440
O O6 0.109623 0.334313 0.152334
O O7 0.386431 0.315896 0.951686
O O8 0.639180 0.244301 0.672693
O O9 0.448995 0.362585 0.765889
O O10 0.083469 0.805841 0.532322
O O11 0.302620 0.884024 0.268018
O O12 0.799881 0.836426 0.774074
O O13 0.982177 0.000000 0.633539
O O14 0.355867 0.000000 0.107114
O O15 0.500000 0.826970 0.000000
#
# Coordination Sequence:
#
# PCOD8112022 Si02
#       6
#     8   8   8   8   8   8
#     4  10  22  41  66  92 126 173 221 271 323 385
#     4  10  23  43  65  92 131 177 222 271 330 389
#     4  11  25  40  65  97 132 177 218 271 332 395
#     4  12  24  39  67  97 131 169 218 272 332 392
#     4  11  24  45  68  95 137 177 218 271 331 397
#     4  10  23  40  65  97 128 169 219 272 328 387
#
# _framework density 22.440598000000001
#
# number of rings (size 3 to 8) (size 9 to 14) (size 15 to 20)
#    0.000    1.333    0.000    5.000    7.000    4.000 
#    0.000    3.333    0.000    0.000    0.000    0.000 
#    0.000    0.000    0.000    0.000    0.000    0.000 
#
# Total GULP energy -297520.418833 kJ/mol
# GULP energy per Si atom -12396.684118 kJ/mol
# Density = 2.238952 g / cm^3
# Si number density = 22.440598 Si / 1000 Ang^3
#
#
#
# Elastic Constant Matrix: (Units=GPa)
#
#
# Indices 1 2 3 4 5 6 
#
# 1 133.5726 40.9393 71.3588 -0.0021 -19.9325 0.0008
# 2 40.9393 100.8272 37.2229 -0.0060 -7.1647 0.0029
# 3 71.3588 37.2229 164.2633 -0.0097 -8.8493 0.0045
# 4 -0.0021 -0.0060 -0.0097 33.6075 0.0032 11.5660
# 5 -19.9325 -7.1647 -8.8493 0.0032 49.9454 -0.0012
# 6 0.0008 0.0029 0.0045 11.5660 -0.0012 25.9771
#
#
#
# Elastic Compliance Matrix: (Units=1/GPa)
#
#
# Indices 1 2 3 4 5 6 
#
# 1 0.010925 -0.002746 -0.003948 -0.000002 0.003266 0.000002
# 2 -0.002746 0.011577 -0.001413 0.000002 0.000314 -0.000002
# 3 -0.003948 -0.001413 0.008105 0.000003 -0.000342 -0.000002
# 4 -0.000002 0.000002 0.000003 0.035140 -0.000003 -0.015646
# 5 0.003266 0.000314 -0.000342 -0.000003 0.021310 0.000002
# 6 0.000002 -0.000002 -0.000002 -0.015646 0.000002 0.045461
#
#
# Mechanical properties :
#
#
# Convention : Reuss Voigt Hill
#
# Bulk Modulus (GPa) = 69.48449 77.52279 73.50364
# Shear Modulus (GPa) = 32.56706 38.51547 35.54127
#
# Velocity S-wave (km/s) = 3.81367 4.14736 3.98401
# Velocity P-wave (km/s) = 7.10092 7.58649 7.34772
#
# Compressibility (1/GPa) = 0.01439170
#
# Stress axis : x y z
#
# Youngs Moduli (GPa) = 91.53608 86.37654 123.38772
#
# Poissons Ratio (x) = 0.23722 0.48708
# Poissons Ratio (y) = 0.25139 0.17441
# Poissons Ratio (z) = 0.36134 0.12209
#
# Static dielectric constant tensor:
#      x y z
#    x 3.923810 0.000000 0.014640 
#    y 0.000000 4.126730 0.000010 
#    z 0.014640 0.000010 4.099910 
# 
# 
# High freq. dielectric constant tensor:
#      x y z
#    x 1.873260 0.000000 0.006340 
#    y 0.000000 1.892050 0.000000 
#    z 0.006340 0.000000 1.894850 
# 
# From -- ./inp_files/278042.got.cif
#   From: 2010.06.25/outbox.cif.g09.slc.cpg/sg12_140_cif.got.tgz:278042.got - 2010.06.28 00:19:55.
