data_PCOD8112064
_publ_section_title
;
Structure prediction by ZEFSAII (Michael W. Deem and Ramdas Pophale) SiO2 
 PCOD8112064
Probable space group: C 2/M
;
_chemical_formula_sum "Si O2"
_cell_formula_units_Z 44
_cell_length_a 18.976530
_cell_length_b 12.561671
_cell_length_c 30.424441
_cell_angle_alpha 90.000000
_cell_angle_beta 161.962671
_cell_angle_gamma 90.000000
_cell_volume 2245.634392
_symmetry_space_group_name_H-M "C 2/M"
_symmetry_group_IT_number 12
_symmetry_cell_setting 'monoclinic'
loop_
_space_group_symop_operation_xyz
x,y,z
-x,y,-z
-x,-y,-z
x,-y,z
1/2+x,1/2+y,z
1/2-x,1/2+y,-z
1/2-x,1/2-y,-z
1/2+x,1/2-y,z
loop_
_atom_site_type_symbol
_atom_site_label
_atom_site_fract_x
_atom_site_fract_y
_atom_site_fract_z
Si Si1 0.000000 0.235790 0.000000
Si Si2 0.202432 0.381832 0.196147
Si Si3 0.649350 0.724555 0.486437
Si Si4 0.564669 0.122777 0.783099
Si Si5 0.872508 0.379891 0.378820
Si Si6 0.988211 0.295589 0.152450
O O1 0.125958 0.304005 0.111905
O O2 0.193693 0.166370 0.091047
O O3 0.181947 0.500000 0.164679
O O4 0.457492 0.363490 0.364617
O O5 0.048998 0.372482 0.148358
O O6 0.750000 0.750000 0.500000
O O7 0.540900 0.831901 0.442128
O O8 0.848952 0.682596 0.635385
O O9 0.533942 0.135340 0.816833
O O10 0.554457 0.000000 0.763835
O O11 0.799967 0.500000 0.321323
O O12 0.656526 0.304412 0.256706
O O13 0.000000 0.385308 0.500000
O O14 0.750000 0.250000 0.000000
#
# Coordination Sequence:
#
# PCOD8112064 Si02
#       6
#     4   8   8   8   8   8
#     4  12  24  46  62  98 138 158 216 272 308 404
#     4  11  24  42  67  95 128 170 209 264 325 375
#     4  11  23  44  63  95 135 163 219 262 313 392
#     4  12  25  44  68  94 129 175 214 266 327 379
#     4  10  22  41  67  93 124 165 211 264 315 365
#     4  11  23  44  63  95 135 163 219 262 313 392
#
# _framework density 19.593572999999999
#
# number of rings (size 3 to 8) (size 9 to 14) (size 15 to 20)
#    0.000    0.909    5.455    1.636    0.000    2.909 
#    0.000    2.727    0.000    0.000    0.000    0.000 
#    0.000    0.000    0.000    0.000    0.000    0.000 
#
# Total GULP energy -272774.771562 kJ/mol
# GULP energy per Si atom -12398.853253 kJ/mol
# Density = 1.954898 g / cm^3
# Si number density = 19.593573 Si / 1000 Ang^3
#
#
#
# Elastic Constant Matrix: (Units=GPa)
#
#
# Indices 1 2 3 4 5 6 
#
# 1 123.3965 17.1775 9.1179 0.0257 11.8540 -0.0322
# 2 17.1775 109.8119 9.1759 0.0571 12.8946 -0.0320
# 3 9.1179 9.1759 82.2477 0.1407 9.9099 -0.1368
# 4 0.0257 0.0571 0.1407 4.6254 -0.0521 5.0737
# 5 11.8540 12.8946 9.9099 -0.0521 38.6576 0.0428
# 6 -0.0322 -0.0320 -0.1368 5.0737 0.0428 9.8376
#
#
#
# Elastic Compliance Matrix: (Units=1/GPa)
#
#
# Indices 1 2 3 4 5 6 
#
# 1 0.008493 -0.001032 -0.000571 -0.000159 -0.002114 0.000108
# 2 -0.001032 0.009643 -0.000630 -0.000367 -0.002739 0.000220
# 3 -0.000571 -0.000630 0.012640 -0.001399 -0.002858 0.000906
# 4 -0.000159 -0.000367 -0.001399 0.498053 0.001485 -0.256897
# 5 -0.002114 -0.002739 -0.002858 0.001485 0.028166 -0.000944
# 6 0.000108 0.000220 0.000906 -0.256897 -0.000944 0.234163
#
#
# Mechanical properties :
#
#
# Convention : Reuss Voigt Hill
#
# Bulk Modulus (GPa) = 38.01141 42.93318 40.47230
# Shear Modulus (GPa) = 6.21585 29.28977 17.75281
#
# Velocity S-wave (km/s) = 1.78305 3.87054 3.01334
# Velocity P-wave (km/s) = 4.86632 6.47567 5.72780
#
# Compressibility (1/GPa) = 0.02630789
#
# Stress axis : x y z
#
# Youngs Moduli (GPa) = 117.74381 103.70726 79.11219
#
# Poissons Ratio (x) = 0.10708 0.04519
# Poissons Ratio (y) = 0.12157 0.04986
# Poissons Ratio (z) = 0.06725 0.06537
#
# Static dielectric constant tensor:
#      x y z
#    x 3.700240 -0.000010 0.035560 
#    y -0.000010 3.775600 -0.000080 
#    z 0.035560 -0.000080 3.775370 
# 
# 
# High freq. dielectric constant tensor:
#      x y z
#    x 1.781990 0.000000 0.001360 
#    y 0.000000 1.763480 -0.000010 
#    z 0.001360 -0.000010 1.780160 
# 
# From -- ./inp_files/379137.got.cif
#   From: 2010.06.25/outbox.cif.g09.slc.cpg/sg12_190_cif.got.tgz:379137.got - 2010.06.28 00:19:55.
