data_PCOD8112889
_publ_section_title
;
Structure prediction by ZEFSAII (Michael W. Deem and Ramdas Pophale) SiO2 
 PCOD8112889
Probable space group: C 2/M
;
_chemical_formula_sum "Si O2"
_cell_formula_units_Z 32
_cell_length_a 22.699585
_cell_length_b 14.986144
_cell_length_c 8.204012
_cell_angle_alpha 90.000000
_cell_angle_beta 33.836930
_cell_angle_gamma 90.000000
_cell_volume 1554.023556
_symmetry_space_group_name_H-M "C 2/M"
_symmetry_group_IT_number 12
_symmetry_cell_setting 'monoclinic'
loop_
_space_group_symop_operation_xyz
x,y,z
-x,y,-z
-x,-y,-z
x,-y,z
1/2+x,1/2+y,z
1/2-x,1/2+y,-z
1/2-x,1/2-y,-z
1/2+x,1/2-y,z
loop_
_atom_site_type_symbol
_atom_site_label
_atom_site_fract_x
_atom_site_fract_y
_atom_site_fract_z
Si Si1 0.375354 0.500000 0.273684
Si Si2 0.208157 0.500000 0.915515
Si Si3 0.491117 0.000000 0.828497
Si Si4 0.639113 0.859166 0.330329
Si Si5 0.663964 0.400067 0.936609
Si Si6 0.500000 0.709844 0.500000
O O1 0.325631 0.500000 0.568477
O O2 0.500000 0.500000 0.000000
O O3 0.339533 0.411919 0.252028
O O4 0.189147 0.410921 0.062337
O O5 0.131274 0.500000 0.936144
O O6 0.544178 0.087020 0.630292
O O7 0.500000 0.000000 0.000000
O O8 0.590563 0.766256 0.383222
O O9 0.732503 0.843796 0.247402
O O10 0.671108 0.500000 0.001413
O O11 0.556828 0.351699 0.236551
#
# Coordination Sequence:
#
# PCOD8112889 Si02
#       6
#     4   4   4   8   8   4
#     4  10  24  42  68  92 124 178 226 255 322 400
#     4  11  19  38  69  89 124 171 223 259 315 396
#     4  11  19  37  68  92 132 174 213 260 324 399
#     4  11  21  40  67  99 124 171 220 267 323 380
#     4  10  23  42  65  92 127 177 219 263 324 389
#     4  12  23  39  66 102 132 164 220 279 327 378
#
# _framework density 20.591707
#
# number of rings (size 3 to 8) (size 9 to 14) (size 15 to 20)
#    0.750    0.500    5.000    3.375    3.500    0.000 
#    0.000    2.500    0.000    0.000    0.000    0.000 
#    0.000    0.000    0.000    0.000    0.000    0.000 
#
# Total GULP energy -198373.112553 kJ/mol
# GULP energy per Si atom -12398.319535 kJ/mol
# Density = 2.054484 g / cm^3
# Si number density = 20.591707 Si / 1000 Ang^3
#
#
#
# Elastic Constant Matrix: (Units=GPa)
#
#
# Indices 1 2 3 4 5 6 
#
# 1 102.5012 6.6187 29.0388 0.0000 -10.8703 0.0000
# 2 6.6187 63.7398 26.1655 0.0000 1.2372 0.0000
# 3 29.0388 26.1655 123.6842 0.0000 3.0007 0.0000
# 4 0.0000 0.0000 0.0000 20.4461 0.0000 -4.5931
# 5 -10.8703 1.2372 3.0007 0.0000 42.4642 0.0000
# 6 0.0000 0.0000 0.0000 -4.5931 0.0000 8.5834
#
#
#
# Elastic Compliance Matrix: (Units=1/GPa)
#
#
# Indices 1 2 3 4 5 6 
#
# 1 0.010809 -0.000119 -0.002584 0.000000 0.002953 0.000000
# 2 -0.000119 0.017185 -0.003601 0.000000 -0.000277 0.000000
# 3 -0.002584 -0.003601 0.009483 0.000000 -0.001227 0.000000
# 4 0.000000 0.000000 0.000000 0.055592 0.000000 0.029748
# 5 0.002953 -0.000277 -0.001227 0.000000 0.024400 0.000000
# 6 0.000000 0.000000 0.000000 0.029748 0.000000 0.132422
#
#
# Mechanical properties :
#
#
# Convention : Reuss Voigt Hill
#
# Bulk Modulus (GPa) = 40.21052 45.95237 43.08144
# Shear Modulus (GPa) = 18.46460 29.50555 23.98507
#
# Velocity S-wave (km/s) = 2.99774 3.78945 3.41661
# Velocity P-wave (km/s) = 5.61711 6.44290 6.04413
#
# Compressibility (1/GPa) = 0.02486911
#
# Stress axis : x y z
#
# Youngs Moduli (GPa) = 92.51585 58.19145 105.44786
#
# Poissons Ratio (x) = 0.00692 0.27250
# Poissons Ratio (y) = 0.01100 0.37970
# Poissons Ratio (z) = 0.23908 0.20954
#
# Static dielectric constant tensor:
#      x y z
#    x 3.781930 0.000000 -0.100280 
#    y 0.000000 3.499640 0.000000 
#    z -0.100280 0.000000 3.706970 
# 
# 
# High freq. dielectric constant tensor:
#      x y z
#    x 1.812390 0.000000 -0.015780 
#    y 0.000000 1.779930 0.000000 
#    z -0.015780 0.000000 1.808820 
# 
# From -- ./inp_files/97521.got.cif
#   From: 2010.06.25/outbox.cif.g09.slc.cpg/sg12_49_cif.got.tgz:97521.got - 2010.06.28 00:19:55.
