data_PCOD8112232
_publ_section_title
;
Structure prediction by ZEFSAII (Michael W. Deem and Ramdas Pophale) SiO2 
 PCOD8112232
Probable space group: C 2/M
;
_chemical_formula_sum "Si O2"
_cell_formula_units_Z 48
_cell_length_a 14.128554
_cell_length_b 26.012180
_cell_length_c 8.923832
_cell_angle_alpha 90.000000
_cell_angle_beta 42.234662
_cell_angle_gamma 90.000000
_cell_volume 2204.469482
_symmetry_space_group_name_H-M "C 2/M"
_symmetry_group_IT_number 12
_symmetry_cell_setting 'monoclinic'
loop_
_space_group_symop_operation_xyz
x,y,z
-x,y,-z
-x,-y,-z
x,-y,z
1/2+x,1/2+y,z
1/2-x,1/2+y,-z
1/2-x,1/2-y,-z
1/2+x,1/2-y,z
loop_
_atom_site_type_symbol
_atom_site_label
_atom_site_fract_x
_atom_site_fract_y
_atom_site_fract_z
Si Si1 0.101958 0.711101 0.253223
Si Si2 0.378779 0.591593 0.038285
Si Si3 0.607327 0.942404 0.508364
Si Si4 0.354368 0.558180 0.739919
Si Si5 0.579303 0.120004 0.052722
Si Si6 0.911695 0.209145 0.960655
O O1 0.126119 0.666001 0.105505
O O2 0.248008 0.725862 0.163746
O O3 0.000000 0.689774 0.500000
O O4 0.032852 0.761126 0.253104
O O5 0.237266 0.593249 0.303593
O O6 0.425421 0.648100 0.928382
O O7 0.500000 0.567393 0.000000
O O8 0.358305 0.557109 0.915950
O O9 0.500000 0.945650 0.500000
O O10 0.530673 0.918574 0.741284
O O11 0.660442 0.000000 0.486856
O O12 0.500000 0.580447 0.500000
O O13 0.332566 0.500000 0.709135
O O14 0.222461 0.591192 0.836227
O O15 0.500000 0.142218 0.000000
O O16 0.000000 0.228855 0.000000
#
# Coordination Sequence:
#
# PCOD8112232 Si02
#       6
#     8   8   8   8   8   8
#     4  11  23  44  68  96 133 168 215 273 327 390
#     4  11  23  42  66  96 133 168 221 267 321 393
#     4  11  22  40  68  94 126 175 223 275 327 381
#     4  11  25  44  63  91 133 175 217 271 331 390
#     4  12  25  43  65  95 134 173 224 274 331 393
#     4  10  22  42  66  97 128 166 212 262 325 390
#
# _framework density 21.773945000000001
#
# number of rings (size 3 to 8) (size 9 to 14) (size 15 to 20)
#    0.000    1.000    3.333    3.000    2.333    4.000 
#    0.000    0.000    0.000    0.000    0.000    0.000 
#    0.000    0.000    0.000    0.000    0.000    0.000 
#
# Total GULP energy -297639.668930 kJ/mol
# GULP energy per Si atom -12401.652872 kJ/mol
# Density = 2.172439 g / cm^3
# Si number density = 21.773945 Si / 1000 Ang^3
#
#
#
# Elastic Constant Matrix: (Units=GPa)
#
#
# Indices 1 2 3 4 5 6 
#
# 1 152.3864 23.6565 39.2543 0.0000 -10.8109 0.0000
# 2 23.6565 92.4361 27.8277 0.0000 -5.4526 0.0000
# 3 39.2543 27.8277 131.2876 0.0000 -17.0523 0.0000
# 4 0.0000 0.0000 0.0000 30.7383 0.0000 1.9852
# 5 -10.8109 -5.4526 -17.0523 0.0000 27.0569 0.0000
# 6 0.0000 0.0000 0.0000 1.9852 0.0000 24.4376
#
#
#
# Elastic Compliance Matrix: (Units=1/GPa)
#
#
# Indices 1 2 3 4 5 6 
#
# 1 0.007312 -0.001262 -0.001712 0.000000 0.001588 0.000000
# 2 -0.001262 0.011792 -0.002046 0.000000 0.000582 0.000000
# 3 -0.001712 -0.002046 0.009171 0.000000 0.004683 0.000000
# 4 0.000000 0.000000 0.000000 0.032704 0.000000 -0.002657
# 5 0.001588 0.000582 0.004683 0.000000 0.040663 0.000000
# 6 0.000000 0.000000 0.000000 -0.002657 0.000000 0.041136
#
#
# Mechanical properties :
#
#
# Convention : Reuss Voigt Hill
#
# Bulk Modulus (GPa) = 54.84652 61.95412 58.40032
# Shear Modulus (GPa) = 31.46687 35.47133 33.46910
#
# Velocity S-wave (km/s) = 3.80565 4.04056 3.92486
# Velocity P-wave (km/s) = 6.67491 7.09107 6.88613
#
# Compressibility (1/GPa) = 0.01823270
#
# Stress axis : x y z
#
# Youngs Moduli (GPa) = 136.76191 84.80557 109.04033
#
# Poissons Ratio (x) = 0.10703 0.18673
# Poissons Ratio (y) = 0.17261 0.22314
# Poissons Ratio (z) = 0.23420 0.17354
#
# Static dielectric constant tensor:
#      x y z
#    x 4.081000 0.000000 -0.135420 
#    y 0.000000 3.918790 0.000000 
#    z -0.135420 0.000000 3.323630 
# 
# 
# High freq. dielectric constant tensor:
#      x y z
#    x 1.862670 0.000000 -0.006980 
#    y 0.000000 1.857280 0.000000 
#    z -0.006980 0.000000 1.844600 
# 
# From -- ./inp_files/67349.got.cif
#   From: 2010.06.25/outbox.cif.g09.slc.cpg/sg12_34_cif.got.tgz:67349.got - 2010.06.28 00:19:55.
