data_PCOD8112421
_publ_section_title
;
Structure prediction by ZEFSAII (Michael W. Deem and Ramdas Pophale) SiO2 
 PCOD8112421
Probable space group: C 2/M
;
_chemical_formula_sum "Si O2"
_cell_formula_units_Z 36
_cell_length_a 8.049809
_cell_length_b 15.477833
_cell_length_c 20.479589
_cell_angle_alpha 90.000000
_cell_angle_beta 141.442880
_cell_angle_gamma 90.000000
_cell_volume 1590.414357
_symmetry_space_group_name_H-M "C 2/M"
_symmetry_group_IT_number 12
_symmetry_cell_setting 'monoclinic'
loop_
_space_group_symop_operation_xyz
x,y,z
-x,y,-z
-x,-y,-z
x,-y,z
1/2+x,1/2+y,z
1/2-x,1/2+y,-z
1/2-x,1/2-y,-z
1/2+x,1/2-y,z
loop_
_atom_site_type_symbol
_atom_site_label
_atom_site_fract_x
_atom_site_fract_y
_atom_site_fract_z
Si Si1 0.134088 0.000000 0.749410
Si Si2 0.103686 0.000000 0.893435
Si Si3 0.953551 0.328996 0.298266
Si Si4 0.940057 0.168776 0.055174
Si Si5 0.250766 0.653865 0.621234
Si Si6 0.018213 0.500000 0.261167
O O1 0.978903 0.084578 0.677411
O O2 0.178862 0.000000 0.840496
O O3 0.413360 0.000000 0.795205
O O4 0.217056 0.911355 0.958965
O O5 0.794687 0.000000 0.819042
O O6 0.718190 0.306519 0.175267
O O7 0.820913 0.353606 0.325431
O O8 0.128420 0.411560 0.327667
O O9 0.149987 0.249023 0.366811
O O10 0.750000 0.250000 0.000000
O O11 0.000000 0.141648 0.000000
O O12 0.000000 0.630215 0.500000
#
# Coordination Sequence:
#
# PCOD8112421 Si02
#       6
#     4   4   8   8   8   4
#     4  12  23  44  73 100 137 189 227 288 352 405
#     4  10  23  49  67  99 144 175 231 290 338 414
#     4  11  23  45  67 100 146 175 235 293 340 414
#     4  11  23  43  71  99 137 183 225 280 352 407
#     4  12  24  43  69 101 140 184 231 288 350 415
#     4  10  22  43  74  96 133 194 221 280 356 400
#
# _framework density 22.63561
#
# number of rings (size 3 to 8) (size 9 to 14) (size 15 to 20)
#    0.000    0.889    4.444    4.000    0.000    1.778 
#    0.000    3.333    0.000    0.000    0.000    0.000 
#    0.000    0.000    0.000    0.000    0.000    0.000 
#
# Total GULP energy -223205.862518 kJ/mol
# GULP energy per Si atom -12400.325695 kJ/mol
# Density = 2.258409 g / cm^3
# Si number density = 22.635610 Si / 1000 Ang^3
#
#
#
# Elastic Constant Matrix: (Units=GPa)
#
#
# Indices 1 2 3 4 5 6 
#
# 1 136.9896 28.4811 7.0094 -0.0002 -10.6589 0.0000
# 2 28.4811 175.7563 -0.2063 -0.0002 7.2607 0.0000
# 3 7.0094 -0.2063 64.2648 -0.0001 -9.9435 0.0000
# 4 -0.0002 -0.0002 -0.0001 26.9275 -0.0002 -1.0707
# 5 -10.6589 7.2607 -9.9435 -0.0002 13.3098 0.0000
# 6 0.0000 0.0000 0.0000 -1.0707 0.0000 36.0602
#
#
#
# Elastic Compliance Matrix: (Units=1/GPa)
#
#
# Indices 1 2 3 4 5 6 
#
# 1 0.008228 -0.001651 0.000290 0.000000 0.007706 0.000000
# 2 -0.001651 0.006169 -0.000594 0.000000 -0.005131 0.000000
# 3 0.000290 -0.000594 0.017654 0.000000 0.013745 0.000000
# 4 0.000000 0.000000 0.000000 0.037181 0.000001 0.001104
# 5 0.007706 -0.005131 0.013745 0.000001 0.094371 0.000000
# 6 0.000000 0.000000 0.000000 0.001104 0.000000 0.027764
#
#
# Mechanical properties :
#
#
# Convention : Reuss Voigt Hill
#
# Bulk Modulus (GPa) = 35.53801 49.73099 42.63450
# Shear Modulus (GPa) = 24.43104 38.04126 31.23615
#
# Velocity S-wave (km/s) = 3.28886 4.10395 3.71881
# Velocity P-wave (km/s) = 5.49147 6.66892 6.10863
#
# Compressibility (1/GPa) = 0.02813888
#
# Stress axis : x y z
#
# Youngs Moduli (GPa) = 121.53697 162.11205 56.64505
#
# Poissons Ratio (x) = 0.26770 -0.01641
# Poissons Ratio (y) = 0.20070 0.03365
# Poissons Ratio (z) = -0.03520 0.09630
#
# Static dielectric constant tensor:
#      x y z
#    x 4.065380 0.000000 -0.292440 
#    y 0.000000 4.895780 0.000000 
#    z -0.292440 0.000000 3.671770 
# 
# 
# High freq. dielectric constant tensor:
#      x y z
#    x 1.901950 0.000000 -0.016540 
#    y 0.000000 1.921980 0.000000 
#    z -0.016540 0.000000 1.872110 
# 
# From -- ./inp_files/300251.got.cif
#   From: 2010.06.25/outbox.cif.g09.slc.cpg/sg12_151_cif.got.tgz:300251.got - 2010.06.28 00:19:55.
