data_PCOD8112173
_publ_section_title
;
Structure prediction by ZEFSAII (Michael W. Deem and Ramdas Pophale) SiO2 
 PCOD8112173
Probable space group: C 2/M
;
_chemical_formula_sum "Si O2"
_cell_formula_units_Z 56
_cell_length_a 20.123127
_cell_length_b 8.471108
_cell_length_c 27.295190
_cell_angle_alpha 90.000000
_cell_angle_beta 145.247564
_cell_angle_gamma 90.000000
_cell_volume 2652.288809
_symmetry_space_group_name_H-M "C 2/M"
_symmetry_group_IT_number 12
_symmetry_cell_setting 'monoclinic'
loop_
_space_group_symop_operation_xyz
x,y,z
-x,y,-z
-x,-y,-z
x,-y,z
1/2+x,1/2+y,z
1/2-x,1/2+y,-z
1/2-x,1/2-y,-z
1/2+x,1/2-y,z
loop_
_atom_site_type_symbol
_atom_site_label
_atom_site_fract_x
_atom_site_fract_y
_atom_site_fract_z
Si Si1 0.523208 0.318260 0.068694
Si Si2 0.931103 0.317474 0.339102
Si Si3 0.273746 0.682145 0.961312
Si Si4 0.819871 0.183576 0.496500
Si Si5 0.413551 0.317197 0.222343
Si Si6 0.154769 0.181624 0.318956
Si Si7 0.792121 0.680944 0.750881
O O1 0.563705 0.500000 0.091483
O O2 0.628014 0.215778 0.153761
O O3 0.500000 0.255574 0.000000
O O4 0.409788 0.296059 0.033271
O O5 0.906710 0.500000 0.334518
O O6 0.917698 0.286131 0.273495
O O7 0.840981 0.216135 0.316207
O O8 0.058887 0.273778 0.435291
O O9 0.236080 0.500000 0.936096
O O10 0.202276 0.778602 0.877801
O O11 0.250000 0.750000 0.000000
O O12 0.750000 0.250000 0.500000
O O13 0.746890 0.209234 0.402963
O O14 0.844385 0.000000 0.519914
O O15 0.413306 0.500000 0.237334
O O16 0.524535 0.273837 0.256377
O O17 0.164753 0.210358 0.267367
O O18 0.182329 0.000000 0.347707
O O19 0.804043 0.500000 0.742437
#
# Coordination Sequence:
#
# PCOD8112173 Si02
#       7
#     8   8   8   8   8   8   8
#     4  10  22  42  65  89 122 168 217 265 320 383
#     4  12  25  43  68  95 129 170 214 263 319 383
#     4  11  23  38  60  90 126 166 212 264 321 382
#     4  12  24  42  68 100 133 168 214 264 318 379
#     4  11  23  40  65  95 128 165 214 269 322 382
#     4  11  24  43  67  95 132 174 215 265 324 384
#     4  12  26  43  65  96 132 169 216 270 325 387
#
# _framework density 21.113838999999999
#
# number of rings (size 3 to 8) (size 9 to 14) (size 15 to 20)
#    0.000    0.714    1.429    6.857    0.000    8.286 
#    0.000    2.857    0.000    0.000    0.000    0.000 
#    0.000    0.000    0.000    0.000    0.000    0.000 
#
# Total GULP energy -347476.683496 kJ/mol
# GULP energy per Si atom -12409.881553 kJ/mol
# Density = 2.106578 g / cm^3
# Si number density = 21.113839 Si / 1000 Ang^3
#
#
#
# Elastic Constant Matrix: (Units=GPa)
#
#
# Indices 1 2 3 4 5 6 
#
# 1 90.2469 17.8925 1.3895 0.0000 3.8496 0.0004
# 2 17.8925 80.8983 21.7932 -0.0001 2.8725 0.0019
# 3 1.3895 21.7932 89.7109 0.0000 3.6530 -0.0001
# 4 0.0000 -0.0001 0.0000 37.0672 0.0000 -2.1993
# 5 3.8496 2.8725 3.6530 0.0000 36.1718 0.0000
# 6 0.0004 0.0019 -0.0001 -2.1993 0.0000 35.4741
#
#
#
# Elastic Compliance Matrix: (Units=1/GPa)
#
#
# Indices 1 2 3 4 5 6 
#
# 1 0.011650 -0.002677 0.000514 0.000000 -0.001079 0.000000
# 2 -0.002677 0.013861 -0.003306 0.000000 -0.000482 -0.000001
# 3 0.000514 -0.003306 0.011983 0.000000 -0.001002 0.000000
# 4 0.000000 0.000000 0.000000 0.027078 0.000000 0.001679
# 5 -0.001079 -0.000482 -0.001002 0.000000 0.027900 0.000000
# 6 0.000000 -0.000001 0.000000 0.001679 0.000000 0.028294
#
#
# Mechanical properties :
#
#
# Convention : Reuss Voigt Hill
#
# Bulk Modulus (GPa) = 37.65721 38.11184 37.88452
# Shear Modulus (GPa) = 35.57333 36.39466 35.98400
#
# Velocity S-wave (km/s) = 4.10913 4.15629 4.13278
# Velocity P-wave (km/s) = 6.35510 6.41271 6.38397
#
# Compressibility (1/GPa) = 0.02655534
#
# Stress axis : x y z
#
# Youngs Moduli (GPa) = 85.84051 72.14515 83.45217
#
# Poissons Ratio (x) = 0.19311 -0.04287
# Poissons Ratio (y) = 0.22976 0.27590
# Poissons Ratio (z) = -0.04410 0.23852
#
# Static dielectric constant tensor:
#      x y z
#    x 3.767310 0.000000 0.108960 
#    y 0.000000 3.611960 0.000000 
#    z 0.108960 0.000000 3.920710 
# 
# 
# High freq. dielectric constant tensor:
#      x y z
#    x 1.836430 0.000000 0.003080 
#    y 0.000000 1.834730 0.000000 
#    z 0.003080 0.000000 1.838820 
# 
# From -- ./inp_files/380738.got.cif
#   From: 2010.06.25/outbox.cif.g09.slc.cpg/sg12_191_cif.got.tgz:380738.got - 2010.06.28 00:19:55.
