data_PCOD8112661
_publ_section_title
;
Structure prediction by ZEFSAII (Michael W. Deem and Ramdas Pophale) SiO2 
 PCOD8112661
Probable space group: C 2/M
;
_chemical_formula_sum "Si O2"
_cell_formula_units_Z 64
_cell_length_a 29.381993
_cell_length_b 17.232706
_cell_length_c 11.391048
_cell_angle_alpha 90.000000
_cell_angle_beta 31.775008
_cell_angle_gamma 90.000000
_cell_volume 3037.154737
_symmetry_space_group_name_H-M "C 2/M"
_symmetry_group_IT_number 12
_symmetry_cell_setting 'monoclinic'
loop_
_space_group_symop_operation_xyz
x,y,z
-x,y,-z
-x,-y,-z
x,-y,z
1/2+x,1/2+y,z
1/2-x,1/2+y,-z
1/2-x,1/2-y,-z
1/2+x,1/2-y,z
loop_
_atom_site_type_symbol
_atom_site_label
_atom_site_fract_x
_atom_site_fract_y
_atom_site_fract_z
Si Si1 0.619517 0.411318 0.900252
Si Si2 0.591656 0.733135 0.843141
Si Si3 0.398540 0.909611 0.745277
Si Si4 0.704495 0.170377 0.433866
Si Si5 0.242293 0.325626 0.092535
Si Si6 0.571833 0.196073 0.124279
Si Si7 0.070501 0.144860 0.251478
Si Si8 0.037816 0.413286 0.788047
O O1 0.625350 0.500000 0.845566
O O2 0.573104 0.359066 0.901953
O O3 0.711421 0.368591 0.697527
O O4 0.571201 0.407769 0.132279
O O5 0.667265 0.756123 0.587923
O O6 0.500000 0.768883 0.000000
O O7 0.622765 0.769221 0.900796
O O8 0.500000 0.889408 0.500000
O O9 0.333753 0.883052 0.784147
O O10 0.370833 0.863719 0.924603
O O11 0.385123 0.000000 0.795008
O O12 0.720988 0.203985 0.269079
O O13 0.639625 0.097817 0.575851
O O14 0.250000 0.250000 0.000000
O O15 0.336529 0.365842 0.889135
O O16 0.545505 0.266997 0.268142
O O17 0.491792 0.148091 0.246020
O O18 0.000000 0.115063 0.500000
O O19 0.016844 0.500000 0.788031
O O20 0.000000 0.399901 0.000000
#
# Coordination Sequence:
#
# PCOD8112661 Si02
#       8
#     8   8   8   8   8   8   8   8
#     4  10  24  42  63  93 127 165 209 265 325 374
#     4  11  22  40  67  95 120 166 214 255 311 382
#     4  11  24  40  64  96 133 170 203 259 331 388
#     4  11  21  41  64  92 127 164 210 260 313 388
#     4  11  24  39  63  94 128 170 217 260 312 381
#     4  11  19  37  61  94 128 163 210 255 314 380
#     4  10  23  40  66  92 122 172 224 271 311 373
#     4  11  21  34  59  96 133 168 204 252 319 392
#
# _framework density 21.072355000000002
#
# number of rings (size 3 to 8) (size 9 to 14) (size 15 to 20)
#    0.000    1.250    3.750    2.250    1.750    4.000 
#    0.000    0.000    0.000    0.000    0.000    0.000 
#    0.000    0.000    0.000    0.000    0.000    0.000 
#
# Total GULP energy -396533.453949 kJ/mol
# GULP energy per Si atom -12391.670436 kJ/mol
# Density = 2.102439 g / cm^3
# Si number density = 21.072355 Si / 1000 Ang^3
#
#
#
# Elastic Constant Matrix: (Units=GPa)
#
#
# Indices 1 2 3 4 5 6 
#
# 1 91.2190 30.4837 30.7902 0.0000 -0.6487 0.0000
# 2 30.4837 130.9514 23.7421 0.0000 4.6783 0.0000
# 3 30.7902 23.7421 120.7834 0.0000 5.9274 0.0000
# 4 0.0000 0.0000 0.0000 36.1990 0.0000 16.8837
# 5 -0.6487 4.6783 5.9274 0.0000 28.3980 0.0000
# 6 0.0000 0.0000 0.0000 16.8837 0.0000 43.8251
#
#
#
# Elastic Compliance Matrix: (Units=1/GPa)
#
#
# Indices 1 2 3 4 5 6 
#
# 1 0.012762 -0.002505 -0.002824 0.000000 0.001294 0.000000
# 2 -0.002505 0.008438 -0.000959 0.000000 -0.001247 0.000000
# 3 -0.002824 -0.000959 0.009278 0.000000 -0.001843 0.000000
# 4 0.000000 0.000000 0.000000 0.033676 0.000000 -0.012974
# 5 0.001294 -0.001247 -0.001843 0.000000 0.035833 0.000000
# 6 0.000000 0.000000 0.000000 -0.012974 0.000000 0.027816
#
#
# Mechanical properties :
#
#
# Convention : Reuss Voigt Hill
#
# Bulk Modulus (GPa) = 55.86015 56.99841 56.42928
# Shear Modulus (GPa) = 34.16506 38.88026 36.52266
#
# Velocity S-wave (km/s) = 4.03093 4.30010 4.16769
# Velocity P-wave (km/s) = 6.94484 7.19459 7.07082
#
# Compressibility (1/GPa) = 0.01790185
#
# Stress axis : x y z
#
# Youngs Moduli (GPa) = 78.35552 118.51213 107.77917
#
# Poissons Ratio (x) = 0.29688 0.30442
# Poissons Ratio (y) = 0.19628 0.10334
# Poissons Ratio (z) = 0.22131 0.11363
#
# Static dielectric constant tensor:
#      x y z
#    x 4.162100 0.000000 -0.028980 
#    y 0.000000 3.864970 0.000000 
#    z -0.028980 0.000000 3.668660 
# 
# 
# High freq. dielectric constant tensor:
#      x y z
#    x 1.835920 0.000000 0.004150 
#    y 0.000000 1.821070 0.000000 
#    z 0.004150 0.000000 1.812720 
# 
# From -- ./inp_files/190041.got.cif
#   From: 2010.06.25/outbox.cif.g09.slc.cpg/sg12_96_cif.got.tgz:190041.got - 2010.06.28 00:19:55.
