data_PCOD8112020
_publ_section_title
;
Structure prediction by ZEFSAII (Michael W. Deem and Ramdas Pophale) SiO2 
 PCOD8112020
Probable space group: C 2/M
;
_chemical_formula_sum "Si O2"
_cell_formula_units_Z 56
_cell_length_a 29.931546
_cell_length_b 17.561567
_cell_length_c 9.138531
_cell_angle_alpha 90.000000
_cell_angle_beta 35.730677
_cell_angle_gamma 90.000000
_cell_volume 2805.199481
_symmetry_space_group_name_H-M "C 2/M"
_symmetry_group_IT_number 12
_symmetry_cell_setting 'monoclinic'
loop_
_space_group_symop_operation_xyz
x,y,z
-x,y,-z
-x,-y,-z
x,-y,z
1/2+x,1/2+y,z
1/2-x,1/2+y,-z
1/2-x,1/2-y,-z
1/2+x,1/2-y,z
loop_
_atom_site_type_symbol
_atom_site_label
_atom_site_fract_x
_atom_site_fract_y
_atom_site_fract_z
Si Si1 0.437912 0.325466 0.287834
Si Si2 0.330297 0.312783 0.059005
Si Si3 0.850030 0.087711 0.732556
Si Si4 0.272919 0.912843 0.457571
Si Si5 0.475443 0.221457 0.733361
Si Si6 0.730208 0.671176 0.287898
Si Si7 0.946820 0.413377 0.009064
O O1 0.424538 0.399051 0.429772
O O2 0.459408 0.255016 0.334595
O O3 0.356069 0.305561 0.429767
O O4 0.500000 0.344932 0.000000
O O5 0.282978 0.361706 0.299146
O O6 0.278030 0.246918 0.128090
O O7 0.362877 0.367888 0.848434
O O8 0.401356 0.274407 0.952745
O O9 0.775409 0.121976 0.847332
O O10 0.837673 0.000000 0.801068
O O11 0.272338 0.880948 0.294747
O O12 0.358532 0.907553 0.293998
O O13 0.243860 0.000000 0.535174
O O14 0.500000 0.218255 0.500000
O O15 0.459737 0.136032 0.829308
O O16 0.968718 0.500000 0.910836
O O17 0.000000 0.383100 0.000000
#
# Coordination Sequence:
#
# PCOD8112020 Si02
#       7
#     8   8   8   8   8   8   8
#     4  10  23  39  63  91 123 164 210 254 311 371
#     4  12  23  41  64  96 124 167 212 260 311 384
#     4  10  23  42  63  91 130 163 203 261 319 372
#     4  11  23  40  66  96 126 163 208 264 317 369
#     4  12  23  42  65  94 126 167 215 259 311 377
#     4  10  22  41  66  92 123 163 214 255 306 372
#     4  10  24  43  64  94 130 166 211 263 318 374
#
# _framework density 19.962928000000002
#
# number of rings (size 3 to 8) (size 9 to 14) (size 15 to 20)
#    0.857    0.429    2.857    3.000    4.000    0.571 
#    0.000    2.143    0.000    0.000    0.000    0.000 
#    0.000    0.000    0.000    0.000    0.000    0.000 
#
# Total GULP energy -347112.863274 kJ/mol
# GULP energy per Si atom -12396.887974 kJ/mol
# Density = 1.991749 g / cm^3
# Si number density = 19.962928 Si / 1000 Ang^3
#
#
#
# Elastic Constant Matrix: (Units=GPa)
#
#
# Indices 1 2 3 4 5 6 
#
# 1 93.0612 40.4521 25.4447 0.0000 -3.8476 0.0000
# 2 40.4521 140.0251 38.8959 0.0000 6.8977 0.0000
# 3 25.4447 38.8959 62.6465 0.0000 -4.7906 0.0000
# 4 0.0000 0.0000 0.0000 21.1091 0.0000 -1.6095
# 5 -3.8476 6.8977 -4.7906 0.0000 30.8207 0.0000
# 6 0.0000 0.0000 0.0000 -1.6095 0.0000 31.6495
#
#
#
# Elastic Compliance Matrix: (Units=1/GPa)
#
#
# Indices 1 2 3 4 5 6 
#
# 1 0.012997 -0.002915 -0.003335 0.000000 0.001757 0.000000
# 2 -0.002915 0.009529 -0.004982 0.000000 -0.003271 0.000000
# 3 -0.003335 -0.004982 0.020710 0.000000 0.003918 0.000000
# 4 0.000000 0.000000 0.000000 0.047557 0.000000 0.002418
# 5 0.001757 -0.003271 0.003918 0.000000 0.034006 0.000000
# 6 0.000000 0.000000 0.000000 0.002418 0.000000 0.031719
#
#
# Mechanical properties :
#
#
# Convention : Reuss Voigt Hill
#
# Bulk Modulus (GPa) = 48.14237 56.14648 52.14442
# Shear Modulus (GPa) = 26.89521 29.44521 28.17021
#
# Velocity S-wave (km/s) = 3.67448 3.84473 3.76057
# Velocity P-wave (km/s) = 6.49389 6.92067 6.71068
#
# Compressibility (1/GPa) = 0.02077172
#
# Stress axis : x y z
#
# Youngs Moduli (GPa) = 76.94018 104.94479 48.28558
#
# Poissons Ratio (x) = 0.30591 0.16102
# Poissons Ratio (y) = 0.22428 0.24058
# Poissons Ratio (z) = 0.25658 0.52288
#
# Static dielectric constant tensor:
#      x y z
#    x 3.769950 0.000000 -0.080290 
#    y 0.000000 3.590480 0.000000 
#    z -0.080290 0.000000 3.481400 
# 
# 
# High freq. dielectric constant tensor:
#      x y z
#    x 1.787580 0.000000 -0.002550 
#    y 0.000000 1.780890 0.000000 
#    z -0.002550 0.000000 1.766020 
# 
# From -- ./inp_files/112617.got.cif
#   From: 2010.06.25/outbox.cif.g09.slc.cpg/sg12_57_cif.got.tgz:112617.got - 2010.06.28 00:19:55.
