data_PCOD8112326
_publ_section_title
;
Structure prediction by ZEFSAII (Michael W. Deem and Ramdas Pophale) SiO2 
 PCOD8112326
Probable space group: C 2/M
;
_chemical_formula_sum "Si O2"
_cell_formula_units_Z 56
_cell_length_a 13.712924
_cell_length_b 12.944379
_cell_length_c 15.491937
_cell_angle_alpha 90.000000
_cell_angle_beta 88.820557
_cell_angle_gamma 90.000000
_cell_volume 2749.318086
_symmetry_space_group_name_H-M "C 2/M"
_symmetry_group_IT_number 12
_symmetry_cell_setting 'monoclinic'
loop_
_space_group_symop_operation_xyz
x,y,z
-x,y,-z
-x,-y,-z
x,-y,z
1/2+x,1/2+y,z
1/2-x,1/2+y,-z
1/2-x,1/2-y,-z
1/2+x,1/2-y,z
loop_
_atom_site_type_symbol
_atom_site_label
_atom_site_fract_x
_atom_site_fract_y
_atom_site_fract_z
Si Si1 0.738173 0.615685 0.635295
Si Si2 0.320585 0.119512 0.450297
Si Si3 0.591191 0.882378 0.882276
Si Si4 0.870651 0.617373 0.919610
Si Si5 0.254876 0.257818 0.799678
Si Si6 0.358589 0.381205 0.674022
Si Si7 0.958358 0.199129 0.410122
O O1 0.769082 0.500000 0.658309
O O2 0.796708 0.653250 0.548986
O O3 0.761450 0.684769 0.716737
O O4 0.623702 0.618058 0.616561
O O5 0.227342 0.143924 0.392705
O O6 0.412972 0.185318 0.415034
O O7 0.350438 0.000000 0.443573
O O8 0.477024 0.857097 0.879476
O O9 0.646426 0.800555 0.820204
O O10 0.610226 0.000000 0.850797
O O11 0.630820 0.868669 0.978070
O O12 0.841127 0.500000 0.896389
O O13 0.793550 0.697457 0.882191
O O14 0.321384 0.356175 0.771984
O O15 0.390655 0.500000 0.667439
O O16 0.451525 0.306876 0.657535
O O17 0.000000 0.160773 0.500000
#
# Coordination Sequence:
#
# PCOD8112326 Si02
#       7
#     8   8   8   8   8   8   8
#     4  11  23  38  57  86 121 156 198 251 300 346
#     4  10  22  43  61  82 116 159 205 251 295 344
#     4   9  20  41  65  89 118 152 194 235 286 358
#     4   9  20  40  65  90 117 154 192 233 291 360
#     4  12  22  36  62  91 121 151 193 247 299 344
#     4  11  24  39  59  85 118 160 204 243 293 354
#     4  12  22  38  62  82 110 161 208 245 291 351
#
# _framework density 20.368687999999999
#
# number of rings (size 3 to 8) (size 9 to 14) (size 15 to 20)
#    0.000    1.429    2.857    3.857    2.000    0.857 
#    0.000    1.429    0.000    0.000    0.000    6.000 
#    0.000    0.000    0.000    0.000    0.000    0.000 
#
# Total GULP energy -347180.443344 kJ/mol
# GULP energy per Si atom -12399.301548 kJ/mol
# Density = 2.032233 g / cm^3
# Si number density = 20.368688 Si / 1000 Ang^3
#
#
#
# Elastic Constant Matrix: (Units=GPa)
#
#
# Indices 1 2 3 4 5 6 
#
# 1 79.9094 32.2090 5.7242 0.0000 -15.1630 0.0000
# 2 32.2090 83.6233 29.4735 0.0000 -9.0230 0.0000
# 3 5.7242 29.4735 38.6572 0.0000 -9.5800 0.0000
# 4 0.0000 0.0000 0.0000 30.8420 0.0000 4.9998
# 5 -15.1630 -9.0230 -9.5800 0.0000 35.8833 0.0000
# 6 0.0000 0.0000 0.0000 4.9998 0.0000 32.2125
#
#
#
# Elastic Compliance Matrix: (Units=1/GPa)
#
#
# Indices 1 2 3 4 5 6 
#
# 1 0.016297 -0.007243 0.004674 0.000000 0.006313 0.000000
# 2 -0.007243 0.019596 -0.014355 0.000000 -0.001966 0.000000
# 3 0.004674 -0.014355 0.038246 0.000000 0.008576 0.000000
# 4 0.000000 0.000000 0.000000 0.033260 0.000000 -0.005162
# 5 0.006313 -0.001966 0.008576 0.000000 0.032331 0.000000
# 6 0.000000 0.000000 0.000000 -0.005162 0.000000 0.031845
#
#
# Mechanical properties :
#
#
# Convention : Reuss Voigt Hill
#
# Bulk Modulus (GPa) = 24.82005 37.44481 31.13243
# Shear Modulus (GPa) = 22.84631 28.77312 25.80971
#
# Velocity S-wave (km/s) = 3.35272 3.76255 3.56353
# Velocity P-wave (km/s) = 5.21531 6.10731 5.67885
#
# Compressibility (1/GPa) = 0.04029001
#
# Stress axis : x y z
#
# Youngs Moduli (GPa) = 61.36199 51.03197 26.14627
#
# Poissons Ratio (x) = 0.36963 -0.12220
# Poissons Ratio (y) = 0.44445 0.37533
# Poissons Ratio (z) = -0.28679 0.73256
#
# Static dielectric constant tensor:
#      x y z
#    x 3.628450 0.000000 -0.075310 
#    y 0.000000 3.877250 0.000000 
#    z -0.075310 0.000000 3.602800 
# 
# 
# High freq. dielectric constant tensor:
#      x y z
#    x 1.789830 0.000000 -0.006960 
#    y 0.000000 1.803990 0.000000 
#    z -0.006960 0.000000 1.785710 
# 
# From -- ./inp_files/205011.got.cif
#   From: 2010.06.25/outbox.cif.g09.slc.cpg/sg12_103_cif.got.tgz:205011.got - 2010.06.28 00:19:55.
