data_PCOD8112965
_publ_section_title
;
Structure prediction by ZEFSAII (Michael W. Deem and Ramdas Pophale) SiO2 
 PCOD8112965
Probable space group: C 2/M
;
_chemical_formula_sum "Si O2"
_cell_formula_units_Z 52
_cell_length_a 22.927547
_cell_length_b 20.965748
_cell_length_c 7.500266
_cell_angle_alpha 90.000000
_cell_angle_beta 42.978388
_cell_angle_gamma 90.000000
_cell_volume 2457.832104
_symmetry_space_group_name_H-M "C 2/M"
_symmetry_group_IT_number 12
_symmetry_cell_setting 'monoclinic'
loop_
_space_group_symop_operation_xyz
x,y,z
-x,y,-z
-x,-y,-z
x,-y,z
1/2+x,1/2+y,z
1/2-x,1/2+y,-z
1/2-x,1/2-y,-z
1/2+x,1/2-y,z
loop_
_atom_site_type_symbol
_atom_site_label
_atom_site_fract_x
_atom_site_fract_y
_atom_site_fract_z
Si Si1 0.818088 0.706112 0.753680
Si Si2 0.760197 0.371512 0.554139
Si Si3 0.596993 0.000000 0.227798
Si Si4 0.067272 0.869985 0.005143
Si Si5 0.074361 0.000000 0.193965
Si Si6 0.373618 0.135293 0.962231
Si Si7 0.728923 0.000000 0.261666
Si Si8 0.498569 0.759578 0.215633
O O1 0.775735 0.680515 0.669847
O O2 0.903508 0.744385 0.508771
O O3 0.750000 0.750000 0.000000
O O4 0.834308 0.648939 0.856005
O O5 0.662077 0.368193 0.713266
O O6 0.811303 0.350469 0.265483
O O7 0.786388 0.439979 0.574813
O O8 0.500000 0.000000 0.500000
O O9 0.662063 0.000000 0.249297
O O10 0.608028 0.939554 0.075003
O O11 0.048166 0.805576 0.163179
O O12 0.000000 0.869209 0.000000
O O13 0.055300 0.935429 0.133546
O O14 0.000000 0.000000 0.500000
O O15 0.173682 0.000000 0.037432
O O16 0.457893 0.178306 0.795646
O O17 0.500000 0.767984 0.000000
#
# Coordination Sequence:
#
# PCOD8112965 Si02
#       8
#     8   8   4   8   4   8   4   8
#     4  12  26  42  70 101 140 184 234 292 346 419
#     4  11  24  46  68 102 141 181 234 292 355 412
#     4  12  25  44  72 103 139 190 242 289 350 420
#     4  10  24  43  71  98 137 179 229 282 348 427
#     4  10  23  42  72  99 135 179 228 289 351 416
#     4  12  26  43  73 101 140 189 235 287 352 418
#     4  10  23  46  67 102 145 178 233 297 350 422
#     4  11  24  45  68 102 144 182 231 289 349 420
#
# _framework density 21.156855
#
# number of rings (size 3 to 8) (size 9 to 14) (size 15 to 20)
#    0.000    0.923    3.077    3.000    4.308    6.154 
#    0.000    1.154    0.000    0.000    0.000    0.000 
#    0.000    0.000    0.000    0.000    0.000    0.000 
#
# Total GULP energy -322351.273932 kJ/mol
# GULP energy per Si atom -12398.125920 kJ/mol
# Density = 2.110870 g / cm^3
# Si number density = 21.156855 Si / 1000 Ang^3
#
#
#
# Elastic Constant Matrix: (Units=GPa)
#
#
# Indices 1 2 3 4 5 6 
#
# 1 105.0446 36.6664 43.3120 0.0000 -5.3449 0.0000
# 2 36.6664 145.7736 35.2733 0.0000 -6.7189 0.0000
# 3 43.3120 35.2733 150.0410 0.0000 1.2037 0.0000
# 4 0.0000 0.0000 0.0000 34.6341 0.0000 -1.7561
# 5 -5.3449 -6.7189 1.2037 0.0000 34.6391 0.0000
# 6 0.0000 0.0000 0.0000 -1.7561 0.0000 31.4256
#
#
#
# Elastic Compliance Matrix: (Units=1/GPa)
#
#
# Indices 1 2 3 4 5 6 
#
# 1 0.011509 -0.002143 -0.002830 0.000000 0.001459 0.000000
# 2 -0.002143 0.007748 -0.001213 0.000000 0.001214 0.000000
# 3 -0.002830 -0.001213 0.007774 0.000000 -0.000942 0.000000
# 4 0.000000 0.000000 0.000000 0.028955 0.000000 0.001618
# 5 0.001459 0.001214 -0.000942 0.000000 0.029362 0.000000
# 6 0.000000 0.000000 0.000000 0.001618 0.000000 0.031912
#
#
# Mechanical properties :
#
#
# Convention : Reuss Voigt Hill
#
# Bulk Modulus (GPa) = 68.21156 70.15140 69.18148
# Shear Modulus (GPa) = 37.16940 39.18028 38.17484
#
# Velocity S-wave (km/s) = 4.19603 4.30803 4.25240
# Velocity P-wave (km/s) = 7.46903 7.61415 7.54194
#
# Compressibility (1/GPa) = 0.01466027
#
# Stress axis : x y z
#
# Youngs Moduli (GPa) = 86.88953 129.05966 128.62564
#
# Poissons Ratio (x) = 0.27654 0.36404
# Poissons Ratio (y) = 0.18618 0.15599
# Poissons Ratio (z) = 0.24591 0.15652
#
# Static dielectric constant tensor:
#      x y z
#    x 3.769520 0.000000 -0.385560 
#    y 0.000000 3.957820 0.000000 
#    z -0.385560 0.000000 3.376600 
# 
# 
# High freq. dielectric constant tensor:
#      x y z
#    x 1.830740 0.000000 -0.007310 
#    y 0.000000 1.849920 0.000000 
#    z -0.007310 0.000000 1.838970 
# 
# From -- ./inp_files/99040.got.cif
#   From: 2010.06.25/outbox.cif.g09.slc.cpg/sg12_50_cif.got.tgz:99040.got - 2010.06.28 00:19:55.
