data_PCOD8112432
_publ_section_title
;
Structure prediction by ZEFSAII (Michael W. Deem and Ramdas Pophale) SiO2 
 PCOD8112432
Probable space group: C 2/M
;
_chemical_formula_sum "Si O2"
_cell_formula_units_Z 48
_cell_length_a 15.009221
_cell_length_b 11.391211
_cell_length_c 24.941883
_cell_angle_alpha 90.000000
_cell_angle_beta 29.015670
_cell_angle_gamma 90.000000
_cell_volume 2068.439034
_symmetry_space_group_name_H-M "C 2/M"
_symmetry_group_IT_number 12
_symmetry_cell_setting 'monoclinic'
loop_
_space_group_symop_operation_xyz
x,y,z
-x,y,-z
-x,-y,-z
x,-y,z
1/2+x,1/2+y,z
1/2-x,1/2+y,-z
1/2-x,1/2-y,-z
1/2+x,1/2-y,z
loop_
_atom_site_type_symbol
_atom_site_label
_atom_site_fract_x
_atom_site_fract_y
_atom_site_fract_z
Si Si1 0.797096 0.500000 0.085798
Si Si2 0.629997 0.500000 0.981432
Si Si3 0.420102 0.500000 0.311339
Si Si4 0.122844 0.234680 0.617726
Si Si5 0.298445 0.362273 0.619722
Si Si6 0.755585 0.756830 0.240255
Si Si7 0.146366 0.000000 0.778154
Si Si8 0.837186 0.747155 0.011144
O O1 0.636795 0.500000 0.215046
O O2 0.764230 0.625261 0.073719
O O3 0.000000 0.500000 0.000000
O O4 0.532563 0.500000 0.090402
O O5 0.732842 0.371414 0.923868
O O6 0.500000 0.500000 0.000000
O O7 0.315775 0.611299 0.389416
O O8 0.423161 0.500000 0.245662
O O9 0.250000 0.250000 0.500000
O O10 0.156387 0.329012 0.647069
O O11 0.911409 0.229444 0.711462
O O12 0.500000 0.309316 0.500000
O O13 0.308523 0.500000 0.616011
O O14 0.232921 0.323746 0.713071
O O15 0.940439 0.742785 0.107828
O O16 0.727421 0.888550 0.276159
O O17 0.750000 0.750000 0.000000
#
# Coordination Sequence:
#
# PCOD8112432 Si02
#       8
#     4   4   4   8   8   8   4   8
#     4  12  24  42  69 102 135 184 244 291 354 419
#     4  10  22  44  67  97 143 187 236 308 360 420
#     4  12  26  47  74  99 146 189 243 308 352 435
#     4  12  27  44  72 104 138 188 239 296 374 432
#     4  11  25  46  70 101 143 184 235 300 368 436
#     4  11  24  45  68 103 143 185 241 296 357 438
#     4  10  22  45  66  97 136 184 236 292 352 424
#     4  11  24  44  69 100 142 190 239 293 361 424
#
# _framework density 23.205905999999999
#
# number of rings (size 3 to 8) (size 9 to 14) (size 15 to 20)
#    0.000    0.833    3.333    4.000    4.667    1.333 
#    0.000    1.667    0.000    0.000    0.000    0.000 
#    0.000    0.000    0.000    0.000    0.000    0.000 
#
# Total GULP energy -297400.438501 kJ/mol
# GULP energy per Si atom -12391.684938 kJ/mol
# Density = 2.315309 g / cm^3
# Si number density = 23.205906 Si / 1000 Ang^3
#
#
#
# Elastic Constant Matrix: (Units=GPa)
#
#
# Indices 1 2 3 4 5 6 
#
# 1 103.4056 26.7149 -0.1116 -0.0074 -1.6665 -0.0008
# 2 26.7149 187.0369 17.9206 -0.0070 12.1351 -0.0005
# 3 -0.1116 17.9206 60.8690 -0.0192 7.9529 -0.0003
# 4 -0.0074 -0.0070 -0.0192 23.8281 0.0020 3.7943
# 5 -1.6665 12.1351 7.9529 0.0020 30.3402 0.0001
# 6 -0.0008 -0.0005 -0.0003 3.7943 0.0001 36.9234
#
#
#
# Elastic Compliance Matrix: (Units=1/GPa)
#
#
# Indices 1 2 3 4 5 6 
#
# 1 0.010087 -0.001543 0.000331 0.000003 0.001084 0.000000
# 2 -0.001543 0.005839 -0.001455 0.000000 -0.002038 0.000000
# 3 0.000331 -0.001455 0.017374 0.000014 -0.003954 -0.000001
# 4 0.000003 0.000000 0.000014 0.042665 -0.000007 -0.004384
# 5 0.001084 -0.002038 -0.003954 -0.000007 0.034871 0.000001
# 6 0.000000 0.000000 -0.000001 -0.004384 0.000001 0.027534
#
#
# Mechanical properties :
#
#
# Convention : Reuss Voigt Hill
#
# Bulk Modulus (GPa) = 35.75814 48.92881 42.34348
# Shear Modulus (GPa) = 32.67408 38.67084 35.67246
#
# Velocity S-wave (km/s) = 3.75641 4.08661 3.92499
# Velocity P-wave (km/s) = 5.85292 6.58769 6.23114
#
# Compressibility (1/GPa) = 0.02796566
#
# Stress axis : x y z
#
# Youngs Moduli (GPa) = 99.13669 171.27353 57.55580
#
# Poissons Ratio (x) = 0.26425 -0.01905
# Poissons Ratio (y) = 0.15295 0.08377
# Poissons Ratio (z) = -0.03282 0.24928
#
# Static dielectric constant tensor:
#      x y z
#    x 4.232630 0.000080 -0.096900 
#    y 0.000080 2.877230 0.000120 
#    z -0.096900 0.000120 3.834050 
# 
# 
# High freq. dielectric constant tensor:
#      x y z
#    x 1.929500 0.000000 0.001370 
#    y 0.000000 1.945780 0.000000 
#    z 0.001370 0.000000 1.897160 
# 
# From -- ./inp_files/361008.got.cif
#   From: 2010.06.25/outbox.cif.g09.slc.cpg/sg12_181_cif.got.tgz:361008.got - 2010.06.28 00:19:55.
