data_PCOD8112356
_publ_section_title
;
Structure prediction by ZEFSAII (Michael W. Deem and Ramdas Pophale) SiO2 
 PCOD8112356
Probable space group: C 2/M
;
_chemical_formula_sum "Si O2"
_cell_formula_units_Z 64
_cell_length_a 9.307469
_cell_length_b 14.760419
_cell_length_c 29.484994
_cell_angle_alpha 90.000000
_cell_angle_beta 50.272805
_cell_angle_gamma 90.000000
_cell_volume 3115.387263
_symmetry_space_group_name_H-M "C 2/M"
_symmetry_group_IT_number 12
_symmetry_cell_setting 'monoclinic'
loop_
_space_group_symop_operation_xyz
x,y,z
-x,y,-z
-x,-y,-z
x,-y,z
1/2+x,1/2+y,z
1/2-x,1/2+y,-z
1/2-x,1/2-y,-z
1/2+x,1/2-y,z
loop_
_atom_site_type_symbol
_atom_site_label
_atom_site_fract_x
_atom_site_fract_y
_atom_site_fract_z
Si Si1 0.364861 0.893659 0.984458
Si Si2 0.065150 0.322802 0.343553
Si Si3 0.470753 0.282505 0.910797
Si Si4 0.967505 0.747784 0.457762
Si Si5 0.981728 0.813935 0.280104
Si Si6 0.228026 0.101168 0.373373
Si Si7 0.207889 0.599716 0.738436
Si Si8 0.612021 0.778741 0.167249
O O1 0.441190 0.823759 0.930934
O O2 0.353399 0.000000 0.970372
O O3 0.500000 0.886709 0.000000
O O4 0.160802 0.855556 0.038196
O O5 0.980663 0.245251 0.327013
O O6 0.286876 0.340756 0.294670
O O7 0.042768 0.310781 0.401560
O O8 0.929908 0.406226 0.357681
O O9 0.437665 0.289325 0.863582
O O10 0.678271 0.315624 0.882062
O O11 0.750000 0.750000 0.500000
O O12 0.000000 0.701636 0.500000
O O13 0.073418 0.844916 0.433691
O O14 0.099945 0.902162 0.271449
O O15 0.110533 0.768722 0.216252
O O16 0.257981 0.150374 0.317452
O O17 0.148827 0.000000 0.382643
O O18 0.143074 0.500000 0.738860
O O19 0.041074 0.642128 0.800969
#
# Coordination Sequence:
#
# PCOD8112356 Si02
#       8
#     8   8   8   8   8   8   8   8
#     4  10  22  43  66  90 126 172 214 256 314 377
#     4  12  20  39  65  89 118 166 211 243 305 388
#     4  11  23  39  65  97 124 166 212 265 310 372
#     4  12  22  37  63  92 113 157 212 257 299 370
#     4  12  20  38  66  88 122 168 207 249 302 385
#     4  11  24  42  62  90 127 161 199 257 320 372
#     4  11  24  40  61  92 128 163 203 257 318 374
#     4  12  21  38  63  94 125 160 206 257 312 364
#
# _framework density 20.543192000000001
#
# number of rings (size 3 to 8) (size 9 to 14) (size 15 to 20)
#    0.000    0.625    8.750    0.000    0.000    1.750 
#    0.000    1.250    0.000    0.750    0.000    0.000 
#    0.000    0.000    0.000    0.000    0.000    0.000 
#
# Total GULP energy -396418.211043 kJ/mol
# GULP energy per Si atom -12388.069095 kJ/mol
# Density = 2.049643 g / cm^3
# Si number density = 20.543192 Si / 1000 Ang^3
#
#
#
# Elastic Constant Matrix: (Units=GPa)
#
#
# Indices 1 2 3 4 5 6 
#
# 1 136.9119 17.1659 30.6518 0.0001 -26.9431 -0.0001
# 2 17.1659 65.6626 19.5926 0.0001 -5.8636 -0.0001
# 3 30.6518 19.5926 90.9406 0.0003 -11.8702 -0.0002
# 4 0.0001 0.0001 0.0003 15.2567 -0.0002 -1.8474
# 5 -26.9431 -5.8636 -11.8702 -0.0002 50.8954 0.0001
# 6 -0.0001 -0.0001 -0.0002 -1.8474 0.0001 20.3245
#
#
#
# Elastic Compliance Matrix: (Units=1/GPa)
#
#
# Indices 1 2 3 4 5 6 
#
# 1 0.008727 -0.001287 -0.002146 0.000000 0.003971 0.000000
# 2 -0.001287 0.016524 -0.003060 0.000000 0.000509 0.000000
# 3 -0.002146 -0.003060 0.012567 0.000000 0.001442 0.000000
# 4 0.000000 0.000000 0.000000 0.066274 0.000000 0.006024
# 5 0.003971 0.000509 0.001442 0.000000 0.022146 0.000000
# 6 0.000000 0.000000 0.000000 0.006024 0.000000 0.049749
#
#
# Mechanical properties :
#
#
# Convention : Reuss Voigt Hill
#
# Bulk Modulus (GPa) = 40.26829 47.59284 43.93057
# Shear Modulus (GPa) = 25.34848 32.36898 28.85873
#
# Velocity S-wave (km/s) = 3.51652 3.97376 3.75211
# Velocity P-wave (km/s) = 6.01101 6.65371 6.34051
#
# Compressibility (1/GPa) = 0.02483343
#
# Stress axis : x y z
#
# Youngs Moduli (GPa) = 114.58370 60.51728 79.57333
#
# Poissons Ratio (x) = 0.07786 0.17076
# Poissons Ratio (y) = 0.14742 0.24349
# Poissons Ratio (z) = 0.24590 0.18518
#
# Static dielectric constant tensor:
#      x y z
#    x 3.806640 0.000000 0.238180 
#    y 0.000000 3.434200 0.000000 
#    z 0.238180 0.000000 3.488260 
# 
# 
# High freq. dielectric constant tensor:
#      x y z
#    x 1.826200 0.000000 -0.001300 
#    y 0.000000 1.761780 0.000000 
#    z -0.001300 0.000000 1.812750 
# 
# From -- ./inp_files/372550.got.cif
#   From: 2010.06.25/outbox.cif.g09.slc.cpg/sg12_187_cif.got.tgz:372550.got - 2010.06.28 00:19:55.
