data_PCOD8112419
_publ_section_title
;
Structure prediction by ZEFSAII (Michael W. Deem and Ramdas Pophale) SiO2 
 PCOD8112419
Probable space group: C 2/M
;
_chemical_formula_sum "Si O2"
_cell_formula_units_Z 56
_cell_length_a 9.104497
_cell_length_b 21.202119
_cell_length_c 13.697560
_cell_angle_alpha 90.000000
_cell_angle_beta 91.128492
_cell_angle_gamma 90.000000
_cell_volume 2643.590565
_symmetry_space_group_name_H-M "C 2/M"
_symmetry_group_IT_number 12
_symmetry_cell_setting 'monoclinic'
loop_
_space_group_symop_operation_xyz
x,y,z
-x,y,-z
-x,-y,-z
x,-y,z
1/2+x,1/2+y,z
1/2-x,1/2+y,-z
1/2-x,1/2-y,-z
1/2+x,1/2-y,z
loop_
_atom_site_type_symbol
_atom_site_label
_atom_site_fract_x
_atom_site_fract_y
_atom_site_fract_z
Si Si1 0.165658 0.570813 0.911767
Si Si2 0.637593 0.640619 0.221931
Si Si3 0.647676 0.573117 0.713149
Si Si4 0.191080 0.325448 0.404066
Si Si5 0.143350 0.699552 0.622226
Si Si6 0.351283 0.112854 0.877997
Si Si7 0.125134 0.254492 0.076275
O O1 0.172244 0.500000 0.949161
O O2 0.296192 0.582794 0.838135
O O3 0.010050 0.583461 0.857414
O O4 0.186821 0.612919 0.007783
O O5 0.503081 0.612799 0.282252
O O6 0.765793 0.665139 0.293183
O O7 0.590815 0.694417 0.143897
O O8 0.620128 0.500000 0.682145
O O9 0.754838 0.607310 0.636764
O O10 0.727743 0.574442 0.818598
O O11 0.182291 0.333171 0.520264
O O12 0.312435 0.273045 0.378300
O O13 0.031152 0.305967 0.358935
O O14 0.349326 0.186967 0.848336
O O15 0.250000 0.250000 0.000000
O O16 0.000000 0.271882 0.000000
#
# Coordination Sequence:
#
# PCOD8112419 Si02
#       7
#     8   8   8   8   8   8   8
#     4  11  22  39  59  83 119 168 219 267 317 393
#     4  12  25  39  62  94 131 172 220 268 333 395
#     4  12  26  42  62  95 136 183 227 272 329 397
#     4  10  22  44  72 100 134 164 217 276 340 401
#     4  10  22  43  73 104 127 167 214 279 342 400
#     4  11  21  40  62  86 118 167 220 275 330 387
#     4  12  22  39  59  88 123 160 209 274 328 378
#
# _framework density 21.183311
#
# number of rings (size 3 to 8) (size 9 to 14) (size 15 to 20)
#    0.000    0.857    2.857    5.571    0.000    4.000 
#    0.000    5.714    0.000    0.000    0.000    0.000 
#    0.000    0.000    0.000    0.000    0.000    0.000 
#
# Total GULP energy -347155.397090 kJ/mol
# GULP energy per Si atom -12398.407039 kJ/mol
# Density = 2.113510 g / cm^3
# Si number density = 21.183311 Si / 1000 Ang^3
#
#
#
# Elastic Constant Matrix: (Units=GPa)
#
#
# Indices 1 2 3 4 5 6 
#
# 1 81.2892 33.7649 20.9372 0.0000 -17.6468 0.0000
# 2 33.7649 136.5309 28.8390 0.0000 -14.9183 0.0000
# 3 20.9372 28.8390 61.9244 0.0000 -2.2908 0.0000
# 4 0.0000 0.0000 0.0000 7.8769 0.0000 -16.2905
# 5 -17.6468 -14.9183 -2.2908 0.0000 33.7329 0.0000
# 6 0.0000 0.0000 0.0000 -16.2905 0.0000 24.0772
#
#
#
# Elastic Compliance Matrix: (Units=1/GPa)
#
#
# Indices 1 2 3 4 5 6 
#
# 1 0.015806 -0.002298 -0.004016 0.000000 0.006979 0.000000
# 2 -0.002298 0.008852 -0.003253 0.000000 0.002492 0.000000
# 3 -0.004016 -0.003253 0.018938 0.000000 -0.002253 0.000000
# 4 0.000000 0.000000 0.000000 -0.317950 0.000000 -0.215123
# 5 0.006979 0.002492 -0.002253 0.000000 0.034245 0.000000
# 6 0.000000 0.000000 0.000000 -0.215123 0.000000 -0.104018
#
#
# Mechanical properties :
#
#
# Convention : Reuss Voigt Hill
#
# Bulk Modulus (GPa) = 40.87975 49.64741 45.26358
# Shear Modulus (GPa) = -15.78087 26.21760 5.21837
#
# Velocity S-wave (km/s) = -2.73237 3.52185 1.57124
# Velocity P-wave (km/s) = 3.06358 6.32659 4.97048
#
# Compressibility (1/GPa) = 0.02446199
#
# Stress axis : x y z
#
# Youngs Moduli (GPa) = 63.26823 112.96718 52.80319
#
# Poissons Ratio (x) = 0.25960 0.21204
# Poissons Ratio (y) = 0.14539 0.17179
# Poissons Ratio (z) = 0.25406 0.36753
#
# Static dielectric constant tensor:
#      x y z
#    x 5.333240 0.000000 0.135420 
#    y 0.000000 3.751930 0.000000 
#    z 0.135420 0.000000 3.761600 
# 
# 
# High freq. dielectric constant tensor:
#      x y z
#    x 1.840620 0.000000 -0.002130 
#    y 0.000000 1.828990 0.000000 
#    z -0.002130 0.000000 1.825460 
# 
# From -- ./inp_files/197550.got.cif
#   From: 2010.06.25/outbox.cif.g09.slc.cpg/sg12_99_cif.got.tgz:197550.got - 2010.06.28 00:19:55.
