data_PCOD8112187
_publ_section_title
;
Structure prediction by ZEFSAII (Michael W. Deem and Ramdas Pophale) SiO2 
 PCOD8112187
Probable space group: C 2/M
;
_chemical_formula_sum "Si O2"
_cell_formula_units_Z 64
_cell_length_a 11.872955
_cell_length_b 13.337409
_cell_length_c 29.425668
_cell_angle_alpha 90.000000
_cell_angle_beta 141.426387
_cell_angle_gamma 90.000000
_cell_volume 2905.405390
_symmetry_space_group_name_H-M "C 2/M"
_symmetry_group_IT_number 12
_symmetry_cell_setting 'monoclinic'
loop_
_space_group_symop_operation_xyz
x,y,z
-x,y,-z
-x,-y,-z
x,-y,z
1/2+x,1/2+y,z
1/2-x,1/2+y,-z
1/2-x,1/2-y,-z
1/2+x,1/2-y,z
loop_
_atom_site_type_symbol
_atom_site_label
_atom_site_fract_x
_atom_site_fract_y
_atom_site_fract_z
Si Si1 0.198771 0.888201 0.029921
Si Si2 0.679971 0.205284 0.079946
Si Si3 0.887978 0.611373 0.850696
Si Si4 0.988044 0.882625 0.117533
Si Si5 0.358067 0.116333 0.495394
Si Si6 0.309820 0.116450 0.723315
Si Si7 0.597680 0.883542 0.738514
Si Si8 0.981302 0.253846 0.617555
O O1 0.173606 0.824639 0.068000
O O2 0.399801 0.886689 0.074482
O O3 0.140210 0.000000 0.025020
O O4 0.076194 0.839127 0.951423
O O5 0.697439 0.185839 0.139275
O O6 0.865292 0.163604 0.117886
O O7 0.500000 0.154865 0.000000
O O8 0.810368 0.500000 0.834608
O O9 0.842877 0.647583 0.785891
O O10 0.194267 0.852300 0.190507
O O11 0.955197 0.000000 0.106802
O O12 0.500000 0.126996 0.500000
O O13 0.179838 0.176016 0.424721
O O14 0.441072 0.164153 0.566740
O O15 0.310531 0.000000 0.489685
O O16 0.492510 0.135516 0.752591
O O17 0.152470 0.188278 0.655203
O O18 0.251554 0.000000 0.700919
O O19 0.509841 0.814050 0.672811
O O20 0.581759 0.000000 0.719000
#
# Coordination Sequence:
#
# PCOD8112187 Si02
#       8
#     8   8   8   8   8   8   8   8
#     4  10  23  42  61  88 124 167 219 274 341 398
#     4  12  24  38  67  92 122 162 224 284 338 399
#     4  10  23  43  64  89 125 169 216 274 339 397
#     4  10  22  42  65  93 127 168 218 279 344 395
#     4  10  22  42  68 103 144 177 209 255 310 373
#     4  10  23  43  65  94 132 173 219 271 329 388
#     4  10  23  44  67  94 133 174 219 273 324 386
#     4  11  22  40  71 103 133 175 221 259 308 378
#
# _framework density 22.027906999999999
#
# number of rings (size 3 to 8) (size 9 to 14) (size 15 to 20)
#    0.000    1.625    1.250    2.250    1.750    2.750 
#    2.250    2.500    0.000    6.750    0.000    0.000 
#    0.000    0.000    0.000    0.000    0.000    0.000 
#
# Total GULP energy -396843.706850 kJ/mol
# GULP energy per Si atom -12401.365839 kJ/mol
# Density = 2.197777 g / cm^3
# Si number density = 22.027907 Si / 1000 Ang^3
#
#
#
# Elastic Constant Matrix: (Units=GPa)
#
#
# Indices 1 2 3 4 5 6 
#
# 1 146.8878 65.0927 63.4929 0.0000 0.8119 0.0000
# 2 65.0927 128.2416 67.9137 0.0000 -6.4714 0.0000
# 3 63.4929 67.9137 131.1766 0.0000 3.3694 0.0000
# 4 0.0000 0.0000 0.0000 405.2278 0.0000 406.4116
# 5 0.8119 -6.4714 3.3694 0.0000 36.6013 0.0000
# 6 0.0000 0.0000 0.0000 406.4116 0.0000 470.5575
#
#
#
# Elastic Compliance Matrix: (Units=1/GPa)
#
#
# Indices 1 2 3 4 5 6 
#
# 1 0.009534 -0.003348 -0.002868 0.000000 -0.000539 0.000000
# 2 -0.003348 0.012137 -0.004731 0.000000 0.002656 0.000000
# 3 -0.002868 -0.004731 0.011508 0.000000 -0.001832 0.000000
# 4 0.000000 0.000000 0.000000 0.018444 0.000000 -0.015930
# 5 -0.000539 0.002656 -0.001832 0.000000 0.027972 0.000000
# 6 0.000000 0.000000 0.000000 -0.015930 0.000000 0.015883
#
#
# Mechanical properties :
#
#
# Convention : Reuss Voigt Hill
#
# Bulk Modulus (GPa) = 88.61203 88.81163 88.71183
# Shear Modulus (GPa) = 41.27702 196.46442 118.87072
#
# Velocity S-wave (km/s) = 4.33350 9.45423 7.35397
# Velocity P-wave (km/s) = 8.08415 12.63258 10.60508
#
# Compressibility (1/GPa) = 0.01128515
#
# Stress axis : x y z
#
# Youngs Moduli (GPa) = 104.88757 82.39499 86.89730
#
# Poissons Ratio (x) = 0.27585 0.24918
# Poissons Ratio (y) = 0.35115 0.41113
# Poissons Ratio (z) = 0.30077 0.38983
#
# Static dielectric constant tensor:
#      x y z
#    x 3.976760 0.000000 0.083730 
#    y 0.000000 4.282760 0.000000 
#    z 0.083730 0.000000 3.920440 
# 
# 
# High freq. dielectric constant tensor:
#      x y z
#    x 1.879250 0.000000 0.003480 
#    y 0.000000 1.887320 0.000000 
#    z 0.003480 0.000000 1.853440 
# 
# From -- ./inp_files/358468.got.cif
#   From: 2010.06.25/outbox.cif.g09.slc.cpg/sg12_180_cif.got.tgz:358468.got - 2010.06.28 00:19:55.
