data_PCOD8112325
_publ_section_title
;
Structure prediction by ZEFSAII (Michael W. Deem and Ramdas Pophale) SiO2 
 PCOD8112325
Probable space group: C 2/M
;
_chemical_formula_sum "Si O2"
_cell_formula_units_Z 32
_cell_length_a 8.774623
_cell_length_b 19.024670
_cell_length_c 7.895758
_cell_angle_alpha 90.000000
_cell_angle_beta 98.951201
_cell_angle_gamma 90.000000
_cell_volume 1302.020367
_symmetry_space_group_name_H-M "C 2/M"
_symmetry_group_IT_number 12
_symmetry_cell_setting 'monoclinic'
loop_
_space_group_symop_operation_xyz
x,y,z
-x,y,-z
-x,-y,-z
x,-y,z
1/2+x,1/2+y,z
1/2-x,1/2+y,-z
1/2-x,1/2-y,-z
1/2+x,1/2-y,z
loop_
_atom_site_type_symbol
_atom_site_label
_atom_site_fract_x
_atom_site_fract_y
_atom_site_fract_z
Si Si1 0.829858 0.582476 0.900081
Si Si2 0.825519 0.424249 0.513426
Si Si3 0.691942 0.705325 0.332143
Si Si4 0.385823 0.704888 0.125088
O O1 0.792610 0.500000 0.923850
O O2 0.819290 0.605695 0.702153
O O3 0.695928 0.632304 0.954246
O O4 0.000000 0.600265 0.000000
O O5 0.740109 0.500000 0.487072
O O6 0.754069 0.373360 0.361783
O O7 0.000000 0.436668 0.500000
O O8 0.750000 0.750000 0.500000
O O9 0.506079 0.697517 0.303253
O O10 0.757422 0.737889 0.163884
O O11 0.500000 0.733638 0.000000
#
# Coordination Sequence:
#
# PCOD8112325 Si02
#       4
#     8   8   8   8
#     4  10  24  47  74 106 145 186 234 290 356 433
#     4  10  22  42  73 104 135 186 238 291 355 423
#     4  12  25  47  70 102 144 185 236 302 352 417
#     4  12  28  45  70 103 143 193 236 291 361 424
#
# _framework density 24.577189000000001
#
# number of rings (size 3 to 8) (size 9 to 14) (size 15 to 20)
#    0.000    1.000    2.500    3.000    3.500    2.500 
#    0.000    2.500    0.000    0.750    0.000    0.000 
#    0.000    0.000    0.000    0.000    0.000    0.000 
#
# Total GULP energy -198315.069551 kJ/mol
# GULP energy per Si atom -12394.691847 kJ/mol
# Density = 2.452125 g / cm^3
# Si number density = 24.577189 Si / 1000 Ang^3
#
#
#
# Elastic Constant Matrix: (Units=GPa)
#
#
# Indices 1 2 3 4 5 6 
#
# 1 154.9798 77.8883 41.4478 0.0000 35.5976 0.0000
# 2 77.8883 143.4977 59.4557 0.0000 24.7843 0.0000
# 3 41.4478 59.4557 76.8024 0.0000 3.2010 0.0000
# 4 0.0000 0.0000 0.0000 45.5654 0.0000 12.4402
# 5 35.5976 24.7843 3.2010 0.0000 50.8302 0.0000
# 6 0.0000 0.0000 0.0000 12.4402 0.0000 49.4299
#
#
#
# Elastic Compliance Matrix: (Units=1/GPa)
#
#
# Indices 1 2 3 4 5 6 
#
# 1 0.010092 -0.003557 -0.002477 0.000000 -0.005177 0.000000
# 2 -0.003557 0.012662 -0.007749 0.000000 -0.003195 0.000000
# 3 -0.002477 -0.007749 0.020179 0.000000 0.004242 0.000000
# 4 0.000000 0.000000 0.000000 0.023566 0.000000 -0.005931
# 5 -0.005177 -0.003195 0.004242 0.000000 0.024589 0.000000
# 6 0.000000 0.000000 0.000000 -0.005931 0.000000 0.021723
#
#
# Mechanical properties :
#
#
# Convention : Reuss Voigt Hill
#
# Bulk Modulus (GPa) = 65.07609 81.42929 73.25269
# Shear Modulus (GPa) = 34.36419 42.26430 38.31424
#
# Velocity S-wave (km/s) = 3.74333 4.15137 3.95262
# Velocity P-wave (km/s) = 6.72451 7.49550 7.12045
#
# Compressibility (1/GPa) = 0.01536663
#
# Stress axis : x y z
#
# Youngs Moduli (GPa) = 99.09112 78.97506 49.55601
#
# Poissons Ratio (x) = 0.28094 0.12273
# Poissons Ratio (y) = 0.35251 0.38403
# Poissons Ratio (z) = 0.24540 0.61201
#
# Static dielectric constant tensor:
#      x y z
#    x 3.948670 0.000000 1.473800 
#    y 0.000000 4.660790 0.000000 
#    z 1.473800 0.000000 2.519730 
# 
# 
# High freq. dielectric constant tensor:
#      x y z
#    x 1.977170 0.000000 0.015390 
#    y 0.000000 1.982010 0.000000 
#    z 0.015390 0.000000 2.000970 
# 
# From -- ./inp_files/37753.got.cif
#   From: 2010.06.25/outbox.cif.g09.slc.cpg/sg12_19_cif.got.tgz:37753.got - 2010.06.28 00:19:55.
