data_PCOD8112557
_publ_section_title
;
Structure prediction by ZEFSAII (Michael W. Deem and Ramdas Pophale) SiO2 
 PCOD8112557
Probable space group: C 2/M
;
_chemical_formula_sum "Si O2"
_cell_formula_units_Z 44
_cell_length_a 18.708650
_cell_length_b 11.761309
_cell_length_c 18.312726
_cell_angle_alpha 90.000000
_cell_angle_beta 144.280403
_cell_angle_gamma 90.000000
_cell_volume 2352.498119
_symmetry_space_group_name_H-M "C 2/M"
_symmetry_group_IT_number 12
_symmetry_cell_setting 'monoclinic'
loop_
_space_group_symop_operation_xyz
x,y,z
-x,y,-z
-x,-y,-z
x,-y,z
1/2+x,1/2+y,z
1/2-x,1/2+y,-z
1/2-x,1/2-y,-z
1/2+x,1/2-y,z
loop_
_atom_site_type_symbol
_atom_site_label
_atom_site_fract_x
_atom_site_fract_y
_atom_site_fract_z
Si Si1 0.356103 0.000000 0.385595
Si Si2 0.041004 0.000000 0.949213
Si Si3 0.948689 0.126875 0.744808
Si Si4 0.365385 0.372801 0.355424
Si Si5 0.947293 0.263129 0.289526
Si Si6 0.295344 0.777690 0.420272
Si Si7 0.678081 0.000000 0.807034
O O1 0.500000 0.000000 0.500000
O O2 0.308627 0.892190 0.387071
O O3 0.298324 0.000000 0.258847
O O4 0.184790 0.000000 0.049194
O O5 0.000000 0.000000 0.000000
O O6 0.988384 0.887863 0.863241
O O7 0.829480 0.207863 0.637768
O O8 0.056058 0.188119 0.787192
O O9 0.924373 0.000000 0.691135
O O10 0.500000 0.372028 0.500000
O O11 0.322280 0.500000 0.299515
O O12 0.361203 0.294194 0.279784
O O13 0.278866 0.323724 0.347676
O O14 0.898789 0.389361 0.231892
O O15 0.088493 0.261777 0.431635
#
# Coordination Sequence:
#
# PCOD8112557 Si02
#       7
#     4   4   8   8   8   8   4
#     4  12  16  32  58  91 113 141 196 248 277 335
#     4  10  24  43  63  84 104 153 206 245 291 340
#     4  10  23  39  57  80 121 151 190 239 296 343
#     4   9  18  31  52  82 118 153 188 219 278 357
#     4  11  21  34  57  90 118 152 188 239 296 340
#     4  11  18  34  57  87 121 153 188 235 286 354
#     4  12  22  35  63  88 114 149 206 243 281 339
#
# _framework density 18.703522
#
# number of rings (size 3 to 8) (size 9 to 14) (size 15 to 20)
#    0.545    0.909    4.545    2.727    0.000    1.455 
#    1.636    0.000    0.000    0.000    0.000    1.909 
#    0.000    0.000    0.000    0.000    0.000    0.000 
#
# Total GULP energy -272641.266143 kJ/mol
# GULP energy per Si atom -12392.784825 kJ/mol
# Density = 1.866095 g / cm^3
# Si number density = 18.703522 Si / 1000 Ang^3
#
#
#
# Elastic Constant Matrix: (Units=GPa)
#
#
# Indices 1 2 3 4 5 6 
#
# 1 91.2585 48.4786 20.8833 0.0000 -3.2995 0.0000
# 2 48.4786 126.7834 14.7153 0.0000 -3.1078 0.0000
# 3 20.8833 14.7153 57.1367 0.0000 -1.2530 0.0000
# 4 0.0000 0.0000 0.0000 11.6134 0.0000 -10.7347
# 5 -3.2995 -3.1078 -1.2530 0.0000 24.8226 0.0000
# 6 0.0000 0.0000 0.0000 -10.7347 0.0000 36.4665
#
#
#
# Elastic Compliance Matrix: (Units=1/GPa)
#
#
# Indices 1 2 3 4 5 6 
#
# 1 0.014624 -0.005100 -0.004007 0.000000 0.001103 0.000000
# 2 -0.005100 0.009930 -0.000682 0.000000 0.000531 0.000000
# 3 -0.004007 -0.000682 0.019150 0.000000 0.000349 0.000000
# 4 0.000000 0.000000 0.000000 0.118295 0.000000 0.034823
# 5 0.001103 0.000531 0.000349 0.000000 0.040517 0.000000
# 6 0.000000 0.000000 0.000000 0.034823 0.000000 0.037673
#
#
# Mechanical properties :
#
#
# Convention : Reuss Voigt Hill
#
# Bulk Modulus (GPa) = 41.44970 49.25926 45.35448
# Shear Modulus (GPa) = 18.67015 27.32059 22.99537
#
# Velocity S-wave (km/s) = 3.16288 3.82608 3.51018
# Velocity P-wave (km/s) = 5.96221 6.77588 6.38203
#
# Compressibility (1/GPa) = 0.02412563
#
# Stress axis : x y z
#
# Youngs Moduli (GPa) = 68.38153 100.70937 52.21982
#
# Poissons Ratio (x) = 0.51358 0.20927
# Poissons Ratio (y) = 0.34872 0.03560
# Poissons Ratio (z) = 0.27403 0.06866
#
# Static dielectric constant tensor:
#      x y z
#    x 3.407270 0.000000 -0.044390 
#    y 0.000000 3.563810 0.000000 
#    z -0.044390 0.000000 3.249760 
# 
# 
# High freq. dielectric constant tensor:
#      x y z
#    x 1.730850 0.000000 -0.007460 
#    y 0.000000 1.727110 0.000000 
#    z -0.007460 0.000000 1.686920 
# 
# From -- ./inp_files/277141.got.cif
#   From: 2010.06.25/outbox.cif.g09.slc.cpg/sg12_139_cif.got.tgz:277141.got - 2010.06.28 00:19:55.
