data_PCOD8112338
_publ_section_title
;
Structure prediction by ZEFSAII (Michael W. Deem and Ramdas Pophale) SiO2 
 PCOD8112338
Probable space group: C 2/M
;
_chemical_formula_sum "Si O2"
_cell_formula_units_Z 40
_cell_length_a 10.124652
_cell_length_b 14.271382
_cell_length_c 21.642898
_cell_angle_alpha 90.000000
_cell_angle_beta 136.648474
_cell_angle_gamma 90.000000
_cell_volume 2146.766110
_symmetry_space_group_name_H-M "C 2/M"
_symmetry_group_IT_number 12
_symmetry_cell_setting 'monoclinic'
loop_
_space_group_symop_operation_xyz
x,y,z
-x,y,-z
-x,-y,-z
x,-y,z
1/2+x,1/2+y,z
1/2-x,1/2+y,-z
1/2-x,1/2-y,-z
1/2+x,1/2-y,z
loop_
_atom_site_type_symbol
_atom_site_label
_atom_site_fract_x
_atom_site_fract_y
_atom_site_fract_z
Si Si1 0.835526 0.109170 0.494688
Si Si2 0.970460 0.891300 0.088766
Si Si3 0.970020 0.241896 0.645970
Si Si4 0.590272 0.263863 0.234087
Si Si5 0.191632 0.608391 0.887445
O O1 0.905938 0.154716 0.582346
O O2 0.646510 0.162947 0.407342
O O3 0.000000 0.122235 0.500000
O O4 0.785831 0.000000 0.488501
O O5 0.965386 0.836339 0.151297
O O6 0.152868 0.858951 0.110263
O O7 0.986603 0.000000 0.109894
O O8 0.775277 0.870682 0.984205
O O9 0.934108 0.208023 0.703203
O O10 0.189304 0.268108 0.709643
O O11 0.508106 0.160833 0.192141
O O12 0.144196 0.500000 0.863530
#
# Coordination Sequence:
#
# PCOD8112338 Si02
#       5
#     8   8   8   8   8
#     4  10  22  43  65  83 114 154 187 230 293 354
#     4   9  19  36  57  84 118 157 198 236 278 334
#     4  11  24  38  60  92 116 145 191 241 284 349
#     4  12  21  37  59  89 122 147 190 242 289 330
#     4   9  19  36  58  83 116 161 200 228 278 344
#
# _framework density 18.632677000000001
#
# number of rings (size 3 to 8) (size 9 to 14) (size 15 to 20)
#    0.000    1.800    4.000    1.800    0.000    3.200 
#    0.000    1.000    0.000    2.400    0.000    0.000 
#    0.000    0.000    0.000    0.000    0.000    0.000 
#
# Total GULP energy -248049.092935 kJ/mol
# GULP energy per Si atom -12402.454647 kJ/mol
# Density = 1.859027 g / cm^3
# Si number density = 18.632677 Si / 1000 Ang^3
#
#
#
# Elastic Constant Matrix: (Units=GPa)
#
#
# Indices 1 2 3 4 5 6 
#
# 1 118.6602 49.4712 61.9308 0.0000 -14.4257 0.0000
# 2 49.4712 111.8939 62.0552 0.0000 -10.5579 0.0000
# 3 61.9308 62.0552 116.0921 0.0000 -18.7895 0.0000
# 4 0.0000 0.0000 0.0000 24.6124 0.0000 4.1304
# 5 -14.4257 -10.5579 -18.7895 0.0000 45.8549 0.0000
# 6 0.0000 0.0000 0.0000 4.1304 0.0000 24.9914
#
#
#
# Elastic Compliance Matrix: (Units=1/GPa)
#
#
# Indices 1 2 3 4 5 6 
#
# 1 0.012227 -0.002534 -0.004969 0.000000 0.001227 0.000000
# 2 -0.002534 0.013229 -0.005736 0.000000 -0.000102 0.000000
# 3 -0.004969 -0.005736 0.014849 0.000000 0.003200 0.000000
# 4 0.000000 0.000000 0.000000 0.041789 0.000000 -0.006907
# 5 0.001227 -0.000102 0.003200 0.000000 0.023482 0.000000
# 6 0.000000 0.000000 0.000000 -0.006907 0.000000 0.041155
#
#
# Mechanical properties :
#
#
# Convention : Reuss Voigt Hill
#
# Bulk Modulus (GPa) = 72.32894 77.06232 74.69563
# Shear Modulus (GPa) = 28.11868 30.63768 29.37818
#
# Velocity S-wave (km/s) = 3.88894 4.05939 3.97508
# Velocity P-wave (km/s) = 7.68555 7.96367 7.82585
#
# Compressibility (1/GPa) = 0.01382572
#
# Stress axis : x y z
#
# Youngs Moduli (GPa) = 81.78865 75.59214 67.34505
#
# Poissons Ratio (x) = 0.19155 0.33467
# Poissons Ratio (y) = 0.20725 0.38629
# Poissons Ratio (z) = 0.40644 0.43359
#
# Static dielectric constant tensor:
#      x y z
#    x 3.304690 0.000000 -0.072560 
#    y 0.000000 3.332600 0.000000 
#    z -0.072560 0.000000 3.594000 
# 
# 
# High freq. dielectric constant tensor:
#      x y z
#    x 1.713420 0.000000 -0.005540 
#    y 0.000000 1.719980 0.000000 
#    z -0.005540 0.000000 1.741350 
# 
# From -- ./inp_files/194412.got.cif
#   From: 2010.06.25/outbox.cif.g09.slc.cpg/sg12_98_cif.got.tgz:194412.got - 2010.06.28 00:19:55.
