data_PCOD8112807
_publ_section_title
;
Structure prediction by ZEFSAII (Michael W. Deem and Ramdas Pophale) SiO2 
 PCOD8112807
Probable space group: C 2/M
;
_chemical_formula_sum "Si O2"
_cell_formula_units_Z 48
_cell_length_a 14.473427
_cell_length_b 26.601966
_cell_length_c 9.167662
_cell_angle_alpha 90.000000
_cell_angle_beta 137.522706
_cell_angle_gamma 90.000000
_cell_volume 2383.631686
_symmetry_space_group_name_H-M "C 2/M"
_symmetry_group_IT_number 12
_symmetry_cell_setting 'monoclinic'
loop_
_space_group_symop_operation_xyz
x,y,z
-x,y,-z
-x,-y,-z
x,-y,z
1/2+x,1/2+y,z
1/2-x,1/2+y,-z
1/2-x,1/2-y,-z
1/2+x,1/2-y,z
loop_
_atom_site_type_symbol
_atom_site_label
_atom_site_fract_x
_atom_site_fract_y
_atom_site_fract_z
Si Si1 0.646909 0.056419 0.725738
Si Si2 0.692171 0.417203 0.830507
Si Si3 0.607769 0.443430 0.421566
Si Si4 0.346833 0.377534 0.784095
Si Si5 0.637410 0.695969 0.751684
Si Si6 0.634090 0.729518 0.076689
O O1 0.500000 0.075267 0.500000
O O2 0.753489 0.095918 0.791705
O O3 0.670807 0.000000 0.695302
O O4 0.674668 0.059358 0.932378
O O5 0.687562 0.441675 0.666585
O O6 0.552000 0.430779 0.750363
O O7 0.711083 0.357443 0.844932
O O8 0.623313 0.500000 0.375115
O O9 0.682128 0.401154 0.408673
O O10 0.322365 0.317821 0.770581
O O11 0.500000 0.392267 0.000000
O O12 0.500000 0.691247 0.500000
O O13 0.739388 0.732541 0.782724
O O14 0.598639 0.713714 0.869509
O O15 0.500000 0.753649 0.000000
#
# Coordination Sequence:
#
# PCOD8112807 Si02
#       6
#     8   8   8   8   8   8
#     4  11  23  39  61  89 127 168 204 252 318 382
#     4  11  20  39  60  91 130 162 208 258 315 378
#     4  11  21  34  64  97 124 159 207 266 320 367
#     4  11  21  39  62  91 124 158 212 266 305 368
#     4  11  22  41  66  91 127 169 210 265 322 377
#     4  10  23  42  61  93 127 167 214 264 316 379
#
# _framework density 20.137339000000001
#
# number of rings (size 3 to 8) (size 9 to 14) (size 15 to 20)
#    0.000    1.167    5.000    3.500    0.000    2.000 
#    0.000    0.833    0.000    3.000    0.000    0.000 
#    0.000    0.000    0.000    0.000    0.000    0.000 
#
# Total GULP energy -297509.854696 kJ/mol
# GULP energy per Si atom -12396.243946 kJ/mol
# Density = 2.009151 g / cm^3
# Si number density = 20.137339 Si / 1000 Ang^3
#
#
#
# Elastic Constant Matrix: (Units=GPa)
#
#
# Indices 1 2 3 4 5 6 
#
# 1 86.2949 48.7338 24.1348 0.0000 -3.8380 0.0000
# 2 48.7338 99.5370 33.2761 0.0000 5.3347 0.0000
# 3 24.1348 33.2761 122.9806 0.0000 2.9798 0.0000
# 4 0.0000 0.0000 0.0000 28.4479 0.0000 -11.1837
# 5 -3.8380 5.3347 2.9798 0.0000 27.3145 0.0000
# 6 0.0000 0.0000 0.0000 -11.1837 0.0000 30.0990
#
#
#
# Elastic Compliance Matrix: (Units=1/GPa)
#
#
# Indices 1 2 3 4 5 6 
#
# 1 0.016583 -0.007931 -0.001206 0.000000 0.004010 0.000000
# 2 -0.007931 0.014931 -0.002392 0.000000 -0.003770 0.000000
# 3 -0.001206 -0.002392 0.009032 0.000000 -0.000687 0.000000
# 4 0.000000 0.000000 0.000000 0.041165 0.000000 0.015296
# 5 0.004010 -0.003770 -0.000687 0.000000 0.037985 0.000000
# 6 0.000000 0.000000 0.000000 0.015296 0.000000 0.038907
#
#
# Mechanical properties :
#
#
# Convention : Reuss Voigt Hill
#
# Bulk Modulus (GPa) = 57.18106 57.90021 57.54064
# Shear Modulus (GPa) = 26.66807 30.68345 28.67576
#
# Velocity S-wave (km/s) = 3.64305 3.90771 3.77770
# Velocity P-wave (km/s) = 6.79360 7.01251 6.90392
#
# Compressibility (1/GPa) = 0.01748831
#
# Stress axis : x y z
#
# Youngs Moduli (GPa) = 60.30448 66.97347 110.71819
#
# Poissons Ratio (x) = 0.53115 0.13348
# Poissons Ratio (y) = 0.47826 0.26488
# Poissons Ratio (z) = 0.07270 0.16023
#
# Static dielectric constant tensor:
#      x y z
#    x 3.719070 0.000000 -0.083500 
#    y 0.000000 3.764320 0.000000 
#    z -0.083500 0.000000 4.040180 
# 
# 
# High freq. dielectric constant tensor:
#      x y z
#    x 1.769060 0.000000 -0.020150 
#    y 0.000000 1.795410 0.000000 
#    z -0.020150 0.000000 1.780600 
# 
# From -- ./inp_files/67426.got.cif
#   From: 2010.06.25/outbox.cif.g09.slc.cpg/sg12_34_cif.got.tgz:67426.got - 2010.06.28 00:19:55.
