data_PCOD8112756
_publ_section_title
;
Structure prediction by ZEFSAII (Michael W. Deem and Ramdas Pophale) SiO2 
 PCOD8112756
Probable space group: C 2/M
;
_chemical_formula_sum "Si O2"
_cell_formula_units_Z 64
_cell_length_a 15.059246
_cell_length_b 17.511445
_cell_length_c 17.636826
_cell_angle_alpha 90.000000
_cell_angle_beta 41.334296
_cell_angle_gamma 90.000000
_cell_volume 3071.753787
_symmetry_space_group_name_H-M "C 2/M"
_symmetry_group_IT_number 12
_symmetry_cell_setting 'monoclinic'
loop_
_space_group_symop_operation_xyz
x,y,z
-x,y,-z
-x,-y,-z
x,-y,z
1/2+x,1/2+y,z
1/2-x,1/2+y,-z
1/2-x,1/2-y,-z
1/2+x,1/2-y,z
loop_
_atom_site_type_symbol
_atom_site_label
_atom_site_fract_x
_atom_site_fract_y
_atom_site_fract_z
Si Si1 0.780008 0.839119 0.487617
Si Si2 0.273407 0.914822 0.060878
Si Si3 0.111017 0.131287 0.025392
Si Si4 0.349666 0.841127 0.582555
Si Si5 0.233393 0.172898 0.340027
Si Si6 0.569406 0.590737 0.321344
Si Si7 0.320544 0.585955 0.176326
Si Si8 0.508684 0.789681 0.080884
O O1 0.750000 0.750000 0.500000
O O2 0.703635 0.875858 0.463857
O O3 0.725347 0.866702 0.605579
O O4 0.937089 0.861735 0.383776
O O5 0.194179 0.913924 0.033741
O O6 0.179178 0.885330 0.188687
O O7 0.322693 0.000000 0.047188
O O8 0.406299 0.865656 0.967045
O O9 0.975596 0.083824 0.100950
O O10 0.080035 0.217449 0.075534
O O11 0.196558 0.131005 0.892272
O O12 0.500000 0.870527 0.500000
O O13 0.346498 0.749447 0.586602
O O14 0.260330 0.870393 0.708171
O O15 0.130973 0.116639 0.362394
O O16 0.364053 0.192526 0.207791
O O17 0.539414 0.500000 0.341425
O O18 0.266792 0.500000 0.202222
O O19 0.500000 0.762331 0.000000
#
# Coordination Sequence:
#
# PCOD8112756 Si02
#       8
#     8   8   8   8   8   8   8   8
#     4  10  23  41  64  94 125 170 221 268 320 382
#     4  11  25  40  62  97 137 174 211 263 327 390
#     4  11  21  42  63  96 129 170 219 267 315 390
#     4  11  23  42  65  92 131 172 216 269 330 391
#     4  11  22  42  64  93 130 172 221 269 322 383
#     4  11  24  42  68  96 129 172 219 269 325 387
#     4  11  22  38  66  92 126 169 213 268 327 382
#     4  12  22  41  66  96 132 171 216 266 326 390
#
# _framework density 20.835003
#
# number of rings (size 3 to 8) (size 9 to 14) (size 15 to 20)
#    0.000    1.000    3.750    4.500    1.750    4.500 
#    0.000    0.000    0.000    0.000    0.000    0.000 
#    0.000    0.000    0.000    0.000    0.000    0.000 
#
# Total GULP energy -396747.035578 kJ/mol
# GULP energy per Si atom -12398.344862 kJ/mol
# Density = 2.078758 g / cm^3
# Si number density = 20.835003 Si / 1000 Ang^3
#
#
#
# Elastic Constant Matrix: (Units=GPa)
#
#
# Indices 1 2 3 4 5 6 
#
# 1 129.1332 25.0592 54.0933 -0.0001 14.7167 0.0000
# 2 25.0592 84.3813 13.2188 0.0002 -7.8496 0.0000
# 3 54.0933 13.2188 88.1305 0.0004 15.1782 -0.0001
# 4 -0.0001 0.0002 0.0004 -72.2619 -0.0001 -21.9005
# 5 14.7167 -7.8496 15.1782 -0.0001 29.6724 0.0002
# 6 0.0000 0.0000 -0.0001 -21.9005 0.0002 26.0173
#
#
#
# Elastic Compliance Matrix: (Units=1/GPa)
#
#
# Indices 1 2 3 4 5 6 
#
# 1 0.011077 -0.002673 -0.005845 0.000000 -0.003211 0.000000
# 2 -0.002673 0.013366 -0.001318 0.000000 0.005535 0.000000
# 3 -0.005845 -0.001318 0.016112 0.000000 -0.005691 0.000000
# 4 0.000000 0.000000 0.000000 -0.011026 0.000000 -0.009281
# 5 -0.003211 0.005535 -0.005691 0.000000 0.039670 0.000000
# 6 0.000000 0.000000 0.000000 -0.009281 0.000000 0.030623
#
#
# Mechanical properties :
#
#
# Convention : Reuss Voigt Hill
#
# Bulk Modulus (GPa) = 47.88228 54.04307 50.96268
# Shear Modulus (GPa) = 39.53983 10.63715 25.08849
#
# Velocity S-wave (km/s) = 4.36105 2.26197 3.47385
# Velocity P-wave (km/s) = 6.95629 5.72860 6.37208
#
# Compressibility (1/GPa) = 0.02088455
#
# Stress axis : x y z
#
# Youngs Moduli (GPa) = 90.27739 74.81647 62.06469
#
# Poissons Ratio (x) = 0.19996 0.36277
# Poissons Ratio (y) = 0.24128 0.08178
# Poissons Ratio (z) = 0.52767 0.09859
#
# Static dielectric constant tensor:
#      x y z
#    x 4.066100 0.000000 0.214890 
#    y 0.000000 3.462440 0.000000 
#    z 0.214890 0.000000 4.067310 
# 
# 
# High freq. dielectric constant tensor:
#      x y z
#    x 1.818630 0.000000 0.015810 
#    y 0.000000 1.808110 0.000000 
#    z 0.015810 0.000000 1.821030 
# 
# From -- ./inp_files/271699.got.cif
#   From: 2010.06.25/outbox.cif.g09.slc.cpg/sg12_136_cif.got.tgz:271699.got - 2010.06.28 00:19:55.
