data_PCOD8112959
_publ_section_title
;
Structure prediction by ZEFSAII (Michael W. Deem and Ramdas Pophale) SiO2 
 PCOD8112959
Probable space group: C 2/M
;
_chemical_formula_sum "Si O2"
_cell_formula_units_Z 48
_cell_length_a 14.409797
_cell_length_b 17.909066
_cell_length_c 14.073158
_cell_angle_alpha 90.000000
_cell_angle_beta 39.356606
_cell_angle_gamma 90.000000
_cell_volume 2303.090456
_symmetry_space_group_name_H-M "C 2/M"
_symmetry_group_IT_number 12
_symmetry_cell_setting 'monoclinic'
loop_
_space_group_symop_operation_xyz
x,y,z
-x,y,-z
-x,-y,-z
x,-y,z
1/2+x,1/2+y,z
1/2-x,1/2+y,-z
1/2-x,1/2-y,-z
1/2+x,1/2-y,z
loop_
_atom_site_type_symbol
_atom_site_label
_atom_site_fract_x
_atom_site_fract_y
_atom_site_fract_z
Si Si1 0.108028 0.086488 0.190301
Si Si2 0.806323 0.326996 0.910842
Si Si3 0.657752 0.813017 0.341293
Si Si4 0.162235 0.857938 0.345585
Si Si5 0.290289 0.585484 0.382594
Si Si6 0.409525 0.914622 0.283620
O O1 0.184242 0.131539 0.215632
O O2 0.937880 0.108478 0.320337
O O3 0.130586 0.000000 0.191522
O O4 0.185981 0.110316 0.030708
O O5 0.820999 0.320804 0.787094
O O6 0.960427 0.354859 0.833894
O O7 0.750000 0.250000 0.000000
O O8 0.500000 0.842300 0.500000
O O9 0.679947 0.728501 0.358545
O O10 0.776862 0.863803 0.299886
O O11 0.285035 0.904421 0.303026
O O12 0.000000 0.888126 0.500000
O O13 0.298631 0.500000 0.341952
O O14 0.156678 0.599435 0.559739
O O15 0.467582 0.000000 0.229739
#
# Coordination Sequence:
#
# PCOD8112959 Si02
#       6
#     8   8   8   8   8   8
#     4  11  24  44  67  98 138 178 224 283 346 402
#     4  12  26  46  66  99 139 178 218 280 348 402
#     4  11  24  43  69  98 130 178 230 277 337 411
#     4  11  23  40  71 102 135 179 229 284 337 403
#     4  10  23  42  70 100 130 178 232 283 335 403
#     4  11  24  43  71 102 135 179 231 282 336 406
#
# _framework density 20.841560000000001
#
# number of rings (size 3 to 8) (size 9 to 14) (size 15 to 20)
#    0.000    1.000    5.000    1.000    2.333    4.333 
#    0.000    3.333    0.000    0.000    0.000    0.000 
#    0.000    0.000    0.000    0.000    0.000    0.000 
#
# Total GULP energy -297692.691729 kJ/mol
# GULP energy per Si atom -12403.862155 kJ/mol
# Density = 2.079412 g / cm^3
# Si number density = 20.841560 Si / 1000 Ang^3
#
#
#
# Elastic Constant Matrix: (Units=GPa)
#
#
# Indices 1 2 3 4 5 6 
#
# 1 112.9797 78.5768 43.4866 0.0015 6.1758 -0.0012
# 2 78.5768 93.0343 45.1490 0.0008 -7.3056 -0.0008
# 3 43.4866 45.1490 107.9255 0.0027 3.7176 -0.0024
# 4 0.0015 0.0008 0.0027 37.8873 -0.0011 -0.2985
# 5 6.1758 -7.3056 3.7176 -0.0011 38.1345 0.0009
# 6 -0.0012 -0.0008 -0.0024 -0.2985 0.0009 37.2150
#
#
#
# Elastic Compliance Matrix: (Units=1/GPa)
#
#
# Indices 1 2 3 4 5 6 
#
# 1 0.023556 -0.020090 -0.000826 -0.000001 -0.007583 0.000000
# 2 -0.020090 0.031008 -0.005211 0.000001 0.009702 -0.000001
# 3 -0.000826 -0.005211 0.011848 -0.000001 -0.002019 0.000001
# 4 -0.000001 0.000001 -0.000001 0.026396 0.000001 0.000212
# 5 -0.007583 0.009702 -0.002019 0.000001 0.029507 -0.000001
# 6 0.000000 -0.000001 0.000001 0.000212 -0.000001 0.026873
#
#
# Mechanical properties :
#
#
# Convention : Reuss Voigt Hill
#
# Bulk Modulus (GPa) = 70.63221 72.04046 71.33634
# Shear Modulus (GPa) = 24.25308 32.42916 28.34112
#
# Velocity S-wave (km/s) = 3.41499 3.94888 3.69160
# Velocity P-wave (km/s) = 7.03656 7.44529 7.24381
#
# Compressibility (1/GPa) = 0.01415785
#
# Stress axis : x y z
#
# Youngs Moduli (GPa) = 42.45161 32.25024 84.40376
#
# Poissons Ratio (x) = 0.64792 0.06971
# Poissons Ratio (y) = 0.85286 0.43980
# Poissons Ratio (z) = 0.03506 0.16805
#
# Static dielectric constant tensor:
#      x y z
#    x 3.660020 0.000000 -0.068150 
#    y 0.000000 3.799340 0.000000 
#    z -0.068150 0.000000 3.888040 
# 
# 
# High freq. dielectric constant tensor:
#      x y z
#    x 1.812680 0.000000 0.000430 
#    y 0.000000 1.823300 0.000000 
#    z 0.000430 0.000000 1.818650 
# 
# From -- ./inp_files/133737.got.cif
#   From: 2010.06.25/outbox.cif.g09.slc.cpg/sg12_67_cif.got.tgz:133737.got - 2010.06.28 00:19:55.
