data_PCOD8112853
_publ_section_title
;
Structure prediction by ZEFSAII (Michael W. Deem and Ramdas Pophale) SiO2 
 PCOD8112853
Probable space group: C 2/M
;
_chemical_formula_sum "Si O2"
_cell_formula_units_Z 44
_cell_length_a 8.242856
_cell_length_b 20.265553
_cell_length_c 17.560746
_cell_angle_alpha 90.000000
_cell_angle_beta 45.733496
_cell_angle_gamma 90.000000
_cell_volume 2100.648375
_symmetry_space_group_name_H-M "C 2/M"
_symmetry_group_IT_number 12
_symmetry_cell_setting 'monoclinic'
loop_
_space_group_symop_operation_xyz
x,y,z
-x,y,-z
-x,-y,-z
x,-y,z
1/2+x,1/2+y,z
1/2-x,1/2+y,-z
1/2-x,1/2-y,-z
1/2+x,1/2-y,z
loop_
_atom_site_type_symbol
_atom_site_label
_atom_site_fract_x
_atom_site_fract_y
_atom_site_fract_z
Si Si1 0.612886 0.572103 0.041528
Si Si2 0.607734 0.077296 0.543836
Si Si3 0.743352 0.152631 0.251151
Si Si4 0.578781 0.188925 0.058803
Si Si5 0.371134 0.778638 0.278051
Si Si6 0.500000 0.648989 0.500000
O O1 0.675137 0.500000 0.058234
O O2 0.456223 0.615808 0.146921
O O3 0.500000 0.554954 0.000000
O O4 0.825521 0.617160 0.950974
O O5 0.500000 0.104223 0.500000
O O6 0.426311 0.095475 0.667300
O O7 0.850429 0.107334 0.488776
O O8 0.645315 0.000000 0.526986
O O9 0.611176 0.200485 0.235410
O O10 0.834302 0.199182 0.290101
O O11 0.380173 0.200563 0.185729
O O12 0.500000 0.181008 0.000000
O O13 0.750000 0.250000 0.000000
O O14 0.160209 0.807377 0.393894
#
# Coordination Sequence:
#
# PCOD8112853 Si02
#       6
#     8   8   8   8   8   4
#     4  11  23  41  63  90 126 166 209 264 326 389
#     4  10  23  42  64  90 126 173 219 265 325 392
#     4  11  23  39  64  93 126 162 216 263 327 390
#     4  12  23  40  66  96 129 166 218 267 327 391
#     4  11  24  39  63  97 123 171 211 267 328 377
#     4  10  25  42  64  94 133 168 220 272 324 382
#
# _framework density 20.945914999999999
#
# number of rings (size 3 to 8) (size 9 to 14) (size 15 to 20)
#    0.000    1.091    3.636    2.455    3.818    1.818 
#    0.000    0.909    0.000    0.000    0.000    0.000 
#    0.000    0.000    0.000    0.000    0.000    0.000 
#
# Total GULP energy -272593.038506 kJ/mol
# GULP energy per Si atom -12390.592659 kJ/mol
# Density = 2.089824 g / cm^3
# Si number density = 20.945915 Si / 1000 Ang^3
#
#
#
# Elastic Constant Matrix: (Units=GPa)
#
#
# Indices 1 2 3 4 5 6 
#
# 1 79.8493 37.0421 17.9138 0.0000 10.4780 0.0000
# 2 37.0421 146.0596 45.1758 0.0000 -7.2020 0.0000
# 3 17.9138 45.1758 123.3610 0.0000 -0.9109 0.0000
# 4 0.0000 0.0000 0.0000 50.0528 0.0000 -12.0389
# 5 10.4780 -7.2020 -0.9109 0.0000 28.6023 0.0000
# 6 0.0000 0.0000 0.0000 -12.0389 0.0000 38.3909
#
#
#
# Elastic Compliance Matrix: (Units=1/GPa)
#
#
# Indices 1 2 3 4 5 6 
#
# 1 0.015437 -0.003988 -0.000831 0.000000 -0.006686 0.000000
# 2 -0.003988 0.008851 -0.002636 0.000000 0.003606 0.000000
# 3 -0.000831 -0.002636 0.009192 0.000000 -0.000067 0.000000
# 4 0.000000 0.000000 0.000000 0.021609 0.000000 0.006776
# 5 -0.006686 0.003606 -0.000067 0.000000 0.038317 0.000000
# 6 0.000000 0.000000 0.000000 0.006776 0.000000 0.028173
#
#
# Mechanical properties :
#
#
# Convention : Reuss Voigt Hill
#
# Bulk Modulus (GPa) = 53.84574 61.05925 57.45250
# Shear Modulus (GPa) = 35.04425 40.01842 37.53133
#
# Velocity S-wave (km/s) = 4.09477 4.37574 4.23758
# Velocity P-wave (km/s) = 6.93679 7.39889 7.17156
#
# Compressibility (1/GPa) = 0.01857157
#
# Stress axis : x y z
#
# Youngs Moduli (GPa) = 64.77867 112.98422 108.79512
#
# Poissons Ratio (x) = 0.45055 0.09038
# Poissons Ratio (y) = 0.25832 0.28673
# Poissons Ratio (z) = 0.05381 0.29777
#
# Static dielectric constant tensor:
#      x y z
#    x 3.923130 0.000000 0.151130 
#    y 0.000000 3.816590 0.000000 
#    z 0.151130 0.000000 3.787570 
# 
# 
# High freq. dielectric constant tensor:
#      x y z
#    x 1.817440 0.000000 0.001040 
#    y 0.000000 1.832230 0.000000 
#    z 0.001040 0.000000 1.824460 
# 
# From -- ./inp_files/120626.got.cif
#   From: 2010.06.25/outbox.cif.g09.slc.cpg/sg12_61_cif.got.tgz:120626.got - 2010.06.28 00:19:55.
